# generated using pymatgen
data_PrH12(C5O3)3
_symmetry_space_group_name_H-M   'P 1'
_cell_length_a   8.91930000
_cell_length_b   12.12680000
_cell_length_c   16.73410000
_cell_angle_alpha   90.00000000
_cell_angle_beta   90.00000000
_cell_angle_gamma   109.18400000
_symmetry_Int_Tables_number   1
_chemical_formula_structural   PrH12(C5O3)3
_chemical_formula_sum   'Pr4 H48 C60 O36'
_cell_volume   1709.49042609
_cell_formula_units_Z   4
loop_
 _symmetry_equiv_pos_site_id
 _symmetry_equiv_pos_as_xyz
  1  'x, y, z'
loop_
 _atom_site_type_symbol
 _atom_site_label
 _atom_site_symmetry_multiplicity
 _atom_site_fract_x
 _atom_site_fract_y
 _atom_site_fract_z
 _atom_site_occupancy
 _atom_site_charge
  Pr  Pr1  1  0.931680  0.951750  0.383290  1.0  2.2168
  Pr  Pr2  1  0.431680  0.951750  0.116710  1.0  2.2164
  Pr  Pr3  1  0.568320  0.048250  0.883290  1.0  2.2161
  Pr  Pr4  1  0.068320  0.048250  0.616710  1.0  2.216
  H  H5  1  0.318700  0.643300  0.101100  1.0  0.1022
  H  H6  1  0.902300  0.349100  0.692300  1.0  0.1189
  H  H7  1  0.412600  0.723000  0.321700  1.0  0.0944
  H  H8  1  0.818700  0.643300  0.398900  1.0  0.102
  H  H9  1  0.402300  0.349100  0.807700  1.0  0.1189
  H  H10  1  0.509700  0.664300  0.926900  1.0  0.1145
  H  H11  1  0.528900  0.717300  0.568800  1.0  0.0913
  H  H12  1  0.204400  0.504700  0.414500  1.0  0.1011
  H  H13  1  0.092500  0.526500  0.724300  1.0  0.1092
  H  H14  1  0.471100  0.282700  0.431200  1.0  0.092
  H  H15  1  0.028900  0.717300  0.931200  1.0  0.0911
  H  H16  1  0.826600  0.816100  0.166300  1.0  0.099
  H  H17  1  0.597700  0.650900  0.192300  1.0  0.1186
  H  H18  1  0.880900  0.364000  0.035200  1.0  0.0798
  H  H19  1  0.326600  0.816100  0.333700  1.0  0.0986
  H  H20  1  0.876200  0.859800  0.989400  1.0  0.1239
  H  H21  1  0.704400  0.504700  0.085500  1.0  0.1017
  H  H22  1  0.795600  0.495300  0.585500  1.0  0.1015
  H  H23  1  0.742400  0.794700  0.928900  1.0  0.0958
  H  H24  1  0.907500  0.473500  0.275700  1.0  0.109
  H  H25  1  0.087400  0.277000  0.821700  1.0  0.094
  H  H26  1  0.587400  0.277000  0.678300  1.0  0.0952
  H  H27  1  0.372600  0.532500  0.568300  1.0  0.1066
  H  H28  1  0.097700  0.650900  0.307700  1.0  0.1183
  H  H29  1  0.257600  0.205300  0.071100  1.0  0.0965
  H  H30  1  0.990300  0.335700  0.426900  1.0  0.1151
  H  H31  1  0.592500  0.526500  0.775700  1.0  0.1094
  H  H32  1  0.757600  0.205300  0.428900  1.0  0.0957
  H  H33  1  0.490300  0.335700  0.073100  1.0  0.116
  H  H34  1  0.123800  0.140200  0.010600  1.0  0.1244
  H  H35  1  0.242400  0.794700  0.571100  1.0  0.0957
  H  H36  1  0.872600  0.532500  0.931700  1.0  0.1063
  H  H37  1  0.912600  0.723000  0.178300  1.0  0.0945
  H  H38  1  0.119100  0.636000  0.964800  1.0  0.0806
  H  H39  1  0.407500  0.473500  0.224300  1.0  0.1085
  H  H40  1  0.623800  0.140200  0.489400  1.0  0.1238
  H  H41  1  0.376200  0.859800  0.510600  1.0  0.124
  H  H42  1  0.627400  0.467500  0.431700  1.0  0.1066
  H  H43  1  0.295600  0.495300  0.914500  1.0  0.1013
  H  H44  1  0.971100  0.282700  0.068800  1.0  0.0922
  H  H45  1  0.009700  0.664300  0.573100  1.0  0.1141
  H  H46  1  0.681300  0.356700  0.898900  1.0  0.1021
  H  H47  1  0.181300  0.356700  0.601100  1.0  0.1019
  H  H48  1  0.173400  0.183900  0.833700  1.0  0.0996
  H  H49  1  0.673400  0.183900  0.666300  1.0  0.0982
  H  H50  1  0.127400  0.467500  0.068300  1.0  0.1063
  H  H51  1  0.380900  0.364000  0.464800  1.0  0.0803
  H  H52  1  0.619100  0.636000  0.535200  1.0  0.0799
  C  C53  1  0.630400  0.601500  0.007180  1.0  0.2341
  C  C54  1  0.267900  0.801100  0.941050  1.0  0.7552
  C  C55  1  0.620300  0.504500  0.383830  1.0  -0.2328
  C  C56  1  0.269300  0.804900  0.514900  1.0  -0.0852
  C  C57  1  0.876300  0.304500  0.074690  1.0  -0.0562
  C  C58  1  0.656600  0.855700  0.026120  1.0  0.7321
  C  C59  1  0.396900  0.385600  0.759410  1.0  -0.2037
  C  C60  1  0.879700  0.495500  0.883830  1.0  -0.2357
  C  C61  1  0.276000  0.335600  0.706350  1.0  0.2689
  C  C62  1  0.120300  0.504500  0.116170  1.0  -0.2329
  C  C63  1  0.506400  0.598400  0.956230  1.0  -0.209
  C  C64  1  0.623700  0.695500  0.574690  1.0  -0.0573
  C  C65  1  0.776000  0.335600  0.793650  1.0  0.2692
  C  C66  1  0.369600  0.398500  0.992820  1.0  0.2282
  C  C67  1  0.989000  0.508500  0.239890  1.0  -0.1197
  C  C68  1  0.493600  0.401600  0.043770  1.0  -0.2102
  C  C69  1  0.011000  0.491500  0.760110  1.0  -0.1152
  C  C70  1  0.232100  0.198900  0.441050  1.0  0.7557
  C  C71  1  0.734600  0.609700  0.364200  1.0  -0.1629
  C  C72  1  0.900100  0.793600  0.200030  1.0  -0.0591
  C  C73  1  0.376300  0.304500  0.425310  1.0  -0.0549
  C  C74  1  0.006400  0.598400  0.543770  1.0  -0.2096
  C  C75  1  0.995700  0.454800  0.167950  1.0  0.2774
  C  C76  1  0.377900  0.497100  0.949170  1.0  -0.1799
  C  C77  1  0.877900  0.497100  0.550830  1.0  -0.1823
  C  C78  1  0.767900  0.801100  0.558950  1.0  0.754
  C  C79  1  0.379700  0.495500  0.616170  1.0  -0.2358
  C  C80  1  0.234600  0.609700  0.135800  1.0  -0.1594
  C  C81  1  0.896900  0.385600  0.740590  1.0  -0.2045
  C  C82  1  0.099900  0.206400  0.799970  1.0  -0.0594
  C  C83  1  0.230700  0.195100  0.014900  1.0  -0.0868
  C  C84  1  0.599900  0.206400  0.700030  1.0  -0.058
  C  C85  1  0.489000  0.508500  0.260110  1.0  -0.1159
  C  C86  1  0.603100  0.614400  0.240590  1.0  -0.2036
  C  C87  1  0.400100  0.793600  0.299970  1.0  -0.0606
  C  C88  1  0.993600  0.401600  0.456230  1.0  -0.2095
  C  C89  1  0.265400  0.390300  0.635800  1.0  -0.1591
  C  C90  1  0.103100  0.614400  0.259410  1.0  -0.2041
  C  C91  1  0.343400  0.144300  0.973880  1.0  0.7324
  C  C92  1  0.224000  0.664400  0.206350  1.0  0.2695
  C  C93  1  0.843400  0.144300  0.526120  1.0  0.7339
  C  C94  1  0.511000  0.491500  0.739890  1.0  -0.117
  C  C95  1  0.732100  0.198900  0.058950  1.0  0.7557
  C  C96  1  0.130400  0.601500  0.492820  1.0  0.2338
  C  C97  1  0.156600  0.855700  0.473880  1.0  0.7316
  C  C98  1  0.057800  0.889600  0.201850  1.0  0.7465
  C  C99  1  0.730700  0.195100  0.485100  1.0  -0.087
  C  C100  1  0.504300  0.545200  0.667950  1.0  0.2824
  C  C101  1  0.622100  0.502900  0.050830  1.0  -0.1808
  C  C102  1  0.869600  0.398500  0.507180  1.0  0.2287
  C  C103  1  0.122100  0.502900  0.449170  1.0  -0.1807
  C  C104  1  0.557800  0.889600  0.298150  1.0  0.7463
  C  C105  1  0.123700  0.695500  0.925310  1.0  -0.0543
  C  C106  1  0.769300  0.804900  0.985100  1.0  -0.0854
  C  C107  1  0.442200  0.110400  0.701850  1.0  0.7457
  C  C108  1  0.765400  0.390300  0.864200  1.0  -0.1622
  C  C109  1  0.942200  0.110400  0.798150  1.0  0.7458
  C  C110  1  0.724000  0.664400  0.293650  1.0  0.2694
  C  C111  1  0.495700  0.454800  0.332050  1.0  0.2752
  C  C112  1  0.004300  0.545200  0.832050  1.0  0.2825
  O  O113  1  0.096700  0.817970  0.408350  1.0  -0.6276
  O  O114  1  0.799200  0.817560  0.486380  1.0  -0.6824
  O  O115  1  0.631400  0.941560  0.992690  1.0  -0.837
  O  O116  1  0.908700  0.046270  0.737180  1.0  -0.7211
  O  O117  1  0.839300  0.772920  0.279980  1.0  -0.3622
  O  O118  1  0.299200  0.817560  0.013620  1.0  -0.6818
  O  O119  1  0.160000  0.136560  0.384170  1.0  -0.7038
  O  O120  1  0.903300  0.182030  0.591650  1.0  -0.6268
  O  O121  1  0.660000  0.136560  0.115830  1.0  -0.7036
  O  O122  1  0.766400  0.695980  0.017490  1.0  -0.2492
  O  O123  1  0.374500  0.351390  0.347770  1.0  -0.2673
  O  O124  1  0.339300  0.772920  0.220020  1.0  -0.362
  O  O125  1  0.340000  0.863440  0.884170  1.0  -0.703
  O  O126  1  0.403300  0.182030  0.908350  1.0  -0.6275
  O  O127  1  0.091300  0.953730  0.262820  1.0  -0.723
  O  O128  1  0.368600  0.058440  0.007310  1.0  -0.8369
  O  O129  1  0.625500  0.648610  0.652230  1.0  -0.2675
  O  O130  1  0.131400  0.941560  0.507310  1.0  -0.8384
  O  O131  1  0.660700  0.227080  0.779980  1.0  -0.3654
  O  O132  1  0.356000  0.099900  0.642270  1.0  -0.7089
  O  O133  1  0.856000  0.099900  0.857730  1.0  -0.7058
  O  O134  1  0.868600  0.058440  0.492690  1.0  -0.8368
  O  O135  1  0.596700  0.817970  0.091650  1.0  -0.6275
  O  O136  1  0.233600  0.304020  0.982510  1.0  -0.2493
  O  O137  1  0.125500  0.648610  0.847770  1.0  -0.2669
  O  O138  1  0.840000  0.863440  0.615830  1.0  -0.7035
  O  O139  1  0.266400  0.695980  0.482510  1.0  -0.249
  O  O140  1  0.200800  0.182440  0.513620  1.0  -0.6782
  O  O141  1  0.733600  0.304020  0.517490  1.0  -0.2486
  O  O142  1  0.644000  0.900100  0.357730  1.0  -0.711
  O  O143  1  0.700800  0.182440  0.986380  1.0  -0.677
  O  O144  1  0.874500  0.351390  0.152230  1.0  -0.2687
  O  O145  1  0.144000  0.900100  0.142270  1.0  -0.7104
  O  O146  1  0.591300  0.953730  0.237180  1.0  -0.7232
  O  O147  1  0.408700  0.046270  0.762820  1.0  -0.7226
  O  O148  1  0.160700  0.227080  0.720020  1.0  -0.3653
