# generated using pymatgen
data_NiH20WC24(N2O)2
_symmetry_space_group_name_H-M   'P 1'
_cell_length_a   13.59770000
_cell_length_b   13.59770000
_cell_length_c   13.59770000
_cell_angle_alpha   101.96500000
_cell_angle_beta   101.96500000
_cell_angle_gamma   101.96500000
_symmetry_Int_Tables_number   1
_chemical_formula_structural   NiH20WC24(N2O)2
_chemical_formula_sum   'Ni3 H60 W3 C72 N12 O6'
_cell_volume   2322.37593880
_cell_formula_units_Z   3
loop_
 _symmetry_equiv_pos_site_id
 _symmetry_equiv_pos_as_xyz
  1  'x, y, z'
loop_
 _atom_site_type_symbol
 _atom_site_label
 _atom_site_symmetry_multiplicity
 _atom_site_fract_x
 _atom_site_fract_y
 _atom_site_fract_z
 _atom_site_occupancy
 _atom_site_charge
  Ni  Ni1  1  0.618050  0.381950  0.000000  1.0  0.6345
  Ni  Ni2  1  0.000000  0.618050  0.381950  1.0  0.6353
  Ni  Ni3  1  0.381950  0.000000  0.618050  1.0  0.6347
  H  H4  1  0.825300  0.379500  0.129000  1.0  0.0774
  H  H5  1  0.908500  0.365700  0.817500  1.0  0.1241
  H  H6  1  0.245700  0.394500  0.881700  1.0  0.1207
  H  H7  1  0.416100  0.406300  0.879500  1.0  0.0616
  H  H8  1  0.475900  0.331700  0.144500  1.0  0.0571
  H  H9  1  0.986200  0.359000  0.117600  1.0  0.1085
  H  H10  1  0.085100  0.360300  0.889600  1.0  0.096
  H  H11  1  0.136400  0.348100  0.092900  1.0  0.0942
  H  H12  1  0.307400  0.317700  0.154200  1.0  0.1206
  H  H13  1  0.748000  0.382500  0.836700  1.0  0.0486
  H  H14  1  0.129000  0.825300  0.379500  1.0  0.0777
  H  H15  1  0.817500  0.908500  0.365700  1.0  0.1229
  H  H16  1  0.881700  0.245700  0.394500  1.0  0.1197
  H  H17  1  0.879500  0.416100  0.406300  1.0  0.0613
  H  H18  1  0.144500  0.475900  0.331700  1.0  0.0586
  H  H19  1  0.117600  0.986200  0.359000  1.0  0.1082
  H  H20  1  0.889600  0.085100  0.360300  1.0  0.0973
  H  H21  1  0.092900  0.136400  0.348100  1.0  0.0927
  H  H22  1  0.154200  0.307400  0.317700  1.0  0.1217
  H  H23  1  0.836700  0.748000  0.382500  1.0  0.049
  H  H24  1  0.379500  0.129000  0.825300  1.0  0.0774
  H  H25  1  0.365700  0.817500  0.908500  1.0  0.1232
  H  H26  1  0.394500  0.881700  0.245700  1.0  0.1197
  H  H27  1  0.406300  0.879500  0.416100  1.0  0.0605
  H  H28  1  0.331700  0.144500  0.475900  1.0  0.0577
  H  H29  1  0.359000  0.117600  0.986200  1.0  0.1076
  H  H30  1  0.360300  0.889600  0.085100  1.0  0.0963
  H  H31  1  0.348100  0.092900  0.136400  1.0  0.0938
  H  H32  1  0.317700  0.154200  0.307400  1.0  0.1209
  H  H33  1  0.382500  0.836700  0.748000  1.0  0.0491
  H  H34  1  0.620500  0.174700  0.871000  1.0  0.078
  H  H35  1  0.634300  0.091500  0.182500  1.0  0.1234
  H  H36  1  0.605500  0.754300  0.118300  1.0  0.1204
  H  H37  1  0.593700  0.583900  0.120500  1.0  0.0615
  H  H38  1  0.668300  0.524100  0.855500  1.0  0.058
  H  H39  1  0.641000  0.013800  0.882400  1.0  0.1075
  H  H40  1  0.639700  0.914900  0.110400  1.0  0.0962
  H  H41  1  0.651900  0.863600  0.907100  1.0  0.0942
  H  H42  1  0.682300  0.692600  0.845800  1.0  0.1201
  H  H43  1  0.617500  0.252000  0.163300  1.0  0.0486
  H  H44  1  0.174700  0.871000  0.620500  1.0  0.0768
  H  H45  1  0.091500  0.182500  0.634300  1.0  0.1235
  H  H46  1  0.754300  0.118300  0.605500  1.0  0.121
  H  H47  1  0.583900  0.120500  0.593700  1.0  0.062
  H  H48  1  0.524100  0.855500  0.668300  1.0  0.0587
  H  H49  1  0.013800  0.882400  0.641000  1.0  0.1087
  H  H50  1  0.914900  0.110400  0.639700  1.0  0.0961
  H  H51  1  0.863600  0.907100  0.651900  1.0  0.0932
  H  H52  1  0.692600  0.845800  0.682300  1.0  0.1215
  H  H53  1  0.252000  0.163300  0.617500  1.0  0.0484
  H  H54  1  0.871000  0.620500  0.174700  1.0  0.0769
  H  H55  1  0.182500  0.634300  0.091500  1.0  0.123
  H  H56  1  0.118300  0.605500  0.754300  1.0  0.1194
  H  H57  1  0.120500  0.593700  0.583900  1.0  0.0607
  H  H58  1  0.855500  0.668300  0.524100  1.0  0.0564
  H  H59  1  0.882400  0.641000  0.013800  1.0  0.1084
  H  H60  1  0.110400  0.639700  0.914900  1.0  0.0962
  H  H61  1  0.907100  0.651900  0.863600  1.0  0.0925
  H  H62  1  0.845800  0.682300  0.692600  1.0  0.121
  H  H63  1  0.163300  0.617500  0.252000  1.0  0.0498
  W  W64  1  0.500000  0.292850  0.707150  1.0  0.4669
  W  W65  1  0.707150  0.500000  0.292850  1.0  0.4649
  W  W66  1  0.292850  0.707150  0.500000  1.0  0.4688
  C  C67  1  0.842380  0.376520  0.065100  1.0  0.1463
  C  C68  1  0.893630  0.368870  0.882300  1.0  -0.2283
  C  C69  1  0.291600  0.382100  0.937000  1.0  -0.2282
  C  C70  1  0.968430  0.363650  0.966740  1.0  0.1213
  C  C71  1  0.393700  0.388300  0.935800  1.0  0.1476
  C  C72  1  0.428800  0.344700  0.090700  1.0  0.1343
  C  C73  1  0.256500  0.357300  0.019100  1.0  0.1275
  C  C74  1  0.939510  0.365350  0.059180  1.0  -0.2021
  C  C75  1  0.072600  0.359400  0.954900  1.0  -0.1406
  C  C76  1  0.150200  0.354200  0.029200  1.0  -0.1507
  C  C77  1  0.328100  0.336900  0.097500  1.0  -0.2218
  C  C78  1  0.797330  0.378820  0.894520  1.0  0.1515
  C  C79  1  0.065100  0.842380  0.376520  1.0  0.1488
  C  C80  1  0.882300  0.893630  0.368870  1.0  -0.2305
  C  C81  1  0.937000  0.291600  0.382100  1.0  -0.2271
  C  C82  1  0.966740  0.968430  0.363650  1.0  0.1196
  C  C83  1  0.935800  0.393700  0.388300  1.0  0.1479
  C  C84  1  0.090700  0.428800  0.344700  1.0  0.1361
  C  C85  1  0.019100  0.256500  0.357300  1.0  0.1253
  C  C86  1  0.059180  0.939510  0.365350  1.0  -0.2019
  C  C87  1  0.954900  0.072600  0.359400  1.0  -0.1437
  C  C88  1  0.029200  0.150200  0.354200  1.0  -0.1515
  C  C89  1  0.097500  0.328100  0.336900  1.0  -0.2221
  C  C90  1  0.894520  0.797330  0.378820  1.0  0.1506
  C  C91  1  0.376520  0.065100  0.842380  1.0  0.1491
  C  C92  1  0.368870  0.882300  0.893630  1.0  -0.229
  C  C93  1  0.382100  0.937000  0.291600  1.0  -0.2295
  C  C94  1  0.363650  0.966740  0.968430  1.0  0.1214
  C  C95  1  0.388300  0.935800  0.393700  1.0  0.1498
  C  C96  1  0.344700  0.090700  0.428800  1.0  0.1367
  C  C97  1  0.357300  0.019100  0.256500  1.0  0.128
  C  C98  1  0.365350  0.059180  0.939510  1.0  -0.201
  C  C99  1  0.359400  0.954900  0.072600  1.0  -0.1436
  C  C100  1  0.354200  0.029200  0.150200  1.0  -0.153
  C  C101  1  0.336900  0.097500  0.328100  1.0  -0.2202
  C  C102  1  0.378820  0.894520  0.797330  1.0  0.1506
  C  C103  1  0.623480  0.157620  0.934900  1.0  0.1469
  C  C104  1  0.631130  0.106370  0.117700  1.0  -0.2277
  C  C105  1  0.617900  0.708400  0.063000  1.0  -0.2281
  C  C106  1  0.636350  0.031570  0.033260  1.0  0.1216
  C  C107  1  0.611700  0.606300  0.064200  1.0  0.1481
  C  C108  1  0.655300  0.571200  0.909300  1.0  0.1354
  C  C109  1  0.642700  0.743500  0.980900  1.0  0.1269
  C  C110  1  0.634650  0.060490  0.940820  1.0  -0.2011
  C  C111  1  0.640600  0.927400  0.045100  1.0  -0.1407
  C  C112  1  0.645800  0.849800  0.970800  1.0  -0.1515
  C  C113  1  0.663100  0.671900  0.902500  1.0  -0.2219
  C  C114  1  0.621180  0.202670  0.105480  1.0  0.1487
  C  C115  1  0.157620  0.934900  0.623480  1.0  0.1504
  C  C116  1  0.106370  0.117700  0.631130  1.0  -0.2299
  C  C117  1  0.708400  0.063000  0.617900  1.0  -0.2281
  C  C118  1  0.031570  0.033260  0.636350  1.0  0.1219
  C  C119  1  0.606300  0.064200  0.611700  1.0  0.1468
  C  C120  1  0.571200  0.909300  0.655300  1.0  0.1339
  C  C121  1  0.743500  0.980900  0.642700  1.0  0.1263
  C  C122  1  0.060490  0.940820  0.634650  1.0  -0.2014
  C  C123  1  0.927400  0.045100  0.640600  1.0  -0.1455
  C  C124  1  0.849800  0.970800  0.645800  1.0  -0.1523
  C  C125  1  0.671900  0.902500  0.663100  1.0  -0.2225
  C  C126  1  0.202670  0.105480  0.621180  1.0  0.149
  C  C127  1  0.934900  0.623480  0.157620  1.0  0.1508
  C  C128  1  0.117700  0.631130  0.106370  1.0  -0.2304
  C  C129  1  0.063000  0.617900  0.708400  1.0  -0.2269
  C  C130  1  0.033260  0.636350  0.031570  1.0  0.1226
  C  C131  1  0.064200  0.611700  0.606300  1.0  0.1512
  C  C132  1  0.909300  0.655300  0.571200  1.0  0.136
  C  C133  1  0.980900  0.642700  0.743500  1.0  0.1267
  C  C134  1  0.940820  0.634650  0.060490  1.0  -0.2013
  C  C135  1  0.045100  0.640600  0.927400  1.0  -0.1418
  C  C136  1  0.970800  0.645800  0.849800  1.0  -0.1506
  C  C137  1  0.902500  0.663100  0.671900  1.0  -0.2221
  C  C138  1  0.105480  0.621180  0.202670  1.0  0.1514
  N  N139  1  0.771060  0.383340  0.984310  1.0  -0.3194
  N  N140  1  0.463380  0.370040  0.011400  1.0  -0.3041
  N  N141  1  0.984310  0.771060  0.383340  1.0  -0.3183
  N  N142  1  0.011400  0.463380  0.370040  1.0  -0.3065
  N  N143  1  0.383340  0.984310  0.771060  1.0  -0.3181
  N  N144  1  0.370040  0.011400  0.463380  1.0  -0.306
  N  N145  1  0.616660  0.228940  0.015690  1.0  -0.3177
  N  N146  1  0.629960  0.536620  0.988600  1.0  -0.3068
  N  N147  1  0.228940  0.015690  0.616660  1.0  -0.3207
  N  N148  1  0.536620  0.988600  0.629960  1.0  -0.304
  N  N149  1  0.015690  0.616660  0.228940  1.0  -0.3175
  N  N150  1  0.988600  0.629960  0.536620  1.0  -0.3055
  O  O151  1  0.562740  0.330530  0.842290  1.0  -0.4917
  O  O152  1  0.842290  0.562740  0.330530  1.0  -0.4892
  O  O153  1  0.330530  0.842290  0.562740  1.0  -0.4925
  O  O154  1  0.669470  0.437260  0.157710  1.0  -0.4921
  O  O155  1  0.437260  0.157710  0.669470  1.0  -0.4887
  O  O156  1  0.157710  0.669470  0.437260  1.0  -0.4903
