# generated using pymatgen
data_CoH20WC24(N2O)2
_symmetry_space_group_name_H-M   'P 1'
_cell_length_a   13.68720000
_cell_length_b   13.68720000
_cell_length_c   13.68720000
_cell_angle_alpha   102.29000000
_cell_angle_beta   102.29000000
_cell_angle_gamma   102.29000000
_symmetry_Int_Tables_number   1
_chemical_formula_structural   CoH20WC24(N2O)2
_chemical_formula_sum   'Co3 H60 W3 C72 N12 O6'
_cell_volume   2356.76573978
_cell_formula_units_Z   3
loop_
 _symmetry_equiv_pos_site_id
 _symmetry_equiv_pos_as_xyz
  1  'x, y, z'
loop_
 _atom_site_type_symbol
 _atom_site_label
 _atom_site_symmetry_multiplicity
 _atom_site_fract_x
 _atom_site_fract_y
 _atom_site_fract_z
 _atom_site_occupancy
 _atom_site_charge
  Co  Co1  1  0.883310  0.116690  0.500000  1.0  0.6409
  Co  Co2  1  0.500000  0.883310  0.116690  1.0  0.6428
  Co  Co3  1  0.116690  0.500000  0.883310  1.0  0.6409
  H  H4  1  0.866200  0.408200  0.316900  1.0  0.1275
  H  H5  1  0.879000  0.325300  0.627300  1.0  0.0717
  H  H6  1  0.900700  0.910800  0.377400  1.0  0.067
  H  H7  1  0.823700  0.806200  0.654700  1.0  0.1161
  H  H8  1  0.858500  0.485200  0.615700  1.0  0.1056
  H  H9  1  0.856200  0.582100  0.387900  1.0  0.0935
  H  H10  1  0.837600  0.974500  0.644400  1.0  0.0553
  H  H11  1  0.888600  0.740800  0.379200  1.0  0.1198
  H  H12  1  0.883900  0.248800  0.336800  1.0  0.0488
  H  H13  1  0.850500  0.634800  0.590800  1.0  0.0877
  H  H14  1  0.316900  0.866200  0.408200  1.0  0.1261
  H  H15  1  0.627300  0.879000  0.325300  1.0  0.0718
  H  H16  1  0.377400  0.900700  0.910800  1.0  0.0658
  H  H17  1  0.654700  0.823700  0.806200  1.0  0.1168
  H  H18  1  0.615700  0.858500  0.485200  1.0  0.1069
  H  H19  1  0.387900  0.856200  0.582100  1.0  0.0941
  H  H20  1  0.644400  0.837600  0.974500  1.0  0.0555
  H  H21  1  0.379200  0.888600  0.740800  1.0  0.1187
  H  H22  1  0.336800  0.883900  0.248800  1.0  0.0488
  H  H23  1  0.590800  0.850500  0.634800  1.0  0.0867
  H  H24  1  0.408200  0.316900  0.866200  1.0  0.1271
  H  H25  1  0.325300  0.627300  0.879000  1.0  0.0718
  H  H26  1  0.910800  0.377400  0.900700  1.0  0.0671
  H  H27  1  0.806200  0.654700  0.823700  1.0  0.1167
  H  H28  1  0.485200  0.615700  0.858500  1.0  0.1065
  H  H29  1  0.582100  0.387900  0.856200  1.0  0.0928
  H  H30  1  0.974500  0.644400  0.837600  1.0  0.055
  H  H31  1  0.740800  0.379200  0.888600  1.0  0.1208
  H  H32  1  0.248800  0.336800  0.883900  1.0  0.0487
  H  H33  1  0.634800  0.590800  0.850500  1.0  0.0875
  H  H34  1  0.591800  0.133800  0.683100  1.0  0.1262
  H  H35  1  0.674700  0.121000  0.372700  1.0  0.0728
  H  H36  1  0.089200  0.099300  0.622600  1.0  0.0668
  H  H37  1  0.193800  0.176300  0.345300  1.0  0.1152
  H  H38  1  0.514800  0.141500  0.384300  1.0  0.1067
  H  H39  1  0.417900  0.143800  0.612100  1.0  0.0926
  H  H40  1  0.025500  0.162400  0.355600  1.0  0.0547
  H  H41  1  0.259200  0.111400  0.620800  1.0  0.1204
  H  H42  1  0.751200  0.116100  0.663200  1.0  0.0477
  H  H43  1  0.365200  0.149500  0.409200  1.0  0.0878
  H  H44  1  0.133800  0.683100  0.591800  1.0  0.1269
  H  H45  1  0.121000  0.372700  0.674700  1.0  0.0716
  H  H46  1  0.099300  0.622600  0.089200  1.0  0.065
  H  H47  1  0.176300  0.345300  0.193800  1.0  0.1156
  H  H48  1  0.141500  0.384300  0.514800  1.0  0.1061
  H  H49  1  0.143800  0.612100  0.417900  1.0  0.0935
  H  H50  1  0.162400  0.355600  0.025500  1.0  0.055
  H  H51  1  0.111400  0.620800  0.259200  1.0  0.1195
  H  H52  1  0.116100  0.663200  0.751200  1.0  0.0478
  H  H53  1  0.149500  0.409200  0.365200  1.0  0.087
  H  H54  1  0.683100  0.591800  0.133800  1.0  0.1265
  H  H55  1  0.372700  0.674700  0.121000  1.0  0.0714
  H  H56  1  0.622600  0.089200  0.099300  1.0  0.0649
  H  H57  1  0.345300  0.193800  0.176300  1.0  0.1179
  H  H58  1  0.384300  0.514800  0.141500  1.0  0.107
  H  H59  1  0.612100  0.417900  0.143800  1.0  0.0928
  H  H60  1  0.355600  0.025500  0.162400  1.0  0.0555
  H  H61  1  0.620800  0.259200  0.111400  1.0  0.1185
  H  H62  1  0.663200  0.751200  0.116100  1.0  0.0486
  H  H63  1  0.409200  0.365200  0.149500  1.0  0.0863
  W  W64  1  0.000000  0.206640  0.793360  1.0  0.4423
  W  W65  1  0.793360  0.000000  0.206640  1.0  0.4412
  W  W66  1  0.206640  0.793360  0.000000  1.0  0.4496
  C  C67  1  0.869000  0.393500  0.381300  1.0  -0.2101
  C  C68  1  0.876300  0.342200  0.563900  1.0  0.1663
  C  C69  1  0.857300  0.753700  0.518500  1.0  0.1496
  C  C70  1  0.885400  0.889400  0.434500  1.0  0.1621
  C  C71  1  0.840400  0.825700  0.597200  1.0  -0.2173
  C  C72  1  0.864800  0.438600  0.557600  1.0  -0.2012
  C  C73  1  0.862500  0.466900  0.465300  1.0  0.1067
  C  C74  1  0.857500  0.570700  0.453500  1.0  -0.1381
  C  C75  1  0.848500  0.926500  0.590300  1.0  0.1455
  C  C76  1  0.878600  0.787200  0.435200  1.0  -0.2287
  C  C77  1  0.879500  0.297900  0.394100  1.0  0.1601
  C  C78  1  0.854600  0.648000  0.527000  1.0  -0.1522
  C  C79  1  0.381300  0.869000  0.393500  1.0  -0.2128
  C  C80  1  0.563900  0.876300  0.342200  1.0  0.1672
  C  C81  1  0.518500  0.857300  0.753700  1.0  0.1487
  C  C82  1  0.434500  0.885400  0.889400  1.0  0.1654
  C  C83  1  0.597200  0.840400  0.825700  1.0  -0.2171
  C  C84  1  0.557600  0.864800  0.438600  1.0  -0.2031
  C  C85  1  0.465300  0.862500  0.466900  1.0  0.107
  C  C86  1  0.453500  0.857500  0.570700  1.0  -0.139
  C  C87  1  0.590300  0.848500  0.926500  1.0  0.1465
  C  C88  1  0.435200  0.878600  0.787200  1.0  -0.2261
  C  C89  1  0.394100  0.879500  0.297900  1.0  0.1624
  C  C90  1  0.527000  0.854600  0.648000  1.0  -0.153
  C  C91  1  0.393500  0.381300  0.869000  1.0  -0.2163
  C  C92  1  0.342200  0.563900  0.876300  1.0  0.1684
  C  C93  1  0.753700  0.518500  0.857300  1.0  0.1505
  C  C94  1  0.889400  0.434500  0.885400  1.0  0.1604
  C  C95  1  0.825700  0.597200  0.840400  1.0  -0.218
  C  C96  1  0.438600  0.557600  0.864800  1.0  -0.1992
  C  C97  1  0.466900  0.465300  0.862500  1.0  0.103
  C  C98  1  0.570700  0.453500  0.857500  1.0  -0.1408
  C  C99  1  0.926500  0.590300  0.848500  1.0  0.1435
  C  C100  1  0.787200  0.435200  0.878600  1.0  -0.2296
  C  C101  1  0.297900  0.394100  0.879500  1.0  0.1603
  C  C102  1  0.648000  0.527000  0.854600  1.0  -0.1532
  C  C103  1  0.606500  0.131000  0.618700  1.0  -0.2115
  C  C104  1  0.657800  0.123700  0.436100  1.0  0.1664
  C  C105  1  0.246300  0.142700  0.481500  1.0  0.1503
  C  C106  1  0.110600  0.114600  0.565500  1.0  0.161
  C  C107  1  0.174300  0.159600  0.402800  1.0  -0.2177
  C  C108  1  0.561400  0.135200  0.442400  1.0  -0.202
  C  C109  1  0.533100  0.137500  0.534700  1.0  0.1087
  C  C110  1  0.429300  0.142500  0.546500  1.0  -0.1368
  C  C111  1  0.073500  0.151500  0.409700  1.0  0.1438
  C  C112  1  0.212800  0.121400  0.564800  1.0  -0.2286
  C  C113  1  0.702100  0.120500  0.605900  1.0  0.1617
  C  C114  1  0.352000  0.145400  0.473000  1.0  -0.1525
  C  C115  1  0.131000  0.618700  0.606500  1.0  -0.2175
  C  C116  1  0.123700  0.436100  0.657800  1.0  0.1664
  C  C117  1  0.142700  0.481500  0.246300  1.0  0.1501
  C  C118  1  0.114600  0.565500  0.110600  1.0  0.1631
  C  C119  1  0.159600  0.402800  0.174300  1.0  -0.2178
  C  C120  1  0.135200  0.442400  0.561400  1.0  -0.1999
  C  C121  1  0.137500  0.534700  0.533100  1.0  0.107
  C  C122  1  0.142500  0.546500  0.429300  1.0  -0.1406
  C  C123  1  0.151500  0.409700  0.073500  1.0  0.1448
  C  C124  1  0.121400  0.564800  0.212800  1.0  -0.2304
  C  C125  1  0.120500  0.605900  0.702100  1.0  0.1601
  C  C126  1  0.145400  0.473000  0.352000  1.0  -0.1536
  C  C127  1  0.618700  0.606500  0.131000  1.0  -0.2105
  C  C128  1  0.436100  0.657800  0.123700  1.0  0.1681
  C  C129  1  0.481500  0.246300  0.142700  1.0  0.1475
  C  C130  1  0.565500  0.110600  0.114600  1.0  0.1616
  C  C131  1  0.402800  0.174300  0.159600  1.0  -0.2184
  C  C132  1  0.442400  0.561400  0.135200  1.0  -0.2017
  C  C133  1  0.534700  0.533100  0.137500  1.0  0.1069
  C  C134  1  0.546500  0.429300  0.142500  1.0  -0.1406
  C  C135  1  0.409700  0.073500  0.151500  1.0  0.1446
  C  C136  1  0.564800  0.212800  0.121400  1.0  -0.227
  C  C137  1  0.605900  0.702100  0.120500  1.0  0.1618
  C  C138  1  0.473000  0.352000  0.145400  1.0  -0.1521
  N  N139  1  0.883800  0.271600  0.483300  1.0  -0.3278
  N  N140  1  0.871100  0.958400  0.510900  1.0  -0.3149
  N  N141  1  0.483300  0.883800  0.271600  1.0  -0.3274
  N  N142  1  0.510900  0.871100  0.958400  1.0  -0.3139
  N  N143  1  0.271600  0.483300  0.883800  1.0  -0.3275
  N  N144  1  0.958400  0.510900  0.871100  1.0  -0.3104
  N  N145  1  0.728400  0.116200  0.516700  1.0  -0.3286
  N  N146  1  0.041600  0.128900  0.489100  1.0  -0.3128
  N  N147  1  0.116200  0.516700  0.728400  1.0  -0.3304
  N  N148  1  0.128900  0.489100  0.041600  1.0  -0.313
  N  N149  1  0.516700  0.728400  0.116200  1.0  -0.3279
  N  N150  1  0.489100  0.041600  0.128900  1.0  -0.3136
  O  O151  1  0.938190  0.168280  0.657600  1.0  -0.532
  O  O152  1  0.657600  0.938190  0.168280  1.0  -0.5313
  O  O153  1  0.168280  0.657600  0.938190  1.0  -0.5312
  O  O154  1  0.831720  0.061810  0.342400  1.0  -0.5352
  O  O155  1  0.061810  0.342400  0.831720  1.0  -0.5313
  O  O156  1  0.342400  0.831720  0.061810  1.0  -0.5277
