# generated using pymatgen
data_Cu2H3C8SO8
_symmetry_space_group_name_H-M   'P 1'
_cell_length_a   7.33330000
_cell_length_b   10.17290000
_cell_length_c   18.15300000
_cell_angle_alpha   90.00000000
_cell_angle_beta   90.00000000
_cell_angle_gamma   94.37900000
_symmetry_Int_Tables_number   1
_chemical_formula_structural   Cu2H3C8SO8
_chemical_formula_sum   'Cu8 H12 C32 S4 O32'
_cell_volume   1350.27737385
_cell_formula_units_Z   4
loop_
 _symmetry_equiv_pos_site_id
 _symmetry_equiv_pos_as_xyz
  1  'x, y, z'
loop_
 _atom_site_type_symbol
 _atom_site_label
 _atom_site_symmetry_multiplicity
 _atom_site_fract_x
 _atom_site_fract_y
 _atom_site_fract_z
 _atom_site_occupancy
 _atom_site_charge
  Cu  Cu1  1  0.867200  0.218600  0.905700  1.0  1.0302
  Cu  Cu2  1  0.045100  0.932600  0.931800  1.0  1.1181
  Cu  Cu3  1  0.632800  0.281400  0.405700  1.0  1.03
  Cu  Cu4  1  0.454900  0.567400  0.431800  1.0  1.1184
  Cu  Cu5  1  0.132800  0.781400  0.094300  1.0  1.0308
  Cu  Cu6  1  0.954900  0.067400  0.068200  1.0  1.1184
  Cu  Cu7  1  0.367200  0.718600  0.594300  1.0  1.0305
  Cu  Cu8  1  0.545100  0.432600  0.568200  1.0  1.1182
  H  H9  1  0.770800  0.163800  0.692200  1.0  0.1072
  H  H10  1  0.938500  0.799900  0.708500  1.0  0.122
  H  H11  1  0.786900  0.947200  0.512800  1.0  0.1163
  H  H12  1  0.729200  0.336200  0.192200  1.0  0.1062
  H  H13  1  0.561500  0.700100  0.208500  1.0  0.1218
  H  H14  1  0.713100  0.552800  0.012800  1.0  0.1158
  H  H15  1  0.229200  0.836200  0.307800  1.0  0.1063
  H  H16  1  0.061500  0.200100  0.291500  1.0  0.1219
  H  H17  1  0.213100  0.052800  0.487200  1.0  0.1154
  H  H18  1  0.270800  0.663800  0.807800  1.0  0.1072
  H  H19  1  0.438500  0.299900  0.791500  1.0  0.122
  H  H20  1  0.286900  0.447200  0.987200  1.0  0.1158
  C  C21  1  0.866000  0.853000  0.604200  1.0  -0.2712
  C  C22  1  0.773000  0.070000  0.597600  1.0  -0.1343
  C  C23  1  0.799000  0.086000  0.670000  1.0  0.0368
  C  C24  1  0.867000  0.990000  0.712000  1.0  -0.1464
  C  C25  1  0.908000  0.001000  0.795100  1.0  0.7335
  C  C26  1  0.898000  0.868000  0.680300  1.0  0.0132
  C  C27  1  0.805000  0.956000  0.563300  1.0  0.0396
  C  C28  1  0.698000  0.183000  0.555700  1.0  0.7149
  C  C29  1  0.634000  0.647000  0.104200  1.0  -0.271
  C  C30  1  0.727000  0.430000  0.097600  1.0  -0.1336
  C  C31  1  0.701000  0.414000  0.170000  1.0  0.0372
  C  C32  1  0.633000  0.510000  0.212000  1.0  -0.1463
  C  C33  1  0.592000  0.499000  0.295100  1.0  0.7341
  C  C34  1  0.602000  0.632000  0.180300  1.0  0.0127
  C  C35  1  0.695000  0.544000  0.063300  1.0  0.04
  C  C36  1  0.802000  0.317000  0.055700  1.0  0.7142
  C  C37  1  0.134000  0.147000  0.395800  1.0  -0.2703
  C  C38  1  0.227000  0.930000  0.402400  1.0  -0.133
  C  C39  1  0.201000  0.914000  0.330000  1.0  0.0376
  C  C40  1  0.133000  0.010000  0.288000  1.0  -0.1452
  C  C41  1  0.092000  0.999000  0.204900  1.0  0.7336
  C  C42  1  0.102000  0.132000  0.319700  1.0  0.0121
  C  C43  1  0.195000  0.044000  0.436700  1.0  0.0399
  C  C44  1  0.302000  0.817000  0.444300  1.0  0.7142
  C  C45  1  0.366000  0.353000  0.895800  1.0  -0.2708
  C  C46  1  0.273000  0.570000  0.902400  1.0  -0.1339
  C  C47  1  0.299000  0.586000  0.830000  1.0  0.037
  C  C48  1  0.367000  0.490000  0.788000  1.0  -0.1452
  C  C49  1  0.408000  0.501000  0.704900  1.0  0.7328
  C  C50  1  0.398000  0.368000  0.819700  1.0  0.012
  C  C51  1  0.305000  0.456000  0.936700  1.0  0.0397
  C  C52  1  0.198000  0.683000  0.944300  1.0  0.7147
  S  S53  1  0.883100  0.690900  0.566000  1.0  1.3666
  S  S54  1  0.616900  0.809100  0.066000  1.0  1.3668
  S  S55  1  0.116900  0.309100  0.434000  1.0  1.3668
  S  S56  1  0.383100  0.190900  0.934000  1.0  1.3666
  O  O57  1  0.952000  0.914500  0.833600  1.0  -0.4989
  O  O58  1  0.866000  0.054500  0.965500  1.0  -0.6735
  O  O59  1  0.662000  0.161600  0.488900  1.0  -0.6218
  O  O60  1  0.886000  0.122100  0.814700  1.0  -0.6056
  O  O61  1  0.876000  0.700500  0.487600  1.0  -0.582
  O  O62  1  0.687000  0.289700  0.588800  1.0  -0.5215
  O  O63  1  0.724000  0.609800  0.595100  1.0  -0.7375
  O  O64  1  0.050000  0.642500  0.595500  1.0  -0.6042
  O  O65  1  0.548000  0.585500  0.333600  1.0  -0.4994
  O  O66  1  0.634000  0.445500  0.465500  1.0  -0.6736
  O  O67  1  0.838000  0.338400  0.988900  1.0  -0.6211
  O  O68  1  0.614000  0.377900  0.314700  1.0  -0.6051
  O  O69  1  0.624000  0.799500  0.987600  1.0  -0.5815
  O  O70  1  0.813000  0.210300  0.088800  1.0  -0.524
  O  O71  1  0.776000  0.890200  0.095100  1.0  -0.7392
  O  O72  1  0.450000  0.857500  0.095500  1.0  -0.6044
  O  O73  1  0.048000  0.085500  0.166400  1.0  -0.4988
  O  O74  1  0.134000  0.945500  0.034500  1.0  -0.6741
  O  O75  1  0.338000  0.838400  0.511100  1.0  -0.6208
  O  O76  1  0.114000  0.877900  0.185300  1.0  -0.6044
  O  O77  1  0.124000  0.299500  0.512400  1.0  -0.5829
  O  O78  1  0.313000  0.710300  0.411200  1.0  -0.5241
  O  O79  1  0.276000  0.390200  0.404900  1.0  -0.7388
  O  O80  1  0.950000  0.357500  0.404500  1.0  -0.6041
  O  O81  1  0.452000  0.414500  0.666400  1.0  -0.4987
  O  O82  1  0.366000  0.554500  0.534500  1.0  -0.674
  O  O83  1  0.162000  0.661600  0.011100  1.0  -0.6214
  O  O84  1  0.386000  0.622100  0.685300  1.0  -0.605
  O  O85  1  0.376000  0.200500  0.012400  1.0  -0.5831
  O  O86  1  0.187000  0.789700  0.911200  1.0  -0.5216
  O  O87  1  0.224000  0.109800  0.904900  1.0  -0.7376
  O  O88  1  0.550000  0.142500  0.904500  1.0  -0.6048
