# generated using pymatgen
data_Cu2H3C8SO8
_symmetry_space_group_name_H-M   'P 1'
_cell_length_a   7.35500000
_cell_length_b   10.15200000
_cell_length_c   18.21500000
_cell_angle_alpha   90.00000000
_cell_angle_beta   90.00000000
_cell_angle_gamma   94.50200000
_symmetry_Int_Tables_number   1
_chemical_formula_structural   Cu2H3C8SO8
_chemical_formula_sum   'Cu8 H12 C32 S4 O32'
_cell_volume   1355.88050252
_cell_formula_units_Z   4
loop_
 _symmetry_equiv_pos_site_id
 _symmetry_equiv_pos_as_xyz
  1  'x, y, z'
loop_
 _atom_site_type_symbol
 _atom_site_label
 _atom_site_symmetry_multiplicity
 _atom_site_fract_x
 _atom_site_fract_y
 _atom_site_fract_z
 _atom_site_occupancy
 _atom_site_charge
  Cu  Cu1  1  0.866570  0.217670  0.906640  1.0  1.0441
  Cu  Cu2  1  0.049230  0.934350  0.931520  1.0  1.1125
  Cu  Cu3  1  0.633430  0.282330  0.406640  1.0  1.0449
  Cu  Cu4  1  0.450770  0.565650  0.431520  1.0  1.1128
  Cu  Cu5  1  0.133430  0.782330  0.093360  1.0  1.045
  Cu  Cu6  1  0.950770  0.065650  0.068480  1.0  1.1129
  Cu  Cu7  1  0.366570  0.717670  0.593360  1.0  1.0439
  Cu  Cu8  1  0.549230  0.434350  0.568480  1.0  1.1128
  H  H9  1  0.789200  0.168400  0.694200  1.0  0.1125
  H  H10  1  0.949000  0.799200  0.706900  1.0  0.1124
  H  H11  1  0.786500  0.941400  0.512900  1.0  0.1096
  H  H12  1  0.710800  0.331600  0.194200  1.0  0.1124
  H  H13  1  0.551000  0.700800  0.206900  1.0  0.1122
  H  H14  1  0.713500  0.558600  0.012900  1.0  0.1092
  H  H15  1  0.210800  0.831600  0.305800  1.0  0.1119
  H  H16  1  0.051000  0.200800  0.293100  1.0  0.1122
  H  H17  1  0.213500  0.058600  0.487100  1.0  0.1091
  H  H18  1  0.289200  0.668400  0.805800  1.0  0.1121
  H  H19  1  0.449000  0.299200  0.793100  1.0  0.1123
  H  H20  1  0.286500  0.441400  0.987100  1.0  0.1093
  C  C21  1  0.868800  0.851700  0.604880  1.0  -0.2807
  C  C22  1  0.777900  0.073500  0.596430  1.0  -0.1465
  C  C23  1  0.810400  0.088900  0.671570  1.0  0.0385
  C  C24  1  0.874100  0.986900  0.713190  1.0  -0.167
  C  C25  1  0.907100  0.010800  0.793370  1.0  0.7335
  C  C26  1  0.905000  0.867500  0.679790  1.0  0.0526
  C  C27  1  0.807600  0.953200  0.562910  1.0  0.042
  C  C28  1  0.707400  0.185500  0.554910  1.0  0.7114
  C  C29  1  0.631200  0.648300  0.104880  1.0  -0.2808
  C  C30  1  0.722100  0.426500  0.096430  1.0  -0.1472
  C  C31  1  0.689600  0.411100  0.171570  1.0  0.0378
  C  C32  1  0.625900  0.513100  0.213190  1.0  -0.1669
  C  C33  1  0.592900  0.489200  0.293370  1.0  0.7333
  C  C34  1  0.595000  0.632500  0.179790  1.0  0.0532
  C  C35  1  0.692400  0.546800  0.062910  1.0  0.0419
  C  C36  1  0.792600  0.314500  0.054910  1.0  0.7108
  C  C37  1  0.131200  0.148300  0.395120  1.0  -0.2806
  C  C38  1  0.222100  0.926500  0.403570  1.0  -0.147
  C  C39  1  0.189600  0.911100  0.328430  1.0  0.0376
  C  C40  1  0.125900  0.013100  0.286810  1.0  -0.1666
  C  C41  1  0.092900  0.989200  0.206630  1.0  0.7335
  C  C42  1  0.095000  0.132500  0.320210  1.0  0.0521
  C  C43  1  0.192400  0.046800  0.437090  1.0  0.0427
  C  C44  1  0.292600  0.814500  0.445090  1.0  0.7105
  C  C45  1  0.368800  0.351700  0.895120  1.0  -0.2806
  C  C46  1  0.277900  0.573500  0.903570  1.0  -0.1463
  C  C47  1  0.310400  0.588900  0.828430  1.0  0.038
  C  C48  1  0.374100  0.486900  0.786810  1.0  -0.1666
  C  C49  1  0.407100  0.510800  0.706630  1.0  0.7336
  C  C50  1  0.405000  0.367500  0.820210  1.0  0.051
  C  C51  1  0.307600  0.453200  0.937090  1.0  0.0424
  C  C52  1  0.207400  0.685500  0.945090  1.0  0.7108
  S  S53  1  0.884580  0.693540  0.566140  1.0  1.3701
  S  S54  1  0.615420  0.806460  0.066140  1.0  1.3694
  S  S55  1  0.115420  0.306460  0.433860  1.0  1.3694
  S  S56  1  0.384580  0.193540  0.933860  1.0  1.3703
  O  O57  1  0.953400  0.915600  0.832290  1.0  -0.5231
  O  O58  1  0.868800  0.054770  0.964840  1.0  -0.6822
  O  O59  1  0.661000  0.164900  0.488910  1.0  -0.6201
  O  O60  1  0.884700  0.126200  0.814790  1.0  -0.5779
  O  O61  1  0.887200  0.705700  0.487160  1.0  -0.5918
  O  O62  1  0.699200  0.293100  0.590330  1.0  -0.5175
  O  O63  1  0.722200  0.618900  0.594140  1.0  -0.7183
  O  O64  1  0.048700  0.642400  0.596740  1.0  -0.6145
  O  O65  1  0.546600  0.584400  0.332290  1.0  -0.5219
  O  O66  1  0.631200  0.445230  0.464840  1.0  -0.6823
  O  O67  1  0.839000  0.335100  0.988910  1.0  -0.6195
  O  O68  1  0.615300  0.373800  0.314790  1.0  -0.5777
  O  O69  1  0.612800  0.794300  0.987160  1.0  -0.5919
  O  O70  1  0.800800  0.206900  0.090330  1.0  -0.5187
  O  O71  1  0.777800  0.881100  0.094140  1.0  -0.7187
  O  O72  1  0.451300  0.857600  0.096740  1.0  -0.6139
  O  O73  1  0.046600  0.084400  0.167710  1.0  -0.5209
  O  O74  1  0.131200  0.945230  0.035160  1.0  -0.6822
  O  O75  1  0.339000  0.835100  0.511090  1.0  -0.619
  O  O76  1  0.115300  0.873800  0.185210  1.0  -0.5775
  O  O77  1  0.112800  0.294300  0.512840  1.0  -0.5919
  O  O78  1  0.300800  0.706900  0.409670  1.0  -0.5176
  O  O79  1  0.277800  0.381100  0.405860  1.0  -0.7187
  O  O80  1  0.951300  0.357600  0.403260  1.0  -0.6138
  O  O81  1  0.453400  0.415600  0.667710  1.0  -0.5221
  O  O82  1  0.368800  0.554770  0.535160  1.0  -0.6821
  O  O83  1  0.161000  0.664900  0.011090  1.0  -0.6191
  O  O84  1  0.384700  0.626200  0.685210  1.0  -0.5776
  O  O85  1  0.387200  0.205700  0.012840  1.0  -0.5915
  O  O86  1  0.199200  0.793100  0.909670  1.0  -0.5166
  O  O87  1  0.222200  0.118900  0.905860  1.0  -0.7185
  O  O88  1  0.548700  0.142400  0.903260  1.0  -0.6148
