# generated using pymatgen
data_Cu2H3C8SO8
_symmetry_space_group_name_H-M   'P 1'
_cell_length_a   7.30330000
_cell_length_b   10.12720000
_cell_length_c   18.26100000
_cell_angle_alpha   90.00000000
_cell_angle_beta   90.00000000
_cell_angle_gamma   94.84100000
_symmetry_Int_Tables_number   1
_chemical_formula_structural   Cu2H3C8SO8
_chemical_formula_sum   'Cu8 H12 C32 S4 O32'
_cell_volume   1345.80168116
_cell_formula_units_Z   4
loop_
 _symmetry_equiv_pos_site_id
 _symmetry_equiv_pos_as_xyz
  1  'x, y, z'
loop_
 _atom_site_type_symbol
 _atom_site_label
 _atom_site_symmetry_multiplicity
 _atom_site_fract_x
 _atom_site_fract_y
 _atom_site_fract_z
 _atom_site_occupancy
 _atom_site_charge
  Cu  Cu1  1  0.866370  0.217190  0.907390  1.0  1.0456
  Cu  Cu2  1  0.051180  0.935580  0.931510  1.0  1.1101
  Cu  Cu3  1  0.633630  0.282810  0.407390  1.0  1.0454
  Cu  Cu4  1  0.448820  0.564420  0.431510  1.0  1.1105
  Cu  Cu5  1  0.133630  0.782810  0.092610  1.0  1.045
  Cu  Cu6  1  0.948820  0.064420  0.068490  1.0  1.1105
  Cu  Cu7  1  0.366370  0.717190  0.592610  1.0  1.0446
  Cu  Cu8  1  0.551180  0.435580  0.568490  1.0  1.1103
  H  H9  1  0.791400  0.170500  0.695000  1.0  0.1133
  H  H10  1  0.952900  0.800800  0.706800  1.0  0.1143
  H  H11  1  0.789400  0.944200  0.513200  1.0  0.1127
  H  H12  1  0.708600  0.329500  0.195000  1.0  0.1131
  H  H13  1  0.547100  0.699200  0.206800  1.0  0.114
  H  H14  1  0.710600  0.555800  0.013200  1.0  0.1124
  H  H15  1  0.208600  0.829500  0.305000  1.0  0.1125
  H  H16  1  0.047100  0.199200  0.293200  1.0  0.1141
  H  H17  1  0.210600  0.055800  0.486800  1.0  0.1122
  H  H18  1  0.291400  0.670500  0.805000  1.0  0.1127
  H  H19  1  0.452900  0.300800  0.793200  1.0  0.1143
  H  H20  1  0.289400  0.444200  0.986800  1.0  0.1124
  C  C21  1  0.873200  0.855000  0.604860  1.0  -0.2756
  C  C22  1  0.782400  0.076400  0.597130  1.0  -0.1447
  C  C23  1  0.813400  0.091300  0.672200  1.0  0.0347
  C  C24  1  0.877100  0.988600  0.713470  1.0  -0.166
  C  C25  1  0.908100  0.011400  0.793730  1.0  0.7306
  C  C26  1  0.908900  0.869400  0.679940  1.0  0.0412
  C  C27  1  0.811400  0.956000  0.563060  1.0  0.0448
  C  C28  1  0.711600  0.188500  0.555660  1.0  0.7121
  C  C29  1  0.626800  0.645000  0.104860  1.0  -0.2756
  C  C30  1  0.717600  0.423600  0.097130  1.0  -0.1453
  C  C31  1  0.686600  0.408700  0.172200  1.0  0.0352
  C  C32  1  0.622900  0.511400  0.213470  1.0  -0.1658
  C  C33  1  0.591900  0.488600  0.293730  1.0  0.7305
  C  C34  1  0.591100  0.630600  0.179940  1.0  0.0419
  C  C35  1  0.688600  0.544000  0.063060  1.0  0.0451
  C  C36  1  0.788400  0.311500  0.055660  1.0  0.7114
  C  C37  1  0.126800  0.145000  0.395140  1.0  -0.2755
  C  C38  1  0.217600  0.923600  0.402870  1.0  -0.1453
  C  C39  1  0.186600  0.908700  0.327800  1.0  0.0348
  C  C40  1  0.122900  0.011400  0.286530  1.0  -0.1656
  C  C41  1  0.091900  0.988600  0.206270  1.0  0.7307
  C  C42  1  0.091100  0.130600  0.320060  1.0  0.0406
  C  C43  1  0.188600  0.044000  0.436940  1.0  0.0448
  C  C44  1  0.288400  0.811500  0.444340  1.0  0.7112
  C  C45  1  0.373200  0.355000  0.895140  1.0  -0.2754
  C  C46  1  0.282400  0.576400  0.902870  1.0  -0.1449
  C  C47  1  0.313400  0.591300  0.827800  1.0  0.0347
  C  C48  1  0.377100  0.488600  0.786530  1.0  -0.1656
  C  C49  1  0.408100  0.511400  0.706270  1.0  0.7308
  C  C50  1  0.408900  0.369400  0.820060  1.0  0.0395
  C  C51  1  0.311400  0.456000  0.936940  1.0  0.044
  C  C52  1  0.211600  0.688500  0.944340  1.0  0.7117
  S  S53  1  0.885880  0.695870  0.566360  1.0  1.3685
  S  S54  1  0.614120  0.804130  0.066360  1.0  1.3679
  S  S55  1  0.114120  0.304130  0.433640  1.0  1.3679
  S  S56  1  0.385880  0.195870  0.933640  1.0  1.3688
  O  O57  1  0.955200  0.916150  0.832370  1.0  -0.5222
  O  O58  1  0.867200  0.053240  0.965030  1.0  -0.68
  O  O59  1  0.662700  0.167040  0.490240  1.0  -0.6185
  O  O60  1  0.884000  0.126920  0.815470  1.0  -0.5753
  O  O61  1  0.891900  0.708240  0.487460  1.0  -0.5895
  O  O62  1  0.704300  0.295880  0.590640  1.0  -0.5139
  O  O63  1  0.718700  0.622550  0.593180  1.0  -0.7262
  O  O64  1  0.048300  0.642490  0.597770  1.0  -0.6145
  O  O65  1  0.544800  0.583850  0.332370  1.0  -0.5207
  O  O66  1  0.632800  0.446760  0.465030  1.0  -0.6803
  O  O67  1  0.837300  0.332960  0.990240  1.0  -0.6179
  O  O68  1  0.616000  0.373080  0.315470  1.0  -0.5748
  O  O69  1  0.608100  0.791760  0.987460  1.0  -0.5898
  O  O70  1  0.795700  0.204120  0.090640  1.0  -0.5165
  O  O71  1  0.781300  0.877450  0.093180  1.0  -0.7264
  O  O72  1  0.451700  0.857510  0.097770  1.0  -0.6137
  O  O73  1  0.044800  0.083850  0.167630  1.0  -0.5197
  O  O74  1  0.132800  0.946760  0.034970  1.0  -0.6804
  O  O75  1  0.337300  0.832960  0.509760  1.0  -0.6176
  O  O76  1  0.116000  0.873080  0.184530  1.0  -0.5747
  O  O77  1  0.108100  0.291760  0.512540  1.0  -0.5906
  O  O78  1  0.295700  0.704120  0.409360  1.0  -0.5155
  O  O79  1  0.281300  0.377450  0.406820  1.0  -0.7262
  O  O80  1  0.951700  0.357510  0.402230  1.0  -0.6143
  O  O81  1  0.455200  0.416150  0.667630  1.0  -0.5212
  O  O82  1  0.367200  0.553240  0.534970  1.0  -0.68
  O  O83  1  0.162700  0.667040  0.009760  1.0  -0.6177
  O  O84  1  0.384000  0.626920  0.684530  1.0  -0.5751
  O  O85  1  0.391900  0.208240  0.012540  1.0  -0.5901
  O  O86  1  0.204300  0.795880  0.909360  1.0  -0.5134
  O  O87  1  0.218700  0.122550  0.906820  1.0  -0.7264
  O  O88  1  0.548300  0.142490  0.902230  1.0  -0.615
