# generated using pymatgen
data_Cu2H3C8SO8
_symmetry_space_group_name_H-M   'P 1'
_cell_length_a   7.28060000
_cell_length_b   10.10750000
_cell_length_c   18.24210000
_cell_angle_alpha   90.00000000
_cell_angle_beta   90.00000000
_cell_angle_gamma   94.88600000
_symmetry_Int_Tables_number   1
_chemical_formula_structural   Cu2H3C8SO8
_chemical_formula_sum   'Cu8 H12 C32 S4 O32'
_cell_volume   1337.53363718
_cell_formula_units_Z   4
loop_
 _symmetry_equiv_pos_site_id
 _symmetry_equiv_pos_as_xyz
  1  'x, y, z'
loop_
 _atom_site_type_symbol
 _atom_site_label
 _atom_site_symmetry_multiplicity
 _atom_site_fract_x
 _atom_site_fract_y
 _atom_site_fract_z
 _atom_site_occupancy
 _atom_site_charge
  Cu  Cu1  1  0.551580  0.935790  0.931490  1.0  1.1117
  Cu  Cu2  1  0.866170  0.716980  0.592420  1.0  1.0486
  Cu  Cu3  1  0.948420  0.564210  0.431490  1.0  1.112
  Cu  Cu4  1  0.633830  0.783020  0.092420  1.0  1.0498
  Cu  Cu5  1  0.448420  0.064210  0.068510  1.0  1.1121
  Cu  Cu6  1  0.133830  0.283020  0.407580  1.0  1.0493
  Cu  Cu7  1  0.051580  0.435790  0.568510  1.0  1.1123
  Cu  Cu8  1  0.366170  0.216980  0.907580  1.0  1.0491
  H  H9  1  0.450400  0.800400  0.706600  1.0  0.1141
  H  H10  1  0.293100  0.171000  0.695100  1.0  0.1129
  H  H11  1  0.289000  0.945500  0.513600  1.0  0.1118
  H  H12  1  0.049600  0.699600  0.206600  1.0  0.1139
  H  H13  1  0.206900  0.329000  0.195100  1.0  0.1128
  H  H14  1  0.211000  0.554500  0.013600  1.0  0.1112
  H  H15  1  0.549600  0.199600  0.293400  1.0  0.1139
  H  H16  1  0.706900  0.829000  0.304900  1.0  0.1123
  H  H17  1  0.711000  0.054500  0.486400  1.0  0.1115
  H  H18  1  0.950400  0.300400  0.793400  1.0  0.1139
  H  H19  1  0.793100  0.671000  0.804900  1.0  0.1124
  H  H20  1  0.789000  0.445500  0.986400  1.0  0.1118
  C  C21  1  0.407900  0.869700  0.679640  1.0  0.0491
  C  C22  1  0.284200  0.077700  0.597530  1.0  -0.1462
  C  C23  1  0.374200  0.855100  0.605170  1.0  -0.2785
  C  C24  1  0.314800  0.091600  0.672210  1.0  0.0398
  C  C25  1  0.377500  0.988900  0.713520  1.0  -0.1659
  C  C26  1  0.408300  0.012100  0.794020  1.0  0.7276
  C  C27  1  0.311900  0.957200  0.563440  1.0  0.0327
  C  C28  1  0.212000  0.188300  0.555740  1.0  0.7133
  C  C29  1  0.092100  0.630300  0.179640  1.0  0.0496
  C  C30  1  0.215800  0.422300  0.097530  1.0  -0.1465
  C  C31  1  0.125800  0.644900  0.105170  1.0  -0.2791
  C  C32  1  0.185200  0.408400  0.172210  1.0  0.0401
  C  C33  1  0.122500  0.511100  0.213520  1.0  -0.1658
  C  C34  1  0.091700  0.487900  0.294020  1.0  0.7275
  C  C35  1  0.188100  0.542800  0.063440  1.0  0.0334
  C  C36  1  0.288000  0.311700  0.055740  1.0  0.7128
  C  C37  1  0.592100  0.130300  0.320360  1.0  0.0475
  C  C38  1  0.715800  0.922300  0.402470  1.0  -0.1465
  C  C39  1  0.625800  0.144900  0.394830  1.0  -0.279
  C  C40  1  0.685200  0.908400  0.327790  1.0  0.0402
  C  C41  1  0.622500  0.011100  0.286480  1.0  -0.1659
  C  C42  1  0.591700  0.987900  0.205980  1.0  0.727
  C  C43  1  0.688100  0.042800  0.436560  1.0  0.0334
  C  C44  1  0.788000  0.811700  0.444260  1.0  0.7125
  C  C45  1  0.907900  0.369700  0.820360  1.0  0.0471
  C  C46  1  0.784200  0.577700  0.902470  1.0  -0.1463
  C  C47  1  0.874200  0.355100  0.894830  1.0  -0.2783
  C  C48  1  0.814800  0.591600  0.827790  1.0  0.0398
  C  C49  1  0.877500  0.488900  0.786480  1.0  -0.1658
  C  C50  1  0.908300  0.512100  0.705980  1.0  0.7271
  C  C51  1  0.811900  0.457200  0.936560  1.0  0.0322
  C  C52  1  0.712000  0.688300  0.944260  1.0  0.7128
  S  S53  1  0.386160  0.696460  0.566520  1.0  1.3735
  S  S54  1  0.113840  0.803540  0.066520  1.0  1.3726
  S  S55  1  0.613840  0.303540  0.433480  1.0  1.3726
  S  S56  1  0.886160  0.196460  0.933480  1.0  1.3736
  O  O57  1  0.548500  0.642600  0.598150  1.0  -0.6179
  O  O58  1  0.163500  0.167400  0.490330  1.0  -0.6148
  O  O59  1  0.392400  0.708700  0.487730  1.0  -0.5906
  O  O60  1  0.384400  0.126800  0.815540  1.0  -0.573
  O  O61  1  0.366000  0.052500  0.965050  1.0  -0.6795
  O  O62  1  0.205100  0.296700  0.590730  1.0  -0.5117
  O  O63  1  0.455200  0.916200  0.832390  1.0  -0.5267
  O  O64  1  0.218200  0.623700  0.593070  1.0  -0.7289
  O  O65  1  0.951500  0.857400  0.098150  1.0  -0.6171
  O  O66  1  0.336500  0.332600  0.990330  1.0  -0.6142
  O  O67  1  0.107600  0.791300  0.987730  1.0  -0.5905
  O  O68  1  0.115600  0.373200  0.315540  1.0  -0.5732
  O  O69  1  0.134000  0.447500  0.465050  1.0  -0.6798
  O  O70  1  0.294900  0.203300  0.090730  1.0  -0.5137
  O  O71  1  0.044800  0.583800  0.332390  1.0  -0.5259
  O  O72  1  0.281800  0.876300  0.093070  1.0  -0.729
  O  O73  1  0.451500  0.357400  0.401850  1.0  -0.6176
  O  O74  1  0.836500  0.832600  0.509670  1.0  -0.6141
  O  O75  1  0.607600  0.291300  0.512270  1.0  -0.5913
  O  O76  1  0.615600  0.873200  0.184460  1.0  -0.5732
  O  O77  1  0.634000  0.947500  0.034950  1.0  -0.6798
  O  O78  1  0.794900  0.703300  0.409270  1.0  -0.5125
  O  O79  1  0.544800  0.083800  0.167610  1.0  -0.5249
  O  O80  1  0.781800  0.376300  0.406930  1.0  -0.7288
  O  O81  1  0.048500  0.142600  0.901850  1.0  -0.6184
  O  O82  1  0.663500  0.667400  0.009670  1.0  -0.6143
  O  O83  1  0.892400  0.208700  0.012270  1.0  -0.591
  O  O84  1  0.884400  0.626800  0.684460  1.0  -0.573
  O  O85  1  0.866000  0.552500  0.534950  1.0  -0.6795
  O  O86  1  0.705100  0.796700  0.909270  1.0  -0.5114
  O  O87  1  0.955200  0.416200  0.667610  1.0  -0.5258
  O  O88  1  0.718200  0.123700  0.906930  1.0  -0.7292
