# generated using pymatgen
data_Cu2H3C8SO8
_symmetry_space_group_name_H-M   'P 1'
_cell_length_a   7.32060000
_cell_length_b   10.13310000
_cell_length_c   18.24830000
_cell_angle_alpha   90.00000000
_cell_angle_beta   90.00000000
_cell_angle_gamma   94.68100000
_symmetry_Int_Tables_number   1
_chemical_formula_structural   Cu2H3C8SO8
_chemical_formula_sum   'Cu8 H12 C32 S4 O32'
_cell_volume   1349.15053316
_cell_formula_units_Z   4
loop_
 _symmetry_equiv_pos_site_id
 _symmetry_equiv_pos_as_xyz
  1  'x, y, z'
loop_
 _atom_site_type_symbol
 _atom_site_label
 _atom_site_symmetry_multiplicity
 _atom_site_fract_x
 _atom_site_fract_y
 _atom_site_fract_z
 _atom_site_occupancy
 _atom_site_charge
  Cu  Cu1  1  0.866370  0.217410  0.907080  1.0  1.0474
  Cu  Cu2  1  0.050510  0.935170  0.931510  1.0  1.1107
  Cu  Cu3  1  0.633630  0.282590  0.407080  1.0  1.0474
  Cu  Cu4  1  0.449490  0.564830  0.431510  1.0  1.1109
  Cu  Cu5  1  0.133630  0.782590  0.092910  1.0  1.0472
  Cu  Cu6  1  0.949490  0.064830  0.068490  1.0  1.1095
  Cu  Cu7  1  0.366370  0.717410  0.592910  1.0  1.0466
  Cu  Cu8  1  0.550510  0.435170  0.568490  1.0  1.1089
  H  H9  1  0.791200  0.169400  0.694400  1.0  0.1137
  H  H10  1  0.951500  0.800600  0.707000  1.0  0.1142
  H  H11  1  0.789500  0.943600  0.512900  1.0  0.1118
  H  H12  1  0.708800  0.330600  0.194400  1.0  0.1137
  H  H13  1  0.548500  0.699400  0.207000  1.0  0.1136
  H  H14  1  0.710500  0.556400  0.012900  1.0  0.1115
  H  H15  1  0.208800  0.830600  0.305600  1.0  0.1131
  H  H16  1  0.048500  0.199400  0.293000  1.0  0.1138
  H  H17  1  0.210500  0.056400  0.487100  1.0  0.1115
  H  H18  1  0.291200  0.669400  0.805600  1.0  0.1133
  H  H19  1  0.451500  0.300600  0.793000  1.0  0.1139
  H  H20  1  0.289500  0.443600  0.987100  1.0  0.1117
  C  C21  1  0.871300  0.853200  0.604780  1.0  -0.2932
  C  C22  1  0.781000  0.075700  0.596870  1.0  -0.1502
  C  C23  1  0.812700  0.089900  0.671680  1.0  0.037
  C  C24  1  0.875800  0.988000  0.713360  1.0  -0.1657
  C  C25  1  0.907700  0.010900  0.793580  1.0  0.7323
  C  C26  1  0.907300  0.869000  0.679980  1.0  0.0485
  C  C27  1  0.810500  0.955100  0.562830  1.0  0.0363
  C  C28  1  0.710200  0.187500  0.555210  1.0  0.7141
  C  C29  1  0.628700  0.646800  0.104780  1.0  -0.2768
  C  C30  1  0.719000  0.424300  0.096870  1.0  -0.1507
  C  C31  1  0.687300  0.410100  0.171680  1.0  0.0343
  C  C32  1  0.624200  0.512000  0.213360  1.0  -0.1655
  C  C33  1  0.592300  0.489100  0.293580  1.0  0.7324
  C  C34  1  0.592700  0.631000  0.179980  1.0  0.0531
  C  C35  1  0.689500  0.544900  0.062830  1.0  0.0362
  C  C36  1  0.789800  0.312500  0.055210  1.0  0.7138
  C  C37  1  0.128700  0.146800  0.395220  1.0  -0.277
  C  C38  1  0.219000  0.924300  0.403130  1.0  -0.1506
  C  C39  1  0.187300  0.910100  0.328320  1.0  0.035
  C  C40  1  0.124200  0.012000  0.286640  1.0  -0.1653
  C  C41  1  0.092300  0.989100  0.206420  1.0  0.7324
  C  C42  1  0.092700  0.131000  0.320020  1.0  0.0529
  C  C43  1  0.189500  0.044900  0.437170  1.0  0.0364
  C  C44  1  0.289800  0.812500  0.444790  1.0  0.7135
  C  C45  1  0.371300  0.353200  0.895220  1.0  -0.2932
  C  C46  1  0.281000  0.575700  0.903130  1.0  -0.1502
  C  C47  1  0.312700  0.589900  0.828320  1.0  0.0374
  C  C48  1  0.375800  0.488000  0.786640  1.0  -0.1652
  C  C49  1  0.407700  0.510900  0.706420  1.0  0.7324
  C  C50  1  0.407300  0.369000  0.820020  1.0  0.051
  C  C51  1  0.310500  0.455100  0.937170  1.0  0.0358
  C  C52  1  0.210200  0.687500  0.944790  1.0  0.7135
  S  S53  1  0.885470  0.694990  0.566280  1.0  1.3716
  S  S54  1  0.614530  0.805010  0.066280  1.0  1.371
  S  S55  1  0.114530  0.305010  0.433720  1.0  1.3738
  S  S56  1  0.385470  0.194990  0.933720  1.0  1.3746
  O  O57  1  0.954300  0.916000  0.832230  1.0  -0.5226
  O  O58  1  0.868100  0.054000  0.964830  1.0  -0.6802
  O  O59  1  0.662200  0.166400  0.489710  1.0  -0.6167
  O  O60  1  0.884400  0.126600  0.815060  1.0  -0.5773
  O  O61  1  0.890200  0.707300  0.487420  1.0  -0.5906
  O  O62  1  0.702100  0.294600  0.590440  1.0  -0.5136
  O  O63  1  0.719800  0.620900  0.593450  1.0  -0.7222
  O  O64  1  0.048800  0.642700  0.597230  1.0  -0.6125
  O  O65  1  0.545700  0.584000  0.332230  1.0  -0.5219
  O  O66  1  0.631900  0.446000  0.464830  1.0  -0.6804
  O  O67  1  0.837800  0.333600  0.989710  1.0  -0.6163
  O  O68  1  0.615600  0.373400  0.315060  1.0  -0.5775
  O  O69  1  0.609800  0.792700  0.987420  1.0  -0.5906
  O  O70  1  0.797900  0.205400  0.090440  1.0  -0.5173
  O  O71  1  0.780200  0.879100  0.093450  1.0  -0.7223
  O  O72  1  0.451200  0.857300  0.097230  1.0  -0.6122
  O  O73  1  0.045700  0.084000  0.167770  1.0  -0.5224
  O  O74  1  0.131900  0.946000  0.035170  1.0  -0.6803
  O  O75  1  0.337800  0.833600  0.510290  1.0  -0.616
  O  O76  1  0.115600  0.873400  0.184940  1.0  -0.5775
  O  O77  1  0.109800  0.292700  0.512580  1.0  -0.5904
  O  O78  1  0.297900  0.705400  0.409560  1.0  -0.5183
  O  O79  1  0.280200  0.379100  0.406550  1.0  -0.722
  O  O80  1  0.951200  0.357300  0.402770  1.0  -0.6125
  O  O81  1  0.454300  0.416000  0.667770  1.0  -0.5229
  O  O82  1  0.368100  0.554000  0.535170  1.0  -0.6801
  O  O83  1  0.162200  0.666400  0.010290  1.0  -0.6161
  O  O84  1  0.384400  0.626600  0.684940  1.0  -0.5771
  O  O85  1  0.390200  0.207300  0.012580  1.0  -0.5901
  O  O86  1  0.202100  0.794600  0.909560  1.0  -0.515
  O  O87  1  0.219800  0.120900  0.906550  1.0  -0.7222
  O  O88  1  0.548800  0.142700  0.902770  1.0  -0.6127
