# generated using pymatgen
data_Cu2H3C8SO8
_symmetry_space_group_name_H-M   'P 1'
_cell_length_a   7.33780000
_cell_length_b   10.14470000
_cell_length_c   18.20100000
_cell_angle_alpha   90.00000000
_cell_angle_beta   90.00000000
_cell_angle_gamma   94.39300000
_symmetry_Int_Tables_number   1
_chemical_formula_structural   Cu2H3C8SO8
_chemical_formula_sum   'Cu8 H12 C32 S4 O32'
_cell_volume   1350.89795635
_cell_formula_units_Z   4
loop_
 _symmetry_equiv_pos_site_id
 _symmetry_equiv_pos_as_xyz
  1  'x, y, z'
loop_
 _atom_site_type_symbol
 _atom_site_label
 _atom_site_symmetry_multiplicity
 _atom_site_fract_x
 _atom_site_fract_y
 _atom_site_fract_z
 _atom_site_occupancy
 _atom_site_charge
  Cu  Cu1  1  0.866520  0.217870  0.906010  1.0  1.0399
  Cu  Cu2  1  0.047370  0.933290  0.931570  1.0  1.1151
  Cu  Cu3  1  0.633480  0.282130  0.406010  1.0  1.0401
  Cu  Cu4  1  0.452630  0.566710  0.431570  1.0  1.1156
  Cu  Cu5  1  0.133480  0.782130  0.093990  1.0  1.0408
  Cu  Cu6  1  0.952630  0.066710  0.068430  1.0  1.1157
  Cu  Cu7  1  0.366520  0.717870  0.593990  1.0  1.0401
  Cu  Cu8  1  0.547370  0.433290  0.568430  1.0  1.1154
  H  H9  1  0.786500  0.166800  0.693800  1.0  0.1117
  H  H10  1  0.947000  0.798000  0.706700  1.0  0.1116
  H  H11  1  0.783500  0.939300  0.512500  1.0  0.1103
  H  H12  1  0.713500  0.333200  0.193800  1.0  0.1117
  H  H13  1  0.553000  0.702000  0.206700  1.0  0.1113
  H  H14  1  0.716500  0.560700  0.012500  1.0  0.1101
  H  H15  1  0.213500  0.833200  0.306200  1.0  0.1112
  H  H16  1  0.053000  0.202000  0.293300  1.0  0.1114
  H  H17  1  0.216500  0.060700  0.487500  1.0  0.1101
  H  H18  1  0.286500  0.666800  0.806200  1.0  0.1113
  H  H19  1  0.447000  0.298000  0.793300  1.0  0.1116
  H  H20  1  0.283500  0.439300  0.987500  1.0  0.1103
  C  C21  1  0.865500  0.850100  0.604580  1.0  -0.2901
  C  C22  1  0.774300  0.071900  0.596130  1.0  -0.1542
  C  C23  1  0.807600  0.087100  0.671190  1.0  0.0473
  C  C24  1  0.871300  0.985900  0.712880  1.0  -0.1649
  C  C25  1  0.905500  0.009800  0.793040  1.0  0.7362
  C  C26  1  0.902400  0.866200  0.679560  1.0  0.0604
  C  C27  1  0.804400  0.951200  0.562520  1.0  0.043
  C  C28  1  0.704200  0.183500  0.554260  1.0  0.7197
  C  C29  1  0.634500  0.649900  0.104580  1.0  -0.2897
  C  C30  1  0.725700  0.428100  0.096130  1.0  -0.1553
  C  C31  1  0.692400  0.412900  0.171190  1.0  0.0471
  C  C32  1  0.628700  0.514100  0.212880  1.0  -0.1648
  C  C33  1  0.594500  0.490200  0.293040  1.0  0.7363
  C  C34  1  0.597600  0.633800  0.179560  1.0  0.0613
  C  C35  1  0.695600  0.548800  0.062520  1.0  0.043
  C  C36  1  0.795800  0.316500  0.054260  1.0  0.7197
  C  C37  1  0.134500  0.149900  0.395420  1.0  -0.2895
  C  C38  1  0.225700  0.928100  0.403870  1.0  -0.1552
  C  C39  1  0.192400  0.912900  0.328810  1.0  0.047
  C  C40  1  0.128700  0.014100  0.287120  1.0  -0.1651
  C  C41  1  0.094500  0.990200  0.206960  1.0  0.7362
  C  C42  1  0.097600  0.133800  0.320440  1.0  0.0601
  C  C43  1  0.195600  0.048800  0.437480  1.0  0.0436
  C  C44  1  0.295800  0.816500  0.445740  1.0  0.7193
  C  C45  1  0.365500  0.350100  0.895420  1.0  -0.29
  C  C46  1  0.274300  0.571900  0.903870  1.0  -0.1542
  C  C47  1  0.307600  0.587100  0.828810  1.0  0.047
  C  C48  1  0.371300  0.485900  0.787120  1.0  -0.1651
  C  C49  1  0.405500  0.509800  0.706960  1.0  0.7361
  C  C50  1  0.402400  0.366200  0.820440  1.0  0.0587
  C  C51  1  0.304400  0.451200  0.937480  1.0  0.0433
  C  C52  1  0.204200  0.683500  0.945740  1.0  0.7192
  S  S53  1  0.883130  0.691700  0.565770  1.0  1.3734
  S  S54  1  0.616870  0.808300  0.065770  1.0  1.3729
  S  S55  1  0.116870  0.308300  0.434230  1.0  1.373
  S  S56  1  0.383130  0.191700  0.934230  1.0  1.3737
  O  O57  1  0.951600  0.915300  0.832070  1.0  -0.522
  O  O58  1  0.870800  0.056300  0.964730  1.0  -0.6875
  O  O59  1  0.659700  0.163400  0.488190  1.0  -0.6208
  O  O60  1  0.883700  0.125700  0.814060  1.0  -0.5783
  O  O61  1  0.882700  0.702900  0.487130  1.0  -0.5959
  O  O62  1  0.693200  0.289100  0.589790  1.0  -0.517
  O  O63  1  0.724500  0.615500  0.595150  1.0  -0.7164
  O  O64  1  0.049500  0.642700  0.595690  1.0  -0.6222
  O  O65  1  0.548400  0.584700  0.332070  1.0  -0.5205
  O  O66  1  0.629200  0.443700  0.464730  1.0  -0.6875
  O  O67  1  0.840300  0.336600  0.988190  1.0  -0.6205
  O  O68  1  0.616300  0.374300  0.314060  1.0  -0.5779
  O  O69  1  0.617300  0.797100  0.987130  1.0  -0.5956
  O  O70  1  0.806800  0.210900  0.089790  1.0  -0.519
  O  O71  1  0.775500  0.884500  0.095150  1.0  -0.7163
  O  O72  1  0.450500  0.857300  0.095690  1.0  -0.6209
  O  O73  1  0.048400  0.084700  0.167930  1.0  -0.5204
  O  O74  1  0.129200  0.943700  0.035270  1.0  -0.6874
  O  O75  1  0.340300  0.836600  0.511810  1.0  -0.6205
  O  O76  1  0.116300  0.874300  0.185940  1.0  -0.5777
  O  O77  1  0.117300  0.297100  0.512870  1.0  -0.5959
  O  O78  1  0.306800  0.710900  0.410210  1.0  -0.5182
  O  O79  1  0.275500  0.384500  0.404850  1.0  -0.7162
  O  O80  1  0.950500  0.357300  0.404310  1.0  -0.6208
  O  O81  1  0.451600  0.415300  0.667930  1.0  -0.5218
  O  O82  1  0.370800  0.556300  0.535270  1.0  -0.6874
  O  O83  1  0.159700  0.663400  0.011810  1.0  -0.6208
  O  O84  1  0.383700  0.625700  0.685940  1.0  -0.578
  O  O85  1  0.382700  0.202900  0.012870  1.0  -0.5958
  O  O86  1  0.193200  0.789100  0.910210  1.0  -0.5162
  O  O87  1  0.224500  0.115500  0.904850  1.0  -0.7166
  O  O88  1  0.549500  0.142700  0.904310  1.0  -0.6226
