# generated using pymatgen
data_Cu2H4C8SO8
_symmetry_space_group_name_H-M   'P 1'
_cell_length_a   7.33360000
_cell_length_b   10.12520000
_cell_length_c   18.18290000
_cell_angle_alpha   90.00000000
_cell_angle_beta   90.00000000
_cell_angle_gamma   94.49300000
_symmetry_Int_Tables_number   1
_chemical_formula_structural   Cu2H4C8SO8
_chemical_formula_sum   'Cu8 H16 C32 S4 O32'
_cell_volume   1346.00693942
_cell_formula_units_Z   4
loop_
 _symmetry_equiv_pos_site_id
 _symmetry_equiv_pos_as_xyz
  1  'x, y, z'
loop_
 _atom_site_type_symbol
 _atom_site_label
 _atom_site_symmetry_multiplicity
 _atom_site_fract_x
 _atom_site_fract_y
 _atom_site_fract_z
 _atom_site_occupancy
 _atom_site_charge
  Cu  Cu1  1  0.866770  0.217920  0.906240  1.0  1.0345
  Cu  Cu2  1  0.047480  0.933360  0.931580  1.0  1.116
  Cu  Cu3  1  0.633230  0.282080  0.406240  1.0  1.0345
  Cu  Cu4  1  0.452520  0.566640  0.431580  1.0  1.1171
  Cu  Cu5  1  0.133230  0.782080  0.093760  1.0  1.0329
  Cu  Cu6  1  0.952520  0.066640  0.068420  1.0  1.1136
  Cu  Cu7  1  0.366770  0.717920  0.593760  1.0  1.0314
  Cu  Cu8  1  0.547480  0.433360  0.568420  1.0  1.1136
  H  H9  1  0.770000  0.021000  0.964000  1.0  0.4629
  H  H10  1  0.786400  0.167600  0.693600  1.0  0.1145
  H  H11  1  0.781300  0.939000  0.513000  1.0  0.1127
  H  H12  1  0.945100  0.798600  0.706800  1.0  0.1146
  H  H13  1  0.730000  0.479000  0.464000  1.0  0.4599
  H  H14  1  0.713600  0.332400  0.193600  1.0  0.1144
  H  H15  1  0.718700  0.561000  0.013000  1.0  0.1123
  H  H16  1  0.554900  0.701400  0.206800  1.0  0.1142
  H  H17  1  0.230000  0.979000  0.036000  1.0  0.4593
  H  H18  1  0.213600  0.832400  0.306400  1.0  0.1141
  H  H19  1  0.218700  0.061000  0.487000  1.0  0.1121
  H  H20  1  0.054900  0.201400  0.293200  1.0  0.1143
  H  H21  1  0.270000  0.521000  0.536000  1.0  0.4627
  H  H22  1  0.286400  0.667600  0.806400  1.0  0.1143
  H  H23  1  0.281300  0.439000  0.987000  1.0  0.1123
  H  H24  1  0.445100  0.298600  0.793200  1.0  0.1145
  C  C25  1  0.872500  0.985900  0.713000  1.0  -0.1626
  C  C26  1  0.808100  0.087900  0.671100  1.0  0.045
  C  C27  1  0.775900  0.072100  0.596300  1.0  -0.1533
  C  C28  1  0.804400  0.951500  0.562900  1.0  0.0394
  C  C29  1  0.867400  0.850700  0.604900  1.0  -0.271
  C  C30  1  0.902000  0.867300  0.679500  1.0  0.0365
  C  C31  1  0.906200  0.010600  0.792900  1.0  0.737
  C  C32  1  0.704300  0.182600  0.554700  1.0  0.7203
  C  C33  1  0.627500  0.514100  0.213000  1.0  -0.1627
  C  C34  1  0.691900  0.412100  0.171100  1.0  0.0455
  C  C35  1  0.724100  0.427900  0.096300  1.0  -0.1546
  C  C36  1  0.695600  0.548500  0.062900  1.0  0.0396
  C  C37  1  0.632600  0.649300  0.104900  1.0  -0.2712
  C  C38  1  0.598000  0.632700  0.179500  1.0  0.0377
  C  C39  1  0.593800  0.489400  0.292900  1.0  0.737
  C  C40  1  0.795700  0.317400  0.054700  1.0  0.72
  C  C41  1  0.127500  0.014100  0.287000  1.0  -0.1622
  C  C42  1  0.191900  0.912100  0.328900  1.0  0.0448
  C  C43  1  0.224100  0.927900  0.403700  1.0  -0.1543
  C  C44  1  0.195600  0.048500  0.437100  1.0  0.0403
  C  C45  1  0.132600  0.149300  0.395100  1.0  -0.2713
  C  C46  1  0.098000  0.132700  0.320500  1.0  0.0353
  C  C47  1  0.093800  0.989400  0.207100  1.0  0.7375
  C  C48  1  0.295700  0.817400  0.445300  1.0  0.7191
  C  C49  1  0.372500  0.485900  0.787000  1.0  -0.1619
  C  C50  1  0.308100  0.587900  0.828900  1.0  0.0445
  C  C51  1  0.275900  0.572100  0.903700  1.0  -0.1533
  C  C52  1  0.304400  0.451500  0.937100  1.0  0.0397
  C  C53  1  0.367400  0.350700  0.895100  1.0  -0.2712
  C  C54  1  0.402000  0.367300  0.820500  1.0  0.035
  C  C55  1  0.406200  0.510600  0.707100  1.0  0.7376
  C  C56  1  0.204300  0.682600  0.945300  1.0  0.719
  S  S57  1  0.883840  0.691980  0.566010  1.0  1.3867
  S  S58  1  0.616160  0.808020  0.066010  1.0  1.3869
  S  S59  1  0.116160  0.308020  0.433990  1.0  1.3868
  S  S60  1  0.383840  0.191980  0.933990  1.0  1.3869
  O  O61  1  0.884500  0.125100  0.814560  1.0  -0.5828
  O  O62  1  0.952500  0.915500  0.831880  1.0  -0.556
  O  O63  1  0.659200  0.163200  0.488560  1.0  -0.6214
  O  O64  1  0.693900  0.289900  0.590200  1.0  -0.5521
  O  O65  1  0.050700  0.643600  0.595330  1.0  -0.6867
  O  O66  1  0.725400  0.615600  0.595300  1.0  -0.7363
  O  O67  1  0.882100  0.703700  0.487130  1.0  -0.6329
  O  O68  1  0.871600  0.056600  0.965150  1.0  -0.962
  O  O69  1  0.615500  0.374900  0.314560  1.0  -0.5819
  O  O70  1  0.547500  0.584500  0.331880  1.0  -0.5553
  O  O71  1  0.840800  0.336800  0.988560  1.0  -0.6206
  O  O72  1  0.806100  0.210100  0.090200  1.0  -0.5532
  O  O73  1  0.449300  0.856400  0.095330  1.0  -0.6838
  O  O74  1  0.774600  0.884400  0.095300  1.0  -0.7359
  O  O75  1  0.617900  0.796300  0.987130  1.0  -0.633
  O  O76  1  0.628400  0.443400  0.465150  1.0  -0.9621
  O  O77  1  0.115500  0.874900  0.185440  1.0  -0.5825
  O  O78  1  0.047500  0.084500  0.168120  1.0  -0.5555
  O  O79  1  0.340800  0.836800  0.511440  1.0  -0.6203
  O  O80  1  0.306100  0.710100  0.409800  1.0  -0.5527
  O  O81  1  0.949300  0.356400  0.404670  1.0  -0.6835
  O  O82  1  0.274600  0.384400  0.404700  1.0  -0.7349
  O  O83  1  0.117900  0.296300  0.512870  1.0  -0.6335
  O  O84  1  0.128400  0.943400  0.034850  1.0  -0.962
  O  O85  1  0.384500  0.625100  0.685440  1.0  -0.583
  O  O86  1  0.452500  0.415500  0.668120  1.0  -0.5559
  O  O87  1  0.159200  0.663200  0.011440  1.0  -0.6211
  O  O88  1  0.193900  0.789900  0.909800  1.0  -0.5524
  O  O89  1  0.550700  0.143600  0.904670  1.0  -0.6873
  O  O90  1  0.225400  0.115600  0.904700  1.0  -0.7356
  O  O91  1  0.382100  0.203700  0.012870  1.0  -0.6333
  O  O92  1  0.371600  0.556600  0.534850  1.0  -0.9619
