# generated using pymatgen
data_Cu2H3C8SO8
_symmetry_space_group_name_H-M   'P 1'
_cell_length_a   7.34130000
_cell_length_b   10.15570000
_cell_length_c   18.17500000
_cell_angle_alpha   90.00000000
_cell_angle_beta   90.00000000
_cell_angle_gamma   94.32000000
_symmetry_Int_Tables_number   1
_chemical_formula_structural   Cu2H3C8SO8
_chemical_formula_sum   'Cu8 H12 C32 S4 O32'
_cell_volume   1351.20618511
_cell_formula_units_Z   4
loop_
 _symmetry_equiv_pos_site_id
 _symmetry_equiv_pos_as_xyz
  1  'x, y, z'
loop_
 _atom_site_type_symbol
 _atom_site_label
 _atom_site_symmetry_multiplicity
 _atom_site_fract_x
 _atom_site_fract_y
 _atom_site_fract_z
 _atom_site_occupancy
 _atom_site_charge
  Cu  Cu1  1  0.866370  0.217790  0.905650  1.0  1.0365
  Cu  Cu2  1  0.045880  0.932470  0.931570  1.0  1.1181
  Cu  Cu3  1  0.633630  0.282210  0.405650  1.0  1.0366
  Cu  Cu4  1  0.454120  0.567530  0.431570  1.0  1.1185
  Cu  Cu5  1  0.133630  0.782210  0.094350  1.0  1.0376
  Cu  Cu6  1  0.954120  0.067530  0.068430  1.0  1.1185
  Cu  Cu7  1  0.366370  0.717790  0.594350  1.0  1.0367
  Cu  Cu8  1  0.545880  0.432470  0.568430  1.0  1.1183
  H  H9  1  0.782700  0.165500  0.693200  1.0  0.1121
  H  H10  1  0.943500  0.796800  0.706700  1.0  0.1132
  H  H11  1  0.779600  0.938000  0.511800  1.0  0.1115
  H  H12  1  0.717300  0.334500  0.193200  1.0  0.1122
  H  H13  1  0.556500  0.703200  0.206700  1.0  0.1128
  H  H14  1  0.720400  0.562000  0.011800  1.0  0.1107
  H  H15  1  0.217300  0.834500  0.306800  1.0  0.1118
  H  H16  1  0.056500  0.203200  0.293300  1.0  0.113
  H  H17  1  0.220400  0.062000  0.488200  1.0  0.1107
  H  H18  1  0.282700  0.665500  0.806800  1.0  0.1119
  H  H19  1  0.443500  0.296800  0.793300  1.0  0.1132
  H  H20  1  0.279600  0.438000  0.988200  1.0  0.1111
  C  C21  1  0.863600  0.849300  0.604490  1.0  -0.2847
  C  C22  1  0.773200  0.070300  0.595540  1.0  -0.1535
  C  C23  1  0.805200  0.086100  0.670680  1.0  0.0415
  C  C24  1  0.870000  0.985100  0.712380  1.0  -0.1617
  C  C25  1  0.904500  0.009000  0.792880  1.0  0.7328
  C  C26  1  0.900000  0.865200  0.679340  1.0  0.0436
  C  C27  1  0.801700  0.950300  0.561800  1.0  0.0366
  C  C28  1  0.702000  0.182300  0.553800  1.0  0.7244
  C  C29  1  0.636400  0.650700  0.104490  1.0  -0.2844
  C  C30  1  0.726800  0.429700  0.095540  1.0  -0.1544
  C  C31  1  0.694800  0.413900  0.170680  1.0  0.0418
  C  C32  1  0.630000  0.514900  0.212380  1.0  -0.1618
  C  C33  1  0.595500  0.491000  0.292880  1.0  0.7329
  C  C34  1  0.600000  0.634800  0.179340  1.0  0.0439
  C  C35  1  0.698300  0.549700  0.061800  1.0  0.036
  C  C36  1  0.798000  0.317700  0.053800  1.0  0.724
  C  C37  1  0.136400  0.150700  0.395510  1.0  -0.2841
  C  C38  1  0.226800  0.929700  0.404460  1.0  -0.1542
  C  C39  1  0.194800  0.913900  0.329320  1.0  0.0417
  C  C40  1  0.130000  0.014900  0.287620  1.0  -0.1623
  C  C41  1  0.095500  0.991000  0.207120  1.0  0.7328
  C  C42  1  0.100000  0.134800  0.320660  1.0  0.0424
  C  C43  1  0.198300  0.049700  0.438200  1.0  0.0364
  C  C44  1  0.298000  0.817700  0.446200  1.0  0.7239
  C  C45  1  0.363600  0.349300  0.895510  1.0  -0.2845
  C  C46  1  0.273200  0.570300  0.904460  1.0  -0.1535
  C  C47  1  0.305200  0.586100  0.829320  1.0  0.0415
  C  C48  1  0.370000  0.485100  0.787620  1.0  -0.162
  C  C49  1  0.404500  0.509000  0.707120  1.0  0.7327
  C  C50  1  0.400000  0.365200  0.820660  1.0  0.0423
  C  C51  1  0.301700  0.450300  0.938200  1.0  0.0367
  C  C52  1  0.202000  0.682300  0.946200  1.0  0.7239
  S  S53  1  0.882000  0.690830  0.565520  1.0  1.3779
  S  S54  1  0.618000  0.809170  0.065520  1.0  1.3777
  S  S55  1  0.118000  0.309170  0.434480  1.0  1.3778
  S  S56  1  0.382000  0.190830  0.934480  1.0  1.3782
  O  O57  1  0.950400  0.914980  0.832030  1.0  -0.5222
  O  O58  1  0.870900  0.057170  0.964960  1.0  -0.6887
  O  O59  1  0.658700  0.162800  0.487570  1.0  -0.6195
  O  O60  1  0.883500  0.125290  0.813850  1.0  -0.581
  O  O61  1  0.878900  0.702100  0.487290  1.0  -0.5914
  O  O62  1  0.690200  0.287400  0.589680  1.0  -0.5163
  O  O63  1  0.725600  0.613900  0.595740  1.0  -0.7137
  O  O64  1  0.049700  0.642600  0.594950  1.0  -0.6159
  O  O65  1  0.549600  0.585020  0.332030  1.0  -0.5206
  O  O66  1  0.629100  0.442830  0.464960  1.0  -0.6884
  O  O67  1  0.841300  0.337200  0.987570  1.0  -0.619
  O  O68  1  0.616500  0.374710  0.313850  1.0  -0.5807
  O  O69  1  0.621100  0.797900  0.987290  1.0  -0.5912
  O  O70  1  0.809800  0.212600  0.089680  1.0  -0.5174
  O  O71  1  0.774400  0.886100  0.095740  1.0  -0.7135
  O  O72  1  0.450300  0.857400  0.094950  1.0  -0.6153
  O  O73  1  0.049600  0.085020  0.167970  1.0  -0.5204
  O  O74  1  0.129100  0.942830  0.035040  1.0  -0.6884
  O  O75  1  0.341300  0.837200  0.512430  1.0  -0.619
  O  O76  1  0.116500  0.874710  0.186150  1.0  -0.5805
  O  O77  1  0.121100  0.297900  0.512710  1.0  -0.5917
  O  O78  1  0.309800  0.712600  0.410320  1.0  -0.5166
  O  O79  1  0.274400  0.386100  0.404260  1.0  -0.7133
  O  O80  1  0.950300  0.357400  0.405050  1.0  -0.615
  O  O81  1  0.450400  0.414980  0.667970  1.0  -0.5219
  O  O82  1  0.370900  0.557170  0.535040  1.0  -0.6886
  O  O83  1  0.158700  0.662800  0.012430  1.0  -0.6194
  O  O84  1  0.383500  0.625290  0.686150  1.0  -0.5807
  O  O85  1  0.378900  0.202100  0.012710  1.0  -0.5916
  O  O86  1  0.190200  0.787400  0.910320  1.0  -0.5152
  O  O87  1  0.225600  0.113900  0.904260  1.0  -0.714
  O  O88  1  0.549700  0.142600  0.905050  1.0  -0.6163
