# generated using pymatgen
data_Cu2H3C8SO8
_symmetry_space_group_name_H-M   'P 1'
_cell_length_a   7.35600000
_cell_length_b   10.16700000
_cell_length_c   18.20800000
_cell_angle_alpha   90.00000000
_cell_angle_beta   90.00000000
_cell_angle_gamma   94.27700000
_symmetry_Int_Tables_number   1
_chemical_formula_structural   Cu2H3C8SO8
_chemical_formula_sum   'Cu8 H12 C32 S4 O32'
_cell_volume   1357.95587186
_cell_formula_units_Z   4
loop_
 _symmetry_equiv_pos_site_id
 _symmetry_equiv_pos_as_xyz
  1  'x, y, z'
loop_
 _atom_site_type_symbol
 _atom_site_label
 _atom_site_symmetry_multiplicity
 _atom_site_fract_x
 _atom_site_fract_y
 _atom_site_fract_z
 _atom_site_occupancy
 _atom_site_charge
  Cu  Cu1  1  0.866020  0.216990  0.904920  1.0  1.0493
  Cu  Cu2  1  0.041420  0.930450  0.931630  1.0  1.1191
  Cu  Cu3  1  0.633980  0.283010  0.404920  1.0  1.0485
  Cu  Cu4  1  0.458580  0.569550  0.431630  1.0  1.1194
  Cu  Cu5  1  0.133980  0.783010  0.095080  1.0  1.0487
  Cu  Cu6  1  0.958580  0.069550  0.068370  1.0  1.1195
  Cu  Cu7  1  0.366020  0.716990  0.595080  1.0  1.0486
  Cu  Cu8  1  0.541420  0.430450  0.568370  1.0  1.1194
  H  H9  1  0.778800  0.164100  0.692200  1.0  0.1137
  H  H10  1  0.935600  0.794100  0.705800  1.0  0.112
  H  H11  1  0.777100  0.935700  0.510800  1.0  0.115
  H  H12  1  0.721200  0.335900  0.192200  1.0  0.1138
  H  H13  1  0.564400  0.705900  0.205800  1.0  0.1118
  H  H14  1  0.722900  0.564300  0.010800  1.0  0.1144
  H  H15  1  0.221200  0.835900  0.307800  1.0  0.1135
  H  H16  1  0.064400  0.205900  0.294200  1.0  0.112
  H  H17  1  0.222900  0.064300  0.489200  1.0  0.115
  H  H18  1  0.278800  0.664100  0.807800  1.0  0.1136
  H  H19  1  0.435600  0.294100  0.794200  1.0  0.1121
  H  H20  1  0.277100  0.435700  0.989200  1.0  0.1153
  C  C21  1  0.858600  0.847300  0.604000  1.0  -0.2783
  C  C22  1  0.767600  0.068300  0.595300  1.0  -0.1467
  C  C23  1  0.800700  0.084500  0.669900  1.0  0.0372
  C  C24  1  0.865900  0.983900  0.712000  1.0  -0.1636
  C  C25  1  0.900000  0.008200  0.792400  1.0  0.7369
  C  C26  1  0.893900  0.863000  0.678500  1.0  0.041
  C  C27  1  0.797500  0.947700  0.560800  1.0  0.0268
  C  C28  1  0.696900  0.179800  0.552700  1.0  0.718
  C  C29  1  0.641400  0.652700  0.104000  1.0  -0.2779
  C  C30  1  0.732400  0.431700  0.095300  1.0  -0.1478
  C  C31  1  0.699300  0.415500  0.169900  1.0  0.0374
  C  C32  1  0.634100  0.516100  0.212000  1.0  -0.1637
  C  C33  1  0.600000  0.491800  0.292400  1.0  0.7368
  C  C34  1  0.606100  0.637000  0.178500  1.0  0.0417
  C  C35  1  0.702500  0.552300  0.060800  1.0  0.027
  C  C36  1  0.803100  0.320200  0.052700  1.0  0.718
  C  C37  1  0.141400  0.152700  0.396000  1.0  -0.2774
  C  C38  1  0.232400  0.931700  0.404700  1.0  -0.1479
  C  C39  1  0.199300  0.915500  0.330100  1.0  0.0373
  C  C40  1  0.134100  0.016100  0.288000  1.0  -0.1643
  C  C41  1  0.100000  0.991800  0.207600  1.0  0.7368
  C  C42  1  0.106100  0.137000  0.321500  1.0  0.0415
  C  C43  1  0.202500  0.052300  0.439200  1.0  0.0269
  C  C44  1  0.303100  0.820200  0.447300  1.0  0.7179
  C  C45  1  0.358600  0.347300  0.896000  1.0  -0.2781
  C  C46  1  0.267600  0.568300  0.904700  1.0  -0.1469
  C  C47  1  0.300700  0.584500  0.830100  1.0  0.0366
  C  C48  1  0.365900  0.483900  0.788000  1.0  -0.1641
  C  C49  1  0.400000  0.508200  0.707600  1.0  0.7368
  C  C50  1  0.393900  0.363000  0.821500  1.0  0.0404
  C  C51  1  0.297500  0.447700  0.939200  1.0  0.0267
  C  C52  1  0.196900  0.679800  0.947300  1.0  0.7179
  S  S53  1  0.877760  0.689720  0.564890  1.0  1.3787
  S  S54  1  0.622240  0.810280  0.064890  1.0  1.378
  S  S55  1  0.122240  0.310280  0.435110  1.0  1.3782
  S  S56  1  0.377760  0.189720  0.935110  1.0  1.3788
  O  O57  1  0.946400  0.914400  0.831750  1.0  -0.5242
  O  O58  1  0.871900  0.058500  0.964850  1.0  -0.6917
  O  O59  1  0.655900  0.161400  0.485950  1.0  -0.6169
  O  O60  1  0.880700  0.124300  0.813180  1.0  -0.5815
  O  O61  1  0.864600  0.699000  0.486800  1.0  -0.5941
  O  O62  1  0.682300  0.284200  0.589550  1.0  -0.5248
  O  O63  1  0.727500  0.611400  0.597500  1.0  -0.7145
  O  O64  1  0.048400  0.644600  0.592200  1.0  -0.6112
  O  O65  1  0.553600  0.585600  0.331750  1.0  -0.5228
  O  O66  1  0.628100  0.441500  0.464850  1.0  -0.6915
  O  O67  1  0.844100  0.338600  0.985950  1.0  -0.6172
  O  O68  1  0.619300  0.375700  0.313180  1.0  -0.5815
  O  O69  1  0.635400  0.801000  0.986800  1.0  -0.594
  O  O70  1  0.817700  0.215800  0.089550  1.0  -0.5264
  O  O71  1  0.772500  0.888600  0.097500  1.0  -0.7149
  O  O72  1  0.451600  0.855400  0.092200  1.0  -0.6091
  O  O73  1  0.053600  0.085600  0.168250  1.0  -0.5227
  O  O74  1  0.128100  0.941500  0.035150  1.0  -0.6911
  O  O75  1  0.344100  0.838600  0.514050  1.0  -0.617
  O  O76  1  0.119300  0.875700  0.186820  1.0  -0.581
  O  O77  1  0.135400  0.301000  0.513200  1.0  -0.5952
  O  O78  1  0.317700  0.715800  0.410450  1.0  -0.5259
  O  O79  1  0.272500  0.388600  0.402500  1.0  -0.7142
  O  O80  1  0.951600  0.355400  0.407800  1.0  -0.609
  O  O81  1  0.446400  0.414400  0.668250  1.0  -0.5241
  O  O82  1  0.371900  0.558500  0.535150  1.0  -0.6913
  O  O83  1  0.155900  0.661400  0.014050  1.0  -0.6168
  O  O84  1  0.380700  0.624300  0.686820  1.0  -0.581
  O  O85  1  0.364600  0.199000  0.013200  1.0  -0.5953
  O  O86  1  0.182300  0.784200  0.910450  1.0  -0.5247
  O  O87  1  0.227500  0.111400  0.902500  1.0  -0.7148
  O  O88  1  0.548400  0.144600  0.907800  1.0  -0.6114
