# generated using pymatgen
data_Cu2H3C8SO8
_symmetry_space_group_name_H-M   'P 1'
_cell_length_a   7.30600000
_cell_length_b   10.20500000
_cell_length_c   18.11100000
_cell_angle_alpha   90.00000000
_cell_angle_beta   90.00000000
_cell_angle_gamma   94.24800000
_symmetry_Int_Tables_number   1
_chemical_formula_structural   Cu2H3C8SO8
_chemical_formula_sum   'Cu8 H12 C32 S4 O32'
_cell_volume   1346.60542387
_cell_formula_units_Z   4
loop_
 _symmetry_equiv_pos_site_id
 _symmetry_equiv_pos_as_xyz
  1  'x, y, z'
loop_
 _atom_site_type_symbol
 _atom_site_label
 _atom_site_symmetry_multiplicity
 _atom_site_fract_x
 _atom_site_fract_y
 _atom_site_fract_z
 _atom_site_occupancy
 _atom_site_charge
  Cu  Cu1  1  0.864580  0.215890  0.905280  1.0  1.0566
  Cu  Cu2  1  0.039480  0.929780  0.931590  1.0  1.1203
  Cu  Cu3  1  0.635420  0.284110  0.405280  1.0  1.0558
  Cu  Cu4  1  0.460520  0.570220  0.431590  1.0  1.1198
  Cu  Cu5  1  0.135420  0.784110  0.094720  1.0  1.0561
  Cu  Cu6  1  0.960520  0.070220  0.068410  1.0  1.1205
  Cu  Cu7  1  0.364580  0.715890  0.594720  1.0  1.0565
  Cu  Cu8  1  0.539480  0.429780  0.568410  1.0  1.1204
  H  H9  1  0.779400  0.164700  0.691900  1.0  0.1096
  H  H10  1  0.935800  0.797300  0.707000  1.0  0.1126
  H  H11  1  0.772500  0.936800  0.510700  1.0  0.1128
  H  H12  1  0.720600  0.335300  0.191900  1.0  0.1098
  H  H13  1  0.564200  0.702700  0.207000  1.0  0.1126
  H  H14  1  0.727500  0.563200  0.010700  1.0  0.1123
  H  H15  1  0.220600  0.835300  0.308100  1.0  0.1094
  H  H16  1  0.064200  0.202700  0.293000  1.0  0.1127
  H  H17  1  0.227500  0.063200  0.489300  1.0  0.1123
  H  H18  1  0.279400  0.664700  0.808100  1.0  0.1093
  H  H19  1  0.435800  0.297300  0.793000  1.0  0.1125
  H  H20  1  0.272500  0.436800  0.989300  1.0  0.1124
  C  C21  1  0.858600  0.848300  0.604000  1.0  -0.284
  C  C22  1  0.766000  0.069100  0.595100  1.0  -0.1537
  C  C23  1  0.799900  0.085000  0.669600  1.0  0.0437
  C  C24  1  0.863900  0.984700  0.712000  1.0  -0.1678
  C  C25  1  0.899200  0.009200  0.792400  1.0  0.7309
  C  C26  1  0.893300  0.865300  0.679200  1.0  0.0565
  C  C27  1  0.795000  0.949100  0.560800  1.0  0.0349
  C  C28  1  0.694200  0.180000  0.553000  1.0  0.7292
  C  C29  1  0.641400  0.651700  0.104000  1.0  -0.2839
  C  C30  1  0.734000  0.430900  0.095100  1.0  -0.1545
  C  C31  1  0.700100  0.415000  0.169600  1.0  0.0435
  C  C32  1  0.636100  0.515300  0.212000  1.0  -0.1678
  C  C33  1  0.600800  0.490800  0.292400  1.0  0.7309
  C  C34  1  0.606700  0.634700  0.179200  1.0  0.0574
  C  C35  1  0.705000  0.550900  0.060800  1.0  0.0356
  C  C36  1  0.805800  0.320000  0.053000  1.0  0.7292
  C  C37  1  0.141400  0.151700  0.396000  1.0  -0.2837
  C  C38  1  0.234000  0.930900  0.404900  1.0  -0.1548
  C  C39  1  0.200100  0.915000  0.330400  1.0  0.0433
  C  C40  1  0.136100  0.015300  0.288000  1.0  -0.1687
  C  C41  1  0.100800  0.990800  0.207600  1.0  0.7309
  C  C42  1  0.106700  0.134700  0.320800  1.0  0.0559
  C  C43  1  0.205000  0.050900  0.439200  1.0  0.036
  C  C44  1  0.305800  0.820000  0.447000  1.0  0.7287
  C  C45  1  0.358600  0.348300  0.896000  1.0  -0.2838
  C  C46  1  0.266000  0.569100  0.904900  1.0  -0.154
  C  C47  1  0.299900  0.585000  0.830400  1.0  0.0437
  C  C48  1  0.363900  0.484700  0.788000  1.0  -0.1683
  C  C49  1  0.399200  0.509200  0.707600  1.0  0.7309
  C  C50  1  0.393300  0.365300  0.820800  1.0  0.0552
  C  C51  1  0.295000  0.449100  0.939200  1.0  0.0352
  C  C52  1  0.194200  0.680000  0.947000  1.0  0.7286
  S  S53  1  0.876100  0.690420  0.565090  1.0  1.3816
  S  S54  1  0.623900  0.809580  0.065090  1.0  1.3813
  S  S55  1  0.123900  0.309580  0.434910  1.0  1.3814
  S  S56  1  0.376100  0.190420  0.934910  1.0  1.3819
  O  O57  1  0.944100  0.914400  0.832170  1.0  -0.5298
  O  O58  1  0.869700  0.058300  0.965580  1.0  -0.6943
  O  O59  1  0.656000  0.161700  0.486200  1.0  -0.6215
  O  O60  1  0.877500  0.124300  0.813500  1.0  -0.5782
  O  O61  1  0.859500  0.700600  0.486900  1.0  -0.599
  O  O62  1  0.677800  0.282400  0.589200  1.0  -0.5229
  O  O63  1  0.726200  0.611100  0.598800  1.0  -0.7175
  O  O64  1  0.048400  0.647100  0.591500  1.0  -0.6205
  O  O65  1  0.555900  0.585600  0.332170  1.0  -0.5295
  O  O66  1  0.630300  0.441700  0.465580  1.0  -0.6939
  O  O67  1  0.844000  0.338300  0.986200  1.0  -0.6212
  O  O68  1  0.622500  0.375700  0.313500  1.0  -0.5783
  O  O69  1  0.640500  0.799400  0.986900  1.0  -0.5988
  O  O70  1  0.822200  0.217600  0.089200  1.0  -0.5229
  O  O71  1  0.773800  0.888900  0.098800  1.0  -0.7173
  O  O72  1  0.451600  0.852900  0.091500  1.0  -0.6192
  O  O73  1  0.055900  0.085600  0.167830  1.0  -0.5291
  O  O74  1  0.130300  0.941700  0.034420  1.0  -0.6936
  O  O75  1  0.344000  0.838300  0.513800  1.0  -0.6204
  O  O76  1  0.122500  0.875700  0.186500  1.0  -0.5778
  O  O77  1  0.140500  0.299400  0.513100  1.0  -0.5993
  O  O78  1  0.322200  0.717600  0.410800  1.0  -0.5229
  O  O79  1  0.273800  0.388900  0.401200  1.0  -0.7163
  O  O80  1  0.951600  0.352900  0.408500  1.0  -0.6191
  O  O81  1  0.444100  0.414400  0.667830  1.0  -0.5294
  O  O82  1  0.369700  0.558300  0.534420  1.0  -0.6939
  O  O83  1  0.156000  0.661700  0.013800  1.0  -0.6211
  O  O84  1  0.377500  0.624300  0.686500  1.0  -0.5778
  O  O85  1  0.359500  0.200600  0.013100  1.0  -0.5995
  O  O86  1  0.177800  0.782400  0.910800  1.0  -0.5225
  O  O87  1  0.226200  0.111100  0.901200  1.0  -0.7175
  O  O88  1  0.548400  0.147100  0.908500  1.0  -0.6206
