# generated using pymatgen
data_Cu2H3C8SO8
_symmetry_space_group_name_H-M   'P 1'
_cell_length_a   7.31000000
_cell_length_b   10.14500000
_cell_length_c   18.28000000
_cell_angle_alpha   90.00000000
_cell_angle_beta   90.00000000
_cell_angle_gamma   94.64500000
_symmetry_Int_Tables_number   1
_chemical_formula_structural   Cu2H3C8SO8
_chemical_formula_sum   'Cu8 H12 C32 S4 O32'
_cell_volume   1351.19138610
_cell_formula_units_Z   4
loop_
 _symmetry_equiv_pos_site_id
 _symmetry_equiv_pos_as_xyz
  1  'x, y, z'
loop_
 _atom_site_type_symbol
 _atom_site_label
 _atom_site_symmetry_multiplicity
 _atom_site_fract_x
 _atom_site_fract_y
 _atom_site_fract_z
 _atom_site_occupancy
 _atom_site_charge
  Cu  Cu1  1  0.866460  0.217500  0.906870  1.0  1.0474
  Cu  Cu2  1  0.049920  0.934800  0.931520  1.0  1.1124
  Cu  Cu3  1  0.633540  0.282500  0.406870  1.0  1.0472
  Cu  Cu4  1  0.450080  0.565200  0.431520  1.0  1.1127
  Cu  Cu5  1  0.133540  0.782500  0.093130  1.0  1.0473
  Cu  Cu6  1  0.950080  0.065200  0.068480  1.0  1.1128
  Cu  Cu7  1  0.366460  0.717500  0.593130  1.0  1.0467
  Cu  Cu8  1  0.549920  0.434800  0.568480  1.0  1.1126
  H  H9  1  0.789400  0.168700  0.694400  1.0  0.1132
  H  H10  1  0.948900  0.799000  0.706900  1.0  0.1153
  H  H11  1  0.787300  0.942400  0.513300  1.0  0.1104
  H  H12  1  0.710600  0.331300  0.194400  1.0  0.1132
  H  H13  1  0.551100  0.701000  0.206900  1.0  0.115
  H  H14  1  0.712700  0.557600  0.013300  1.0  0.1101
  H  H15  1  0.210600  0.831300  0.305600  1.0  0.1126
  H  H16  1  0.051100  0.201000  0.293100  1.0  0.1151
  H  H17  1  0.212700  0.057600  0.486700  1.0  0.1102
  H  H18  1  0.289400  0.668700  0.805600  1.0  0.1128
  H  H19  1  0.448900  0.299000  0.793100  1.0  0.1152
  H  H20  1  0.287300  0.442400  0.986700  1.0  0.1102
  C  C21  1  0.870200  0.853000  0.604910  1.0  -0.2799
  C  C22  1  0.779800  0.074800  0.596930  1.0  -0.1441
  C  C23  1  0.811400  0.089300  0.671740  1.0  0.036
  C  C24  1  0.875000  0.987800  0.713350  1.0  -0.1635
  C  C25  1  0.907200  0.010800  0.793320  1.0  0.7309
  C  C26  1  0.905700  0.867800  0.679880  1.0  0.0417
  C  C27  1  0.808900  0.954100  0.563060  1.0  0.0416
  C  C28  1  0.708900  0.186500  0.555060  1.0  0.7139
  C  C29  1  0.629800  0.647000  0.104910  1.0  -0.28
  C  C30  1  0.720200  0.425200  0.096930  1.0  -0.1447
  C  C31  1  0.688600  0.410700  0.171740  1.0  0.0355
  C  C32  1  0.625000  0.512200  0.213350  1.0  -0.1634
  C  C33  1  0.592800  0.489200  0.293320  1.0  0.7307
  C  C34  1  0.594300  0.632200  0.179880  1.0  0.0416
  C  C35  1  0.691100  0.545900  0.063060  1.0  0.0417
  C  C36  1  0.791100  0.313500  0.055060  1.0  0.7133
  C  C37  1  0.129800  0.147000  0.395090  1.0  -0.2799
  C  C38  1  0.220200  0.925200  0.403070  1.0  -0.1446
  C  C39  1  0.188600  0.910700  0.328260  1.0  0.0356
  C  C40  1  0.125000  0.012200  0.286650  1.0  -0.1632
  C  C41  1  0.092800  0.989200  0.206680  1.0  0.7309
  C  C42  1  0.094300  0.132200  0.320120  1.0  0.0404
  C  C43  1  0.191100  0.045900  0.436940  1.0  0.0426
  C  C44  1  0.291100  0.813500  0.444940  1.0  0.713
  C  C45  1  0.370200  0.353000  0.895090  1.0  -0.2799
  C  C46  1  0.279800  0.574800  0.903070  1.0  -0.1441
  C  C47  1  0.311400  0.589300  0.828260  1.0  0.0359
  C  C48  1  0.375000  0.487800  0.786650  1.0  -0.1631
  C  C49  1  0.407200  0.510800  0.706680  1.0  0.7311
  C  C50  1  0.405700  0.367800  0.820120  1.0  0.0401
  C  C51  1  0.308900  0.454100  0.936940  1.0  0.042
  C  C52  1  0.208900  0.686500  0.944940  1.0  0.7133
  S  S53  1  0.884910  0.694330  0.566200  1.0  1.3711
  S  S54  1  0.615090  0.805670  0.066200  1.0  1.3706
  S  S55  1  0.115090  0.305670  0.433800  1.0  1.3706
  S  S56  1  0.384910  0.194330  0.933800  1.0  1.3714
  O  O57  1  0.954500  0.915670  0.832470  1.0  -0.5267
  O  O58  1  0.868600  0.054160  0.964970  1.0  -0.6804
  O  O59  1  0.661600  0.165700  0.489560  1.0  -0.6191
  O  O60  1  0.884100  0.126100  0.814960  1.0  -0.5771
  O  O61  1  0.888400  0.706600  0.487380  1.0  -0.5977
  O  O62  1  0.700300  0.293600  0.590500  1.0  -0.5114
  O  O63  1  0.720900  0.620100  0.593780  1.0  -0.7218
  O  O64  1  0.048600  0.642800  0.596930  1.0  -0.6109
  O  O65  1  0.545500  0.584330  0.332470  1.0  -0.5263
  O  O66  1  0.631400  0.445840  0.464970  1.0  -0.6807
  O  O67  1  0.838400  0.334300  0.989560  1.0  -0.6187
  O  O68  1  0.615900  0.373900  0.314960  1.0  -0.5769
  O  O69  1  0.611600  0.793400  0.987380  1.0  -0.5977
  O  O70  1  0.799700  0.206400  0.090500  1.0  -0.5135
  O  O71  1  0.779100  0.879900  0.093780  1.0  -0.7222
  O  O72  1  0.451400  0.857200  0.096930  1.0  -0.6103
  O  O73  1  0.045500  0.084330  0.167530  1.0  -0.5252
  O  O74  1  0.131400  0.945840  0.035030  1.0  -0.6807
  O  O75  1  0.338400  0.834300  0.510440  1.0  -0.6182
  O  O76  1  0.115900  0.873900  0.185040  1.0  -0.5769
  O  O77  1  0.111600  0.293400  0.512620  1.0  -0.5972
  O  O78  1  0.299700  0.706400  0.409500  1.0  -0.5124
  O  O79  1  0.279100  0.379900  0.406220  1.0  -0.722
  O  O80  1  0.951400  0.357200  0.403070  1.0  -0.6108
  O  O81  1  0.454500  0.415670  0.667530  1.0  -0.5258
  O  O82  1  0.368600  0.554160  0.535030  1.0  -0.6804
  O  O83  1  0.161600  0.665700  0.010440  1.0  -0.6183
  O  O84  1  0.384100  0.626100  0.685040  1.0  -0.577
  O  O85  1  0.388400  0.206600  0.012620  1.0  -0.597
  O  O86  1  0.200300  0.793600  0.909500  1.0  -0.5108
  O  O87  1  0.220900  0.120100  0.906220  1.0  -0.7218
  O  O88  1  0.548600  0.142800  0.903070  1.0  -0.6115
