# generated using pymatgen
data_Cu2H3C8SO8
_symmetry_space_group_name_H-M   'P 1'
_cell_length_a   7.29490000
_cell_length_b   10.12450000
_cell_length_c   18.27260000
_cell_angle_alpha   90.00000000
_cell_angle_beta   90.00000000
_cell_angle_gamma   94.89100000
_symmetry_Int_Tables_number   1
_chemical_formula_structural   Cu2H3C8SO8
_chemical_formula_sum   'Cu8 H12 C32 S4 O32'
_cell_volume   1344.64918427
_cell_formula_units_Z   4
loop_
 _symmetry_equiv_pos_site_id
 _symmetry_equiv_pos_as_xyz
  1  'x, y, z'
loop_
 _atom_site_type_symbol
 _atom_site_label
 _atom_site_symmetry_multiplicity
 _atom_site_fract_x
 _atom_site_fract_y
 _atom_site_fract_z
 _atom_site_occupancy
 _atom_site_charge
  Cu  Cu1  1  0.866330  0.217140  0.907520  1.0  1.0463
  Cu  Cu2  1  0.051410  0.935770  0.931490  1.0  1.1094
  Cu  Cu3  1  0.633670  0.282860  0.407520  1.0  1.0462
  Cu  Cu4  1  0.448590  0.564230  0.431490  1.0  1.1095
  Cu  Cu5  1  0.133670  0.782860  0.092480  1.0  1.0461
  Cu  Cu6  1  0.948590  0.064230  0.068510  1.0  1.1096
  Cu  Cu7  1  0.366330  0.717140  0.592480  1.0  1.0454
  Cu  Cu8  1  0.551410  0.435770  0.568510  1.0  1.1096
  H  H9  1  0.792100  0.170900  0.695000  1.0  0.114
  H  H10  1  0.952000  0.801000  0.706800  1.0  0.1144
  H  H11  1  0.790500  0.945700  0.513300  1.0  0.1129
  H  H12  1  0.707900  0.329100  0.195000  1.0  0.1139
  H  H13  1  0.548000  0.699000  0.206800  1.0  0.114
  H  H14  1  0.709500  0.554300  0.013300  1.0  0.1125
  H  H15  1  0.207900  0.829100  0.305000  1.0  0.1133
  H  H16  1  0.048000  0.199000  0.293200  1.0  0.1141
  H  H17  1  0.209500  0.054300  0.486700  1.0  0.1127
  H  H18  1  0.292100  0.670900  0.805000  1.0  0.1135
  H  H19  1  0.452000  0.301000  0.793200  1.0  0.1143
  H  H20  1  0.290500  0.445700  0.986700  1.0  0.1129
  C  C21  1  0.874000  0.855500  0.604890  1.0  -0.281
  C  C22  1  0.783100  0.077000  0.597570  1.0  -0.1414
  C  C23  1  0.814000  0.091600  0.672210  1.0  0.0367
  C  C24  1  0.877600  0.989100  0.713580  1.0  -0.1625
  C  C25  1  0.908300  0.011700  0.793680  1.0  0.7312
  C  C26  1  0.908800  0.870000  0.679960  1.0  0.0481
  C  C27  1  0.812200  0.957000  0.563110  1.0  0.0316
  C  C28  1  0.712700  0.188800  0.555550  1.0  0.713
  C  C29  1  0.626000  0.644500  0.104890  1.0  -0.2811
  C  C30  1  0.716900  0.423000  0.097570  1.0  -0.1422
  C  C31  1  0.686000  0.408400  0.172210  1.0  0.0363
  C  C32  1  0.622400  0.510900  0.213580  1.0  -0.1624
  C  C33  1  0.591700  0.488300  0.293680  1.0  0.7311
  C  C34  1  0.591200  0.630000  0.179960  1.0  0.0493
  C  C35  1  0.687800  0.543000  0.063110  1.0  0.0312
  C  C36  1  0.787300  0.311200  0.055550  1.0  0.7124
  C  C37  1  0.126000  0.144500  0.395110  1.0  -0.2811
  C  C38  1  0.216900  0.923000  0.402430  1.0  -0.1423
  C  C39  1  0.186000  0.908400  0.327790  1.0  0.0362
  C  C40  1  0.122400  0.010900  0.286420  1.0  -0.1623
  C  C41  1  0.091700  0.988300  0.206320  1.0  0.7311
  C  C42  1  0.091200  0.130000  0.320040  1.0  0.0485
  C  C43  1  0.187800  0.043000  0.436890  1.0  0.0318
  C  C44  1  0.287300  0.811200  0.444450  1.0  0.7124
  C  C45  1  0.374000  0.355500  0.895110  1.0  -0.281
  C  C46  1  0.283100  0.577000  0.902430  1.0  -0.1416
  C  C47  1  0.314000  0.591600  0.827790  1.0  0.0367
  C  C48  1  0.377600  0.489100  0.786420  1.0  -0.1622
  C  C49  1  0.408300  0.511700  0.706320  1.0  0.7312
  C  C50  1  0.408800  0.370000  0.820040  1.0  0.0472
  C  C51  1  0.312200  0.457000  0.936890  1.0  0.0317
  C  C52  1  0.212700  0.688800  0.944450  1.0  0.7127
  S  S53  1  0.886020  0.696240  0.566490  1.0  1.371
  S  S54  1  0.613980  0.803760  0.066490  1.0  1.3703
  S  S55  1  0.113980  0.303760  0.433510  1.0  1.3703
  S  S56  1  0.386020  0.196240  0.933510  1.0  1.3713
  O  O57  1  0.955600  0.916390  0.832310  1.0  -0.5217
  O  O58  1  0.867000  0.052870  0.965010  1.0  -0.6791
  O  O59  1  0.663100  0.167220  0.490250  1.0  -0.617
  O  O60  1  0.884200  0.127190  0.815450  1.0  -0.5762
  O  O61  1  0.892100  0.708610  0.487540  1.0  -0.5924
  O  O62  1  0.705000  0.296780  0.590720  1.0  -0.5102
  O  O63  1  0.717300  0.623280  0.592940  1.0  -0.7312
  O  O64  1  0.048100  0.642840  0.598050  1.0  -0.6148
  O  O65  1  0.544400  0.583610  0.332310  1.0  -0.5203
  O  O66  1  0.633000  0.447130  0.465010  1.0  -0.6795
  O  O67  1  0.836900  0.332780  0.990250  1.0  -0.6165
  O  O68  1  0.615800  0.372810  0.315450  1.0  -0.5762
  O  O69  1  0.607900  0.791390  0.987540  1.0  -0.5925
  O  O70  1  0.795000  0.203220  0.090720  1.0  -0.5118
  O  O71  1  0.782700  0.876720  0.092940  1.0  -0.7315
  O  O72  1  0.451900  0.857160  0.098050  1.0  -0.6139
  O  O73  1  0.044400  0.083610  0.167690  1.0  -0.5192
  O  O74  1  0.133000  0.947130  0.034990  1.0  -0.6795
  O  O75  1  0.336900  0.832780  0.509750  1.0  -0.6162
  O  O76  1  0.115800  0.872810  0.184550  1.0  -0.5762
  O  O77  1  0.107900  0.291390  0.512460  1.0  -0.5934
  O  O78  1  0.295000  0.703220  0.409280  1.0  -0.5109
  O  O79  1  0.282700  0.376720  0.407060  1.0  -0.7312
  O  O80  1  0.951900  0.357160  0.401950  1.0  -0.6142
  O  O81  1  0.455600  0.416390  0.667690  1.0  -0.5205
  O  O82  1  0.367000  0.552870  0.534990  1.0  -0.6791
  O  O83  1  0.163100  0.667220  0.009750  1.0  -0.6163
  O  O84  1  0.384200  0.627190  0.684550  1.0  -0.576
  O  O85  1  0.392100  0.208610  0.012460  1.0  -0.5931
  O  O86  1  0.205000  0.796780  0.909280  1.0  -0.5098
  O  O87  1  0.217300  0.123280  0.907060  1.0  -0.7314
  O  O88  1  0.548100  0.142840  0.901950  1.0  -0.6151
