# generated using pymatgen
data_CdH10C12S(N3O2)2
_symmetry_space_group_name_H-M   'P 1'
_cell_length_a   5.70300000
_cell_length_b   10.62300000
_cell_length_c   29.89000000
_cell_angle_alpha   90.00000000
_cell_angle_beta   90.00000000
_cell_angle_gamma   90.00000000
_symmetry_Int_Tables_number   1
_chemical_formula_structural   CdH10C12S(N3O2)2
_chemical_formula_sum   'Cd4 H40 C48 S4 N24 O16'
_cell_volume   1810.82494341
_cell_formula_units_Z   4
loop_
 _symmetry_equiv_pos_site_id
 _symmetry_equiv_pos_as_xyz
  1  'x, y, z'
loop_
 _atom_site_type_symbol
 _atom_site_label
 _atom_site_symmetry_multiplicity
 _atom_site_fract_x
 _atom_site_fract_y
 _atom_site_fract_z
 _atom_site_occupancy
 _atom_site_charge
  Cd  Cd1  1  0.824800  0.007060  0.760850  1.0  1.1232
  Cd  Cd2  1  0.675200  0.992940  0.260850  1.0  1.1237
  Cd  Cd3  1  0.175200  0.507060  0.739150  1.0  1.1233
  Cd  Cd4  1  0.324800  0.492940  0.239150  1.0  1.1236
  H  H5  1  0.451800  0.131600  0.827500  1.0  0.0891
  H  H6  1  0.365400  0.156800  0.901700  1.0  0.1119
  H  H7  1  0.985700  0.003000  0.932400  1.0  0.1141
  H  H8  1  0.055600  0.980800  0.857000  1.0  0.08
  H  H9  1  0.937400  0.999000  0.094600  1.0  0.1254
  H  H10  1  0.957500  0.973100  0.170700  1.0  0.0879
  H  H11  1  0.307300  0.160500  0.112100  1.0  0.1059
  H  H12  1  0.347200  0.131100  0.187200  1.0  0.0799
  H  H13  1  0.950500  0.964400  0.986100  1.0  0.3231
  H  H14  1  0.030900  0.049100  0.021100  1.0  0.3151
  H  H15  1  0.048200  0.868400  0.327500  1.0  0.0892
  H  H16  1  0.134600  0.843200  0.401700  1.0  0.1119
  H  H17  1  0.514300  0.997000  0.432400  1.0  0.1132
  H  H18  1  0.444400  0.019200  0.357000  1.0  0.0799
  H  H19  1  0.562600  0.001000  0.594600  1.0  0.1256
  H  H20  1  0.542500  0.026900  0.670700  1.0  0.088
  H  H21  1  0.192700  0.839500  0.612100  1.0  0.1061
  H  H22  1  0.152800  0.868900  0.687200  1.0  0.0804
  H  H23  1  0.549500  0.035600  0.486100  1.0  0.3233
  H  H24  1  0.469100  0.950900  0.521100  1.0  0.3138
  H  H25  1  0.548200  0.631600  0.672500  1.0  0.0899
  H  H26  1  0.634600  0.656800  0.598300  1.0  0.112
  H  H27  1  0.014300  0.503000  0.567600  1.0  0.113
  H  H28  1  0.944400  0.480800  0.643000  1.0  0.0801
  H  H29  1  0.062600  0.499000  0.405400  1.0  0.1257
  H  H30  1  0.042500  0.473100  0.329300  1.0  0.0881
  H  H31  1  0.692700  0.660500  0.387900  1.0  0.1056
  H  H32  1  0.652800  0.631100  0.312800  1.0  0.0792
  H  H33  1  0.049500  0.464400  0.513900  1.0  0.3234
  H  H34  1  0.969100  0.549100  0.478900  1.0  0.313
  H  H35  1  0.951800  0.368400  0.172500  1.0  0.0897
  H  H36  1  0.865400  0.343200  0.098300  1.0  0.1123
  H  H37  1  0.485700  0.497000  0.067600  1.0  0.1131
  H  H38  1  0.555600  0.519200  0.143000  1.0  0.0796
  H  H39  1  0.437400  0.501000  0.905400  1.0  0.1255
  H  H40  1  0.457500  0.526900  0.829300  1.0  0.088
  H  H41  1  0.807300  0.339500  0.887900  1.0  0.1059
  H  H42  1  0.847200  0.368900  0.812800  1.0  0.0792
  H  H43  1  0.450500  0.535600  0.013900  1.0  0.3221
  H  H44  1  0.530900  0.450900  0.978900  1.0  0.3136
  C  C45  1  0.559300  0.104300  0.848760  1.0  0.1945
  C  C46  1  0.506200  0.119400  0.893390  1.0  -0.166
  C  C47  1  0.661700  0.079200  0.925930  1.0  0.0632
  C  C48  1  0.873300  0.028300  0.911770  1.0  -0.2144
  C  C49  1  0.914200  0.015800  0.866190  1.0  0.2054
  C  C50  1  0.593300  0.095200  0.973100  1.0  0.1996
  C  C51  1  0.573400  0.096400  0.045620  1.0  0.2206
  C  C52  1  0.613700  0.079500  0.093820  1.0  0.0621
  C  C53  1  0.813700  0.024900  0.112650  1.0  -0.1961
  C  C54  1  0.824200  0.010100  0.158510  1.0  0.2064
  C  C55  1  0.440500  0.120700  0.123150  1.0  -0.1585
  C  C56  1  0.465500  0.102800  0.168320  1.0  0.1896
  C  C57  1  0.940700  0.895700  0.348760  1.0  0.1945
  C  C58  1  0.993800  0.880600  0.393390  1.0  -0.1673
  C  C59  1  0.838300  0.920800  0.425930  1.0  0.0627
  C  C60  1  0.626700  0.971700  0.411770  1.0  -0.2105
  C  C61  1  0.585800  0.984200  0.366190  1.0  0.2063
  C  C62  1  0.906700  0.904800  0.473100  1.0  0.199
  C  C63  1  0.926600  0.903600  0.545620  1.0  0.2205
  C  C64  1  0.886300  0.920500  0.593820  1.0  0.062
  C  C65  1  0.686300  0.975100  0.612650  1.0  -0.1977
  C  C66  1  0.675800  0.989900  0.658510  1.0  0.2059
  C  C67  1  0.059500  0.879300  0.623150  1.0  -0.1589
  C  C68  1  0.034500  0.897200  0.668320  1.0  0.1898
  C  C69  1  0.440700  0.604300  0.651240  1.0  0.1947
  C  C70  1  0.493800  0.619400  0.606610  1.0  -0.1674
  C  C71  1  0.338300  0.579200  0.574070  1.0  0.0625
  C  C72  1  0.126700  0.528300  0.588230  1.0  -0.2131
  C  C73  1  0.085800  0.515800  0.633810  1.0  0.2064
  C  C74  1  0.406700  0.595200  0.526900  1.0  0.199
  C  C75  1  0.426600  0.596400  0.454380  1.0  0.221
  C  C76  1  0.386300  0.579500  0.406180  1.0  0.0612
  C  C77  1  0.186300  0.524900  0.387350  1.0  -0.1978
  C  C78  1  0.175800  0.510100  0.341490  1.0  0.2065
  C  C79  1  0.559500  0.620700  0.376850  1.0  -0.1615
  C  C80  1  0.534500  0.602800  0.331680  1.0  0.1896
  C  C81  1  0.059300  0.395700  0.151240  1.0  0.1947
  C  C82  1  0.006200  0.380600  0.106610  1.0  -0.1661
  C  C83  1  0.161700  0.420800  0.074070  1.0  0.0635
  C  C84  1  0.373300  0.471700  0.088230  1.0  -0.2106
  C  C85  1  0.414200  0.484200  0.133810  1.0  0.2055
  C  C86  1  0.093300  0.404800  0.026900  1.0  0.1993
  C  C87  1  0.073400  0.403600  0.954380  1.0  0.2209
  C  C88  1  0.113700  0.420500  0.906180  1.0  0.062
  C  C89  1  0.313700  0.475100  0.887350  1.0  -0.1959
  C  C90  1  0.324200  0.489900  0.841490  1.0  0.2067
  C  C91  1  0.940500  0.379300  0.876850  1.0  -0.1589
  C  C92  1  0.965500  0.397200  0.831680  1.0  0.1901
  S  S93  1  0.327070  0.813400  0.781740  1.0  1.6857
  S  S94  1  0.172930  0.186600  0.281740  1.0  1.6853
  S  S95  1  0.672930  0.313400  0.718260  1.0  1.6855
  S  S96  1  0.827070  0.686600  0.218260  1.0  1.6855
  N  N97  1  0.760400  0.051500  0.834810  1.0  -0.3572
  N  N98  1  0.653000  0.046300  0.186470  1.0  -0.3407
  N  N99  1  0.917300  0.996500  0.012850  1.0  -0.5937
  N  N100  1  0.396800  0.150600  0.984180  1.0  -0.2918
  N  N101  1  0.388900  0.154100  0.031050  1.0  -0.2894
  N  N102  1  0.707900  0.060700  0.010740  1.0  0.1546
  N  N103  1  0.739600  0.948500  0.334810  1.0  -0.3558
  N  N104  1  0.847000  0.953700  0.686470  1.0  -0.341
  N  N105  1  0.582700  0.003500  0.512850  1.0  -0.5957
  N  N106  1  0.103200  0.849400  0.484180  1.0  -0.2903
  N  N107  1  0.111100  0.845900  0.531050  1.0  -0.2884
  N  N108  1  0.792100  0.939300  0.510740  1.0  0.1551
  N  N109  1  0.239600  0.551500  0.665190  1.0  -0.3551
  N  N110  1  0.347000  0.546300  0.313530  1.0  -0.3422
  N  N111  1  0.082700  0.496500  0.487150  1.0  -0.5966
  N  N112  1  0.603200  0.650600  0.515820  1.0  -0.2905
  N  N113  1  0.611100  0.654100  0.468950  1.0  -0.2882
  N  N114  1  0.292100  0.560700  0.489260  1.0  0.1549
  N  N115  1  0.260400  0.448500  0.165190  1.0  -0.355
  N  N116  1  0.153000  0.453700  0.813530  1.0  -0.3415
  N  N117  1  0.417300  0.503500  0.987150  1.0  -0.5958
  N  N118  1  0.896800  0.349400  0.015820  1.0  -0.2916
  N  N119  1  0.888900  0.345900  0.968950  1.0  -0.2885
  N  N120  1  0.207900  0.439300  0.989260  1.0  0.1552
  O  O121  1  0.069500  0.838600  0.778200  1.0  -0.8147
  O  O122  1  0.453800  0.915400  0.758440  1.0  -0.7854
  O  O123  1  0.375100  0.692200  0.758920  1.0  -0.782
  O  O124  1  0.391900  0.807000  0.828780  1.0  -0.7461
  O  O125  1  0.430500  0.161400  0.278200  1.0  -0.8147
  O  O126  1  0.046200  0.084600  0.258440  1.0  -0.7854
  O  O127  1  0.124900  0.307800  0.258920  1.0  -0.7818
  O  O128  1  0.108100  0.193000  0.328780  1.0  -0.7455
  O  O129  1  0.930500  0.338600  0.721800  1.0  -0.8145
  O  O130  1  0.546200  0.415400  0.741560  1.0  -0.7859
  O  O131  1  0.624900  0.192200  0.741080  1.0  -0.7818
  O  O132  1  0.608100  0.307000  0.671220  1.0  -0.7457
  O  O133  1  0.569500  0.661400  0.221800  1.0  -0.8148
  O  O134  1  0.953800  0.584600  0.241560  1.0  -0.7862
  O  O135  1  0.875100  0.807800  0.241080  1.0  -0.782
  O  O136  1  0.891900  0.693000  0.171220  1.0  -0.7475
