# generated using pymatgen
data_AgH11C11SN3
_symmetry_space_group_name_H-M   'P 1'
_cell_length_a   13.93900000
_cell_length_b   8.33400000
_cell_length_c   12.85600000
_cell_angle_alpha   90.00000000
_cell_angle_beta   90.00000000
_cell_angle_gamma   90.00000000
_symmetry_Int_Tables_number   1
_chemical_formula_structural   AgH11C11SN3
_chemical_formula_sum   'Ag4 H44 C44 S4 N12'
_cell_volume   1493.45099986
_cell_formula_units_Z   4
loop_
 _symmetry_equiv_pos_site_id
 _symmetry_equiv_pos_as_xyz
  1  'x, y, z'
loop_
 _atom_site_type_symbol
 _atom_site_label
 _atom_site_symmetry_multiplicity
 _atom_site_fract_x
 _atom_site_fract_y
 _atom_site_fract_z
 _atom_site_occupancy
 _atom_site_charge
  Ag  Ag1  1  0.056380  0.603690  0.202470  1.0  0.2884
  Ag  Ag2  1  0.943620  0.396310  0.702470  1.0  0.2873
  Ag  Ag3  1  0.556380  0.896310  0.202470  1.0  0.2881
  Ag  Ag4  1  0.443620  0.103690  0.702470  1.0  0.2877
  H  H5  1  0.194000  0.933200  0.121200  1.0  0.0651
  H  H6  1  0.355700  0.985600  0.107000  1.0  0.0701
  H  H7  1  0.405700  0.691000  0.337400  1.0  0.0824
  H  H8  1  0.194300  0.672500  0.437700  1.0  0.1487
  H  H9  1  0.280600  0.554700  0.421800  1.0  0.1337
  H  H10  1  0.190000  0.227800  0.244200  1.0  0.1191
  H  H11  1  0.267300  0.364000  0.232600  1.0  0.1167
  H  H12  1  0.409400  0.354900  0.339000  1.0  0.1093
  H  H13  1  0.491400  0.255000  0.481000  1.0  0.0533
  H  H14  1  0.279000  0.970600  0.551100  1.0  0.0607
  H  H15  1  0.188500  0.067000  0.414900  1.0  0.1064
  H  H16  1  0.806000  0.066800  0.621200  1.0  0.0653
  H  H17  1  0.644300  0.014400  0.607000  1.0  0.0701
  H  H18  1  0.594300  0.309000  0.837400  1.0  0.0821
  H  H19  1  0.805700  0.327500  0.937700  1.0  0.1492
  H  H20  1  0.719400  0.445300  0.921800  1.0  0.1326
  H  H21  1  0.810000  0.772200  0.744200  1.0  0.1184
  H  H22  1  0.732700  0.636000  0.732600  1.0  0.1167
  H  H23  1  0.590600  0.645100  0.839000  1.0  0.109
  H  H24  1  0.508600  0.745000  0.981000  1.0  0.0539
  H  H25  1  0.721000  0.029400  0.051100  1.0  0.06
  H  H26  1  0.811500  0.933000  0.914900  1.0  0.1071
  H  H27  1  0.694000  0.566800  0.121200  1.0  0.0649
  H  H28  1  0.855700  0.514400  0.107000  1.0  0.0702
  H  H29  1  0.905700  0.809000  0.337400  1.0  0.0821
  H  H30  1  0.694300  0.827500  0.437700  1.0  0.1495
  H  H31  1  0.780600  0.945300  0.421800  1.0  0.1337
  H  H32  1  0.690000  0.272200  0.244200  1.0  0.1186
  H  H33  1  0.767300  0.136000  0.232600  1.0  0.1167
  H  H34  1  0.909400  0.145100  0.339000  1.0  0.1092
  H  H35  1  0.991400  0.245000  0.481000  1.0  0.0533
  H  H36  1  0.779000  0.529400  0.551100  1.0  0.0603
  H  H37  1  0.688500  0.433000  0.414900  1.0  0.1061
  H  H38  1  0.306000  0.433200  0.621200  1.0  0.0655
  H  H39  1  0.144300  0.485600  0.607000  1.0  0.0701
  H  H40  1  0.094300  0.191000  0.837400  1.0  0.0825
  H  H41  1  0.305700  0.172500  0.937700  1.0  0.1487
  H  H42  1  0.219400  0.054700  0.921800  1.0  0.1339
  H  H43  1  0.310000  0.727800  0.744200  1.0  0.1195
  H  H44  1  0.232700  0.864000  0.732600  1.0  0.1167
  H  H45  1  0.090600  0.854900  0.839000  1.0  0.1091
  H  H46  1  0.008600  0.755000  0.981000  1.0  0.0539
  H  H47  1  0.221000  0.470600  0.051100  1.0  0.0605
  H  H48  1  0.311500  0.567000  0.914900  1.0  0.1072
  C  C49  1  0.236490  0.882370  0.166200  1.0  0.1286
  C  C50  1  0.334240  0.913930  0.157360  1.0  0.12
  C  C51  1  0.363260  0.741860  0.292450  1.0  0.0691
  C  C52  1  0.265130  0.711480  0.301820  1.0  0.1731
  C  C53  1  0.226850  0.605640  0.387020  1.0  -0.3393
  C  C54  1  0.226490  0.308130  0.281830  1.0  -0.3042
  C  C55  1  0.287000  0.228580  0.363340  1.0  0.0577
  C  C56  1  0.380340  0.280220  0.382580  1.0  -0.2323
  C  C57  1  0.429540  0.218430  0.468070  1.0  0.1443
  C  C58  1  0.304170  0.051870  0.509660  1.0  0.1463
  C  C59  1  0.249340  0.108420  0.427300  1.0  -0.1861
  C  C60  1  0.763510  0.117630  0.666200  1.0  0.1279
  C  C61  1  0.665760  0.086070  0.657360  1.0  0.1186
  C  C62  1  0.636740  0.258140  0.792450  1.0  0.0699
  C  C63  1  0.734870  0.288520  0.801820  1.0  0.1733
  C  C64  1  0.773150  0.394360  0.887020  1.0  -0.342
  C  C65  1  0.773510  0.691870  0.781830  1.0  -0.3051
  C  C66  1  0.713000  0.771420  0.863340  1.0  0.057
  C  C67  1  0.619660  0.719780  0.882580  1.0  -0.2326
  C  C68  1  0.570460  0.781570  0.968070  1.0  0.1441
  C  C69  1  0.695830  0.948130  0.009660  1.0  0.1467
  C  C70  1  0.750660  0.891580  0.927300  1.0  -0.1772
  C  C71  1  0.736490  0.617630  0.166200  1.0  0.1271
  C  C72  1  0.834240  0.586070  0.157360  1.0  0.1195
  C  C73  1  0.863260  0.758140  0.292450  1.0  0.0697
  C  C74  1  0.765130  0.788520  0.301820  1.0  0.1801
  C  C75  1  0.726850  0.894360  0.387020  1.0  -0.3393
  C  C76  1  0.726490  0.191870  0.281830  1.0  -0.3037
  C  C77  1  0.787000  0.271420  0.363340  1.0  0.0575
  C  C78  1  0.880340  0.219780  0.382580  1.0  -0.2323
  C  C79  1  0.929540  0.281570  0.468070  1.0  0.1447
  C  C80  1  0.804170  0.448130  0.509660  1.0  0.1467
  C  C81  1  0.749340  0.391580  0.427300  1.0  -0.1786
  C  C82  1  0.263510  0.382370  0.666200  1.0  0.1285
  C  C83  1  0.165760  0.413930  0.657360  1.0  0.1192
  C  C84  1  0.136740  0.241860  0.792450  1.0  0.0694
  C  C85  1  0.234870  0.211480  0.801820  1.0  0.1725
  C  C86  1  0.273150  0.105640  0.887020  1.0  -0.3419
  C  C87  1  0.273510  0.808130  0.781830  1.0  -0.3035
  C  C88  1  0.213000  0.728580  0.863340  1.0  0.0573
  C  C89  1  0.119660  0.780220  0.882580  1.0  -0.2317
  C  C90  1  0.070460  0.718430  0.968070  1.0  0.1436
  C  C91  1  0.195830  0.551870  0.009660  1.0  0.1465
  C  C92  1  0.250660  0.608420  0.927300  1.0  -0.1766
  S  S93  1  0.144500  0.450840  0.343830  1.0  -0.0107
  S  S94  1  0.855500  0.549160  0.843830  1.0  -0.0122
  S  S95  1  0.644500  0.049160  0.343830  1.0  -0.0107
  S  S96  1  0.355500  0.950840  0.843830  1.0  -0.0119
  N  N97  1  0.202090  0.780940  0.237590  1.0  -0.4086
  N  N98  1  0.397770  0.842510  0.220300  1.0  -0.3515
  N  N99  1  0.391870  0.109060  0.532320  1.0  -0.3658
  N  N100  1  0.797910  0.219060  0.737590  1.0  -0.4068
  N  N101  1  0.602230  0.157490  0.720300  1.0  -0.3487
  N  N102  1  0.608130  0.890940  0.032320  1.0  -0.3688
  N  N103  1  0.702090  0.719060  0.237590  1.0  -0.4085
  N  N104  1  0.897770  0.657490  0.220300  1.0  -0.3512
  N  N105  1  0.891870  0.390940  0.532320  1.0  -0.3676
  N  N106  1  0.297910  0.280940  0.737590  1.0  -0.4068
  N  N107  1  0.102230  0.342510  0.720300  1.0  -0.3482
  N  N108  1  0.108130  0.609060  0.032320  1.0  -0.3681
