# generated using pymatgen
data_CdH8C12(NO2)2
_symmetry_space_group_name_H-M   'P 1'
_cell_length_a   9.83830000
_cell_length_b   13.19840000
_cell_length_c   11.38290000
_cell_angle_alpha   90.00000000
_cell_angle_beta   101.43700000
_cell_angle_gamma   90.00000000
_symmetry_Int_Tables_number   1
_chemical_formula_structural   CdH8C12(NO2)2
_chemical_formula_sum   'Cd4 H32 C48 N8 O16'
_cell_volume   1448.71800096
_cell_formula_units_Z   4
loop_
 _symmetry_equiv_pos_site_id
 _symmetry_equiv_pos_as_xyz
  1  'x, y, z'
loop_
 _atom_site_type_symbol
 _atom_site_label
 _atom_site_symmetry_multiplicity
 _atom_site_fract_x
 _atom_site_fract_y
 _atom_site_fract_z
 _atom_site_occupancy
 _atom_site_charge
  Cd  Cd1  1  0.258090  0.995030  0.493130  1.0  1.0537
  Cd  Cd2  1  0.741910  0.495030  0.006870  1.0  1.0537
  Cd  Cd3  1  0.741910  0.004970  0.506870  1.0  1.0539
  Cd  Cd4  1  0.258090  0.504970  0.993130  1.0  1.0538
  H  H5  1  0.512500  0.686900  0.609900  1.0  0.1299
  H  H6  1  0.666667  0.877900  0.882700  1.0  0.1427
  H  H7  1  0.587500  0.552000  0.737800  1.0  0.0891
  H  H8  1  0.730200  0.738000  0.003800  1.0  0.0881
  H  H9  1  0.107900  0.238900  0.237600  1.0  0.117
  H  H10  1  0.712400  0.173700  0.263200  1.0  0.1307
  H  H11  1  0.023600  0.373000  0.112300  1.0  0.0879
  H  H12  1  0.640500  0.312200  0.142000  1.0  0.0837
  H  H13  1  0.487500  0.186900  0.890100  1.0  0.1299
  H  H14  1  0.333333  0.377900  0.617300  1.0  0.1427
  H  H15  1  0.412500  0.052000  0.762200  1.0  0.0891
  H  H16  1  0.269800  0.238000  0.496200  1.0  0.089
  H  H17  1  0.892100  0.738900  0.262400  1.0  0.1167
  H  H18  1  0.287600  0.673700  0.236800  1.0  0.1307
  H  H19  1  0.976400  0.873000  0.387700  1.0  0.0888
  H  H20  1  0.359500  0.812200  0.358000  1.0  0.0841
  H  H21  1  0.487500  0.313100  0.390100  1.0  0.1299
  H  H22  1  0.333333  0.122100  0.117300  1.0  0.1432
  H  H23  1  0.412500  0.448000  0.262200  1.0  0.0886
  H  H24  1  0.269800  0.262000  0.996200  1.0  0.0886
  H  H25  1  0.892100  0.761100  0.762400  1.0  0.1168
  H  H26  1  0.287600  0.826300  0.736800  1.0  0.1303
  H  H27  1  0.976400  0.627000  0.887700  1.0  0.0887
  H  H28  1  0.359500  0.687800  0.858000  1.0  0.0843
  H  H29  1  0.512500  0.813100  0.109900  1.0  0.1299
  H  H30  1  0.666667  0.622100  0.382700  1.0  0.143
  H  H31  1  0.587500  0.948000  0.237800  1.0  0.0894
  H  H32  1  0.730200  0.762000  0.503800  1.0  0.0883
  H  H33  1  0.107900  0.261100  0.737600  1.0  0.117
  H  H34  1  0.712400  0.326300  0.763200  1.0  0.1302
  H  H35  1  0.023600  0.127000  0.612300  1.0  0.0882
  H  H36  1  0.640500  0.187800  0.642000  1.0  0.0836
  C  C37  1  0.537000  0.887600  0.649600  1.0  0.6949
  C  C38  1  0.582100  0.797700  0.731600  1.0  -0.0407
  C  C39  1  0.558400  0.699400  0.690200  1.0  -0.1654
  C  C40  1  0.648400  0.811600  0.851100  1.0  -0.1841
  C  C41  1  0.602700  0.619200  0.767400  1.0  0.1692
  C  C42  1  0.686900  0.727800  0.922400  1.0  0.1782
  C  C43  1  0.970600  0.105200  0.349700  1.0  0.7237
  C  C44  1  0.918800  0.192000  0.265700  1.0  -0.0999
  C  C45  1  0.011200  0.252500  0.219000  1.0  -0.1242
  C  C46  1  0.778600  0.214400  0.234700  1.0  -0.1329
  C  C47  1  0.960300  0.332700  0.145200  1.0  0.186
  C  C48  1  0.736600  0.296700  0.161900  1.0  0.1823
  C  C49  1  0.463000  0.387600  0.850400  1.0  0.6956
  C  C50  1  0.417900  0.297700  0.768400  1.0  -0.0414
  C  C51  1  0.441600  0.199400  0.809800  1.0  -0.1662
  C  C52  1  0.351600  0.311600  0.648900  1.0  -0.1844
  C  C53  1  0.397300  0.119200  0.732600  1.0  0.1694
  C  C54  1  0.313100  0.227800  0.577600  1.0  0.1785
  C  C55  1  0.029400  0.605200  0.150300  1.0  0.724
  C  C56  1  0.081200  0.692000  0.234300  1.0  -0.0998
  C  C57  1  0.988800  0.752500  0.281000  1.0  -0.125
  C  C58  1  0.221400  0.714400  0.265300  1.0  -0.133
  C  C59  1  0.039700  0.832700  0.354800  1.0  0.1863
  C  C60  1  0.263400  0.796700  0.338100  1.0  0.182
  C  C61  1  0.463000  0.112400  0.350400  1.0  0.6964
  C  C62  1  0.417900  0.202300  0.268400  1.0  -0.0425
  C  C63  1  0.441600  0.300600  0.309800  1.0  -0.1667
  C  C64  1  0.351600  0.188400  0.148900  1.0  -0.185
  C  C65  1  0.397300  0.380800  0.232600  1.0  0.1706
  C  C66  1  0.313100  0.272200  0.077600  1.0  0.1785
  C  C67  1  0.029400  0.894800  0.650300  1.0  0.7242
  C  C68  1  0.081200  0.808000  0.734300  1.0  -0.0998
  C  C69  1  0.988800  0.747500  0.781000  1.0  -0.1249
  C  C70  1  0.221400  0.785600  0.765300  1.0  -0.1322
  C  C71  1  0.039700  0.667300  0.854800  1.0  0.1861
  C  C72  1  0.263400  0.703300  0.838100  1.0  0.1817
  C  C73  1  0.537000  0.612400  0.149600  1.0  0.6952
  C  C74  1  0.582100  0.702300  0.231600  1.0  -0.0419
  C  C75  1  0.558400  0.800600  0.190200  1.0  -0.1654
  C  C76  1  0.648400  0.688400  0.351100  1.0  -0.1856
  C  C77  1  0.602700  0.880800  0.267400  1.0  0.171
  C  C78  1  0.686900  0.772200  0.422400  1.0  0.1782
  C  C79  1  0.970600  0.394800  0.849700  1.0  0.7242
  C  C80  1  0.918800  0.308000  0.765700  1.0  -0.0999
  C  C81  1  0.011200  0.247500  0.719000  1.0  -0.124
  C  C82  1  0.778600  0.285600  0.734700  1.0  -0.1323
  C  C83  1  0.960300  0.167300  0.645200  1.0  0.1858
  C  C84  1  0.736600  0.203300  0.661900  1.0  0.1824
  N  N85  1  0.665800  0.632400  0.881600  1.0  -0.347
  N  N86  1  0.824800  0.355600  0.118100  1.0  -0.3362
  N  N87  1  0.334200  0.132400  0.618400  1.0  -0.3485
  N  N88  1  0.175200  0.855600  0.381900  1.0  -0.3368
  N  N89  1  0.334200  0.367600  0.118400  1.0  -0.3482
  N  N90  1  0.175200  0.644400  0.881900  1.0  -0.3361
  N  N91  1  0.665800  0.867600  0.381600  1.0  -0.3475
  N  N92  1  0.824800  0.144400  0.618100  1.0  -0.3362
  O  O93  1  0.418200  0.881000  0.586100  1.0  -0.6233
  O  O94  1  0.620300  0.959900  0.654900  1.0  -0.7031
  O  O95  1  0.098900  0.103300  0.389500  1.0  -0.6422
  O  O96  1  0.881900  0.042900  0.370600  1.0  -0.6578
  O  O97  1  0.581800  0.381000  0.913900  1.0  -0.6229
  O  O98  1  0.379700  0.459900  0.845100  1.0  -0.7041
  O  O99  1  0.901100  0.603300  0.110500  1.0  -0.6423
  O  O100  1  0.118100  0.542900  0.129400  1.0  -0.6589
  O  O101  1  0.581800  0.119000  0.413900  1.0  -0.6228
  O  O102  1  0.379700  0.040100  0.345100  1.0  -0.7036
  O  O103  1  0.901100  0.896700  0.610500  1.0  -0.642
  O  O104  1  0.118100  0.957100  0.629400  1.0  -0.6581
  O  O105  1  0.418200  0.619000  0.086100  1.0  -0.6231
  O  O106  1  0.620300  0.540100  0.154900  1.0  -0.7019
  O  O107  1  0.098900  0.396700  0.889500  1.0  -0.6424
  O  O108  1  0.881900  0.457100  0.870600  1.0  -0.6572
