# generated using pymatgen
data_Cd2H8C12S(NO4)2
_symmetry_space_group_name_H-M   'P 1'
_cell_length_a   10.38550000
_cell_length_b   12.31750000
_cell_length_c   12.31750000
_cell_angle_alpha   79.76280000
_cell_angle_beta   65.06600000
_cell_angle_gamma   65.06610000
_symmetry_Int_Tables_number   1
_chemical_formula_structural   Cd2H8C12S(NO4)2
_chemical_formula_sum   'Cd4 H16 C24 S2 N4 O16'
_cell_volume   1295.65742058
_cell_formula_units_Z   2
loop_
 _symmetry_equiv_pos_site_id
 _symmetry_equiv_pos_as_xyz
  1  'x, y, z'
loop_
 _atom_site_type_symbol
 _atom_site_label
 _atom_site_symmetry_multiplicity
 _atom_site_fract_x
 _atom_site_fract_y
 _atom_site_fract_z
 _atom_site_occupancy
 _atom_site_charge
  Cd  Cd1  1  0.096360  0.302500  0.504790  1.0  1.0998
  Cd  Cd2  1  0.903640  0.697500  0.495210  1.0  1.102
  Cd  Cd3  1  0.601140  0.495210  0.302510  1.0  1.0922
  Cd  Cd4  1  0.398860  0.504790  0.697490  1.0  1.0921
  H  H5  1  0.373500  0.350000  0.282400  1.0  0.0887
  H  H6  1  0.456900  0.398000  0.079400  1.0  0.1265
  H  H7  1  0.005900  0.650000  0.717600  1.0  0.087
  H  H8  1  0.934300  0.602000  0.920600  1.0  0.1267
  H  H9  1  0.655900  0.717600  0.350000  1.0  0.0877
  H  H10  1  0.536300  0.920600  0.398000  1.0  0.1251
  H  H11  1  0.723500  0.282400  0.650000  1.0  0.0886
  H  H12  1  0.854900  0.079400  0.602000  1.0  0.1266
  H  H13  1  0.626500  0.650000  0.717600  1.0  0.0905
  H  H14  1  0.543100  0.602000  0.920600  1.0  0.1267
  H  H15  1  0.994100  0.350000  0.282400  1.0  0.0883
  H  H16  1  0.065700  0.398000  0.079400  1.0  0.1259
  H  H17  1  0.344100  0.282400  0.650000  1.0  0.089
  H  H18  1  0.463700  0.079400  0.602000  1.0  0.1255
  H  H19  1  0.276500  0.717600  0.350000  1.0  0.09
  H  H20  1  0.145100  0.920600  0.398000  1.0  0.1262
  C  C21  1  0.310400  0.360460  0.240500  1.0  0.1723
  C  C22  1  0.361300  0.388950  0.119270  1.0  -0.134
  C  C23  1  0.911360  0.639540  0.759500  1.0  0.1718
  C  C24  1  0.869520  0.611050  0.880730  1.0  -0.1341
  C  C25  1  0.550900  0.759500  0.360460  1.0  0.1698
  C  C26  1  0.480570  0.880730  0.388950  1.0  -0.1348
  C  C27  1  0.670860  0.240500  0.639540  1.0  0.1709
  C  C28  1  0.750250  0.119270  0.611050  1.0  -0.1361
  C  C29  1  0.689600  0.639540  0.759500  1.0  0.1722
  C  C30  1  0.638700  0.611050  0.880730  1.0  -0.1354
  C  C31  1  0.088640  0.360460  0.240500  1.0  0.1712
  C  C32  1  0.130480  0.388950  0.119270  1.0  -0.1359
  C  C33  1  0.449100  0.240500  0.639540  1.0  0.1701
  C  C34  1  0.519430  0.119270  0.611050  1.0  -0.136
  C  C35  1  0.329140  0.759500  0.360460  1.0  0.1708
  C  C36  1  0.249750  0.880730  0.388950  1.0  -0.1361
  C  C37  1  0.269180  0.403870  0.057770  1.0  -0.0353
  C  C38  1  0.316570  0.439410  0.927450  1.0  0.6316
  C  C39  1  0.730820  0.596130  0.942230  1.0  -0.0305
  C  C40  1  0.683430  0.560590  0.072550  1.0  0.6319
  C  C41  1  0.326950  0.942230  0.403870  1.0  -0.0549
  C  C42  1  0.244020  0.072550  0.439410  1.0  0.6314
  C  C43  1  0.673050  0.057770  0.596130  1.0  -0.0552
  C  C44  1  0.755980  0.927450  0.560590  1.0  0.6311
  S  S45  1  0.750000  0.500000  0.500000  1.0  1.6462
  S  S46  1  0.250000  0.500000  0.500000  1.0  1.6463
  N  N47  1  0.176000  0.347080  0.300920  1.0  -0.3779
  N  N48  1  0.824000  0.652920  0.699080  1.0  -0.3756
  N  N49  1  0.476920  0.699080  0.347080  1.0  -0.3771
  N  N50  1  0.523080  0.300920  0.652920  1.0  -0.3784
  O  O51  1  0.441830  0.454340  0.876320  1.0  -0.5842
  O  O52  1  0.841520  0.415460  0.566800  1.0  -0.7324
  O  O53  1  0.772490  0.545660  0.123680  1.0  -0.5854
  O  O54  1  0.823780  0.584540  0.433200  1.0  -0.7319
  O  O55  1  0.318150  0.123680  0.454340  1.0  -0.5841
  O  O56  1  0.408320  0.433200  0.415460  1.0  -0.7328
  O  O57  1  0.896170  0.876320  0.545660  1.0  -0.5821
  O  O58  1  0.256980  0.566800  0.584540  1.0  -0.7311
  O  O59  1  0.558170  0.545660  0.123680  1.0  -0.5851
  O  O60  1  0.158480  0.584540  0.433200  1.0  -0.7326
  O  O61  1  0.227510  0.454340  0.876320  1.0  -0.5839
  O  O62  1  0.176220  0.415460  0.566800  1.0  -0.731
  O  O63  1  0.681850  0.876320  0.545660  1.0  -0.5837
  O  O64  1  0.591680  0.566800  0.584540  1.0  -0.7316
  O  O65  1  0.103830  0.123680  0.454340  1.0  -0.581
  O  O66  1  0.743020  0.433200  0.415460  1.0  -0.7329
