# generated using pymatgen
data_Zn2H6(C2N3)3
_symmetry_space_group_name_H-M   'P 1'
_cell_length_a   7.60010000
_cell_length_b   9.97580000
_cell_length_c   17.51080000
_cell_angle_alpha   90.00000000
_cell_angle_beta   90.00000000
_cell_angle_gamma   90.00000000
_symmetry_Int_Tables_number   1
_chemical_formula_structural   Zn2H6(C2N3)3
_chemical_formula_sum   'Zn8 H24 C24 N36'
_cell_volume   1327.61768209
_cell_formula_units_Z   4
loop_
 _symmetry_equiv_pos_site_id
 _symmetry_equiv_pos_as_xyz
  1  'x, y, z'
loop_
 _atom_site_type_symbol
 _atom_site_label
 _atom_site_symmetry_multiplicity
 _atom_site_fract_x
 _atom_site_fract_y
 _atom_site_fract_z
 _atom_site_occupancy
 _atom_site_charge
  Zn  Zn1  1  0.349750  0.250000  0.419260  1.0  0.1239
  Zn  Zn2  1  0.489770  0.250000  0.762960  1.0  0.5529
  Zn  Zn3  1  0.150250  0.750000  0.919260  1.0  0.1287
  Zn  Zn4  1  0.010230  0.750000  0.262960  1.0  0.5534
  Zn  Zn5  1  0.650250  0.750000  0.580740  1.0  0.1284
  Zn  Zn6  1  0.510230  0.750000  0.237040  1.0  0.5536
  Zn  Zn7  1  0.849750  0.250000  0.080740  1.0  0.1236
  Zn  Zn8  1  0.989770  0.250000  0.737040  1.0  0.5531
  H  H9  1  0.537200  0.459200  0.318400  1.0  0.0435
  H  H10  1  0.037900  0.468300  0.372300  1.0  0.0652
  H  H11  1  0.962800  0.540800  0.818400  1.0  0.0441
  H  H12  1  0.462100  0.531700  0.872300  1.0  0.0655
  H  H13  1  0.462800  0.959200  0.681600  1.0  0.0438
  H  H14  1  0.962100  0.968300  0.627700  1.0  0.0649
  H  H15  1  0.037200  0.040800  0.181600  1.0  0.0444
  H  H16  1  0.537900  0.031700  0.127700  1.0  0.0652
  H  H17  1  0.462800  0.540800  0.681600  1.0  0.0443
  H  H18  1  0.962100  0.531700  0.627700  1.0  0.0651
  H  H19  1  0.037200  0.459200  0.181600  1.0  0.0435
  H  H20  1  0.537900  0.468300  0.127700  1.0  0.0647
  H  H21  1  0.537200  0.040800  0.318400  1.0  0.0438
  H  H22  1  0.037900  0.031700  0.372300  1.0  0.0653
  H  H23  1  0.962800  0.959200  0.818400  1.0  0.0443
  H  H24  1  0.462100  0.968300  0.872300  1.0  0.0654
  H  H25  1  0.535300  0.250000  0.577700  1.0  0.0503
  H  H26  1  0.026200  0.250000  0.542900  1.0  0.0623
  H  H27  1  0.964700  0.750000  0.077700  1.0  0.0506
  H  H28  1  0.473800  0.750000  0.042900  1.0  0.0619
  H  H29  1  0.464700  0.750000  0.422300  1.0  0.0511
  H  H30  1  0.973800  0.750000  0.457100  1.0  0.0617
  H  H31  1  0.035300  0.250000  0.922300  1.0  0.0502
  H  H32  1  0.526200  0.250000  0.957100  1.0  0.0619
  C  C33  1  0.417600  0.485890  0.322500  1.0  0.1932
  C  C34  1  0.149500  0.490600  0.351450  1.0  0.1941
  C  C35  1  0.082400  0.514110  0.822500  1.0  0.1932
  C  C36  1  0.350500  0.509400  0.851450  1.0  0.1942
  C  C37  1  0.582400  0.985890  0.677500  1.0  0.1936
  C  C38  1  0.850500  0.990600  0.648550  1.0  0.1945
  C  C39  1  0.917600  0.014110  0.177500  1.0  0.1944
  C  C40  1  0.649500  0.009400  0.148550  1.0  0.1943
  C  C41  1  0.582400  0.514110  0.677500  1.0  0.1932
  C  C42  1  0.850500  0.509400  0.648550  1.0  0.1953
  C  C43  1  0.917600  0.485890  0.177500  1.0  0.1932
  C  C44  1  0.649500  0.490600  0.148550  1.0  0.1942
  C  C45  1  0.417600  0.014110  0.322500  1.0  0.1944
  C  C46  1  0.149500  0.009400  0.351450  1.0  0.1932
  C  C47  1  0.082400  0.985890  0.822500  1.0  0.1936
  C  C48  1  0.350500  0.990600  0.851450  1.0  0.1943
  C  C49  1  0.411700  0.250000  0.585880  1.0  0.1992
  C  C50  1  0.138100  0.250000  0.567140  1.0  0.2004
  C  C51  1  0.088300  0.750000  0.085880  1.0  0.2008
  C  C52  1  0.361900  0.750000  0.067140  1.0  0.1995
  C  C53  1  0.588300  0.750000  0.414120  1.0  0.2013
  C  C54  1  0.861900  0.750000  0.432860  1.0  0.1992
  C  C55  1  0.911700  0.250000  0.914120  1.0  0.2005
  C  C56  1  0.638100  0.250000  0.932860  1.0  0.1989
  N  N57  1  0.295700  0.415980  0.361700  1.0  -0.3005
  N  N58  1  0.353880  0.594870  0.290410  1.0  -0.2111
  N  N59  1  0.178320  0.598130  0.309310  1.0  -0.2109
  N  N60  1  0.204300  0.584020  0.861700  1.0  -0.3023
  N  N61  1  0.146120  0.405130  0.790410  1.0  -0.2112
  N  N62  1  0.321680  0.401870  0.809310  1.0  -0.2114
  N  N63  1  0.704300  0.915980  0.638300  1.0  -0.3028
  N  N64  1  0.646120  0.094870  0.709590  1.0  -0.2115
  N  N65  1  0.821680  0.098130  0.690690  1.0  -0.2115
  N  N66  1  0.795700  0.084020  0.138300  1.0  -0.3029
  N  N67  1  0.853880  0.905130  0.209590  1.0  -0.2113
  N  N68  1  0.678320  0.901870  0.190690  1.0  -0.2125
  N  N69  1  0.704300  0.584020  0.638300  1.0  -0.3033
  N  N70  1  0.646120  0.405130  0.709590  1.0  -0.2114
  N  N71  1  0.821680  0.401870  0.690690  1.0  -0.2121
  N  N72  1  0.795700  0.415980  0.138300  1.0  -0.3021
  N  N73  1  0.853880  0.594870  0.209590  1.0  -0.2111
  N  N74  1  0.678320  0.598130  0.190690  1.0  -0.212
  N  N75  1  0.295700  0.084020  0.361700  1.0  -0.3019
  N  N76  1  0.353880  0.905130  0.290410  1.0  -0.2111
  N  N77  1  0.178320  0.901870  0.309310  1.0  -0.2115
  N  N78  1  0.204300  0.915980  0.861700  1.0  -0.3012
  N  N79  1  0.146120  0.094870  0.790410  1.0  -0.2114
  N  N80  1  0.321680  0.098130  0.809310  1.0  -0.2106
  N  N81  1  0.292700  0.250000  0.528870  1.0  -0.3053
  N  N82  1  0.338900  0.250000  0.654350  1.0  -0.2125
  N  N83  1  0.160300  0.250000  0.642000  1.0  -0.218
  N  N84  1  0.207300  0.750000  0.028870  1.0  -0.3055
  N  N85  1  0.161100  0.750000  0.154350  1.0  -0.2124
  N  N86  1  0.339700  0.750000  0.142000  1.0  -0.2174
  N  N87  1  0.707300  0.750000  0.471130  1.0  -0.3064
  N  N88  1  0.661100  0.750000  0.345650  1.0  -0.2131
  N  N89  1  0.839700  0.750000  0.358000  1.0  -0.2167
  N  N90  1  0.792700  0.250000  0.971130  1.0  -0.3057
  N  N91  1  0.838900  0.250000  0.845650  1.0  -0.2135
  N  N92  1  0.660300  0.250000  0.858000  1.0  -0.2169
