# generated using pymatgen
data_Zn2H23C40(ClO5)2
_symmetry_space_group_name_H-M   'P 1'
_cell_length_a   10.18890000
_cell_length_b   16.65100000
_cell_length_c   19.73000000
_cell_angle_alpha   90.00000000
_cell_angle_beta   101.82500000
_cell_angle_gamma   90.00000000
_symmetry_Int_Tables_number   1
_chemical_formula_structural   Zn2H23C40(ClO5)2
_chemical_formula_sum   'Zn4 H46 C80 Cl4 O20'
_cell_volume   3276.26434070
_cell_formula_units_Z   2
loop_
 _symmetry_equiv_pos_site_id
 _symmetry_equiv_pos_as_xyz
  1  'x, y, z'
loop_
 _atom_site_type_symbol
 _atom_site_label
 _atom_site_symmetry_multiplicity
 _atom_site_fract_x
 _atom_site_fract_y
 _atom_site_fract_z
 _atom_site_occupancy
 _atom_site_charge
  Zn  Zn1  1  0.497940  0.341960  0.384550  1.0  1.0261
  Zn  Zn2  1  0.757800  0.436160  0.500270  1.0  1.1616
  Zn  Zn3  1  0.502060  0.841960  0.615450  1.0  1.0267
  Zn  Zn4  1  0.242200  0.936160  0.499730  1.0  1.1546
  H  H5  1  0.582500  0.069000  0.711600  1.0  0.1102
  H  H6  1  0.692700  0.292600  0.666800  1.0  0.1181
  H  H7  1  0.905900  0.227200  0.711500  1.0  0.1178
  H  H8  1  0.181400  0.284700  0.883300  1.0  0.1064
  H  H9  1  0.027200  0.279500  0.950100  1.0  0.1083
  H  H10  1  0.371900  0.190900  0.879600  1.0  0.0729
  H  H11  1  0.435500  0.102000  0.882600  1.0  0.0661
  H  H12  1  0.429000  0.169900  0.010300  1.0  0.1299
  H  H13  1  0.285400  0.146100  0.965000  1.0  0.1061
  H  H14  1  0.398600  0.078900  0.986000  1.0  0.1093
  H  H15  1  0.521100  0.165100  0.803200  1.0  0.1193
  H  H16  1  0.777000  0.088400  0.970000  1.0  0.1103
  H  H17  1  0.771100  0.981000  0.045900  1.0  0.1107
  H  H18  1  0.897700  0.128700  0.209500  1.0  0.1237
  H  H19  1  0.855000  0.376000  0.112200  1.0  0.1133
  H  H20  1  0.963600  0.443500  0.013000  1.0  0.072
  H  H21  1  0.835400  0.479300  0.038200  1.0  0.0655
  H  H22  1  0.754700  0.535200  0.936000  1.0  0.1079
  H  H23  1  0.912500  0.551300  0.946900  1.0  0.1104
  H  H24  1  0.845000  0.480100  0.897300  1.0  0.1115
  H  H25  1  0.136600  0.275000  0.222700  1.0  0.1244
  H  H26  1  0.026100  0.344400  0.401200  1.0  0.1032
  H  H27  1  0.746400  0.281300  0.236500  1.0  0.0967
  H  H28  1  0.417500  0.569000  0.288400  1.0  0.11
  H  H29  1  0.307300  0.792600  0.333200  1.0  0.1183
  H  H30  1  0.094100  0.727200  0.288500  1.0  0.1163
  H  H31  1  0.818600  0.784700  0.116700  1.0  0.1071
  H  H32  1  0.972800  0.779500  0.049900  1.0  0.1084
  H  H33  1  0.628100  0.690900  0.120400  1.0  0.073
  H  H34  1  0.564500  0.602000  0.117400  1.0  0.0668
  H  H35  1  0.571000  0.669900  0.989700  1.0  0.1299
  H  H36  1  0.714600  0.646100  0.035000  1.0  0.1042
  H  H37  1  0.601400  0.578900  0.014000  1.0  0.1087
  H  H38  1  0.478900  0.665100  0.196800  1.0  0.1191
  H  H39  1  0.223000  0.588400  0.030000  1.0  0.1102
  H  H40  1  0.228900  0.481000  0.954100  1.0  0.1103
  H  H41  1  0.102300  0.628700  0.790500  1.0  0.124
  H  H42  1  0.145000  0.876000  0.887800  1.0  0.1132
  H  H43  1  0.036400  0.943500  0.987000  1.0  0.0867
  H  H44  1  0.164600  0.979300  0.961800  1.0  0.0659
  H  H45  1  0.245300  0.035200  0.064000  1.0  0.1084
  H  H46  1  0.087500  0.051300  0.053100  1.0  0.111
  H  H47  1  0.155000  0.980100  0.102700  1.0  0.1143
  H  H48  1  0.863400  0.775000  0.777300  1.0  0.1246
  H  H49  1  0.973900  0.844400  0.598800  1.0  0.1041
  H  H50  1  0.253600  0.781300  0.763500  1.0  0.0969
  C  C51  1  0.595700  0.290100  0.526800  1.0  0.7202
  C  C52  1  0.592300  0.227400  0.581000  1.0  -0.168
  C  C53  1  0.535400  0.151900  0.562700  1.0  0.0852
  C  C54  1  0.537200  0.094000  0.609900  1.0  -0.1395
  C  C55  1  0.588700  0.109000  0.678000  1.0  -0.0467
  C  C56  1  0.649900  0.181700  0.699000  1.0  0.0309
  C  C57  1  0.652500  0.242300  0.652400  1.0  -0.0558
  C  C58  1  0.471400  0.015500  0.590300  1.0  0.7352
  C  C59  1  0.694700  0.199300  0.775600  1.0  0.0057
  C  C60  1  0.833700  0.225100  0.802600  1.0  0.0089
  C  C61  1  0.929600  0.235100  0.760100  1.0  -0.1607
  C  C62  1  0.055200  0.256100  0.791200  1.0  0.1356
  C  C63  1  0.091600  0.270400  0.863200  1.0  -0.1355
  C  C64  1  0.003300  0.264000  0.902800  1.0  -0.1046
  C  C65  1  0.876900  0.235400  0.876800  1.0  0.0058
  C  C66  1  0.782400  0.222900  0.920600  1.0  -0.064
  C  C67  1  0.654900  0.194700  0.889200  1.0  0.233
  C  C68  1  0.431000  0.151800  0.909300  1.0  0.1603
  C  C69  1  0.382000  0.135300  0.972900  1.0  -0.3811
  C  C70  1  0.609900  0.183600  0.820500  1.0  -0.2443
  C  C71  1  0.826000  0.230500  0.997500  1.0  0.0833
  C  C72  1  0.840900  0.172300  0.044700  1.0  0.0745
  C  C73  1  0.801500  0.096600  0.018600  1.0  -0.1064
  C  C74  1  0.798000  0.032800  0.063700  1.0  -0.1377
  C  C75  1  0.833900  0.044800  0.134800  1.0  0.0421
  C  C76  1  0.873200  0.120500  0.160900  1.0  -0.1434
  C  C77  1  0.876700  0.184300  0.115800  1.0  0.0309
  C  C78  1  0.892000  0.260000  0.141700  1.0  0.0647
  C  C79  1  0.855300  0.322500  0.095600  1.0  -0.2308
  C  C80  1  0.818000  0.307200  0.023300  1.0  0.2191
  C  C81  1  0.866000  0.454800  0.998600  1.0  0.1594
  C  C82  1  0.843000  0.509800  0.939900  1.0  -0.3753
  C  C83  1  0.931300  0.281900  0.217600  1.0  0.0207
  C  C84  1  0.068800  0.287700  0.247600  1.0  -0.0766
  C  C85  1  0.099400  0.314100  0.318600  1.0  -0.1369
  C  C86  1  0.002300  0.326200  0.354700  1.0  -0.022
  C  C87  1  0.865400  0.312400  0.324600  1.0  -0.1485
  C  C88  1  0.837600  0.290900  0.257600  1.0  -0.0799
  C  C89  1  0.243900  0.330000  0.353700  1.0  0.6551
  C  C90  1  0.757100  0.331000  0.365200  1.0  0.7335
  C  C91  1  0.404300  0.790100  0.473200  1.0  0.7213
  C  C92  1  0.407700  0.727400  0.419000  1.0  -0.1711
  C  C93  1  0.464600  0.651900  0.437300  1.0  0.0835
  C  C94  1  0.462800  0.594000  0.390100  1.0  -0.136
  C  C95  1  0.411300  0.609000  0.322000  1.0  -0.0481
  C  C96  1  0.350100  0.681700  0.301000  1.0  0.0301
  C  C97  1  0.347500  0.742300  0.347600  1.0  -0.0551
  C  C98  1  0.528600  0.515500  0.409700  1.0  0.7356
  C  C99  1  0.305300  0.699300  0.224400  1.0  0.0062
  C  C100  1  0.166300  0.725100  0.197400  1.0  0.0077
  C  C101  1  0.070400  0.735100  0.239900  1.0  -0.1616
  C  C102  1  0.944800  0.756100  0.208800  1.0  0.1358
  C  C103  1  0.908400  0.770400  0.136800  1.0  -0.1361
  C  C104  1  0.996700  0.764000  0.097200  1.0  -0.105
  C  C105  1  0.123100  0.735400  0.123200  1.0  0.0072
  C  C106  1  0.217600  0.722900  0.079400  1.0  -0.0634
  C  C107  1  0.345100  0.694700  0.110800  1.0  0.2334
  C  C108  1  0.569000  0.651800  0.090700  1.0  0.1586
  C  C109  1  0.618000  0.635300  0.027100  1.0  -0.3807
  C  C110  1  0.390100  0.683600  0.179500  1.0  -0.2431
  C  C111  1  0.174000  0.730500  0.002500  1.0  0.0833
  C  C112  1  0.159100  0.672300  0.955300  1.0  0.0722
  C  C113  1  0.198500  0.596600  0.981400  1.0  -0.1064
  C  C114  1  0.202000  0.532800  0.936300  1.0  -0.1366
  C  C115  1  0.166100  0.544800  0.865200  1.0  0.0792
  C  C116  1  0.126800  0.620500  0.839100  1.0  -0.1394
  C  C117  1  0.123300  0.684300  0.884200  1.0  0.0304
  C  C118  1  0.108000  0.760000  0.858300  1.0  0.0649
  C  C119  1  0.144700  0.822500  0.904400  1.0  -0.2304
  C  C120  1  0.182000  0.807200  0.976700  1.0  0.2167
  C  C121  1  0.134000  0.954800  0.001400  1.0  0.1601
  C  C122  1  0.157000  0.009800  0.060100  1.0  -0.3763
  C  C123  1  0.068700  0.781900  0.782400  1.0  0.0199
  C  C124  1  0.931200  0.787700  0.752400  1.0  -0.0778
  C  C125  1  0.900600  0.814100  0.681400  1.0  -0.1363
  C  C126  1  0.997700  0.826200  0.645300  1.0  -0.0214
  C  C127  1  0.134600  0.812400  0.675400  1.0  -0.1489
  C  C128  1  0.162400  0.790900  0.742400  1.0  -0.0802
  C  C129  1  0.756100  0.830000  0.646300  1.0  0.6547
  C  C130  1  0.242900  0.831000  0.634800  1.0  0.7335
  Cl  Cl131  1  0.178700  0.261200  0.740300  1.0  -0.1387
  Cl  Cl132  1  0.834100  0.967900  0.194200  1.0  -0.1199
  Cl  Cl133  1  0.821300  0.761200  0.259700  1.0  -0.1386
  Cl  Cl134  1  0.165900  0.467900  0.805800  1.0  -0.1264
  O  O135  1  0.532400  0.275000  0.468500  1.0  -0.5682
  O  O136  1  0.672500  0.351700  0.545800  1.0  -0.6913
  O  O137  1  0.396100  0.007900  0.531300  1.0  -0.6604
  O  O138  1  0.500700  0.958600  0.632000  1.0  -0.5807
  O  O139  1  0.334300  0.304300  0.320400  1.0  -0.6082
  O  O140  1  0.273800  0.361500  0.408600  1.0  -0.5772
  O  O141  1  0.794400  0.363900  0.422100  1.0  -0.7027
  O  O142  1  0.643200  0.312600  0.336700  1.0  -0.5528
  O  O143  1  0.569700  0.186800  0.936200  1.0  -0.3075
  O  O144  1  0.787900  0.374400  0.976700  1.0  -0.3593
  O  O145  1  0.467600  0.775000  0.531500  1.0  -0.5682
  O  O146  1  0.327500  0.851700  0.454200  1.0  -0.6909
  O  O147  1  0.603900  0.507900  0.468700  1.0  -0.6526
  O  O148  1  0.499300  0.458600  0.368000  1.0  -0.5811
  O  O149  1  0.665700  0.804300  0.679600  1.0  -0.6197
  O  O150  1  0.726200  0.861500  0.591400  1.0  -0.5761
  O  O151  1  0.205600  0.863900  0.577900  1.0  -0.7014
  O  O152  1  0.356800  0.812600  0.663300  1.0  -0.5524
  O  O153  1  0.430300  0.686800  0.063800  1.0  -0.3084
  O  O154  1  0.212100  0.874400  0.023300  1.0  -0.3586
