# generated using pymatgen
data_GdP4H8Ru2(C2O7)2
_symmetry_space_group_name_H-M   'P 1'
_cell_length_a   9.61160000
_cell_length_b   9.61160000
_cell_length_c   15.54800000
_cell_angle_alpha   92.93020000
_cell_angle_beta   92.93020000
_cell_angle_gamma   99.07450000
_symmetry_Int_Tables_number   1
_chemical_formula_structural   GdP4H8Ru2(C2O7)2
_chemical_formula_sum   'Gd2 P8 H16 Ru4 C8 O28'
_cell_volume   1413.98375217
_cell_formula_units_Z   2
loop_
 _symmetry_equiv_pos_site_id
 _symmetry_equiv_pos_as_xyz
  1  'x, y, z'
loop_
 _atom_site_type_symbol
 _atom_site_label
 _atom_site_symmetry_multiplicity
 _atom_site_fract_x
 _atom_site_fract_y
 _atom_site_fract_z
 _atom_site_occupancy
 _atom_site_charge
  Gd  Gd1  1  0.011050  0.988950  0.750000  1.0  2.129
  Gd  Gd2  1  0.988950  0.011050  0.250000  1.0  2.1381
  P  P3  1  0.354420  0.045300  0.644830  1.0  1.3678
  P  P4  1  0.650910  0.976410  0.654040  1.0  1.3867
  P  P5  1  0.954700  0.645580  0.855170  1.0  1.3753
  P  P6  1  0.023590  0.349090  0.845960  1.0  1.3912
  P  P7  1  0.645580  0.954700  0.355170  1.0  1.3733
  P  P8  1  0.349090  0.023590  0.345960  1.0  1.3881
  P  P9  1  0.045300  0.354420  0.144830  1.0  1.3782
  P  P10  1  0.976410  0.650910  0.154040  1.0  1.3874
  H  H11  1  0.422000  0.824000  0.730000  1.0  0.3747
  H  H12  1  0.475000  0.162400  0.813800  1.0  0.1323
  H  H13  1  0.632700  0.128300  0.815900  1.0  0.1344
  H  H14  1  0.581800  0.227800  0.745200  1.0  0.1226
  H  H15  1  0.176000  0.578000  0.770000  1.0  0.3635
  H  H16  1  0.837600  0.525000  0.686200  1.0  0.1329
  H  H17  1  0.871700  0.367300  0.684100  1.0  0.1337
  H  H18  1  0.772200  0.418200  0.754800  1.0  0.123
  H  H19  1  0.578000  0.176000  0.270000  1.0  0.3724
  H  H20  1  0.525000  0.837600  0.186200  1.0  0.1321
  H  H21  1  0.367300  0.871700  0.184100  1.0  0.1323
  H  H22  1  0.418200  0.772200  0.254800  1.0  0.1237
  H  H23  1  0.824000  0.422000  0.230000  1.0  0.3746
  H  H24  1  0.162400  0.475000  0.313800  1.0  0.1339
  H  H25  1  0.128300  0.632700  0.315900  1.0  0.1337
  H  H26  1  0.227800  0.581800  0.245200  1.0  0.1228
  Ru  Ru27  1  0.545650  0.121230  0.501950  1.0  1.0881
  Ru  Ru28  1  0.878770  0.454350  0.998050  1.0  1.0868
  Ru  Ru29  1  0.454350  0.878770  0.498050  1.0  1.0867
  Ru  Ru30  1  0.121230  0.545650  0.001950  1.0  1.0862
  C  C31  1  0.504600  0.017400  0.717200  1.0  -0.3322
  C  C32  1  0.552700  0.145300  0.778400  1.0  -0.2417
  C  C33  1  0.982600  0.495400  0.782800  1.0  -0.3327
  C  C34  1  0.854700  0.447300  0.721600  1.0  -0.24
  C  C35  1  0.495400  0.982600  0.282800  1.0  -0.3334
  C  C36  1  0.447300  0.854700  0.221600  1.0  -0.2406
  C  C37  1  0.017400  0.504600  0.217200  1.0  -0.3325
  C  C38  1  0.145300  0.552700  0.278400  1.0  -0.2428
  O  O39  1  0.409100  0.168500  0.589500  1.0  -0.6844
  O  O40  1  0.309800  0.908800  0.585900  1.0  -0.7415
  O  O41  1  0.234900  0.076900  0.698800  1.0  -0.8959
  O  O42  1  0.691100  0.104700  0.598400  1.0  -0.7296
  O  O43  1  0.593500  0.844900  0.593600  1.0  -0.706
  O  O44  1  0.770500  0.954100  0.714300  1.0  -0.8805
  O  O45  1  0.449400  0.899600  0.766600  1.0  -0.4684
  O  O46  1  0.831500  0.590900  0.910500  1.0  -0.6837
  O  O47  1  0.091200  0.690200  0.914100  1.0  -0.7407
  O  O48  1  0.923100  0.765100  0.801200  1.0  -0.8951
  O  O49  1  0.895300  0.308900  0.901600  1.0  -0.7288
  O  O50  1  0.155100  0.406500  0.906400  1.0  -0.7056
  O  O51  1  0.045900  0.229500  0.785700  1.0  -0.8803
  O  O52  1  0.100400  0.550600  0.733400  1.0  -0.4688
  O  O53  1  0.590900  0.831500  0.410500  1.0  -0.6832
  O  O54  1  0.690200  0.091200  0.414100  1.0  -0.7394
  O  O55  1  0.765100  0.923100  0.301200  1.0  -0.8956
  O  O56  1  0.308900  0.895300  0.401600  1.0  -0.7292
  O  O57  1  0.406500  0.155100  0.406400  1.0  -0.7051
  O  O58  1  0.229500  0.045900  0.285700  1.0  -0.8792
  O  O59  1  0.550600  0.100400  0.233400  1.0  -0.4709
  O  O60  1  0.168500  0.409100  0.089500  1.0  -0.6833
  O  O61  1  0.908800  0.309800  0.085900  1.0  -0.742
  O  O62  1  0.076900  0.234900  0.198800  1.0  -0.8946
  O  O63  1  0.104700  0.691100  0.098400  1.0  -0.7285
  O  O64  1  0.844900  0.593500  0.093600  1.0  -0.7038
  O  O65  1  0.954100  0.770500  0.214300  1.0  -0.8799
  O  O66  1  0.899600  0.449400  0.266600  1.0  -0.466
