# generated using pymatgen
data_DyP4H8Ru2(C2O7)2
_symmetry_space_group_name_H-M   'P 1'
_cell_length_a   9.61160000
_cell_length_b   9.61160000
_cell_length_c   15.54800000
_cell_angle_alpha   92.93020000
_cell_angle_beta   92.93020000
_cell_angle_gamma   99.07450000
_symmetry_Int_Tables_number   1
_chemical_formula_structural   DyP4H8Ru2(C2O7)2
_chemical_formula_sum   'Dy2 P8 H16 Ru4 C8 O28'
_cell_volume   1413.98375217
_cell_formula_units_Z   2
loop_
 _symmetry_equiv_pos_site_id
 _symmetry_equiv_pos_as_xyz
  1  'x, y, z'
loop_
 _atom_site_type_symbol
 _atom_site_label
 _atom_site_symmetry_multiplicity
 _atom_site_fract_x
 _atom_site_fract_y
 _atom_site_fract_z
 _atom_site_occupancy
 _atom_site_charge
  Dy  Dy1  1  0.010850  0.989150  0.750000  1.0  2.3359
  Dy  Dy2  1  0.989150  0.010850  0.250000  1.0  2.3264
  P  P3  1  0.353930  0.044830  0.645570  1.0  1.3845
  P  P4  1  0.651500  0.976080  0.654290  1.0  1.411
  P  P5  1  0.955170  0.646070  0.854430  1.0  1.3866
  P  P6  1  0.023920  0.348500  0.845710  1.0  1.4155
  P  P7  1  0.646070  0.955170  0.354430  1.0  1.3857
  P  P8  1  0.348500  0.023920  0.345710  1.0  1.412
  P  P9  1  0.044830  0.353930  0.145570  1.0  1.3888
  P  P10  1  0.976080  0.651500  0.154290  1.0  1.4114
  H  H11  1  0.475200  0.160800  0.814700  1.0  0.133
  H  H12  1  0.634300  0.131100  0.814900  1.0  0.1292
  H  H13  1  0.577900  0.228300  0.744700  1.0  0.1251
  H  H14  1  0.422000  0.824000  0.730000  1.0  0.3877
  H  H15  1  0.839200  0.524800  0.685300  1.0  0.1322
  H  H16  1  0.868900  0.365700  0.685100  1.0  0.1289
  H  H17  1  0.771700  0.422100  0.755300  1.0  0.1245
  H  H18  1  0.176000  0.578000  0.770000  1.0  0.3833
  H  H19  1  0.524800  0.839200  0.185300  1.0  0.1343
  H  H20  1  0.365700  0.868900  0.185100  1.0  0.1269
  H  H21  1  0.422100  0.771700  0.255300  1.0  0.1259
  H  H22  1  0.578000  0.176000  0.270000  1.0  0.3877
  H  H23  1  0.160800  0.475200  0.314700  1.0  0.1328
  H  H24  1  0.131100  0.634300  0.314900  1.0  0.1302
  H  H25  1  0.228300  0.577900  0.244700  1.0  0.1246
  H  H26  1  0.824000  0.422000  0.230000  1.0  0.3883
  Ru  Ru27  1  0.545520  0.121600  0.502020  1.0  1.0606
  Ru  Ru28  1  0.878400  0.454480  0.997980  1.0  1.0583
  Ru  Ru29  1  0.454480  0.878400  0.497980  1.0  1.0579
  Ru  Ru30  1  0.121600  0.545520  0.002020  1.0  1.059
  C  C31  1  0.506300  0.019100  0.718900  1.0  -0.328
  C  C32  1  0.552400  0.145600  0.778400  1.0  -0.2522
  C  C33  1  0.980900  0.493700  0.781100  1.0  -0.3276
  C  C34  1  0.854400  0.447600  0.721600  1.0  -0.251
  C  C35  1  0.493700  0.980900  0.281100  1.0  -0.3288
  C  C36  1  0.447600  0.854400  0.221600  1.0  -0.2514
  C  C37  1  0.019100  0.506300  0.218900  1.0  -0.3279
  C  C38  1  0.145600  0.552400  0.278400  1.0  -0.2531
  O  O39  1  0.408400  0.168400  0.589400  1.0  -0.6881
  O  O40  1  0.310000  0.909200  0.586300  1.0  -0.7556
  O  O41  1  0.234200  0.075800  0.699900  1.0  -0.9236
  O  O42  1  0.691900  0.103900  0.598600  1.0  -0.7398
  O  O43  1  0.595300  0.843100  0.594600  1.0  -0.7171
  O  O44  1  0.772200  0.954400  0.714400  1.0  -0.915
  O  O45  1  0.449600  0.899600  0.767800  1.0  -0.4832
  O  O46  1  0.831600  0.591600  0.910600  1.0  -0.6871
  O  O47  1  0.090800  0.690000  0.913700  1.0  -0.7536
  O  O48  1  0.924200  0.765800  0.800100  1.0  -0.9213
  O  O49  1  0.896100  0.308100  0.901400  1.0  -0.7377
  O  O50  1  0.156900  0.404700  0.905400  1.0  -0.7158
  O  O51  1  0.045600  0.227800  0.785600  1.0  -0.9152
  O  O52  1  0.100400  0.550400  0.732200  1.0  -0.483
  O  O53  1  0.591600  0.831600  0.410600  1.0  -0.6866
  O  O54  1  0.690000  0.090800  0.413700  1.0  -0.7517
  O  O55  1  0.765800  0.924200  0.300100  1.0  -0.9235
  O  O56  1  0.308100  0.896100  0.401400  1.0  -0.7395
  O  O57  1  0.404700  0.156900  0.405400  1.0  -0.7165
  O  O58  1  0.227800  0.045600  0.285600  1.0  -0.9145
  O  O59  1  0.550400  0.100400  0.232200  1.0  -0.4853
  O  O60  1  0.168400  0.408400  0.089400  1.0  -0.6857
  O  O61  1  0.909200  0.310000  0.086300  1.0  -0.7558
  O  O62  1  0.075800  0.234200  0.199900  1.0  -0.9224
  O  O63  1  0.103900  0.691900  0.098600  1.0  -0.7385
  O  O64  1  0.843100  0.595300  0.094600  1.0  -0.7147
  O  O65  1  0.954400  0.772200  0.214400  1.0  -0.9154
  O  O66  1  0.899600  0.449600  0.267800  1.0  -0.4819
