# generated using pymatgen
data_CeP4H8Ru2(C2O7)2
_symmetry_space_group_name_H-M   'P 1'
_cell_length_a   9.69210000
_cell_length_b   9.69210000
_cell_length_c   15.69380000
_cell_angle_alpha   92.70170000
_cell_angle_beta   92.70170000
_cell_angle_gamma   99.01960000
_symmetry_Int_Tables_number   1
_chemical_formula_structural   CeP4H8Ru2(C2O7)2
_chemical_formula_sum   'Ce2 P8 H16 Ru4 C8 O28'
_cell_volume   1452.15479692
_cell_formula_units_Z   2
loop_
 _symmetry_equiv_pos_site_id
 _symmetry_equiv_pos_as_xyz
  1  'x, y, z'
loop_
 _atom_site_type_symbol
 _atom_site_label
 _atom_site_symmetry_multiplicity
 _atom_site_fract_x
 _atom_site_fract_y
 _atom_site_fract_z
 _atom_site_occupancy
 _atom_site_charge
  Ce  Ce1  1  0.011400  0.988600  0.750000  1.0  2.3504
  Ce  Ce2  1  0.988600  0.011400  0.250000  1.0  2.3514
  P  P3  1  0.356420  0.045280  0.643900  1.0  1.4183
  P  P4  1  0.648660  0.974080  0.651650  1.0  1.3834
  P  P5  1  0.954720  0.643580  0.856100  1.0  1.4228
  P  P6  1  0.025920  0.351340  0.848350  1.0  1.3879
  P  P7  1  0.643580  0.954720  0.356100  1.0  1.4179
  P  P8  1  0.351340  0.025920  0.348350  1.0  1.3851
  P  P9  1  0.045280  0.356420  0.143900  1.0  1.4226
  P  P10  1  0.974080  0.648660  0.151650  1.0  1.3861
  H  H11  1  0.478200  0.160000  0.811700  1.0  0.1333
  H  H12  1  0.634900  0.127100  0.810700  1.0  0.125
  H  H13  1  0.580300  0.225100  0.741600  1.0  0.1204
  H  H14  1  0.508000  0.824000  0.771000  1.0  0.3862
  H  H15  1  0.840000  0.521800  0.688300  1.0  0.133
  H  H16  1  0.872900  0.365100  0.689300  1.0  0.1242
  H  H17  1  0.774900  0.419700  0.758400  1.0  0.12
  H  H18  1  0.176000  0.492000  0.729000  1.0  0.3833
  H  H19  1  0.521800  0.840000  0.188300  1.0  0.1323
  H  H20  1  0.365100  0.872900  0.189300  1.0  0.123
  H  H21  1  0.419700  0.774900  0.258400  1.0  0.1216
  H  H22  1  0.492000  0.176000  0.229000  1.0  0.3851
  H  H23  1  0.160000  0.478200  0.311700  1.0  0.1338
  H  H24  1  0.127100  0.634900  0.310700  1.0  0.1254
  H  H25  1  0.225100  0.580300  0.241600  1.0  0.1198
  H  H26  1  0.824000  0.508000  0.271000  1.0  0.3828
  Ru  Ru27  1  0.546220  0.120060  0.502070  1.0  1.0797
  Ru  Ru28  1  0.879940  0.453780  0.997930  1.0  1.0745
  Ru  Ru29  1  0.453780  0.879940  0.497930  1.0  1.078
  Ru  Ru30  1  0.120060  0.546220  0.002070  1.0  1.0763
  C  C31  1  0.504000  0.015200  0.715000  1.0  -0.2986
  C  C32  1  0.553800  0.143200  0.775100  1.0  -0.2656
  C  C33  1  0.984800  0.496000  0.785000  1.0  -0.2982
  C  C34  1  0.856800  0.446200  0.724900  1.0  -0.2647
  C  C35  1  0.496000  0.984800  0.285000  1.0  -0.2985
  C  C36  1  0.446200  0.856800  0.224900  1.0  -0.2657
  C  C37  1  0.015200  0.504000  0.215000  1.0  -0.2969
  C  C38  1  0.143200  0.553800  0.275100  1.0  -0.2671
  O  O39  1  0.411070  0.168070  0.589090  1.0  -0.7096
  O  O40  1  0.311640  0.910880  0.585360  1.0  -0.7612
  O  O41  1  0.240160  0.077220  0.697620  1.0  -0.9106
  O  O42  1  0.690030  0.101250  0.597160  1.0  -0.7445
  O  O43  1  0.592290  0.843890  0.592460  1.0  -0.7176
  O  O44  1  0.767810  0.950050  0.710760  1.0  -0.9067
  O  O45  1  0.449830  0.898570  0.764330  1.0  -0.5112
  O  O46  1  0.831930  0.588930  0.910910  1.0  -0.7078
  O  O47  1  0.089120  0.688360  0.914640  1.0  -0.7605
  O  O48  1  0.922780  0.759840  0.802380  1.0  -0.909
  O  O49  1  0.898750  0.309970  0.902840  1.0  -0.7424
  O  O50  1  0.156110  0.407710  0.907540  1.0  -0.7187
  O  O51  1  0.049950  0.232190  0.789240  1.0  -0.9053
  O  O52  1  0.101430  0.550170  0.735670  1.0  -0.5106
  O  O53  1  0.588930  0.831930  0.410910  1.0  -0.708
  O  O54  1  0.688360  0.089120  0.414640  1.0  -0.7579
  O  O55  1  0.759840  0.922780  0.302380  1.0  -0.9109
  O  O56  1  0.309970  0.898750  0.402840  1.0  -0.7438
  O  O57  1  0.407710  0.156110  0.407540  1.0  -0.718
  O  O58  1  0.232190  0.049950  0.289240  1.0  -0.9045
  O  O59  1  0.550170  0.101430  0.235670  1.0  -0.5125
  O  O60  1  0.168070  0.411070  0.089090  1.0  -0.7084
  O  O61  1  0.910880  0.311640  0.085360  1.0  -0.7622
  O  O62  1  0.077220  0.240160  0.197620  1.0  -0.9113
  O  O63  1  0.101250  0.690030  0.097160  1.0  -0.7444
  O  O64  1  0.843890  0.592290  0.092460  1.0  -0.7161
  O  O65  1  0.950050  0.767810  0.210760  1.0  -0.906
  O  O66  1  0.898570  0.449830  0.264330  1.0  -0.5089
