# generated using pymatgen
data_ErP4H8Ru2(C2O7)2
_symmetry_space_group_name_H-M   'P 1'
_cell_length_a   9.53210000
_cell_length_b   9.53210000
_cell_length_c   15.45100000
_cell_angle_alpha   92.86510000
_cell_angle_beta   92.86510000
_cell_angle_gamma   99.04120000
_symmetry_Int_Tables_number   1
_chemical_formula_structural   ErP4H8Ru2(C2O7)2
_chemical_formula_sum   'Er2 P8 H16 Ru4 C8 O28'
_cell_volume   1382.33377820
_cell_formula_units_Z   2
loop_
 _symmetry_equiv_pos_site_id
 _symmetry_equiv_pos_as_xyz
  1  'x, y, z'
loop_
 _atom_site_type_symbol
 _atom_site_label
 _atom_site_symmetry_multiplicity
 _atom_site_fract_x
 _atom_site_fract_y
 _atom_site_fract_z
 _atom_site_occupancy
 _atom_site_charge
  Er  Er1  1  0.010860  0.989140  0.750000  1.0  1.6557
  Er  Er2  1  0.989140  0.010860  0.250000  1.0  1.6583
  P  P3  1  0.353930  0.044910  0.645960  1.0  1.3385
  P  P4  1  0.651650  0.976270  0.654290  1.0  1.359
  P  P5  1  0.955090  0.646070  0.854040  1.0  1.3445
  P  P6  1  0.023730  0.348350  0.845710  1.0  1.3661
  P  P7  1  0.646070  0.955090  0.354040  1.0  1.3431
  P  P8  1  0.348350  0.023730  0.345710  1.0  1.3591
  P  P9  1  0.044910  0.353930  0.145960  1.0  1.3521
  P  P10  1  0.976270  0.651650  0.154290  1.0  1.359
  H  H11  1  0.420400  0.829600  0.732500  1.0  0.4065
  H  H12  1  0.472000  0.159000  0.814300  1.0  0.1337
  H  H13  1  0.631600  0.126200  0.816500  1.0  0.133
  H  H14  1  0.579000  0.225200  0.745000  1.0  0.1171
  H  H15  1  0.170400  0.579600  0.767500  1.0  0.4063
  H  H16  1  0.841000  0.528000  0.685700  1.0  0.1334
  H  H17  1  0.873800  0.368400  0.683500  1.0  0.1314
  H  H18  1  0.774800  0.421000  0.755000  1.0  0.1172
  H  H19  1  0.579600  0.170400  0.267500  1.0  0.407
  H  H20  1  0.528000  0.841000  0.185700  1.0  0.1332
  H  H21  1  0.368400  0.873800  0.183500  1.0  0.1312
  H  H22  1  0.421000  0.774800  0.255000  1.0  0.118
  H  H23  1  0.829600  0.420400  0.232500  1.0  0.4114
  H  H24  1  0.159000  0.472000  0.314300  1.0  0.1339
  H  H25  1  0.126200  0.631600  0.316500  1.0  0.1326
  H  H26  1  0.225200  0.579000  0.245000  1.0  0.117
  Ru  Ru27  1  0.545680  0.121640  0.501900  1.0  1.1199
  Ru  Ru28  1  0.878360  0.454320  0.998100  1.0  1.1165
  Ru  Ru29  1  0.454320  0.878360  0.498100  1.0  1.1154
  Ru  Ru30  1  0.121640  0.545680  0.001900  1.0  1.1186
  C  C31  1  0.504700  0.016700  0.719700  1.0  -0.3103
  C  C32  1  0.550600  0.142200  0.778700  1.0  -0.2573
  C  C33  1  0.983300  0.495300  0.780300  1.0  -0.3105
  C  C34  1  0.857800  0.449400  0.721300  1.0  -0.2556
  C  C35  1  0.495300  0.983300  0.280300  1.0  -0.311
  C  C36  1  0.449400  0.857800  0.221300  1.0  -0.2565
  C  C37  1  0.016700  0.504700  0.219700  1.0  -0.3112
  C  C38  1  0.142200  0.550600  0.278700  1.0  -0.2586
  O  O39  1  0.408600  0.167800  0.589600  1.0  -0.655
  O  O40  1  0.308900  0.909700  0.586100  1.0  -0.7055
  O  O41  1  0.233100  0.074100  0.699500  1.0  -0.8489
  O  O42  1  0.691300  0.104300  0.598700  1.0  -0.6892
  O  O43  1  0.594400  0.841800  0.594200  1.0  -0.6796
  O  O44  1  0.772600  0.955000  0.714800  1.0  -0.8398
  O  O45  1  0.450700  0.900100  0.767400  1.0  -0.4602
  O  O46  1  0.832200  0.591400  0.910400  1.0  -0.656
  O  O47  1  0.090300  0.691100  0.913900  1.0  -0.7061
  O  O48  1  0.925900  0.766900  0.800500  1.0  -0.8471
  O  O49  1  0.895700  0.308700  0.901300  1.0  -0.6868
  O  O50  1  0.158200  0.405600  0.905800  1.0  -0.6762
  O  O51  1  0.045000  0.227400  0.785200  1.0  -0.8403
  O  O52  1  0.099900  0.549300  0.732600  1.0  -0.462
  O  O53  1  0.591400  0.832200  0.410400  1.0  -0.6544
  O  O54  1  0.691100  0.090300  0.413900  1.0  -0.7034
  O  O55  1  0.766900  0.925900  0.300500  1.0  -0.8477
  O  O56  1  0.308700  0.895700  0.401300  1.0  -0.6886
  O  O57  1  0.405600  0.158200  0.405800  1.0  -0.6796
  O  O58  1  0.227400  0.045000  0.285200  1.0  -0.8401
  O  O59  1  0.549300  0.099900  0.232600  1.0  -0.4631
  O  O60  1  0.167800  0.408600  0.089600  1.0  -0.6521
  O  O61  1  0.909700  0.308900  0.086100  1.0  -0.7055
  O  O62  1  0.074100  0.233100  0.199500  1.0  -0.8474
  O  O63  1  0.104300  0.691300  0.098700  1.0  -0.6883
  O  O64  1  0.841800  0.594400  0.094200  1.0  -0.6751
  O  O65  1  0.955000  0.772600  0.214800  1.0  -0.8395
  O  O66  1  0.900100  0.450700  0.267400  1.0  -0.4606
