# generated using pymatgen
data_LaP4H8Ru2(C2O7)2
_symmetry_space_group_name_H-M   'P 1'
_cell_length_a   9.72000000
_cell_length_b   9.72000000
_cell_length_c   15.72620000
_cell_angle_alpha   92.74140000
_cell_angle_beta   92.74140000
_cell_angle_gamma   99.08600000
_symmetry_Int_Tables_number   1
_chemical_formula_structural   LaP4H8Ru2(C2O7)2
_chemical_formula_sum   'La2 P8 H16 Ru4 C8 O28'
_cell_volume   1463.15224267
_cell_formula_units_Z   2
loop_
 _symmetry_equiv_pos_site_id
 _symmetry_equiv_pos_as_xyz
  1  'x, y, z'
loop_
 _atom_site_type_symbol
 _atom_site_label
 _atom_site_symmetry_multiplicity
 _atom_site_fract_x
 _atom_site_fract_y
 _atom_site_fract_z
 _atom_site_occupancy
 _atom_site_charge
  La  La1  1  0.011710  0.988290  0.750000  1.0  2.2863
  La  La2  1  0.988290  0.011710  0.250000  1.0  2.286
  P  P3  1  0.357140  0.045780  0.643590  1.0  1.4177
  P  P4  1  0.648100  0.973660  0.651310  1.0  1.3774
  P  P5  1  0.954220  0.642860  0.856410  1.0  1.4235
  P  P6  1  0.026340  0.351900  0.848690  1.0  1.3822
  P  P7  1  0.642860  0.954220  0.356410  1.0  1.4172
  P  P8  1  0.351900  0.026340  0.348690  1.0  1.3789
  P  P9  1  0.045780  0.357140  0.143590  1.0  1.4224
  P  P10  1  0.973660  0.648100  0.151310  1.0  1.3803
  H  H11  1  0.478800  0.159600  0.811100  1.0  0.1316
  H  H12  1  0.634700  0.126100  0.810600  1.0  0.1272
  H  H13  1  0.581500  0.224500  0.741600  1.0  0.1193
  H  H14  1  0.511000  0.821000  0.763000  1.0  0.3817
  H  H15  1  0.840400  0.521200  0.688900  1.0  0.1306
  H  H16  1  0.873900  0.365300  0.689400  1.0  0.126
  H  H17  1  0.775500  0.418500  0.758400  1.0  0.1193
  H  H18  1  0.179000  0.489000  0.737000  1.0  0.3796
  H  H19  1  0.521200  0.840400  0.188900  1.0  0.1299
  H  H20  1  0.365300  0.873900  0.189400  1.0  0.1238
  H  H21  1  0.418500  0.775500  0.258400  1.0  0.1201
  H  H22  1  0.489000  0.179000  0.237000  1.0  0.3815
  H  H23  1  0.159600  0.478800  0.311100  1.0  0.1321
  H  H24  1  0.126100  0.634700  0.310600  1.0  0.1274
  H  H25  1  0.224500  0.581500  0.241600  1.0  0.1191
  H  H26  1  0.821000  0.511000  0.263000  1.0  0.3809
  Ru  Ru27  1  0.546460  0.119720  0.502090  1.0  1.0693
  Ru  Ru28  1  0.880280  0.453540  0.997910  1.0  1.0692
  Ru  Ru29  1  0.453540  0.880280  0.497910  1.0  1.0677
  Ru  Ru30  1  0.119720  0.546460  0.002090  1.0  1.0683
  C  C31  1  0.504190  0.015010  0.714350  1.0  -0.311
  C  C32  1  0.554270  0.142730  0.774860  1.0  -0.2618
  C  C33  1  0.984990  0.495810  0.785650  1.0  -0.3105
  C  C34  1  0.857270  0.445730  0.725140  1.0  -0.2608
  C  C35  1  0.495810  0.984990  0.285650  1.0  -0.311
  C  C36  1  0.445730  0.857270  0.225140  1.0  -0.2618
  C  C37  1  0.015010  0.504190  0.214350  1.0  -0.3098
  C  C38  1  0.142730  0.554270  0.274860  1.0  -0.2638
  O  O39  1  0.411870  0.168270  0.588970  1.0  -0.7092
  O  O40  1  0.311610  0.911550  0.585120  1.0  -0.7475
  O  O41  1  0.241480  0.078340  0.697300  1.0  -0.8984
  O  O42  1  0.689850  0.100610  0.597040  1.0  -0.7425
  O  O43  1  0.591640  0.843980  0.592110  1.0  -0.7159
  O  O44  1  0.766280  0.949540  0.710560  1.0  -0.8995
  O  O45  1  0.450090  0.898090  0.763460  1.0  -0.489
  O  O46  1  0.831730  0.588130  0.911030  1.0  -0.7073
  O  O47  1  0.088450  0.688390  0.914880  1.0  -0.7452
  O  O48  1  0.921660  0.758520  0.802700  1.0  -0.8983
  O  O49  1  0.899390  0.310150  0.902960  1.0  -0.7406
  O  O50  1  0.156020  0.408360  0.907890  1.0  -0.7154
  O  O51  1  0.050460  0.233720  0.789440  1.0  -0.8983
  O  O52  1  0.101910  0.549910  0.736540  1.0  -0.4891
  O  O53  1  0.588130  0.831730  0.411030  1.0  -0.7076
  O  O54  1  0.688390  0.088450  0.414880  1.0  -0.7427
  O  O55  1  0.758520  0.921660  0.302700  1.0  -0.8987
  O  O56  1  0.310150  0.899390  0.402960  1.0  -0.7419
  O  O57  1  0.408360  0.156020  0.407890  1.0  -0.7166
  O  O58  1  0.233720  0.050460  0.289440  1.0  -0.8969
  O  O59  1  0.549910  0.101910  0.236540  1.0  -0.4895
  O  O60  1  0.168270  0.411870  0.088970  1.0  -0.7082
  O  O61  1  0.911550  0.311610  0.085120  1.0  -0.7474
  O  O62  1  0.078340  0.241480  0.197300  1.0  -0.8988
  O  O63  1  0.100610  0.689850  0.097040  1.0  -0.7416
  O  O64  1  0.843980  0.591640  0.092110  1.0  -0.7143
  O  O65  1  0.949540  0.766280  0.210560  1.0  -0.8985
  O  O66  1  0.898090  0.450090  0.263460  1.0  -0.4867
