# generated using pymatgen
data_PrP4H12Ru2(CO4)4
_symmetry_space_group_name_H-M   'P 1'
_cell_length_a   9.94020000
_cell_length_b   9.94020000
_cell_length_c   15.69000000
_cell_angle_alpha   92.46620000
_cell_angle_beta   92.46620000
_cell_angle_gamma   97.17810000
_symmetry_Int_Tables_number   1
_chemical_formula_structural   PrP4H12Ru2(CO4)4
_chemical_formula_sum   'Pr2 P8 H24 Ru4 C8 O32'
_cell_volume   1534.88238679
_cell_formula_units_Z   2
loop_
 _symmetry_equiv_pos_site_id
 _symmetry_equiv_pos_as_xyz
  1  'x, y, z'
loop_
 _atom_site_type_symbol
 _atom_site_label
 _atom_site_symmetry_multiplicity
 _atom_site_fract_x
 _atom_site_fract_y
 _atom_site_fract_z
 _atom_site_occupancy
 _atom_site_charge
  Pr  Pr1  1  0.010580  0.989420  0.750000  1.0  2.1833
  Pr  Pr2  1  0.989420  0.010580  0.250000  1.0  2.1827
  P  P3  1  0.356830  0.046350  0.641610  1.0  1.2151
  P  P4  1  0.649740  0.977400  0.651670  1.0  1.1726
  P  P5  1  0.953650  0.643170  0.858390  1.0  1.2135
  P  P6  1  0.022600  0.350260  0.848330  1.0  1.1756
  P  P7  1  0.643170  0.953650  0.358390  1.0  1.2096
  P  P8  1  0.350260  0.022600  0.348330  1.0  1.1719
  P  P9  1  0.046350  0.356830  0.141610  1.0  1.2102
  P  P10  1  0.977400  0.649740  0.151670  1.0  1.1694
  H  H11  1  0.430100  0.847500  0.720700  1.0  0.3977
  H  H12  1  0.930200  0.119000  0.887300  1.0  0.4429
  H  H13  1  0.849300  0.985500  0.878700  1.0  0.5061
  H  H14  1  0.549600  0.128600  0.830600  1.0  0.1363
  H  H15  1  0.647200  0.176600  0.756200  1.0  0.1008
  H  H16  1  0.496600  0.217600  0.756600  1.0  0.1357
  H  H17  1  0.152500  0.569900  0.779300  1.0  0.402
  H  H18  1  0.881000  0.069800  0.612700  1.0  0.4437
  H  H19  1  0.014500  0.150700  0.621300  1.0  0.504
  H  H20  1  0.871400  0.450400  0.669400  1.0  0.135
  H  H21  1  0.823400  0.352800  0.743800  1.0  0.1029
  H  H22  1  0.782400  0.503400  0.743400  1.0  0.1362
  H  H23  1  0.569900  0.152500  0.279300  1.0  0.3982
  H  H24  1  0.069800  0.881000  0.112700  1.0  0.4416
  H  H25  1  0.150700  0.014500  0.121300  1.0  0.5043
  H  H26  1  0.450400  0.871400  0.169400  1.0  0.1355
  H  H27  1  0.352800  0.823400  0.243800  1.0  0.1009
  H  H28  1  0.503400  0.782400  0.243400  1.0  0.1352
  H  H29  1  0.847500  0.430100  0.220700  1.0  0.3987
  H  H30  1  0.119000  0.930200  0.387300  1.0  0.4443
  H  H31  1  0.985500  0.849300  0.378700  1.0  0.5041
  H  H32  1  0.128600  0.549600  0.330600  1.0  0.1359
  H  H33  1  0.176600  0.647200  0.256200  1.0  0.1017
  H  H34  1  0.217600  0.496600  0.256600  1.0  0.1356
  Ru  Ru35  1  0.544690  0.118990  0.503380  1.0  0.9926
  Ru  Ru36  1  0.881010  0.455310  0.996620  1.0  0.9933
  Ru  Ru37  1  0.455310  0.881010  0.496620  1.0  0.9919
  Ru  Ru38  1  0.118990  0.544690  0.003380  1.0  0.9912
  C  C39  1  0.501300  0.018700  0.717300  1.0  -0.1934
  C  C40  1  0.553300  0.146500  0.769800  1.0  -0.2609
  C  C41  1  0.981300  0.498700  0.782700  1.0  -0.1962
  C  C42  1  0.853500  0.446700  0.730200  1.0  -0.2613
  C  C43  1  0.498700  0.981300  0.282700  1.0  -0.1953
  C  C44  1  0.446700  0.853500  0.230200  1.0  -0.2621
  C  C45  1  0.018700  0.501300  0.217300  1.0  -0.1924
  C  C46  1  0.146500  0.553300  0.269800  1.0  -0.2624
  O  O47  1  0.407200  0.168800  0.591200  1.0  -0.685
  O  O48  1  0.305700  0.905100  0.580400  1.0  -0.6995
  O  O49  1  0.237000  0.076800  0.698700  1.0  -0.8556
  O  O50  1  0.688200  0.101600  0.595900  1.0  -0.6964
  O  O51  1  0.584700  0.843300  0.597100  1.0  -0.674
  O  O52  1  0.756200  0.937400  0.722200  1.0  -0.8049
  O  O53  1  0.460300  0.918100  0.755600  1.0  -0.4358
  O  O54  1  0.931900  0.031700  0.876600  1.0  -0.8884
  O  O55  1  0.831200  0.592800  0.908800  1.0  -0.6665
  O  O56  1  0.094900  0.694300  0.919600  1.0  -0.7003
  O  O57  1  0.923200  0.763000  0.801300  1.0  -0.8568
  O  O58  1  0.898400  0.311800  0.904100  1.0  -0.6974
  O  O59  1  0.156700  0.415300  0.902900  1.0  -0.6743
  O  O60  1  0.062600  0.243800  0.777800  1.0  -0.8031
  O  O61  1  0.081900  0.539700  0.744400  1.0  -0.438
  O  O62  1  0.968300  0.068100  0.623400  1.0  -0.8882
  O  O63  1  0.592800  0.831200  0.408800  1.0  -0.6709
  O  O64  1  0.694300  0.094900  0.419600  1.0  -0.6996
  O  O65  1  0.763000  0.923200  0.301300  1.0  -0.8561
  O  O66  1  0.311800  0.898400  0.404100  1.0  -0.6974
  O  O67  1  0.415300  0.156700  0.402900  1.0  -0.6753
  O  O68  1  0.243800  0.062600  0.277800  1.0  -0.8033
  O  O69  1  0.539700  0.081900  0.244400  1.0  -0.4361
  O  O70  1  0.068100  0.968300  0.123400  1.0  -0.8889
  O  O71  1  0.168800  0.407200  0.091200  1.0  -0.6855
  O  O72  1  0.905100  0.305700  0.080400  1.0  -0.6999
  O  O73  1  0.076800  0.237000  0.198700  1.0  -0.856
  O  O74  1  0.101600  0.688200  0.095900  1.0  -0.6959
  O  O75  1  0.843300  0.584700  0.097100  1.0  -0.6716
  O  O76  1  0.937400  0.756200  0.222200  1.0  -0.8006
  O  O77  1  0.918100  0.460300  0.255600  1.0  -0.4391
  O  O78  1  0.031700  0.931900  0.376600  1.0  -0.8877
