# generated using pymatgen
data_NdP4H8Ru2(C2O7)2
_symmetry_space_group_name_H-M   'P 1'
_cell_length_a   9.66020000
_cell_length_b   9.66020000
_cell_length_c   15.62500000
_cell_angle_alpha   92.90530000
_cell_angle_beta   92.90530000
_cell_angle_gamma   99.10620000
_symmetry_Int_Tables_number   1
_chemical_formula_structural   NdP4H8Ru2(C2O7)2
_chemical_formula_sum   'Nd2 P8 H16 Ru4 C8 O28'
_cell_volume   1435.33866831
_cell_formula_units_Z   2
loop_
 _symmetry_equiv_pos_site_id
 _symmetry_equiv_pos_as_xyz
  1  'x, y, z'
loop_
 _atom_site_type_symbol
 _atom_site_label
 _atom_site_symmetry_multiplicity
 _atom_site_fract_x
 _atom_site_fract_y
 _atom_site_fract_z
 _atom_site_occupancy
 _atom_site_charge
  Nd  Nd1  1  0.011350  0.988650  0.750000  1.0  2.35
  Nd  Nd2  1  0.988650  0.011350  0.250000  1.0  2.3542
  P  P3  1  0.355310  0.044890  0.644240  1.0  1.3631
  P  P4  1  0.650050  0.974910  0.652620  1.0  1.4032
  P  P5  1  0.955110  0.644690  0.855760  1.0  1.371
  P  P6  1  0.025090  0.349950  0.847380  1.0  1.4092
  P  P7  1  0.644690  0.955110  0.355760  1.0  1.3696
  P  P8  1  0.349950  0.025090  0.347380  1.0  1.4076
  P  P9  1  0.044890  0.355310  0.144240  1.0  1.3734
  P  P10  1  0.974910  0.650050  0.152620  1.0  1.4067
  H  H11  1  0.478600  0.154600  0.816300  1.0  0.1335
  H  H12  1  0.637700  0.128500  0.812100  1.0  0.1279
  H  H13  1  0.575400  0.226600  0.745500  1.0  0.1242
  H  H14  1  0.419000  0.825000  0.732000  1.0  0.3948
  H  H15  1  0.845400  0.521400  0.683700  1.0  0.1322
  H  H16  1  0.871500  0.362300  0.687900  1.0  0.1292
  H  H17  1  0.773400  0.424600  0.754500  1.0  0.1242
  H  H18  1  0.175000  0.581000  0.768000  1.0  0.3913
  H  H19  1  0.521400  0.845400  0.183700  1.0  0.1321
  H  H20  1  0.362300  0.871500  0.187900  1.0  0.1262
  H  H21  1  0.424600  0.773400  0.254500  1.0  0.1249
  H  H22  1  0.581000  0.175000  0.268000  1.0  0.394
  H  H23  1  0.154600  0.478600  0.316300  1.0  0.1342
  H  H24  1  0.128500  0.637700  0.312100  1.0  0.1301
  H  H25  1  0.226600  0.575400  0.245500  1.0  0.1243
  H  H26  1  0.825000  0.419000  0.232000  1.0  0.3957
  Ru  Ru27  1  0.546030  0.120390  0.502210  1.0  1.0682
  Ru  Ru28  1  0.879610  0.453970  0.997790  1.0  1.0671
  Ru  Ru29  1  0.453970  0.879610  0.497790  1.0  1.0668
  Ru  Ru30  1  0.120390  0.546030  0.002210  1.0  1.0674
  C  C31  1  0.505800  0.015400  0.716200  1.0  -0.3343
  C  C32  1  0.553600  0.142600  0.778000  1.0  -0.2567
  C  C33  1  0.984600  0.494200  0.783800  1.0  -0.3349
  C  C34  1  0.857400  0.446400  0.722000  1.0  -0.2554
  C  C35  1  0.494200  0.984600  0.283800  1.0  -0.3357
  C  C36  1  0.446400  0.857400  0.222000  1.0  -0.255
  C  C37  1  0.015400  0.505800  0.216200  1.0  -0.3345
  C  C38  1  0.142600  0.553600  0.278000  1.0  -0.2588
  O  O39  1  0.409700  0.168500  0.588890  1.0  -0.6931
  O  O40  1  0.310600  0.910000  0.585620  1.0  -0.7557
  O  O41  1  0.235400  0.077600  0.698560  1.0  -0.911
  O  O42  1  0.690800  0.101800  0.598250  1.0  -0.7487
  O  O43  1  0.592520  0.843880  0.592380  1.0  -0.7117
  O  O44  1  0.768830  0.951370  0.712140  1.0  -0.9032
  O  O45  1  0.450100  0.898700  0.766000  1.0  -0.4877
  O  O46  1  0.831500  0.590300  0.911110  1.0  -0.692
  O  O47  1  0.090000  0.689400  0.914380  1.0  -0.7551
  O  O48  1  0.922400  0.764600  0.801440  1.0  -0.9094
  O  O49  1  0.898200  0.309200  0.901750  1.0  -0.7468
  O  O50  1  0.156120  0.407480  0.907620  1.0  -0.7111
  O  O51  1  0.048630  0.231170  0.787860  1.0  -0.9034
  O  O52  1  0.101300  0.549900  0.734000  1.0  -0.4883
  O  O53  1  0.590300  0.831500  0.411110  1.0  -0.6924
  O  O54  1  0.689400  0.090000  0.414380  1.0  -0.7534
  O  O55  1  0.764600  0.922400  0.301440  1.0  -0.91
  O  O56  1  0.309200  0.898200  0.401750  1.0  -0.7478
  O  O57  1  0.407480  0.156120  0.407620  1.0  -0.7116
  O  O58  1  0.231170  0.048630  0.287860  1.0  -0.9031
  O  O59  1  0.549900  0.101300  0.234000  1.0  -0.4894
  O  O60  1  0.168500  0.409700  0.088890  1.0  -0.6918
  O  O61  1  0.910000  0.310600  0.085620  1.0  -0.756
  O  O62  1  0.077600  0.235400  0.198560  1.0  -0.9087
  O  O63  1  0.101800  0.690800  0.098250  1.0  -0.7478
  O  O64  1  0.843880  0.592520  0.092380  1.0  -0.7105
  O  O65  1  0.951370  0.768830  0.212140  1.0  -0.9029
  O  O66  1  0.898700  0.450100  0.266000  1.0  -0.4881
