# generated using pymatgen
data_TbP4H8Ru2(C2O7)2
_symmetry_space_group_name_H-M   'P 1'
_cell_length_a   9.58990000
_cell_length_b   9.58990000
_cell_length_c   15.52400000
_cell_angle_alpha   92.91920000
_cell_angle_beta   92.91920000
_cell_angle_gamma   98.98660000
_symmetry_Int_Tables_number   1
_chemical_formula_structural   TbP4H8Ru2(C2O7)2
_chemical_formula_sum   'Tb2 P8 H16 Ru4 C8 O28'
_cell_volume   1405.81689841
_cell_formula_units_Z   2
loop_
 _symmetry_equiv_pos_site_id
 _symmetry_equiv_pos_as_xyz
  1  'x, y, z'
loop_
 _atom_site_type_symbol
 _atom_site_label
 _atom_site_symmetry_multiplicity
 _atom_site_fract_x
 _atom_site_fract_y
 _atom_site_fract_z
 _atom_site_occupancy
 _atom_site_charge
  Tb  Tb1  1  0.011030  0.988970  0.750000  1.0  2.3128
  Tb  Tb2  1  0.988970  0.011030  0.250000  1.0  2.3145
  P  P3  1  0.354500  0.044760  0.645400  1.0  1.3853
  P  P4  1  0.651360  0.977100  0.653650  1.0  1.4034
  P  P5  1  0.955240  0.645500  0.854600  1.0  1.394
  P  P6  1  0.022900  0.348640  0.846350  1.0  1.4089
  P  P7  1  0.645500  0.955240  0.354600  1.0  1.3912
  P  P8  1  0.348640  0.022900  0.346350  1.0  1.4036
  P  P9  1  0.044760  0.354500  0.145400  1.0  1.399
  P  P10  1  0.977100  0.651360  0.153650  1.0  1.4052
  H  H11  1  0.421600  0.830800  0.732700  1.0  0.4161
  H  H12  1  0.478300  0.152500  0.819100  1.0  0.1286
  H  H13  1  0.639500  0.130500  0.812600  1.0  0.1266
  H  H14  1  0.571400  0.228200  0.747000  1.0  0.1137
  H  H15  1  0.169200  0.578400  0.767300  1.0  0.4177
  H  H16  1  0.847500  0.521700  0.680900  1.0  0.1274
  H  H17  1  0.869500  0.360500  0.687400  1.0  0.129
  H  H18  1  0.771800  0.428600  0.753000  1.0  0.1134
  H  H19  1  0.578400  0.169200  0.267300  1.0  0.4186
  H  H20  1  0.521700  0.847500  0.180900  1.0  0.1275
  H  H21  1  0.360500  0.869500  0.187400  1.0  0.1253
  H  H22  1  0.428600  0.771800  0.253000  1.0  0.1143
  H  H23  1  0.830800  0.421600  0.232700  1.0  0.4199
  H  H24  1  0.152500  0.478300  0.319100  1.0  0.129
  H  H25  1  0.130500  0.639500  0.312600  1.0  0.1298
  H  H26  1  0.228200  0.571400  0.247000  1.0  0.1132
  Ru  Ru27  1  0.545260  0.121120  0.502050  1.0  1.0714
  Ru  Ru28  1  0.878880  0.454740  0.997950  1.0  1.0691
  Ru  Ru29  1  0.454740  0.878880  0.497950  1.0  1.0685
  Ru  Ru30  1  0.121120  0.545260  0.002050  1.0  1.07
  C  C31  1  0.506000  0.014800  0.717000  1.0  -0.3599
  C  C32  1  0.553000  0.142800  0.779500  1.0  -0.2753
  C  C33  1  0.985200  0.494000  0.783000  1.0  -0.3619
  C  C34  1  0.857200  0.447000  0.720500  1.0  -0.2735
  C  C35  1  0.494000  0.985200  0.283000  1.0  -0.3625
  C  C36  1  0.447000  0.857200  0.220500  1.0  -0.2728
  C  C37  1  0.014800  0.506000  0.217000  1.0  -0.361
  C  C38  1  0.142800  0.553000  0.279500  1.0  -0.2765
  O  O39  1  0.408700  0.167700  0.589740  1.0  -0.6915
  O  O40  1  0.310900  0.907500  0.586000  1.0  -0.728
  O  O41  1  0.236100  0.074900  0.698200  1.0  -0.8977
  O  O42  1  0.691300  0.105500  0.598900  1.0  -0.7493
  O  O43  1  0.594500  0.844100  0.593300  1.0  -0.7244
  O  O44  1  0.773100  0.955100  0.712580  1.0  -0.9047
  O  O45  1  0.451800  0.901200  0.767560  1.0  -0.4842
  O  O46  1  0.832300  0.591300  0.910260  1.0  -0.6893
  O  O47  1  0.092500  0.689100  0.914000  1.0  -0.728
  O  O48  1  0.925100  0.763900  0.801800  1.0  -0.8966
  O  O49  1  0.894500  0.308700  0.901100  1.0  -0.7476
  O  O50  1  0.155900  0.405500  0.906700  1.0  -0.7219
  O  O51  1  0.044900  0.226900  0.787420  1.0  -0.904
  O  O52  1  0.098800  0.548200  0.732440  1.0  -0.485
  O  O53  1  0.591300  0.832300  0.410260  1.0  -0.6908
  O  O54  1  0.689100  0.092500  0.414000  1.0  -0.7254
  O  O55  1  0.763900  0.925100  0.301800  1.0  -0.8965
  O  O56  1  0.308700  0.894500  0.401100  1.0  -0.7489
  O  O57  1  0.405500  0.155900  0.406700  1.0  -0.7251
  O  O58  1  0.226900  0.044900  0.287420  1.0  -0.903
  O  O59  1  0.548200  0.098800  0.232440  1.0  -0.4865
  O  O60  1  0.167700  0.408700  0.089740  1.0  -0.6897
  O  O61  1  0.907500  0.310900  0.086000  1.0  -0.7293
  O  O62  1  0.074900  0.236100  0.198200  1.0  -0.896
  O  O63  1  0.105500  0.691300  0.098900  1.0  -0.7486
  O  O64  1  0.844100  0.594500  0.093300  1.0  -0.7221
  O  O65  1  0.955100  0.773100  0.212580  1.0  -0.9052
  O  O66  1  0.901200  0.451800  0.267560  1.0  -0.4841
