# generated using pymatgen
data_HoP4H8Ru2(C2O7)2
_symmetry_space_group_name_H-M   'P 1'
_cell_length_a   9.55150000
_cell_length_b   9.55150000
_cell_length_c   15.39000000
_cell_angle_alpha   92.71050000
_cell_angle_beta   92.71050000
_cell_angle_gamma   98.29970000
_symmetry_Int_Tables_number   1
_chemical_formula_structural   HoP4H8Ru2(C2O7)2
_chemical_formula_sum   'Ho2 P8 H16 Ru4 C8 O28'
_cell_volume   1385.70630654
_cell_formula_units_Z   2
loop_
 _symmetry_equiv_pos_site_id
 _symmetry_equiv_pos_as_xyz
  1  'x, y, z'
loop_
 _atom_site_type_symbol
 _atom_site_label
 _atom_site_symmetry_multiplicity
 _atom_site_fract_x
 _atom_site_fract_y
 _atom_site_fract_z
 _atom_site_occupancy
 _atom_site_charge
  Ho  Ho1  1  0.009950  0.990050  0.750000  1.0  2.2123
  Ho  Ho2  1  0.990050  0.009950  0.250000  1.0  2.2142
  P  P3  1  0.353180  0.044080  0.645120  1.0  1.4412
  P  P4  1  0.652880  0.976860  0.654540  1.0  1.4109
  P  P5  1  0.955920  0.646820  0.854880  1.0  1.4426
  P  P6  1  0.023140  0.347120  0.845460  1.0  1.4171
  P  P7  1  0.646820  0.955920  0.354880  1.0  1.4416
  P  P8  1  0.347120  0.023140  0.345460  1.0  1.4142
  P  P9  1  0.044080  0.353180  0.145120  1.0  1.4461
  P  P10  1  0.976860  0.652880  0.154540  1.0  1.415
  H  H11  1  0.424700  0.831100  0.735600  1.0  0.3928
  H  H12  1  0.471400  0.166000  0.813400  1.0  0.1326
  H  H13  1  0.628300  0.125700  0.818100  1.0  0.1293
  H  H14  1  0.583800  0.229400  0.746400  1.0  0.1186
  H  H15  1  0.168900  0.575300  0.764400  1.0  0.3965
  H  H16  1  0.834000  0.528600  0.686600  1.0  0.1322
  H  H17  1  0.874300  0.371700  0.681900  1.0  0.1288
  H  H18  1  0.770600  0.416200  0.753600  1.0  0.1188
  H  H19  1  0.575300  0.168900  0.264400  1.0  0.398
  H  H20  1  0.528600  0.834000  0.186600  1.0  0.1315
  H  H21  1  0.371700  0.874300  0.181900  1.0  0.1289
  H  H22  1  0.416200  0.770600  0.253600  1.0  0.1186
  H  H23  1  0.831100  0.424700  0.235600  1.0  0.3965
  H  H24  1  0.166000  0.471400  0.313400  1.0  0.1336
  H  H25  1  0.125700  0.628300  0.318100  1.0  0.1287
  H  H26  1  0.229400  0.583800  0.246400  1.0  0.1192
  Ru  Ru27  1  0.545300  0.121460  0.501940  1.0  1.079
  Ru  Ru28  1  0.878540  0.454700  0.998060  1.0  1.0763
  Ru  Ru29  1  0.454700  0.878540  0.498060  1.0  1.0765
  Ru  Ru30  1  0.121460  0.545300  0.001940  1.0  1.0774
  C  C31  1  0.503100  0.020700  0.716300  1.0  -0.3817
  C  C32  1  0.550900  0.146500  0.779000  1.0  -0.2447
  C  C33  1  0.979300  0.496900  0.783700  1.0  -0.3808
  C  C34  1  0.853500  0.449100  0.721000  1.0  -0.2424
  C  C35  1  0.496900  0.979300  0.283700  1.0  -0.3808
  C  C36  1  0.449100  0.853500  0.221000  1.0  -0.2433
  C  C37  1  0.020700  0.503100  0.216300  1.0  -0.3813
  C  C38  1  0.146500  0.550900  0.279000  1.0  -0.2466
  O  O39  1  0.404800  0.164800  0.586800  1.0  -0.6864
  O  O40  1  0.308100  0.909700  0.586200  1.0  -0.7375
  O  O41  1  0.233300  0.071500  0.697900  1.0  -0.9315
  O  O42  1  0.692700  0.105500  0.598100  1.0  -0.7384
  O  O43  1  0.595500  0.844100  0.593600  1.0  -0.7062
  O  O44  1  0.771500  0.952300  0.714100  1.0  -0.9
  O  O45  1  0.455000  0.901600  0.770500  1.0  -0.4869
  O  O46  1  0.835200  0.595200  0.913200  1.0  -0.6837
  O  O47  1  0.090300  0.691900  0.913800  1.0  -0.7407
  O  O48  1  0.928500  0.766700  0.802100  1.0  -0.9321
  O  O49  1  0.894500  0.307300  0.901900  1.0  -0.7366
  O  O50  1  0.155900  0.404500  0.906400  1.0  -0.7053
  O  O51  1  0.047700  0.228500  0.785900  1.0  -0.9004
  O  O52  1  0.098400  0.545000  0.729500  1.0  -0.4974
  O  O53  1  0.595200  0.835200  0.413200  1.0  -0.6865
  O  O54  1  0.691900  0.090300  0.413800  1.0  -0.736
  O  O55  1  0.766700  0.928500  0.302100  1.0  -0.9321
  O  O56  1  0.307300  0.894500  0.401900  1.0  -0.7372
  O  O57  1  0.404500  0.155900  0.406400  1.0  -0.7063
  O  O58  1  0.228500  0.047700  0.285900  1.0  -0.9001
  O  O59  1  0.545000  0.098400  0.229500  1.0  -0.5004
  O  O60  1  0.164800  0.404800  0.086800  1.0  -0.6857
  O  O61  1  0.909700  0.308100  0.086200  1.0  -0.7397
  O  O62  1  0.071500  0.233300  0.197900  1.0  -0.9316
  O  O63  1  0.105500  0.692700  0.098100  1.0  -0.7379
  O  O64  1  0.844100  0.595500  0.093600  1.0  -0.7049
  O  O65  1  0.952300  0.771500  0.214100  1.0  -0.8999
  O  O66  1  0.901600  0.455000  0.270500  1.0  -0.4862
