# generated using pymatgen
data_MgH6(C3O)4
_symmetry_space_group_name_H-M   'P 1'
_cell_length_a   11.11160000
_cell_length_b   12.62290000
_cell_length_c   17.80000000
_cell_angle_alpha   88.56800000
_cell_angle_beta   83.83300000
_cell_angle_gamma   70.16700000
_symmetry_Int_Tables_number   1
_chemical_formula_structural   MgH6(C3O)4
_chemical_formula_sum   'Mg6 H36 C72 O24'
_cell_volume   2334.78581892
_cell_formula_units_Z   6
loop_
 _symmetry_equiv_pos_site_id
 _symmetry_equiv_pos_as_xyz
  1  'x, y, z'
loop_
 _atom_site_type_symbol
 _atom_site_label
 _atom_site_symmetry_multiplicity
 _atom_site_fract_x
 _atom_site_fract_y
 _atom_site_fract_z
 _atom_site_occupancy
 _atom_site_charge
  Mg  Mg1  1  0.700810  0.301060  0.743950  1.0  1.5516
  Mg  Mg2  1  0.699760  0.422030  0.562670  1.0  1.5885
  Mg  Mg3  1  0.686490  0.176560  0.922850  1.0  1.5998
  Mg  Mg4  1  0.299190  0.698940  0.256050  1.0  1.5515
  Mg  Mg5  1  0.300240  0.577970  0.437330  1.0  1.587
  Mg  Mg6  1  0.313510  0.823440  0.077150  1.0  1.6061
  H  H7  1  0.344500  0.690000  0.625600  1.0  0.0908
  H  H8  1  0.407100  0.589200  0.836800  1.0  0.1007
  H  H9  1  0.236900  0.739900  0.883800  1.0  0.0975
  H  H10  1  0.047700  0.909100  0.861800  1.0  0.1033
  H  H11  1  0.985600  0.008100  0.650800  1.0  0.0984
  H  H12  1  0.156900  0.859400  0.603900  1.0  0.1055
  H  H13  1  0.393200  0.361600  0.765700  1.0  0.0945
  H  H14  1  0.381700  0.054600  0.817500  1.0  0.1085
  H  H15  1  0.196400  0.091600  0.761700  1.0  0.0952
  H  H16  1  0.013100  0.229300  0.702900  1.0  0.0973
  H  H17  1  0.025400  0.535700  0.650400  1.0  0.1011
  H  H18  1  0.215600  0.495800  0.699700  1.0  0.0973
  H  H19  1  0.836400  0.391600  0.027400  1.0  0.0886
  H  H20  1  0.944800  0.466700  0.818500  1.0  0.079
  H  H21  1  0.076400  0.550300  0.863800  1.0  0.0992
  H  H22  1  0.565200  0.177300  0.460300  1.0  0.0998
  H  H23  1  0.488900  0.929400  0.639300  1.0  0.1105
  H  H24  1  0.556400  0.071000  0.673000  1.0  0.0905
  H  H25  1  0.655500  0.310000  0.374400  1.0  0.0898
  H  H26  1  0.592900  0.410800  0.163200  1.0  0.1004
  H  H27  1  0.763100  0.260100  0.116200  1.0  0.0973
  H  H28  1  0.952300  0.090900  0.138200  1.0  0.1036
  H  H29  1  0.014400  0.991900  0.349200  1.0  0.0989
  H  H30  1  0.843100  0.140600  0.396100  1.0  0.1053
  H  H31  1  0.606800  0.638400  0.234300  1.0  0.0943
  H  H32  1  0.618300  0.945400  0.182500  1.0  0.109
  H  H33  1  0.803600  0.908400  0.238300  1.0  0.0948
  H  H34  1  0.986900  0.770700  0.297100  1.0  0.0972
  H  H35  1  0.974600  0.464300  0.349600  1.0  0.1015
  H  H36  1  0.784400  0.504200  0.300300  1.0  0.0974
  H  H37  1  0.163600  0.608400  0.972600  1.0  0.0883
  H  H38  1  0.055200  0.533300  0.181500  1.0  0.0795
  H  H39  1  0.923600  0.449700  0.136200  1.0  0.0992
  H  H40  1  0.434800  0.822700  0.539700  1.0  0.0999
  H  H41  1  0.511100  0.070600  0.360700  1.0  0.1106
  H  H42  1  0.443600  0.929000  0.327000  1.0  0.0911
  C  C43  1  0.321600  0.699900  0.677400  1.0  -0.0887
  C  C44  1  0.393200  0.625600  0.725300  1.0  -0.1682
  C  C45  1  0.359100  0.640700  0.803900  1.0  -0.0569
  C  C46  1  0.256800  0.729900  0.831800  1.0  -0.1384
  C  C47  1  0.070700  0.899300  0.810000  1.0  -0.0726
  C  C48  1  0.998100  0.973900  0.762200  1.0  -0.16
  C  C49  1  0.033800  0.957300  0.684100  1.0  -0.0297
  C  C50  1  0.136700  0.869000  0.655900  1.0  -0.1623
  C  C51  1  0.212900  0.792000  0.704600  1.0  0.033
  C  C52  1  0.180400  0.807400  0.783000  1.0  0.0345
  C  C53  1  0.883700  0.071700  0.791100  1.0  0.7566
  C  C54  1  0.509000  0.527100  0.695400  1.0  0.7479
  C  C55  1  0.351900  0.308600  0.765700  1.0  -0.0718
  C  C56  1  0.405200  0.207000  0.797200  1.0  -0.1345
  C  C57  1  0.345000  0.124500  0.795900  1.0  -0.0631
  C  C58  1  0.233800  0.147100  0.763300  1.0  -0.1343
  C  C59  1  0.055200  0.281800  0.702400  1.0  -0.0719
  C  C60  1  0.000000  0.386100  0.673200  1.0  -0.1325
  C  C61  1  0.062400  0.465600  0.671700  1.0  -0.0664
  C  C62  1  0.175900  0.441600  0.700900  1.0  -0.1196
  C  C63  1  0.234900  0.336300  0.733000  1.0  0.0271
  C  C64  1  0.174700  0.252500  0.731900  1.0  0.0289
  C  C65  1  0.873700  0.413800  0.641400  1.0  0.7179
  C  C66  1  0.521100  0.184500  0.837000  1.0  0.727
  C  C67  1  0.885200  0.423600  0.994800  1.0  -0.0702
  C  C68  1  0.879700  0.418100  0.919300  1.0  -0.1635
  C  C69  1  0.950500  0.467900  0.870200  1.0  -0.0379
  C  C70  1  0.028600  0.518700  0.897400  1.0  -0.153
  C  C71  1  0.962700  0.476400  0.025200  1.0  0.0371
  C  C72  1  0.802200  0.354400  0.888500  1.0  0.7405
  C  C73  1  0.550100  0.126800  0.495900  1.0  -0.0888
  C  C74  1  0.564600  0.139800  0.570100  1.0  -0.158
  C  C75  1  0.504500  0.978200  0.602600  1.0  -0.1538
  C  C76  1  0.543600  0.063600  0.622900  1.0  -0.0395
  C  C77  1  0.512500  0.037400  0.472700  1.0  0.0426
  C  C78  1  0.605800  0.234500  0.595500  1.0  0.7364
  C  C79  1  0.678400  0.300100  0.322600  1.0  -0.091
  C  C80  1  0.606800  0.374400  0.274700  1.0  -0.1672
  C  C81  1  0.640900  0.359300  0.196100  1.0  -0.0549
  C  C82  1  0.743200  0.270100  0.168200  1.0  -0.14
  C  C83  1  0.929300  0.100700  0.190000  1.0  -0.0721
  C  C84  1  0.001900  0.026100  0.237800  1.0  -0.161
  C  C85  1  0.966200  0.042700  0.315900  1.0  -0.0271
  C  C86  1  0.863300  0.131000  0.344100  1.0  -0.1632
  C  C87  1  0.787100  0.208000  0.295400  1.0  0.032
  C  C88  1  0.819600  0.192600  0.217000  1.0  0.0338
  C  C89  1  0.116300  0.928300  0.208900  1.0  0.7573
  C  C90  1  0.491000  0.472900  0.304600  1.0  0.749
  C  C91  1  0.648100  0.691400  0.234300  1.0  -0.0692
  C  C92  1  0.594800  0.793000  0.202800  1.0  -0.1335
  C  C93  1  0.655000  0.875500  0.204100  1.0  -0.0625
  C  C94  1  0.766200  0.852900  0.236700  1.0  -0.1358
  C  C95  1  0.944800  0.718200  0.297600  1.0  -0.0701
  C  C96  1  0.000000  0.613900  0.326800  1.0  -0.133
  C  C97  1  0.937600  0.534400  0.328300  1.0  -0.0666
  C  C98  1  0.824100  0.558400  0.299100  1.0  -0.122
  C  C99  1  0.765100  0.663700  0.267000  1.0  0.0274
  C  C100  1  0.825300  0.747500  0.268100  1.0  0.029
  C  C101  1  0.126300  0.586200  0.358600  1.0  0.7225
  C  C102  1  0.478900  0.815500  0.163000  1.0  0.7284
  C  C103  1  0.114800  0.576400  0.005200  1.0  -0.0714
  C  C104  1  0.120300  0.581900  0.080700  1.0  -0.1646
  C  C105  1  0.049500  0.532100  0.129800  1.0  -0.0372
  C  C106  1  0.971400  0.481300  0.102600  1.0  -0.1439
  C  C107  1  0.037300  0.523600  0.974800  1.0  0.0371
  C  C108  1  0.197800  0.645600  0.111500  1.0  0.7495
  C  C109  1  0.449900  0.873200  0.504100  1.0  -0.0891
  C  C110  1  0.435400  0.860200  0.429900  1.0  -0.1575
  C  C111  1  0.495500  0.021800  0.397400  1.0  -0.1516
  C  C112  1  0.456400  0.936400  0.377100  1.0  -0.0396
  C  C113  1  0.487500  0.962600  0.527300  1.0  0.0426
  C  C114  1  0.394200  0.765500  0.404500  1.0  0.7407
  O  O115  1  0.840500  0.146900  0.745100  1.0  -0.6772
  O  O116  1  0.840100  0.070200  0.858900  1.0  -0.7218
  O  O117  1  0.542700  0.524000  0.625900  1.0  -0.7221
  O  O118  1  0.561700  0.456600  0.741980  1.0  -0.6916
  O  O119  1  0.837100  0.496400  0.599500  1.0  -0.6674
  O  O120  1  0.810000  0.347700  0.652370  1.0  -0.8185
  O  O121  1  0.551900  0.104800  0.881500  1.0  -0.6488
  O  O122  1  0.585400  0.252300  0.828680  1.0  -0.849
  O  O123  1  0.784000  0.366000  0.820460  1.0  -0.6813
  O  O124  1  0.763500  0.293500  0.934890  1.0  -0.7862
  O  O125  1  0.626900  0.235500  0.661800  1.0  -0.6709
  O  O126  1  0.615500  0.306600  0.546300  1.0  -0.6942
  O  O127  1  0.159500  0.853100  0.254900  1.0  -0.6795
  O  O128  1  0.159900  0.929800  0.141100  1.0  -0.7235
  O  O129  1  0.457300  0.476000  0.374100  1.0  -0.72
  O  O130  1  0.438300  0.543400  0.258020  1.0  -0.6918
  O  O131  1  0.162900  0.503600  0.400500  1.0  -0.6673
  O  O132  1  0.190000  0.652300  0.347630  1.0  -0.8211
  O  O133  1  0.448100  0.895200  0.118500  1.0  -0.6411
  O  O134  1  0.414600  0.747700  0.171320  1.0  -0.8492
  O  O135  1  0.216000  0.634000  0.179540  1.0  -0.6806
  O  O136  1  0.236500  0.706500  0.065110  1.0  -0.7826
  O  O137  1  0.373100  0.764500  0.338200  1.0  -0.6717
  O  O138  1  0.384500  0.693400  0.453700  1.0  -0.6622
