# generated using pymatgen
data_CoH12C15(NO2)2
_symmetry_space_group_name_H-M   'P 1'
_cell_length_a   8.28700000
_cell_length_b   14.22400000
_cell_length_c   14.72600000
_cell_angle_alpha   90.00000000
_cell_angle_beta   90.00000000
_cell_angle_gamma   99.69600000
_symmetry_Int_Tables_number   1
_chemical_formula_structural   CoH12C15(NO2)2
_chemical_formula_sum   'Co4 H48 C60 N8 O16'
_cell_volume   1711.02102091
_cell_formula_units_Z   4
loop_
 _symmetry_equiv_pos_site_id
 _symmetry_equiv_pos_as_xyz
  1  'x, y, z'
loop_
 _atom_site_type_symbol
 _atom_site_label
 _atom_site_symmetry_multiplicity
 _atom_site_fract_x
 _atom_site_fract_y
 _atom_site_fract_z
 _atom_site_occupancy
 _atom_site_charge
  Co  Co1  1  0.905930  0.119910  0.082560  1.0  0.9525
  Co  Co2  1  0.594070  0.880090  0.582560  1.0  0.9503
  Co  Co3  1  0.094070  0.880090  0.917440  1.0  0.9507
  Co  Co4  1  0.405930  0.119910  0.417440  1.0  0.9526
  H  H5  1  0.495700  0.838700  0.302000  1.0  0.0957
  H  H6  1  0.655800  0.923300  0.056100  1.0  0.0942
  H  H7  1  0.505300  0.764600  0.073700  1.0  0.0726
  H  H8  1  0.350400  0.800900  0.111400  1.0  0.0839
  H  H9  1  0.352400  0.708900  0.235900  1.0  0.0986
  H  H10  1  0.348800  0.646300  0.148100  1.0  0.0977
  H  H11  1  0.512700  0.675100  0.202100  1.0  0.0899
  H  H12  1  0.246600  0.207600  0.109600  1.0  0.0749
  H  H13  1  0.442700  0.336100  0.080800  1.0  0.1336
  H  H14  1  0.118400  0.441500  0.929700  1.0  0.1225
  H  H15  1  0.932800  0.308900  0.960200  1.0  0.0673
  H  H16  1  0.390800  0.537600  0.947700  1.0  0.1042
  H  H17  1  0.004300  0.161300  0.802000  1.0  0.0954
  H  H18  1  0.844200  0.076700  0.556100  1.0  0.094
  H  H19  1  0.994700  0.235400  0.573700  1.0  0.0728
  H  H20  1  0.149600  0.199100  0.611400  1.0  0.0855
  H  H21  1  0.147600  0.291100  0.735900  1.0  0.0982
  H  H22  1  0.151200  0.353700  0.648100  1.0  0.1028
  H  H23  1  0.987300  0.324900  0.702100  1.0  0.0929
  H  H24  1  0.253400  0.792400  0.609600  1.0  0.0752
  H  H25  1  0.057300  0.663900  0.580800  1.0  0.1324
  H  H26  1  0.381600  0.558500  0.429700  1.0  0.1219
  H  H27  1  0.567200  0.691100  0.460200  1.0  0.0676
  H  H28  1  0.109200  0.462400  0.447700  1.0  0.1034
  H  H29  1  0.504300  0.161300  0.698000  1.0  0.0957
  H  H30  1  0.344200  0.076700  0.943900  1.0  0.0931
  H  H31  1  0.494700  0.235400  0.926300  1.0  0.0729
  H  H32  1  0.649600  0.199100  0.888600  1.0  0.0854
  H  H33  1  0.647600  0.291100  0.764100  1.0  0.0955
  H  H34  1  0.651200  0.353700  0.851900  1.0  0.102
  H  H35  1  0.487300  0.324900  0.797900  1.0  0.0932
  H  H36  1  0.753400  0.792400  0.890400  1.0  0.0744
  H  H37  1  0.557300  0.663900  0.919200  1.0  0.1321
  H  H38  1  0.881600  0.558500  0.070300  1.0  0.1222
  H  H39  1  0.067200  0.691100  0.039800  1.0  0.0679
  H  H40  1  0.609200  0.462400  0.052300  1.0  0.1033
  H  H41  1  0.995700  0.838700  0.198000  1.0  0.0957
  H  H42  1  0.155800  0.923300  0.443900  1.0  0.0927
  H  H43  1  0.005300  0.764600  0.426300  1.0  0.0736
  H  H44  1  0.850400  0.800900  0.388600  1.0  0.0838
  H  H45  1  0.852400  0.708900  0.264100  1.0  0.0954
  H  H46  1  0.848800  0.646300  0.351900  1.0  0.0979
  H  H47  1  0.012700  0.675100  0.297900  1.0  0.0898
  H  H48  1  0.746600  0.207600  0.390400  1.0  0.0743
  H  H49  1  0.942700  0.336100  0.419200  1.0  0.1324
  H  H50  1  0.618400  0.441500  0.570300  1.0  0.1227
  H  H51  1  0.432800  0.308900  0.539800  1.0  0.0677
  H  H52  1  0.890800  0.537600  0.552300  1.0  0.1039
  C  C53  1  0.894600  0.098010  0.276810  1.0  0.6135
  C  C54  1  0.764500  0.018410  0.244260  1.0  0.1083
  C  C55  1  0.662700  0.958410  0.302050  1.0  -0.1316
  C  C56  1  0.562800  0.880870  0.264220  1.0  -0.0701
  C  C57  1  0.559700  0.864210  0.172150  1.0  0.0196
  C  C58  1  0.659400  0.930930  0.118790  1.0  0.1315
  C  C59  1  0.452300  0.780900  0.128900  1.0  -0.0845
  C  C60  1  0.413300  0.695700  0.183300  1.0  -0.2968
  C  C61  1  0.647100  0.975280  0.402600  1.0  0.7133
  C  C62  1  0.219900  0.255700  0.072600  1.0  0.2028
  C  C63  1  0.338700  0.333000  0.056000  1.0  -0.2115
  C  C64  1  0.303600  0.406000  0.002700  1.0  0.1291
  C  C65  1  0.148000  0.394500  0.967000  1.0  -0.2297
  C  C66  1  0.036600  0.314700  0.985900  1.0  0.1749
  C  C67  1  0.424000  0.491300  0.984500  1.0  -0.1192
  C  C68  1  0.605400  0.901990  0.776810  1.0  0.6128
  C  C69  1  0.735500  0.981590  0.744260  1.0  0.1079
  C  C70  1  0.837300  0.041590  0.802050  1.0  -0.1314
  C  C71  1  0.937200  0.119130  0.764220  1.0  -0.0694
  C  C72  1  0.940300  0.135790  0.672150  1.0  0.0195
  C  C73  1  0.840600  0.069070  0.618790  1.0  0.1324
  C  C74  1  0.047700  0.219100  0.628900  1.0  -0.0847
  C  C75  1  0.086700  0.304300  0.683300  1.0  -0.2964
  C  C76  1  0.852900  0.024720  0.902600  1.0  0.7134
  C  C77  1  0.280100  0.744300  0.572600  1.0  0.204
  C  C78  1  0.161300  0.667000  0.556000  1.0  -0.213
  C  C79  1  0.196400  0.594000  0.502700  1.0  0.128
  C  C80  1  0.352000  0.605500  0.467000  1.0  -0.2291
  C  C81  1  0.463400  0.685300  0.485900  1.0  0.1775
  C  C82  1  0.076000  0.508700  0.484500  1.0  -0.1173
  C  C83  1  0.105400  0.901990  0.723190  1.0  0.6122
  C  C84  1  0.235500  0.981590  0.755740  1.0  0.108
  C  C85  1  0.337300  0.041590  0.697950  1.0  -0.1333
  C  C86  1  0.437200  0.119130  0.735780  1.0  -0.0699
  C  C87  1  0.440300  0.135790  0.827850  1.0  0.0189
  C  C88  1  0.340600  0.069070  0.881210  1.0  0.1312
  C  C89  1  0.547700  0.219100  0.871100  1.0  -0.0827
  C  C90  1  0.586700  0.304300  0.816700  1.0  -0.2969
  C  C91  1  0.352900  0.024720  0.597400  1.0  0.7128
  C  C92  1  0.780100  0.744300  0.927400  1.0  0.2047
  C  C93  1  0.661300  0.667000  0.944000  1.0  -0.2128
  C  C94  1  0.696400  0.594000  0.997300  1.0  0.1282
  C  C95  1  0.852000  0.605500  0.033000  1.0  -0.2288
  C  C96  1  0.963400  0.685300  0.014100  1.0  0.1782
  C  C97  1  0.576000  0.508700  0.015500  1.0  -0.117
  C  C98  1  0.394600  0.098010  0.223190  1.0  0.6132
  C  C99  1  0.264500  0.018410  0.255740  1.0  0.108
  C  C100  1  0.162700  0.958410  0.197950  1.0  -0.1328
  C  C101  1  0.062800  0.880870  0.235780  1.0  -0.0699
  C  C102  1  0.059700  0.864210  0.327850  1.0  0.0188
  C  C103  1  0.159400  0.930930  0.381210  1.0  0.131
  C  C104  1  0.952300  0.780900  0.371100  1.0  -0.0846
  C  C105  1  0.913300  0.695700  0.316700  1.0  -0.2971
  C  C106  1  0.147100  0.975280  0.097400  1.0  0.7127
  C  C107  1  0.719900  0.255700  0.427400  1.0  0.2039
  C  C108  1  0.838700  0.333000  0.444000  1.0  -0.2123
  C  C109  1  0.803600  0.406000  0.497300  1.0  0.1291
  C  C110  1  0.648000  0.394500  0.533000  1.0  -0.2302
  C  C111  1  0.536600  0.314700  0.514100  1.0  0.1758
  C  C112  1  0.924000  0.491300  0.515500  1.0  -0.1184
  N  N113  1  0.760000  0.005520  0.153670  1.0  -0.3526
  N  N114  1  0.069500  0.244860  0.039260  1.0  -0.354
  N  N115  1  0.740000  0.994480  0.653670  1.0  -0.3525
  N  N116  1  0.430500  0.755140  0.539260  1.0  -0.3553
  N  N117  1  0.240000  0.994480  0.846330  1.0  -0.3519
  N  N118  1  0.930500  0.755140  0.960740  1.0  -0.355
  N  N119  1  0.260000  0.005520  0.346330  1.0  -0.3524
  N  N120  1  0.569500  0.244860  0.460740  1.0  -0.3542
  O  O121  1  0.958100  0.158040  0.217510  1.0  -0.6065
  O  O122  1  0.934000  0.099240  0.357540  1.0  -0.5486
  O  O123  1  0.602800  0.049580  0.428930  1.0  -0.5859
  O  O124  1  0.673100  0.907970  0.452630  1.0  -0.5902
  O  O125  1  0.541900  0.841960  0.717510  1.0  -0.6067
  O  O126  1  0.566000  0.900760  0.857540  1.0  -0.5486
  O  O127  1  0.897200  0.950420  0.928930  1.0  -0.5861
  O  O128  1  0.826900  0.092030  0.952630  1.0  -0.59
  O  O129  1  0.041900  0.841960  0.782490  1.0  -0.6073
  O  O130  1  0.066000  0.900760  0.642460  1.0  -0.5494
  O  O131  1  0.397200  0.950420  0.571070  1.0  -0.5865
  O  O132  1  0.326900  0.092030  0.547370  1.0  -0.5895
  O  O133  1  0.458100  0.158040  0.282490  1.0  -0.6073
  O  O134  1  0.434000  0.099240  0.142460  1.0  -0.5489
  O  O135  1  0.102800  0.049580  0.071070  1.0  -0.5859
  O  O136  1  0.173100  0.907970  0.047370  1.0  -0.5901
