# generated using pymatgen
data_CeH3C8NO6
_symmetry_space_group_name_H-M   'P 1'
_cell_length_a   7.73990000
_cell_length_b   9.95100000
_cell_length_c   15.09100000
_cell_angle_alpha   90.00000000
_cell_angle_beta   98.51000000
_cell_angle_gamma   90.00000000
_symmetry_Int_Tables_number   1
_chemical_formula_structural   CeH3C8NO6
_chemical_formula_sum   'Ce4 H12 C32 N4 O24'
_cell_volume   1149.50805148
_cell_formula_units_Z   4
loop_
 _symmetry_equiv_pos_site_id
 _symmetry_equiv_pos_as_xyz
  1  'x, y, z'
loop_
 _atom_site_type_symbol
 _atom_site_label
 _atom_site_symmetry_multiplicity
 _atom_site_fract_x
 _atom_site_fract_y
 _atom_site_fract_z
 _atom_site_occupancy
 _atom_site_charge
  Ce  Ce1  1  0.357230  0.043400  0.640440  1.0  2.2646
  Ce  Ce2  1  0.142770  0.543400  0.859560  1.0  2.2655
  Ce  Ce3  1  0.642770  0.956600  0.359560  1.0  2.2656
  Ce  Ce4  1  0.857230  0.456600  0.140440  1.0  2.2647
  H  H5  1  0.118000  0.302000  0.482200  1.0  0.0722
  H  H6  1  0.325000  0.610000  0.631600  1.0  0.1026
  H  H7  1  0.295000  0.607000  0.361200  1.0  0.0889
  H  H8  1  0.382000  0.802000  0.017800  1.0  0.0724
  H  H9  1  0.175000  0.110000  0.868400  1.0  0.1028
  H  H10  1  0.205000  0.107000  0.138800  1.0  0.0881
  H  H11  1  0.882000  0.698000  0.517800  1.0  0.072
  H  H12  1  0.675000  0.390000  0.368400  1.0  0.1029
  H  H13  1  0.705000  0.393000  0.638800  1.0  0.0882
  H  H14  1  0.618000  0.198000  0.982200  1.0  0.0724
  H  H15  1  0.825000  0.890000  0.131600  1.0  0.1026
  H  H16  1  0.795000  0.893000  0.861200  1.0  0.0886
  C  C17  1  0.191200  0.363800  0.654030  1.0  0.8082
  C  C18  1  0.219900  0.441250  0.572560  1.0  -0.277
  C  C19  1  0.170400  0.386000  0.488160  1.0  0.2672
  C  C20  1  0.273700  0.566400  0.418110  1.0  0.2213
  C  C21  1  0.325100  0.630900  0.499230  1.0  -0.2562
  C  C22  1  0.295300  0.568400  0.577800  1.0  0.1032
  C  C23  1  0.411400  0.766300  0.501310  1.0  0.8591
  C  C24  1  0.956900  0.967970  0.538290  1.0  0.5602
  C  C25  1  0.308800  0.863800  0.845970  1.0  0.811
  C  C26  1  0.280100  0.941250  0.927440  1.0  -0.2775
  C  C27  1  0.329600  0.886000  0.011840  1.0  0.268
  C  C28  1  0.226300  0.066400  0.081890  1.0  0.2219
  C  C29  1  0.174900  0.130900  0.000770  1.0  -0.2551
  C  C30  1  0.204700  0.068400  0.922200  1.0  0.106
  C  C31  1  0.088600  0.266300  0.998690  1.0  0.8584
  C  C32  1  0.543100  0.467970  0.961710  1.0  0.5603
  C  C33  1  0.808800  0.636200  0.345970  1.0  0.81
  C  C34  1  0.780100  0.558750  0.427440  1.0  -0.2759
  C  C35  1  0.829600  0.614000  0.511840  1.0  0.2672
  C  C36  1  0.726300  0.433600  0.581890  1.0  0.2222
  C  C37  1  0.674900  0.369100  0.500770  1.0  -0.2545
  C  C38  1  0.704700  0.431600  0.422200  1.0  0.1056
  C  C39  1  0.588600  0.233700  0.498690  1.0  0.8561
  C  C40  1  0.043100  0.032030  0.461710  1.0  0.5601
  C  C41  1  0.691200  0.136200  0.154030  1.0  0.8083
  C  C42  1  0.719900  0.058750  0.072560  1.0  -0.2771
  C  C43  1  0.670400  0.114000  0.988160  1.0  0.2668
  C  C44  1  0.773700  0.933600  0.918110  1.0  0.2218
  C  C45  1  0.825100  0.869100  0.999230  1.0  -0.2564
  C  C46  1  0.795300  0.931600  0.077800  1.0  0.1029
  C  C47  1  0.911400  0.733700  0.001310  1.0  0.8572
  C  C48  1  0.456900  0.532030  0.038290  1.0  0.56
  N  N49  1  0.193200  0.445970  0.411790  1.0  -0.4694
  N  N50  1  0.306800  0.945970  0.088210  1.0  -0.4679
  N  N51  1  0.806800  0.554030  0.588210  1.0  -0.4691
  N  N52  1  0.693200  0.054030  0.911790  1.0  -0.4696
  O  O53  1  0.163510  0.238610  0.644930  1.0  -0.7281
  O  O54  1  0.196100  0.424230  0.726850  1.0  -0.7813
  O  O55  1  0.471900  0.802620  0.433080  1.0  -0.7918
  O  O56  1  0.416600  0.834080  0.571820  1.0  -0.7643
  O  O57  1  0.053100  0.947210  0.611270  1.0  -0.6294
  O  O58  1  0.797550  0.940160  0.520550  1.0  -0.6494
  O  O59  1  0.336490  0.738610  0.855070  1.0  -0.7315
  O  O60  1  0.303900  0.924230  0.773150  1.0  -0.7832
  O  O61  1  0.028100  0.302620  0.066920  1.0  -0.7917
  O  O62  1  0.083400  0.334080  0.928180  1.0  -0.7642
  O  O63  1  0.446900  0.447210  0.888730  1.0  -0.6284
  O  O64  1  0.702450  0.440160  0.979450  1.0  -0.6497
  O  O65  1  0.836490  0.761390  0.355070  1.0  -0.7327
  O  O66  1  0.803900  0.575770  0.273150  1.0  -0.7826
  O  O67  1  0.528100  0.197380  0.566920  1.0  -0.7914
  O  O68  1  0.583400  0.165920  0.428180  1.0  -0.7639
  O  O69  1  0.946900  0.052790  0.388730  1.0  -0.6281
  O  O70  1  0.202450  0.059840  0.479450  1.0  -0.6502
  O  O71  1  0.663510  0.261390  0.144930  1.0  -0.7315
  O  O72  1  0.696100  0.075770  0.226850  1.0  -0.7832
  O  O73  1  0.971900  0.697380  0.933080  1.0  -0.7921
  O  O74  1  0.916600  0.665920  0.071820  1.0  -0.7632
  O  O75  1  0.553100  0.552790  0.111270  1.0  -0.6295
  O  O76  1  0.297550  0.559840  0.020550  1.0  -0.6499
