# generated using pymatgen
data_CoH11C14(NO2)2
_symmetry_space_group_name_H-M   'P 1'
_cell_length_a   8.26700000
_cell_length_b   13.34400000
_cell_length_c   14.72400000
_cell_angle_alpha   90.00000000
_cell_angle_beta   90.00000000
_cell_angle_gamma   105.84000000
_symmetry_Int_Tables_number   1
_chemical_formula_structural   CoH11C14(NO2)2
_chemical_formula_sum   'Co4 H44 C56 N8 O16'
_cell_volume   1562.59828701
_cell_formula_units_Z   4
loop_
 _symmetry_equiv_pos_site_id
 _symmetry_equiv_pos_as_xyz
  1  'x, y, z'
loop_
 _atom_site_type_symbol
 _atom_site_label
 _atom_site_symmetry_multiplicity
 _atom_site_fract_x
 _atom_site_fract_y
 _atom_site_fract_z
 _atom_site_occupancy
 _atom_site_charge
  Co  Co1  1  0.316600  0.369530  0.083150  1.0  0.9516
  Co  Co2  1  0.183400  0.630470  0.583150  1.0  0.9512
  Co  Co3  1  0.683400  0.630470  0.916850  1.0  0.9509
  Co  Co4  1  0.816600  0.369530  0.416850  1.0  0.9513
  H  H5  1  0.120200  0.676600  0.300800  1.0  0.0934
  H  H6  1  0.220100  0.584600  0.056100  1.0  0.0889
  H  H7  1  0.008500  0.724900  0.119400  1.0  0.0848
  H  H8  1  0.181800  0.753000  0.069600  1.0  0.0728
  H  H9  1  0.295900  0.855600  0.191000  1.0  0.0859
  H  H10  1  0.156900  0.893300  0.139800  1.0  0.0886
  H  H11  1  0.114600  0.833500  0.232200  1.0  0.0828
  H  H12  1  0.590900  0.268100  0.109400  1.0  0.0791
  H  H13  1  0.671900  0.121900  0.084200  1.0  0.1268
  H  H14  1  0.258900  0.015000  0.935800  1.0  0.1287
  H  H15  1  0.196800  0.168500  0.961700  1.0  0.0714
  H  H16  1  0.379800  0.323400  0.800800  1.0  0.0938
  H  H17  1  0.279900  0.415400  0.556100  1.0  0.0884
  H  H18  1  0.491500  0.275100  0.619400  1.0  0.0829
  H  H19  1  0.318200  0.247000  0.569600  1.0  0.0722
  H  H20  1  0.204100  0.144400  0.691000  1.0  0.086
  H  H21  1  0.343100  0.106700  0.639800  1.0  0.0866
  H  H22  1  0.385400  0.166500  0.732200  1.0  0.0845
  H  H23  1  0.909100  0.731900  0.609400  1.0  0.079
  H  H24  1  0.828100  0.878100  0.584200  1.0  0.1259
  H  H25  1  0.241100  0.985000  0.435800  1.0  0.1289
  H  H26  1  0.303200  0.831500  0.461700  1.0  0.0711
  H  H27  1  0.879800  0.323400  0.699200  1.0  0.0935
  H  H28  1  0.779900  0.415400  0.943900  1.0  0.0873
  H  H29  1  0.991500  0.275100  0.880600  1.0  0.0829
  H  H30  1  0.818200  0.247000  0.930400  1.0  0.0723
  H  H31  1  0.704100  0.144400  0.809000  1.0  0.0858
  H  H32  1  0.843100  0.106700  0.860200  1.0  0.0874
  H  H33  1  0.885400  0.166500  0.767800  1.0  0.0849
  H  H34  1  0.409100  0.731900  0.890600  1.0  0.0787
  H  H35  1  0.328100  0.878100  0.915800  1.0  0.1268
  H  H36  1  0.741100  0.985000  0.064200  1.0  0.1289
  H  H37  1  0.803200  0.831500  0.038300  1.0  0.0709
  H  H38  1  0.620200  0.676600  0.199200  1.0  0.0935
  H  H39  1  0.720100  0.584600  0.443900  1.0  0.0878
  H  H40  1  0.508500  0.724900  0.380600  1.0  0.0841
  H  H41  1  0.681800  0.753000  0.430400  1.0  0.0729
  H  H42  1  0.795900  0.855600  0.309000  1.0  0.086
  H  H43  1  0.656900  0.893300  0.360200  1.0  0.0869
  H  H44  1  0.614600  0.833500  0.267800  1.0  0.0836
  H  H45  1  0.090900  0.268100  0.390600  1.0  0.0785
  H  H46  1  0.171900  0.121900  0.415800  1.0  0.127
  H  H47  1  0.758900  0.015000  0.564200  1.0  0.1293
  H  H48  1  0.696800  0.168500  0.538300  1.0  0.0712
  C  C49  1  0.320800  0.394000  0.277400  1.0  0.6117
  C  C50  1  0.252400  0.480900  0.244000  1.0  0.095
  C  C51  1  0.156700  0.631200  0.263300  1.0  -0.0664
  C  C52  1  0.168600  0.650500  0.171200  1.0  0.028
  C  C53  1  0.217300  0.576600  0.118900  1.0  0.1339
  C  C54  1  0.168100  0.529100  0.402400  1.0  0.7142
  C  C55  1  0.129000  0.742300  0.129000  1.0  -0.0814
  C  C56  1  0.178100  0.839200  0.176900  1.0  -0.2905
  C  C57  1  0.522300  0.216000  0.073800  1.0  0.2071
  C  C58  1  0.571800  0.127900  0.059100  1.0  -0.2059
  C  C59  1  0.476000  0.048700  0.007900  1.0  0.0958
  C  C60  1  0.330300  0.065800  0.971500  1.0  -0.2199
  C  C61  1  0.292600  0.158000  0.988700  1.0  0.18
  C  C62  1  0.196700  0.547500  0.301500  1.0  -0.1303
  C  C63  1  0.179200  0.606000  0.777400  1.0  0.6112
  C  C64  1  0.247600  0.519100  0.744000  1.0  0.0955
  C  C65  1  0.343300  0.368800  0.763300  1.0  -0.0651
  C  C66  1  0.331400  0.349500  0.671200  1.0  0.0269
  C  C67  1  0.282700  0.423400  0.618900  1.0  0.1323
  C  C68  1  0.331900  0.470900  0.902400  1.0  0.7146
  C  C69  1  0.371000  0.257700  0.629000  1.0  -0.081
  C  C70  1  0.321900  0.160800  0.676900  1.0  -0.2907
  C  C71  1  0.977700  0.784000  0.573800  1.0  0.2077
  C  C72  1  0.928200  0.872100  0.559100  1.0  -0.2062
  C  C73  1  0.024000  0.951300  0.507900  1.0  0.0951
  C  C74  1  0.169700  0.934200  0.471500  1.0  -0.2197
  C  C75  1  0.207400  0.842000  0.488700  1.0  0.1804
  C  C76  1  0.303300  0.452500  0.801500  1.0  -0.13
  C  C77  1  0.679200  0.606000  0.722600  1.0  0.6109
  C  C78  1  0.747600  0.519100  0.756000  1.0  0.0954
  C  C79  1  0.843300  0.368800  0.736700  1.0  -0.0643
  C  C80  1  0.831400  0.349500  0.828800  1.0  0.0264
  C  C81  1  0.782700  0.423400  0.881100  1.0  0.1316
  C  C82  1  0.831900  0.470900  0.597600  1.0  0.7148
  C  C83  1  0.871000  0.257700  0.871000  1.0  -0.0798
  C  C84  1  0.821900  0.160800  0.823100  1.0  -0.291
  C  C85  1  0.477700  0.784000  0.926200  1.0  0.2075
  C  C86  1  0.428200  0.872100  0.940900  1.0  -0.2064
  C  C87  1  0.524000  0.951300  0.992100  1.0  0.0952
  C  C88  1  0.669700  0.934200  0.028500  1.0  -0.2153
  C  C89  1  0.707400  0.842000  0.011300  1.0  0.1807
  C  C90  1  0.803300  0.452500  0.698500  1.0  -0.1313
  C  C91  1  0.820800  0.394000  0.222600  1.0  0.6111
  C  C92  1  0.752400  0.480900  0.256000  1.0  0.095
  C  C93  1  0.656700  0.631200  0.236700  1.0  -0.0656
  C  C94  1  0.668600  0.650500  0.328800  1.0  0.0275
  C  C95  1  0.717300  0.576600  0.381100  1.0  0.1316
  C  C96  1  0.668100  0.529100  0.097600  1.0  0.7142
  C  C97  1  0.629000  0.742300  0.371000  1.0  -0.081
  C  C98  1  0.678100  0.839200  0.323100  1.0  -0.2899
  C  C99  1  0.022300  0.216000  0.426200  1.0  0.2069
  C  C100  1  0.071800  0.127900  0.440900  1.0  -0.2074
  C  C101  1  0.976000  0.048700  0.492100  1.0  0.0958
  C  C102  1  0.830300  0.065800  0.528500  1.0  -0.215
  C  C103  1  0.792600  0.158000  0.511300  1.0  0.18
  C  C104  1  0.696700  0.547500  0.198500  1.0  -0.132
  N  N105  1  0.260100  0.495300  0.153460  1.0  -0.3472
  N  N106  1  0.382200  0.231900  0.040420  1.0  -0.3452
  N  N107  1  0.239900  0.504700  0.653460  1.0  -0.3487
  N  N108  1  0.117800  0.768100  0.540420  1.0  -0.3437
  N  N109  1  0.739900  0.504700  0.846540  1.0  -0.3483
  N  N110  1  0.617800  0.768100  0.959580  1.0  -0.3443
  N  N111  1  0.760100  0.495300  0.346540  1.0  -0.3467
  N  N112  1  0.882200  0.231900  0.459580  1.0  -0.3451
  O  O113  1  0.337700  0.328480  0.218190  1.0  -0.6098
  O  O114  1  0.358500  0.392660  0.357780  1.0  -0.5492
  O  O115  1  0.067400  0.446280  0.428380  1.0  -0.5857
  O  O116  1  0.243100  0.602580  0.452490  1.0  -0.5875
  O  O117  1  0.162300  0.671520  0.718190  1.0  -0.6082
  O  O118  1  0.141500  0.607340  0.857780  1.0  -0.5487
  O  O119  1  0.432600  0.553720  0.928380  1.0  -0.5863
  O  O120  1  0.256900  0.397420  0.952490  1.0  -0.5867
  O  O121  1  0.662300  0.671520  0.781810  1.0  -0.6087
  O  O122  1  0.641500  0.607340  0.642220  1.0  -0.5493
  O  O123  1  0.932600  0.553720  0.571620  1.0  -0.586
  O  O124  1  0.756900  0.397420  0.547510  1.0  -0.5868
  O  O125  1  0.837700  0.328480  0.281810  1.0  -0.6099
  O  O126  1  0.858500  0.392660  0.142220  1.0  -0.5507
  O  O127  1  0.567400  0.446280  0.071620  1.0  -0.586
  O  O128  1  0.743100  0.602580  0.047510  1.0  -0.5871
