# generated using pymatgen
data_ZnH6C7(N3O)2
_symmetry_space_group_name_H-M   'P 1'
_cell_length_a   16.18710000
_cell_length_b   16.30690000
_cell_length_c   9.97620000
_cell_angle_alpha   90.00000000
_cell_angle_beta   114.62800000
_cell_angle_gamma   90.00000000
_symmetry_Int_Tables_number   1
_chemical_formula_structural   ZnH6C7(N3O)2
_chemical_formula_sum   'Zn8 H48 C56 N48 O16'
_cell_volume   2393.78448316
_cell_formula_units_Z   8
loop_
 _symmetry_equiv_pos_site_id
 _symmetry_equiv_pos_as_xyz
  1  'x, y, z'
loop_
 _atom_site_type_symbol
 _atom_site_label
 _atom_site_symmetry_multiplicity
 _atom_site_fract_x
 _atom_site_fract_y
 _atom_site_fract_z
 _atom_site_occupancy
 _atom_site_charge
  Zn  Zn1  1  0.227430  0.108380  0.149750  1.0  0.8826
  Zn  Zn2  1  0.727430  0.608380  0.149750  1.0  0.8826
  Zn  Zn3  1  0.227430  0.891620  0.649750  1.0  0.8828
  Zn  Zn4  1  0.727430  0.391620  0.649750  1.0  0.8828
  Zn  Zn5  1  0.772570  0.108380  0.350250  1.0  0.8801
  Zn  Zn6  1  0.272570  0.608380  0.350250  1.0  0.8801
  Zn  Zn7  1  0.772570  0.891620  0.850250  1.0  0.8802
  Zn  Zn8  1  0.272570  0.391620  0.850250  1.0  0.8802
  H  H9  1  0.428500  0.096300  0.336500  1.0  0.0814
  H  H10  1  0.549400  0.178000  0.472700  1.0  0.1144
  H  H11  1  0.387600  0.374500  0.320000  1.0  0.1085
  H  H12  1  0.271100  0.287900  0.184000  1.0  0.0728
  H  H13  1  0.099700  0.909300  0.838100  1.0  0.3549
  H  H14  1  0.100800  0.965800  0.956200  1.0  0.3503
  H  H15  1  0.928500  0.596300  0.336500  1.0  0.0814
  H  H16  1  0.049400  0.678000  0.472700  1.0  0.1144
  H  H17  1  0.887600  0.874500  0.320000  1.0  0.1085
  H  H18  1  0.771100  0.787900  0.184000  1.0  0.0728
  H  H19  1  0.599700  0.409300  0.838100  1.0  0.3549
  H  H20  1  0.600800  0.465800  0.956200  1.0  0.3503
  H  H21  1  0.428500  0.903700  0.836500  1.0  0.0807
  H  H22  1  0.549400  0.822000  0.972700  1.0  0.1143
  H  H23  1  0.387600  0.625500  0.820000  1.0  0.1081
  H  H24  1  0.271100  0.712100  0.684000  1.0  0.073
  H  H25  1  0.099700  0.090700  0.338100  1.0  0.3559
  H  H26  1  0.100800  0.034200  0.456200  1.0  0.3504
  H  H27  1  0.928500  0.403700  0.836500  1.0  0.0807
  H  H28  1  0.049400  0.322000  0.972700  1.0  0.1143
  H  H29  1  0.887600  0.125500  0.820000  1.0  0.1081
  H  H30  1  0.771100  0.212100  0.684000  1.0  0.073
  H  H31  1  0.599700  0.590700  0.338100  1.0  0.3559
  H  H32  1  0.600800  0.534200  0.456200  1.0  0.3504
  H  H33  1  0.571500  0.096300  0.163500  1.0  0.0815
  H  H34  1  0.450600  0.178000  0.027300  1.0  0.1142
  H  H35  1  0.612400  0.374500  0.180000  1.0  0.108
  H  H36  1  0.728900  0.287900  0.316000  1.0  0.0732
  H  H37  1  0.900300  0.909300  0.661900  1.0  0.3565
  H  H38  1  0.899200  0.965800  0.543800  1.0  0.3493
  H  H39  1  0.071500  0.596300  0.163500  1.0  0.0815
  H  H40  1  0.950600  0.678000  0.027300  1.0  0.1142
  H  H41  1  0.112400  0.874500  0.180000  1.0  0.108
  H  H42  1  0.228900  0.787900  0.316000  1.0  0.0732
  H  H43  1  0.400300  0.409300  0.661900  1.0  0.3565
  H  H44  1  0.399200  0.465800  0.543800  1.0  0.3493
  H  H45  1  0.571500  0.903700  0.663500  1.0  0.081
  H  H46  1  0.450600  0.822000  0.527300  1.0  0.1142
  H  H47  1  0.612400  0.625500  0.680000  1.0  0.1081
  H  H48  1  0.728900  0.712100  0.816000  1.0  0.0734
  H  H49  1  0.900300  0.090700  0.161900  1.0  0.3562
  H  H50  1  0.899200  0.034200  0.043800  1.0  0.3498
  H  H51  1  0.071500  0.403700  0.663500  1.0  0.081
  H  H52  1  0.950600  0.322000  0.527300  1.0  0.1142
  H  H53  1  0.112400  0.125500  0.680000  1.0  0.1081
  H  H54  1  0.228900  0.212100  0.816000  1.0  0.0734
  H  H55  1  0.400300  0.590700  0.161900  1.0  0.3562
  H  H56  1  0.399200  0.534200  0.043800  1.0  0.3498
  C  C57  1  0.420400  0.152800  0.333700  1.0  0.1641
  C  C58  1  0.493100  0.201280  0.416100  1.0  -0.1239
  C  C59  1  0.481200  0.285800  0.413800  1.0  -0.1089
  C  C60  1  0.397000  0.318100  0.324900  1.0  -0.1328
  C  C61  1  0.327400  0.265800  0.244100  1.0  0.1759
  C  C62  1  0.558500  0.341900  0.503900  1.0  0.626
  C  C63  1  0.197500  0.987550  0.896500  1.0  0.6149
  C  C64  1  0.920400  0.652800  0.333700  1.0  0.1641
  C  C65  1  0.993100  0.701280  0.416100  1.0  -0.1239
  C  C66  1  0.981200  0.785800  0.413800  1.0  -0.1089
  C  C67  1  0.897000  0.818100  0.324900  1.0  -0.1328
  C  C68  1  0.827400  0.765800  0.244100  1.0  0.1759
  C  C69  1  0.058500  0.841900  0.503900  1.0  0.626
  C  C70  1  0.697500  0.487550  0.896500  1.0  0.6149
  C  C71  1  0.420400  0.847200  0.833700  1.0  0.1644
  C  C72  1  0.493100  0.798720  0.916100  1.0  -0.1241
  C  C73  1  0.481200  0.714200  0.913800  1.0  -0.1077
  C  C74  1  0.397000  0.681900  0.824900  1.0  -0.1322
  C  C75  1  0.327400  0.734200  0.744100  1.0  0.1758
  C  C76  1  0.558500  0.658100  0.003900  1.0  0.626
  C  C77  1  0.197500  0.012450  0.396500  1.0  0.615
  C  C78  1  0.920400  0.347200  0.833700  1.0  0.1644
  C  C79  1  0.993100  0.298720  0.916100  1.0  -0.1241
  C  C80  1  0.981200  0.214200  0.913800  1.0  -0.1077
  C  C81  1  0.897000  0.181900  0.824900  1.0  -0.1322
  C  C82  1  0.827400  0.234200  0.744100  1.0  0.1758
  C  C83  1  0.058500  0.158100  0.003900  1.0  0.626
  C  C84  1  0.697500  0.512450  0.396500  1.0  0.615
  C  C85  1  0.579600  0.152800  0.166300  1.0  0.1636
  C  C86  1  0.506900  0.201280  0.083900  1.0  -0.1251
  C  C87  1  0.518800  0.285800  0.086200  1.0  -0.1068
  C  C88  1  0.603000  0.318100  0.175100  1.0  -0.1325
  C  C89  1  0.672600  0.265800  0.255900  1.0  0.1769
  C  C90  1  0.441500  0.341900  0.996100  1.0  0.6256
  C  C91  1  0.802500  0.987550  0.603500  1.0  0.6143
  C  C92  1  0.079600  0.652800  0.166300  1.0  0.1636
  C  C93  1  0.006900  0.701280  0.083900  1.0  -0.1251
  C  C94  1  0.018800  0.785800  0.086200  1.0  -0.1068
  C  C95  1  0.103000  0.818100  0.175100  1.0  -0.1325
  C  C96  1  0.172600  0.765800  0.255900  1.0  0.1769
  C  C97  1  0.941500  0.841900  0.996100  1.0  0.6256
  C  C98  1  0.302500  0.487550  0.603500  1.0  0.6143
  C  C99  1  0.579600  0.847200  0.666300  1.0  0.165
  C  C100  1  0.506900  0.798720  0.583900  1.0  -0.1244
  C  C101  1  0.518800  0.714200  0.586200  1.0  -0.1075
  C  C102  1  0.603000  0.681900  0.675100  1.0  -0.1315
  C  C103  1  0.672600  0.734200  0.755900  1.0  0.1776
  C  C104  1  0.441500  0.658100  0.496100  1.0  0.6257
  C  C105  1  0.802500  0.012450  0.103500  1.0  0.6147
  C  C106  1  0.079600  0.347200  0.666300  1.0  0.165
  C  C107  1  0.006900  0.298720  0.583900  1.0  -0.1244
  C  C108  1  0.018800  0.214200  0.586200  1.0  -0.1075
  C  C109  1  0.103000  0.181900  0.675100  1.0  -0.1315
  C  C110  1  0.172600  0.234200  0.755900  1.0  0.1776
  C  C111  1  0.941500  0.158100  0.496100  1.0  0.6257
  C  C112  1  0.302500  0.512450  0.103500  1.0  0.6147
  N  N113  1  0.337760  0.183630  0.248800  1.0  -0.3524
  N  N114  1  0.242260  0.048860  0.987900  1.0  -0.3352
  N  N115  1  0.314260  0.067620  0.955500  1.0  -0.1179
  N  N116  1  0.313160  0.020700  0.851900  1.0  -0.1255
  N  N117  1  0.239770  0.968700  0.810400  1.0  -0.3311
  N  N118  1  0.123800  0.949670  0.897000  1.0  -0.7513
  N  N119  1  0.837760  0.683630  0.248800  1.0  -0.3524
  N  N120  1  0.742260  0.548860  0.987900  1.0  -0.3352
  N  N121  1  0.814260  0.567620  0.955500  1.0  -0.1179
  N  N122  1  0.813160  0.520700  0.851900  1.0  -0.1255
  N  N123  1  0.739770  0.468700  0.810400  1.0  -0.3311
  N  N124  1  0.623800  0.449670  0.897000  1.0  -0.7513
  N  N125  1  0.337760  0.816370  0.748800  1.0  -0.3512
  N  N126  1  0.242260  0.951140  0.487900  1.0  -0.3351
  N  N127  1  0.314260  0.932380  0.455500  1.0  -0.1173
  N  N128  1  0.313160  0.979300  0.351900  1.0  -0.1256
  N  N129  1  0.239770  0.031300  0.310400  1.0  -0.3309
  N  N130  1  0.123800  0.050330  0.397000  1.0  -0.7515
  N  N131  1  0.837760  0.316370  0.748800  1.0  -0.3512
  N  N132  1  0.742260  0.451140  0.487900  1.0  -0.3351
  N  N133  1  0.814260  0.432380  0.455500  1.0  -0.1173
  N  N134  1  0.813160  0.479300  0.351900  1.0  -0.1256
  N  N135  1  0.739770  0.531300  0.310400  1.0  -0.3309
  N  N136  1  0.623800  0.550330  0.397000  1.0  -0.7515
  N  N137  1  0.662240  0.183630  0.251200  1.0  -0.3519
  N  N138  1  0.757740  0.048860  0.512100  1.0  -0.3364
  N  N139  1  0.685740  0.067620  0.544500  1.0  -0.1157
  N  N140  1  0.686840  0.020700  0.648100  1.0  -0.1248
  N  N141  1  0.760230  0.968700  0.689600  1.0  -0.3303
  N  N142  1  0.876200  0.949670  0.603000  1.0  -0.7518
  N  N143  1  0.162240  0.683630  0.251200  1.0  -0.3519
  N  N144  1  0.257740  0.548860  0.512100  1.0  -0.3364
  N  N145  1  0.185740  0.567620  0.544500  1.0  -0.1157
  N  N146  1  0.186840  0.520700  0.648100  1.0  -0.1248
  N  N147  1  0.260230  0.468700  0.689600  1.0  -0.3303
  N  N148  1  0.376200  0.449670  0.603000  1.0  -0.7518
  N  N149  1  0.662240  0.816370  0.751200  1.0  -0.3518
  N  N150  1  0.757740  0.951140  0.012100  1.0  -0.3369
  N  N151  1  0.685740  0.932380  0.044500  1.0  -0.1155
  N  N152  1  0.686840  0.979300  0.148100  1.0  -0.1256
  N  N153  1  0.760230  0.031300  0.189600  1.0  -0.33
  N  N154  1  0.876200  0.050330  0.103000  1.0  -0.7503
  N  N155  1  0.162240  0.316370  0.751200  1.0  -0.3518
  N  N156  1  0.257740  0.451140  0.012100  1.0  -0.3369
  N  N157  1  0.185740  0.432380  0.044500  1.0  -0.1155
  N  N158  1  0.186840  0.479300  0.148100  1.0  -0.1256
  N  N159  1  0.260230  0.531300  0.189600  1.0  -0.33
  N  N160  1  0.376200  0.550330  0.103000  1.0  -0.7503
  O  O161  1  0.635090  0.306250  0.574800  1.0  -0.6039
  O  O162  1  0.546190  0.416270  0.504900  1.0  -0.5641
  O  O163  1  0.135090  0.806250  0.574800  1.0  -0.6039
  O  O164  1  0.046190  0.916270  0.504900  1.0  -0.5641
  O  O165  1  0.635090  0.693750  0.074800  1.0  -0.6039
  O  O166  1  0.546190  0.583730  0.004900  1.0  -0.5644
  O  O167  1  0.135090  0.193750  0.074800  1.0  -0.6039
  O  O168  1  0.046190  0.083730  0.004900  1.0  -0.5644
  O  O169  1  0.364910  0.306250  0.925200  1.0  -0.6071
  O  O170  1  0.453810  0.416270  0.995100  1.0  -0.5645
  O  O171  1  0.864910  0.806250  0.925200  1.0  -0.6071
  O  O172  1  0.953810  0.916270  0.995100  1.0  -0.5645
  O  O173  1  0.364910  0.693750  0.425200  1.0  -0.6051
  O  O174  1  0.453810  0.583730  0.495100  1.0  -0.5648
  O  O175  1  0.864910  0.193750  0.425200  1.0  -0.6051
  O  O176  1  0.953810  0.083730  0.495100  1.0  -0.5648
