# generated using pymatgen
data_Zn2H3(C3O2)3
_symmetry_space_group_name_H-M   'P 1'
_cell_length_a   14.29410000
_cell_length_b   14.29410000
_cell_length_c   14.29410000
_cell_angle_alpha   90.00000000
_cell_angle_beta   90.00000000
_cell_angle_gamma   90.00000000
_symmetry_Int_Tables_number   1
_chemical_formula_structural   Zn2H3(C3O2)3
_chemical_formula_sum   'Zn8 H12 C36 O24'
_cell_volume   2920.58902014
_cell_formula_units_Z   4
loop_
 _symmetry_equiv_pos_site_id
 _symmetry_equiv_pos_as_xyz
  1  'x, y, z'
loop_
 _atom_site_type_symbol
 _atom_site_label
 _atom_site_symmetry_multiplicity
 _atom_site_fract_x
 _atom_site_fract_y
 _atom_site_fract_z
 _atom_site_occupancy
 _atom_site_charge
  Zn  Zn1  1  0.220270  0.779730  0.279730  1.0  0.9054
  Zn  Zn2  1  0.073480  0.926520  0.426520  1.0  0.7224
  Zn  Zn3  1  0.279730  0.220270  0.779730  1.0  0.9035
  Zn  Zn4  1  0.426520  0.073480  0.926520  1.0  0.7209
  Zn  Zn5  1  0.779730  0.279730  0.220270  1.0  0.9011
  Zn  Zn6  1  0.926520  0.426520  0.073480  1.0  0.7232
  Zn  Zn7  1  0.720270  0.720270  0.720270  1.0  0.9044
  Zn  Zn8  1  0.573480  0.573480  0.573480  1.0  0.7253
  H  H9  1  0.435900  0.782600  0.491700  1.0  0.1056
  H  H10  1  0.064100  0.217400  0.991700  1.0  0.1061
  H  H11  1  0.564100  0.282600  0.008300  1.0  0.1057
  H  H12  1  0.935900  0.717400  0.508300  1.0  0.1062
  H  H13  1  0.491700  0.435900  0.782600  1.0  0.1065
  H  H14  1  0.991700  0.064100  0.217400  1.0  0.107
  H  H15  1  0.008300  0.564100  0.282600  1.0  0.1064
  H  H16  1  0.508300  0.935900  0.717400  1.0  0.1069
  H  H17  1  0.782600  0.491700  0.435900  1.0  0.1058
  H  H18  1  0.217400  0.991700  0.064100  1.0  0.1058
  H  H19  1  0.282600  0.008300  0.564100  1.0  0.1061
  H  H20  1  0.717400  0.508300  0.935900  1.0  0.106
  C  C21  1  0.348600  0.894400  0.516500  1.0  -0.1318
  C  C22  1  0.425500  0.832800  0.531700  1.0  -0.01
  C  C23  1  0.279200  0.876400  0.439100  1.0  0.7194
  C  C24  1  0.151400  0.105600  0.016500  1.0  -0.1315
  C  C25  1  0.074500  0.167200  0.031700  1.0  -0.0104
  C  C26  1  0.220800  0.123600  0.939100  1.0  0.7205
  C  C27  1  0.651400  0.394400  0.983500  1.0  -0.1321
  C  C28  1  0.574500  0.332800  0.968300  1.0  -0.0102
  C  C29  1  0.720800  0.376400  0.060900  1.0  0.7211
  C  C30  1  0.848600  0.605600  0.483500  1.0  -0.1319
  C  C31  1  0.925500  0.667200  0.468300  1.0  -0.0112
  C  C32  1  0.779200  0.623600  0.560900  1.0  0.7207
  C  C33  1  0.516500  0.348600  0.894400  1.0  -0.1315
  C  C34  1  0.531700  0.425500  0.832800  1.0  -0.0129
  C  C35  1  0.439100  0.279200  0.876400  1.0  0.7186
  C  C36  1  0.016500  0.151400  0.105600  1.0  -0.131
  C  C37  1  0.031700  0.074500  0.167200  1.0  -0.0128
  C  C38  1  0.939100  0.220800  0.123600  1.0  0.7185
  C  C39  1  0.983500  0.651400  0.394400  1.0  -0.1313
  C  C40  1  0.968300  0.574500  0.332800  1.0  -0.0129
  C  C41  1  0.060900  0.720800  0.376400  1.0  0.7191
  C  C42  1  0.483500  0.848600  0.605600  1.0  -0.1315
  C  C43  1  0.468300  0.925500  0.667200  1.0  -0.0123
  C  C44  1  0.560900  0.779200  0.623600  1.0  0.719
  C  C45  1  0.894400  0.516500  0.348600  1.0  -0.1316
  C  C46  1  0.832800  0.531700  0.425500  1.0  -0.011
  C  C47  1  0.876400  0.439100  0.279200  1.0  0.7211
  C  C48  1  0.105600  0.016500  0.151400  1.0  -0.1317
  C  C49  1  0.167200  0.031700  0.074500  1.0  -0.0105
  C  C50  1  0.123600  0.939100  0.220800  1.0  0.7217
  C  C51  1  0.394400  0.983500  0.651400  1.0  -0.1311
  C  C52  1  0.332800  0.968300  0.574500  1.0  -0.0116
  C  C53  1  0.376400  0.060900  0.720800  1.0  0.7215
  C  C54  1  0.605600  0.483500  0.848600  1.0  -0.1309
  C  C55  1  0.667200  0.468300  0.925500  1.0  -0.0106
  C  C56  1  0.623600  0.560900  0.779200  1.0  0.7209
  O  O57  1  0.299000  0.807100  0.385500  1.0  -0.6513
  O  O58  1  0.217800  0.932600  0.425400  1.0  -0.5741
  O  O59  1  0.201000  0.192900  0.885500  1.0  -0.6533
  O  O60  1  0.282200  0.067400  0.925400  1.0  -0.5724
  O  O61  1  0.701000  0.307100  0.114500  1.0  -0.6528
  O  O62  1  0.782200  0.432600  0.074600  1.0  -0.5739
  O  O63  1  0.799000  0.692900  0.614500  1.0  -0.6518
  O  O64  1  0.717800  0.567400  0.574600  1.0  -0.5733
  O  O65  1  0.385500  0.299000  0.807100  1.0  -0.6547
  O  O66  1  0.425400  0.217800  0.932600  1.0  -0.5726
  O  O67  1  0.885500  0.201000  0.192900  1.0  -0.654
  O  O68  1  0.925400  0.282200  0.067400  1.0  -0.5736
  O  O69  1  0.114500  0.701000  0.307100  1.0  -0.6541
  O  O70  1  0.074600  0.782200  0.432600  1.0  -0.5725
  O  O71  1  0.614500  0.799000  0.692900  1.0  -0.6532
  O  O72  1  0.574600  0.717800  0.567400  1.0  -0.5733
  O  O73  1  0.807100  0.385500  0.299000  1.0  -0.6529
  O  O74  1  0.932600  0.425400  0.217800  1.0  -0.572
  O  O75  1  0.192900  0.885500  0.201000  1.0  -0.6513
  O  O76  1  0.067400  0.925400  0.282200  1.0  -0.5724
  O  O77  1  0.307100  0.114500  0.701000  1.0  -0.6524
  O  O78  1  0.432600  0.074600  0.782200  1.0  -0.5722
  O  O79  1  0.692900  0.614500  0.799000  1.0  -0.6524
  O  O80  1  0.567400  0.574600  0.717800  1.0  -0.5718
