# generated using pymatgen
data_Zn3H28C40(N3O7)2
_symmetry_space_group_name_H-M   'P 1'
_cell_length_a   13.48670000
_cell_length_b   13.70570000
_cell_length_c   14.79490000
_cell_angle_alpha   108.14900000
_cell_angle_beta   107.55600000
_cell_angle_gamma   109.44000000
_symmetry_Int_Tables_number   1
_chemical_formula_structural   Zn3H28C40(N3O7)2
_chemical_formula_sum   'Zn6 H56 C80 N12 O28'
_cell_volume   2185.54736809
_cell_formula_units_Z   2
loop_
 _symmetry_equiv_pos_site_id
 _symmetry_equiv_pos_as_xyz
  1  'x, y, z'
loop_
 _atom_site_type_symbol
 _atom_site_label
 _atom_site_symmetry_multiplicity
 _atom_site_fract_x
 _atom_site_fract_y
 _atom_site_fract_z
 _atom_site_occupancy
 _atom_site_charge
  Zn  Zn1  1  0.961970  0.736550  0.102820  1.0  0.9349
  Zn  Zn2  1  0.359150  0.633730  0.897180  1.0  0.9352
  Zn  Zn3  1  0.038030  0.263450  0.897180  1.0  0.935
  Zn  Zn4  1  0.500000  0.500000  0.000000  1.0  0.9481
  Zn  Zn5  1  0.000000  0.500000  0.000000  1.0  0.9469
  Zn  Zn6  1  0.640850  0.366270  0.102820  1.0  0.9344
  H  H7  1  0.577800  0.963000  0.185000  1.0  0.1288
  H  H8  1  0.269400  0.508900  0.514200  1.0  0.1269
  H  H9  1  0.922700  0.141100  0.658000  1.0  0.0864
  H  H10  1  0.398600  0.335400  0.603000  1.0  0.1206
  H  H11  1  0.929300  0.374800  0.371000  1.0  0.1094
  H  H12  1  0.892800  0.778000  0.815000  1.0  0.128
  H  H13  1  0.522400  0.144900  0.473400  1.0  0.0915
  H  H14  1  0.697500  0.584500  0.940400  1.0  0.0879
  H  H15  1  0.909100  0.566300  0.122200  1.0  0.4278
  H  H16  1  0.744800  0.005300  0.514200  1.0  0.1293
  H  H17  1  0.394700  0.256500  0.283600  1.0  0.1236
  H  H18  1  0.077300  0.858900  0.342000  1.0  0.0873
  H  H19  1  0.561500  0.749300  0.854800  1.0  0.0895
  H  H20  1  0.295600  0.732400  0.397000  1.0  0.1215
  H  H21  1  0.438500  0.250700  0.145200  1.0  0.0877
  H  H22  1  0.286900  0.444100  0.877800  1.0  0.4284
  H  H23  1  0.562400  0.225000  0.799400  1.0  0.1151
  H  H24  1  0.566700  0.886800  0.389400  1.0  0.1006
  H  H25  1  0.793300  0.105500  0.854800  1.0  0.0913
  H  H26  1  0.730600  0.491100  0.485800  1.0  0.1271
  H  H27  1  0.119100  0.606000  0.251000  1.0  0.0768
  H  H28  1  0.611100  0.972900  0.716400  1.0  0.123
  H  H29  1  0.477600  0.855100  0.526600  1.0  0.0918
  H  H30  1  0.388900  0.027100  0.283600  1.0  0.1218
  H  H31  1  0.893200  0.141000  0.441800  1.0  0.1222
  H  H32  1  0.302500  0.415500  0.059600  1.0  0.0871
  H  H33  1  0.058300  0.003800  0.629000  1.0  0.1118
  H  H34  1  0.601400  0.664600  0.397000  1.0  0.1204
  H  H35  1  0.106800  0.859000  0.558200  1.0  0.121
  H  H36  1  0.437600  0.775000  0.200600  1.0  0.1151
  H  H37  1  0.107200  0.222000  0.185000  1.0  0.1283
  H  H38  1  0.090900  0.433700  0.877800  1.0  0.428
  H  H39  1  0.422200  0.037000  0.815000  1.0  0.1275
  H  H40  1  0.605300  0.743500  0.716400  1.0  0.1241
  H  H41  1  0.951400  0.699200  0.558200  1.0  0.1221
  H  H42  1  0.677300  0.497400  0.610600  1.0  0.1003
  H  H43  1  0.941700  0.996200  0.371000  1.0  0.1109
  H  H44  1  0.070700  0.625200  0.629000  1.0  0.1094
  H  H45  1  0.549000  0.671500  0.526600  1.0  0.092
  H  H46  1  0.048600  0.300800  0.441800  1.0  0.1226
  H  H47  1  0.737000  0.574400  0.799400  1.0  0.1154
  H  H48  1  0.368100  0.355000  0.749000  1.0  0.077
  H  H49  1  0.206700  0.894500  0.145200  1.0  0.0919
  H  H50  1  0.257100  0.644100  0.059600  1.0  0.0904
  H  H51  1  0.322700  0.502600  0.389400  1.0  0.0995
  H  H52  1  0.235300  0.516900  0.658000  1.0  0.0866
  H  H53  1  0.742900  0.355900  0.940400  1.0  0.0901
  H  H54  1  0.704400  0.267600  0.603000  1.0  0.1222
  H  H55  1  0.631900  0.645000  0.251000  1.0  0.0761
  H  H56  1  0.255200  0.994700  0.485800  1.0  0.1291
  H  H57  1  0.764700  0.483100  0.342000  1.0  0.0862
  H  H58  1  0.451000  0.328500  0.473400  1.0  0.0916
  H  H59  1  0.880900  0.394000  0.749000  1.0  0.0768
  H  H60  1  0.713100  0.555900  0.122200  1.0  0.4293
  H  H61  1  0.433300  0.113200  0.610600  1.0  0.0997
  H  H62  1  0.263000  0.425600  0.200600  1.0  0.1158
  C  C63  1  0.501900  0.699200  0.785400  1.0  0.1799
  C  C64  1  0.912700  0.744200  0.681000  1.0  0.0249
  C  C65  1  0.689200  0.436400  0.330000  1.0  0.1792
  C  C66  1  0.373800  0.741300  0.212800  1.0  -0.2119
  C  C67  1  0.339000  0.471500  0.212800  1.0  -0.213
  C  C68  1  0.472300  0.621100  0.509200  1.0  -0.1399
  C  C69  1  0.527700  0.378900  0.490800  1.0  -0.1406
  C  C70  1  0.463100  0.111900  0.490800  1.0  -0.1416
  C  C71  1  0.661000  0.528500  0.787200  1.0  -0.2057
  C  C72  1  0.443600  0.625700  0.598400  1.0  0.1432
  C  C73  1  0.492800  0.145400  0.593400  1.0  -0.1156
  C  C74  1  0.815500  0.360000  0.759000  1.0  0.1879
  C  C75  1  0.054600  0.657900  0.765000  1.0  -0.0277
  C  C76  1  0.290000  0.716700  0.329200  1.0  -0.1889
  C  C77  1  0.863300  0.388200  0.193800  1.0  0.6697
  C  C78  1  0.310800  0.563600  0.670000  1.0  0.1794
  C  C79  1  0.071800  0.253500  0.222000  1.0  -0.0818
  C  C80  1  0.036100  0.300000  0.376200  1.0  -0.1346
  C  C81  1  0.536900  0.888100  0.509200  1.0  -0.1421
  C  C82  1  0.321800  0.118900  0.819400  1.0  -0.1282
  C  C83  1  0.216500  0.913800  0.214600  1.0  0.1798
  C  C84  1  0.626200  0.258700  0.787200  1.0  -0.2141
  C  C85  1  0.268300  0.936800  0.681000  1.0  0.024
  C  C86  1  0.964600  0.343900  0.333200  1.0  -0.0303
  C  C87  1  0.363100  0.465700  0.128200  1.0  0.1785
  C  C88  1  0.669400  0.442300  0.417200  1.0  -0.1795
  C  C89  1  0.159900  0.923800  0.623800  1.0  -0.1327
  C  C90  1  0.600600  0.448000  0.593400  1.0  -0.1168
  C  C91  1  0.002400  0.299500  0.180600  1.0  -0.1286
  C  C92  1  0.265100  0.662500  0.128200  1.0  0.1786
  C  C93  1  0.507200  0.854600  0.406600  1.0  -0.1167
  C  C94  1  0.539200  0.612500  0.329200  1.0  -0.1895
  C  C95  1  0.963900  0.700000  0.623800  1.0  -0.1329
  C  C96  1  0.610600  0.228500  0.682600  1.0  0.1135
  C  C97  1  0.498100  0.300800  0.214600  1.0  0.1787
  C  C98  1  0.443500  0.399000  0.759000  1.0  0.1922
  C  C99  1  0.087300  0.255800  0.319000  1.0  0.0249
  C  C100  1  0.399400  0.552000  0.406600  1.0  -0.1169
  C  C101  1  0.326600  0.994500  0.297800  1.0  -0.2161
  C  C102  1  0.636900  0.534300  0.871800  1.0  0.1796
  C  C103  1  0.945400  0.342100  0.235000  1.0  -0.0281
  C  C104  1  0.678200  0.881100  0.180600  1.0  -0.1279
  C  C105  1  0.840100  0.076200  0.376200  1.0  -0.1336
  C  C106  1  0.210400  0.107100  0.765000  1.0  -0.0248
  C  C107  1  0.673400  0.005500  0.702200  1.0  -0.2153
  C  C108  1  0.928200  0.746500  0.778000  1.0  -0.0804
  C  C109  1  0.556500  0.601000  0.241000  1.0  0.1906
  C  C110  1  0.460800  0.387500  0.670800  1.0  -0.1889
  C  C111  1  0.783500  0.086200  0.785400  1.0  0.1797
  C  C112  1  0.247800  0.974900  0.417200  1.0  -0.1797
  C  C113  1  0.993000  0.306500  0.078400  1.0  0.6715
  C  C114  1  0.731700  0.063200  0.319000  1.0  0.0243
  C  C115  1  0.997600  0.700500  0.819400  1.0  -0.1285
  C  C116  1  0.572000  0.454100  0.682600  1.0  0.1147
  C  C117  1  0.830500  0.805600  0.193800  1.0  0.6714
  C  C118  1  0.650200  0.968500  0.222000  1.0  -0.074
  C  C119  1  0.734900  0.337500  0.871800  1.0  0.1776
  C  C120  1  0.349800  0.031500  0.778000  1.0  -0.0756
  C  C121  1  0.389400  0.771500  0.317400  1.0  0.115
  C  C122  1  0.868600  0.989300  0.333200  1.0  -0.0311
  C  C123  1  0.528800  0.696700  0.702200  1.0  -0.2078
  C  C124  1  0.859200  0.106400  0.670000  1.0  0.1804
  C  C125  1  0.131400  0.010700  0.666800  1.0  -0.0377
  C  C126  1  0.345200  0.027300  0.401600  1.0  0.1425
  C  C127  1  0.169500  0.194400  0.806200  1.0  0.6696
  C  C128  1  0.710000  0.283300  0.670800  1.0  -0.1869
  C  C129  1  0.330600  0.557700  0.582800  1.0  -0.18
  C  C130  1  0.184500  0.640000  0.241000  1.0  0.1896
  C  C131  1  0.414600  0.228100  0.921600  1.0  0.6687
  C  C132  1  0.789600  0.892900  0.235000  1.0  -0.0257
  C  C133  1  0.428000  0.545900  0.317400  1.0  0.1138
  C  C134  1  0.007000  0.693500  0.921600  1.0  0.6716
  C  C135  1  0.136700  0.611800  0.806200  1.0  0.6713
  C  C136  1  0.140800  0.893600  0.330000  1.0  0.1807
  C  C137  1  0.585400  0.771900  0.078400  1.0  0.6692
  C  C138  1  0.035400  0.656100  0.666800  1.0  -0.031
  C  C139  1  0.471200  0.303300  0.297800  1.0  -0.2148
  C  C140  1  0.752200  0.025100  0.582800  1.0  -0.1776
  C  C141  1  0.556400  0.374300  0.401600  1.0  0.143
  C  C142  1  0.654800  0.972700  0.598400  1.0  0.1422
  N  N143  1  0.701500  0.153800  0.365400  1.0  0.5938
  N  N144  1  0.876610  0.138110  0.771620  1.0  -0.3566
  N  N145  1  0.395010  0.633510  0.771620  1.0  -0.3606
  N  N146  1  0.529360  0.470260  0.859520  1.0  -0.3291
  N  N147  1  0.830160  0.389260  0.859520  1.0  -0.3278
  N  N148  1  0.169840  0.610740  0.140480  1.0  -0.3312
  N  N149  1  0.604990  0.366490  0.228380  1.0  -0.3612
  N  N150  1  0.298500  0.846200  0.634600  1.0  0.5933
  N  N151  1  0.470640  0.529740  0.140480  1.0  -0.3274
  N  N152  1  0.123390  0.861890  0.228380  1.0  -0.3573
  N  N153  1  0.836100  0.788400  0.634600  1.0  0.5953
  N  N154  1  0.163900  0.211600  0.365400  1.0  0.595
  O  O155  1  0.829400  0.795200  0.553600  1.0  -0.4203
  O  O156  1  0.104440  0.507240  0.764680  1.0  -0.5491
  O  O157  1  0.138210  0.188410  0.878620  1.0  -0.585
  O  O158  1  0.602600  0.137300  0.321000  1.0  -0.4184
  O  O159  1  0.170600  0.204800  0.446400  1.0  -0.4184
  O  O160  1  0.397400  0.862700  0.679000  1.0  -0.4192
  O  O161  1  0.781600  0.816300  0.679000  1.0  -0.4152
  O  O162  1  0.029830  0.249130  0.024260  1.0  -0.6023
  O  O163  1  0.775800  0.241600  0.446400  1.0  -0.4188
  O  O164  1  0.953570  0.370370  0.057140  1.0  -0.5989
  O  O165  1  0.895560  0.492760  0.235320  1.0  -0.5493
  O  O166  1  0.494430  0.775130  0.024260  1.0  -0.6003
  O  O167  1  0.160240  0.257440  0.764680  1.0  -0.5551
  O  O168  1  0.224200  0.758400  0.553600  1.0  -0.4205
  O  O169  1  0.970170  0.750870  0.975740  1.0  -0.603
  O  O170  1  0.759590  0.309790  0.121380  1.0  -0.5842
  O  O171  1  0.650410  0.493510  0.075620  1.0  -0.8549
  O  O172  1  0.349590  0.506490  0.924380  1.0  -0.854
  O  O173  1  0.396430  0.313230  0.942860  1.0  -0.5985
  O  O174  1  0.046430  0.629630  0.942860  1.0  -0.599
  O  O175  1  0.240410  0.690210  0.878620  1.0  -0.5864
  O  O176  1  0.603570  0.686770  0.057140  1.0  -0.5986
  O  O177  1  0.218400  0.183700  0.321000  1.0  -0.4163
  O  O178  1  0.505570  0.224870  0.975740  1.0  -0.6003
  O  O179  1  0.839760  0.742560  0.235320  1.0  -0.5521
  O  O180  1  0.861790  0.811590  0.121380  1.0  -0.5839
  O  O181  1  0.925210  0.582110  0.075620  1.0  -0.8558
  O  O182  1  0.074790  0.417890  0.924380  1.0  -0.8516
