# generated using pymatgen
data_Zn3H28C40(N3O7)2
_symmetry_space_group_name_H-M   'P 1'
_cell_length_a   16.20500000
_cell_length_b   24.83400000
_cell_length_c   13.51400000
_cell_angle_alpha   90.00000000
_cell_angle_beta   124.24400000
_cell_angle_gamma   90.00000000
_symmetry_Int_Tables_number   1
_chemical_formula_structural   Zn3H28C40(N3O7)2
_chemical_formula_sum   'Zn12 H112 C160 N24 O56'
_cell_volume   4495.73396621
_cell_formula_units_Z   4
loop_
 _symmetry_equiv_pos_site_id
 _symmetry_equiv_pos_as_xyz
  1  'x, y, z'
loop_
 _atom_site_type_symbol
 _atom_site_label
 _atom_site_symmetry_multiplicity
 _atom_site_fract_x
 _atom_site_fract_y
 _atom_site_fract_z
 _atom_site_occupancy
 _atom_site_charge
  Zn  Zn1  1  0.322510  0.052510  0.728400  1.0  0.9123
  Zn  Zn2  1  0.822510  0.552510  0.728400  1.0  0.9123
  Zn  Zn3  1  0.677490  0.052510  0.771600  1.0  0.913
  Zn  Zn4  1  0.177490  0.552510  0.771600  1.0  0.913
  Zn  Zn5  1  0.677490  0.947490  0.271600  1.0  0.9131
  Zn  Zn6  1  0.177490  0.447490  0.271600  1.0  0.9131
  Zn  Zn7  1  0.322510  0.947490  0.228400  1.0  0.9124
  Zn  Zn8  1  0.822510  0.447490  0.228400  1.0  0.9124
  Zn  Zn9  1  0.500000  0.000000  0.000000  1.0  0.9569
  Zn  Zn10  1  0.000000  0.500000  0.000000  1.0  0.9569
  Zn  Zn11  1  0.500000  0.000000  0.500000  1.0  0.9569
  Zn  Zn12  1  0.000000  0.500000  0.500000  1.0  0.9569
  H  H13  1  0.497500  0.061600  0.844800  1.0  0.4286
  H  H14  1  0.858400  0.091100  0.383000  1.0  0.1258
  H  H15  1  0.923200  0.217700  0.251700  1.0  0.1277
  H  H16  1  0.815700  0.184000  0.059600  1.0  0.1093
  H  H17  1  0.517800  0.126500  0.013800  1.0  0.0807
  H  H18  1  0.462200  0.200300  0.062800  1.0  0.1213
  H  H19  1  0.329400  0.099300  0.164300  1.0  0.1184
  H  H20  1  0.390300  0.028700  0.114600  1.0  0.0861
  H  H21  1  0.308200  0.193500  0.179900  1.0  0.1002
  H  H22  1  0.405900  0.264600  0.126700  1.0  0.1004
  H  H23  1  0.305400  0.428000  0.178400  1.0  0.0902
  H  H24  1  0.374600  0.359700  0.135700  1.0  0.1301
  H  H25  1  0.254400  0.255000  0.245300  1.0  0.1238
  H  H26  1  0.186200  0.326200  0.282600  1.0  0.0895
  H  H27  1  0.997500  0.561600  0.844800  1.0  0.4286
  H  H28  1  0.358400  0.591100  0.383000  1.0  0.1258
  H  H29  1  0.423200  0.717700  0.251700  1.0  0.1277
  H  H30  1  0.315700  0.684000  0.059600  1.0  0.1093
  H  H31  1  0.017800  0.626500  0.013800  1.0  0.0807
  H  H32  1  0.962200  0.700300  0.062800  1.0  0.1213
  H  H33  1  0.829400  0.599300  0.164300  1.0  0.1184
  H  H34  1  0.890300  0.528700  0.114600  1.0  0.0861
  H  H35  1  0.808200  0.693500  0.179900  1.0  0.1002
  H  H36  1  0.905900  0.764600  0.126700  1.0  0.1004
  H  H37  1  0.805400  0.928000  0.178400  1.0  0.0902
  H  H38  1  0.874600  0.859700  0.135700  1.0  0.1301
  H  H39  1  0.754400  0.755000  0.245300  1.0  0.1238
  H  H40  1  0.686200  0.826200  0.282600  1.0  0.0895
  H  H41  1  0.502500  0.061600  0.655200  1.0  0.4291
  H  H42  1  0.141600  0.091100  0.117000  1.0  0.1265
  H  H43  1  0.076800  0.217700  0.248300  1.0  0.1278
  H  H44  1  0.184300  0.184000  0.440400  1.0  0.1093
  H  H45  1  0.482200  0.126500  0.486200  1.0  0.0805
  H  H46  1  0.537800  0.200300  0.437200  1.0  0.121
  H  H47  1  0.670600  0.099300  0.335700  1.0  0.118
  H  H48  1  0.609700  0.028700  0.385400  1.0  0.0854
  H  H49  1  0.691800  0.193500  0.320100  1.0  0.1003
  H  H50  1  0.594100  0.264600  0.373300  1.0  0.0995
  H  H51  1  0.694600  0.428000  0.321600  1.0  0.0891
  H  H52  1  0.625400  0.359700  0.364300  1.0  0.1304
  H  H53  1  0.745600  0.255000  0.254700  1.0  0.1235
  H  H54  1  0.813800  0.326200  0.217400  1.0  0.0896
  H  H55  1  0.002500  0.561600  0.655200  1.0  0.4291
  H  H56  1  0.641600  0.591100  0.117000  1.0  0.1265
  H  H57  1  0.576800  0.717700  0.248300  1.0  0.1278
  H  H58  1  0.684300  0.684000  0.440400  1.0  0.1093
  H  H59  1  0.982200  0.626500  0.486200  1.0  0.0805
  H  H60  1  0.037800  0.700300  0.437200  1.0  0.121
  H  H61  1  0.170600  0.599300  0.335700  1.0  0.118
  H  H62  1  0.109700  0.528700  0.385400  1.0  0.0854
  H  H63  1  0.191800  0.693500  0.320100  1.0  0.1003
  H  H64  1  0.094100  0.764600  0.373300  1.0  0.0995
  H  H65  1  0.194600  0.928000  0.321600  1.0  0.0891
  H  H66  1  0.125400  0.859700  0.364300  1.0  0.1304
  H  H67  1  0.245600  0.755000  0.254700  1.0  0.1235
  H  H68  1  0.313800  0.826200  0.217400  1.0  0.0896
  H  H69  1  0.502500  0.938400  0.155200  1.0  0.4308
  H  H70  1  0.141600  0.908900  0.617000  1.0  0.1261
  H  H71  1  0.076800  0.782300  0.748300  1.0  0.1273
  H  H72  1  0.184300  0.816000  0.940400  1.0  0.1094
  H  H73  1  0.482200  0.873500  0.986200  1.0  0.0804
  H  H74  1  0.537800  0.799700  0.937200  1.0  0.1215
  H  H75  1  0.670600  0.900700  0.835700  1.0  0.1186
  H  H76  1  0.609700  0.971300  0.885400  1.0  0.0856
  H  H77  1  0.691800  0.806500  0.820100  1.0  0.1001
  H  H78  1  0.594100  0.735400  0.873300  1.0  0.0995
  H  H79  1  0.694600  0.572000  0.821600  1.0  0.0889
  H  H80  1  0.625400  0.640300  0.864300  1.0  0.1307
  H  H81  1  0.745600  0.745000  0.754700  1.0  0.1239
  H  H82  1  0.813800  0.673800  0.717400  1.0  0.0896
  H  H83  1  0.002500  0.438400  0.155200  1.0  0.4308
  H  H84  1  0.641600  0.408900  0.617000  1.0  0.1261
  H  H85  1  0.576800  0.282300  0.748300  1.0  0.1273
  H  H86  1  0.684300  0.316000  0.940400  1.0  0.1094
  H  H87  1  0.982200  0.373500  0.986200  1.0  0.0804
  H  H88  1  0.037800  0.299700  0.937200  1.0  0.1215
  H  H89  1  0.170600  0.400700  0.835700  1.0  0.1186
  H  H90  1  0.109700  0.471300  0.885400  1.0  0.0856
  H  H91  1  0.191800  0.306500  0.820100  1.0  0.1001
  H  H92  1  0.094100  0.235400  0.873300  1.0  0.0995
  H  H93  1  0.194600  0.072000  0.821600  1.0  0.0889
  H  H94  1  0.125400  0.140300  0.864300  1.0  0.1307
  H  H95  1  0.245600  0.245000  0.754700  1.0  0.1239
  H  H96  1  0.313800  0.173800  0.717400  1.0  0.0896
  H  H97  1  0.497500  0.938400  0.344800  1.0  0.4294
  H  H98  1  0.858400  0.908900  0.883000  1.0  0.1258
  H  H99  1  0.923200  0.782300  0.751700  1.0  0.1272
  H  H100  1  0.815700  0.816000  0.559600  1.0  0.1092
  H  H101  1  0.517800  0.873500  0.513800  1.0  0.0807
  H  H102  1  0.462200  0.799700  0.562800  1.0  0.1215
  H  H103  1  0.329400  0.900700  0.664300  1.0  0.1184
  H  H104  1  0.390300  0.971300  0.614600  1.0  0.0859
  H  H105  1  0.308200  0.806500  0.679900  1.0  0.1003
  H  H106  1  0.405900  0.735400  0.626700  1.0  0.0999
  H  H107  1  0.305400  0.572000  0.678400  1.0  0.0899
  H  H108  1  0.374600  0.640300  0.635700  1.0  0.1301
  H  H109  1  0.254400  0.745000  0.745300  1.0  0.1241
  H  H110  1  0.186200  0.673800  0.782600  1.0  0.0895
  H  H111  1  0.997500  0.438400  0.344800  1.0  0.4294
  H  H112  1  0.358400  0.408900  0.883000  1.0  0.1258
  H  H113  1  0.423200  0.282300  0.751700  1.0  0.1272
  H  H114  1  0.315700  0.316000  0.559600  1.0  0.1092
  H  H115  1  0.017800  0.373500  0.513800  1.0  0.0807
  H  H116  1  0.962200  0.299700  0.562800  1.0  0.1215
  H  H117  1  0.829400  0.400700  0.664300  1.0  0.1184
  H  H118  1  0.890300  0.471300  0.614600  1.0  0.0859
  H  H119  1  0.808200  0.306500  0.679900  1.0  0.1003
  H  H120  1  0.905900  0.235400  0.626700  1.0  0.0999
  H  H121  1  0.805400  0.072000  0.678400  1.0  0.0899
  H  H122  1  0.874600  0.140300  0.635700  1.0  0.1301
  H  H123  1  0.754400  0.245000  0.745300  1.0  0.1241
  H  H124  1  0.686200  0.173800  0.782600  1.0  0.0895
  C  C125  1  0.771250  0.117710  0.104480  1.0  -0.0095
  C  C126  1  0.783300  0.089860  0.201860  1.0  -0.1246
  C  C127  1  0.848860  0.109490  0.317400  1.0  -0.0429
  C  C128  1  0.899590  0.156900  0.332800  1.0  -0.0107
  C  C129  1  0.888500  0.185720  0.238700  1.0  -0.1407
  C  C130  1  0.824100  0.165460  0.124400  1.0  -0.0508
  C  C131  1  0.704650  0.098460  0.975970  1.0  0.6751
  C  C132  1  0.723410  0.039870  0.183550  1.0  0.6638
  C  C133  1  0.479720  0.121120  0.044830  1.0  0.1941
  C  C134  1  0.446260  0.165810  0.073900  1.0  -0.1782
  C  C135  1  0.388210  0.158690  0.120000  1.0  0.109
  C  C136  1  0.367840  0.106000  0.134200  1.0  -0.2254
  C  C137  1  0.404530  0.063630  0.103800  1.0  0.1777
  C  C138  1  0.348490  0.202990  0.153900  1.0  -0.1106
  C  C139  1  0.364480  0.254860  0.150900  1.0  -0.1318
  C  C140  1  0.294600  0.392670  0.191500  1.0  0.1828
  C  C141  1  0.336400  0.351650  0.165400  1.0  -0.2092
  C  C142  1  0.321900  0.298750  0.182900  1.0  0.1406
  C  C143  1  0.265100  0.289880  0.229800  1.0  -0.1834
  C  C144  1  0.225000  0.332990  0.253000  1.0  0.1686
  C  C145  1  0.271250  0.617710  0.104480  1.0  -0.0095
  C  C146  1  0.283300  0.589860  0.201860  1.0  -0.1246
  C  C147  1  0.348860  0.609490  0.317400  1.0  -0.0429
  C  C148  1  0.399590  0.656900  0.332800  1.0  -0.0107
  C  C149  1  0.388500  0.685720  0.238700  1.0  -0.1407
  C  C150  1  0.324100  0.665460  0.124400  1.0  -0.0508
  C  C151  1  0.204650  0.598460  0.975970  1.0  0.6751
  C  C152  1  0.223410  0.539870  0.183550  1.0  0.6638
  C  C153  1  0.979720  0.621120  0.044830  1.0  0.1941
  C  C154  1  0.946260  0.665810  0.073900  1.0  -0.1782
  C  C155  1  0.888210  0.658690  0.120000  1.0  0.109
  C  C156  1  0.867840  0.606000  0.134200  1.0  -0.2254
  C  C157  1  0.904530  0.563630  0.103800  1.0  0.1777
  C  C158  1  0.848490  0.702990  0.153900  1.0  -0.1106
  C  C159  1  0.864480  0.754860  0.150900  1.0  -0.1318
  C  C160  1  0.794600  0.892670  0.191500  1.0  0.1828
  C  C161  1  0.836400  0.851650  0.165400  1.0  -0.2092
  C  C162  1  0.821900  0.798750  0.182900  1.0  0.1406
  C  C163  1  0.765100  0.789880  0.229800  1.0  -0.1834
  C  C164  1  0.725000  0.832990  0.253000  1.0  0.1686
  C  C165  1  0.228750  0.117710  0.395520  1.0  -0.0096
  C  C166  1  0.216700  0.089860  0.298140  1.0  -0.1252
  C  C167  1  0.151140  0.109490  0.182600  1.0  -0.0415
  C  C168  1  0.100410  0.156900  0.167200  1.0  -0.0103
  C  C169  1  0.111500  0.185720  0.261300  1.0  -0.1393
  C  C170  1  0.175900  0.165460  0.375600  1.0  -0.051
  C  C171  1  0.295350  0.098460  0.524030  1.0  0.6763
  C  C172  1  0.276590  0.039870  0.316450  1.0  0.6622
  C  C173  1  0.520280  0.121120  0.455170  1.0  0.194
  C  C174  1  0.553740  0.165810  0.426100  1.0  -0.1777
  C  C175  1  0.611790  0.158690  0.380000  1.0  0.1083
  C  C176  1  0.632160  0.106000  0.365800  1.0  -0.2242
  C  C177  1  0.595470  0.063630  0.396200  1.0  0.1781
  C  C178  1  0.651510  0.202990  0.346100  1.0  -0.1104
  C  C179  1  0.635520  0.254860  0.349100  1.0  -0.1319
  C  C180  1  0.705400  0.392670  0.308500  1.0  0.1828
  C  C181  1  0.663600  0.351650  0.334600  1.0  -0.2092
  C  C182  1  0.678100  0.298750  0.317100  1.0  0.1409
  C  C183  1  0.734900  0.289880  0.270200  1.0  -0.1823
  C  C184  1  0.775000  0.332990  0.247000  1.0  0.1686
  C  C185  1  0.728750  0.617710  0.395520  1.0  -0.0096
  C  C186  1  0.716700  0.589860  0.298140  1.0  -0.1252
  C  C187  1  0.651140  0.609490  0.182600  1.0  -0.0415
  C  C188  1  0.600410  0.656900  0.167200  1.0  -0.0103
  C  C189  1  0.611500  0.685720  0.261300  1.0  -0.1393
  C  C190  1  0.675900  0.665460  0.375600  1.0  -0.051
  C  C191  1  0.795350  0.598460  0.524030  1.0  0.6763
  C  C192  1  0.776590  0.539870  0.316450  1.0  0.6622
  C  C193  1  0.020280  0.621120  0.455170  1.0  0.194
  C  C194  1  0.053740  0.665810  0.426100  1.0  -0.1777
  C  C195  1  0.111790  0.658690  0.380000  1.0  0.1083
  C  C196  1  0.132160  0.606000  0.365800  1.0  -0.2242
  C  C197  1  0.095470  0.563630  0.396200  1.0  0.1781
  C  C198  1  0.151510  0.702990  0.346100  1.0  -0.1104
  C  C199  1  0.135520  0.754860  0.349100  1.0  -0.1319
  C  C200  1  0.205400  0.892670  0.308500  1.0  0.1828
  C  C201  1  0.163600  0.851650  0.334600  1.0  -0.2092
  C  C202  1  0.178100  0.798750  0.317100  1.0  0.1409
  C  C203  1  0.234900  0.789880  0.270200  1.0  -0.1823
  C  C204  1  0.275000  0.832990  0.247000  1.0  0.1686
  C  C205  1  0.228750  0.882290  0.895520  1.0  -0.0101
  C  C206  1  0.216700  0.910140  0.798140  1.0  -0.1252
  C  C207  1  0.151140  0.890510  0.682600  1.0  -0.0414
  C  C208  1  0.100410  0.843100  0.667200  1.0  -0.0103
  C  C209  1  0.111500  0.814280  0.761300  1.0  -0.1392
  C  C210  1  0.175900  0.834540  0.875600  1.0  -0.051
  C  C211  1  0.295350  0.901540  0.024030  1.0  0.6763
  C  C212  1  0.276590  0.960130  0.816450  1.0  0.6621
  C  C213  1  0.520280  0.878880  0.955170  1.0  0.1943
  C  C214  1  0.553740  0.834190  0.926100  1.0  -0.1784
  C  C215  1  0.611790  0.841310  0.880000  1.0  0.1081
  C  C216  1  0.632160  0.894000  0.865800  1.0  -0.2246
  C  C217  1  0.595470  0.936370  0.896200  1.0  0.1786
  C  C218  1  0.651510  0.797010  0.846100  1.0  -0.11
  C  C219  1  0.635520  0.745140  0.849100  1.0  -0.1318
  C  C220  1  0.705400  0.607330  0.808500  1.0  0.1818
  C  C221  1  0.663600  0.648350  0.834600  1.0  -0.2081
  C  C222  1  0.678100  0.701250  0.817100  1.0  0.1412
  C  C223  1  0.734900  0.710120  0.770200  1.0  -0.1829
  C  C224  1  0.775000  0.667010  0.747000  1.0  0.1685
  C  C225  1  0.728750  0.382290  0.895520  1.0  -0.0101
  C  C226  1  0.716700  0.410140  0.798140  1.0  -0.1252
  C  C227  1  0.651140  0.390510  0.682600  1.0  -0.0414
  C  C228  1  0.600410  0.343100  0.667200  1.0  -0.0103
  C  C229  1  0.611500  0.314280  0.761300  1.0  -0.1392
  C  C230  1  0.675900  0.334540  0.875600  1.0  -0.051
  C  C231  1  0.795350  0.401540  0.024030  1.0  0.6763
  C  C232  1  0.776590  0.460130  0.816450  1.0  0.6621
  C  C233  1  0.020280  0.378880  0.955170  1.0  0.1943
  C  C234  1  0.053740  0.334190  0.926100  1.0  -0.1784
  C  C235  1  0.111790  0.341310  0.880000  1.0  0.1081
  C  C236  1  0.132160  0.394000  0.865800  1.0  -0.2246
  C  C237  1  0.095470  0.436370  0.896200  1.0  0.1786
  C  C238  1  0.151510  0.297010  0.846100  1.0  -0.11
  C  C239  1  0.135520  0.245140  0.849100  1.0  -0.1318
  C  C240  1  0.205400  0.107330  0.808500  1.0  0.1818
  C  C241  1  0.163600  0.148350  0.834600  1.0  -0.2081
  C  C242  1  0.178100  0.201250  0.817100  1.0  0.1412
  C  C243  1  0.234900  0.210120  0.770200  1.0  -0.1829
  C  C244  1  0.275000  0.167010  0.747000  1.0  0.1685
  C  C245  1  0.771250  0.882290  0.604480  1.0  -0.009
  C  C246  1  0.783300  0.910140  0.701860  1.0  -0.1248
  C  C247  1  0.848860  0.890510  0.817400  1.0  -0.0426
  C  C248  1  0.899590  0.843100  0.832800  1.0  -0.0108
  C  C249  1  0.888500  0.814280  0.738700  1.0  -0.1401
  C  C250  1  0.824100  0.834540  0.624400  1.0  -0.0506
  C  C251  1  0.704650  0.901540  0.475970  1.0  0.6754
  C  C252  1  0.723410  0.960130  0.683550  1.0  0.6625
  C  C253  1  0.479720  0.878880  0.544830  1.0  0.1946
  C  C254  1  0.446260  0.834190  0.573900  1.0  -0.178
  C  C255  1  0.388210  0.841310  0.620000  1.0  0.1086
  C  C256  1  0.367840  0.894000  0.634200  1.0  -0.2255
  C  C257  1  0.404530  0.936370  0.603800  1.0  0.1781
  C  C258  1  0.348490  0.797010  0.653900  1.0  -0.1109
  C  C259  1  0.364480  0.745140  0.650900  1.0  -0.1325
  C  C260  1  0.294600  0.607330  0.691500  1.0  0.1816
  C  C261  1  0.336400  0.648350  0.665400  1.0  -0.2089
  C  C262  1  0.321900  0.701250  0.682900  1.0  0.1407
  C  C263  1  0.265100  0.710120  0.729800  1.0  -0.1833
  C  C264  1  0.225000  0.667010  0.753000  1.0  0.1687
  C  C265  1  0.271250  0.382290  0.604480  1.0  -0.009
  C  C266  1  0.283300  0.410140  0.701860  1.0  -0.1248
  C  C267  1  0.348860  0.390510  0.817400  1.0  -0.0426
  C  C268  1  0.399590  0.343100  0.832800  1.0  -0.0108
  C  C269  1  0.388500  0.314280  0.738700  1.0  -0.1401
  C  C270  1  0.324100  0.334540  0.624400  1.0  -0.0506
  C  C271  1  0.204650  0.401540  0.475970  1.0  0.6754
  C  C272  1  0.223410  0.460130  0.683550  1.0  0.6625
  C  C273  1  0.979720  0.378880  0.544830  1.0  0.1946
  C  C274  1  0.946260  0.334190  0.573900  1.0  -0.178
  C  C275  1  0.888210  0.341310  0.620000  1.0  0.1086
  C  C276  1  0.867840  0.394000  0.634200  1.0  -0.2255
  C  C277  1  0.904530  0.436370  0.603800  1.0  0.1781
  C  C278  1  0.848490  0.297010  0.653900  1.0  -0.1109
  C  C279  1  0.864480  0.245140  0.650900  1.0  -0.1325
  C  C280  1  0.794600  0.107330  0.691500  1.0  0.1816
  C  C281  1  0.836400  0.148350  0.665400  1.0  -0.2089
  C  C282  1  0.821900  0.201250  0.682900  1.0  0.1407
  C  C283  1  0.765100  0.210120  0.729800  1.0  -0.1833
  C  C284  1  0.725000  0.167010  0.753000  1.0  0.1687
  N  N285  1  0.967300  0.178450  0.454900  1.0  0.611
  N  N286  1  0.459840  0.070470  0.059320  1.0  -0.3296
  N  N287  1  0.238920  0.384140  0.235000  1.0  -0.3498
  N  N288  1  0.467300  0.678450  0.454900  1.0  0.611
  N  N289  1  0.959840  0.570470  0.059320  1.0  -0.3296
  N  N290  1  0.738920  0.884140  0.235000  1.0  -0.3498
  N  N291  1  0.032700  0.178450  0.045100  1.0  0.6106
  N  N292  1  0.540160  0.070470  0.440680  1.0  -0.3294
  N  N293  1  0.761080  0.384140  0.265000  1.0  -0.3499
  N  N294  1  0.532700  0.678450  0.045100  1.0  0.6106
  N  N295  1  0.040160  0.570470  0.440680  1.0  -0.3294
  N  N296  1  0.261080  0.884140  0.265000  1.0  -0.3499
  N  N297  1  0.032700  0.821550  0.545100  1.0  0.611
  N  N298  1  0.540160  0.929530  0.940680  1.0  -0.3301
  N  N299  1  0.761080  0.615860  0.765000  1.0  -0.3497
  N  N300  1  0.532700  0.321550  0.545100  1.0  0.611
  N  N301  1  0.040160  0.429530  0.940680  1.0  -0.3301
  N  N302  1  0.261080  0.115860  0.765000  1.0  -0.3497
  N  N303  1  0.967300  0.821550  0.954900  1.0  0.6108
  N  N304  1  0.459840  0.929530  0.559320  1.0  -0.3293
  N  N305  1  0.238920  0.615860  0.735000  1.0  -0.3496
  N  N306  1  0.467300  0.321550  0.954900  1.0  0.6108
  N  N307  1  0.959840  0.429530  0.559320  1.0  -0.3293
  N  N308  1  0.738920  0.115860  0.735000  1.0  -0.3496
  O  O309  1  0.742070  0.062210  0.945790  1.0  -0.5768
  O  O310  1  0.624190  0.121050  0.907580  1.0  -0.5596
  O  O311  1  0.651230  0.029880  0.080910  1.0  -0.595
  O  O312  1  0.751970  0.012220  0.276710  1.0  -0.5963
  O  O313  1  0.970000  0.156280  0.536100  1.0  -0.4316
  O  O314  1  0.016000  0.218010  0.469100  1.0  -0.4301
  O  O315  1  0.458810  0.038610  0.845120  1.0  -0.8596
  O  O316  1  0.242070  0.562210  0.945790  1.0  -0.5768
  O  O317  1  0.124190  0.621050  0.907580  1.0  -0.5596
  O  O318  1  0.151230  0.529880  0.080910  1.0  -0.595
  O  O319  1  0.251970  0.512220  0.276710  1.0  -0.5962
  O  O320  1  0.470000  0.656280  0.536100  1.0  -0.4316
  O  O321  1  0.516000  0.718010  0.469100  1.0  -0.4301
  O  O322  1  0.958810  0.538610  0.845120  1.0  -0.8596
  O  O323  1  0.257930  0.062210  0.554210  1.0  -0.5756
  O  O324  1  0.375810  0.121050  0.592420  1.0  -0.56
  O  O325  1  0.348770  0.029880  0.419090  1.0  -0.596
  O  O326  1  0.248030  0.012220  0.223290  1.0  -0.5971
  O  O327  1  0.030000  0.156280  0.963900  1.0  -0.4317
  O  O328  1  0.984000  0.218010  0.030900  1.0  -0.4305
  O  O329  1  0.541190  0.038610  0.654880  1.0  -0.8598
  O  O330  1  0.757930  0.562210  0.554210  1.0  -0.5756
  O  O331  1  0.875810  0.621050  0.592420  1.0  -0.56
  O  O332  1  0.848770  0.529880  0.419090  1.0  -0.596
  O  O333  1  0.748030  0.512220  0.223290  1.0  -0.5971
  O  O334  1  0.530000  0.656280  0.963900  1.0  -0.4317
  O  O335  1  0.484000  0.718010  0.030900  1.0  -0.4305
  O  O336  1  0.041190  0.538610  0.654880  1.0  -0.8598
  O  O337  1  0.257930  0.937790  0.054210  1.0  -0.5771
  O  O338  1  0.375810  0.878950  0.092420  1.0  -0.5609
  O  O339  1  0.348770  0.970120  0.919090  1.0  -0.5962
  O  O340  1  0.248030  0.987780  0.723290  1.0  -0.5967
  O  O341  1  0.030000  0.843720  0.463900  1.0  -0.431
  O  O342  1  0.984000  0.781990  0.530900  1.0  -0.4301
  O  O343  1  0.541190  0.961390  0.154880  1.0  -0.8598
  O  O344  1  0.757930  0.437790  0.054210  1.0  -0.5771
  O  O345  1  0.875810  0.378950  0.092420  1.0  -0.5609
  O  O346  1  0.848770  0.470120  0.919090  1.0  -0.5962
  O  O347  1  0.748030  0.487780  0.723290  1.0  -0.5966
  O  O348  1  0.530000  0.343720  0.463900  1.0  -0.431
  O  O349  1  0.484000  0.281990  0.530900  1.0  -0.4301
  O  O350  1  0.041190  0.461390  0.154880  1.0  -0.8598
  O  O351  1  0.742070  0.937790  0.445790  1.0  -0.5777
  O  O352  1  0.624190  0.878950  0.407580  1.0  -0.5605
  O  O353  1  0.651230  0.970120  0.580910  1.0  -0.5948
  O  O354  1  0.751970  0.987780  0.776710  1.0  -0.5956
  O  O355  1  0.970000  0.843720  0.036100  1.0  -0.4313
  O  O356  1  0.016000  0.781990  0.969100  1.0  -0.4299
  O  O357  1  0.458810  0.961390  0.345120  1.0  -0.8596
  O  O358  1  0.242070  0.437790  0.445790  1.0  -0.5777
  O  O359  1  0.124190  0.378950  0.407580  1.0  -0.5605
  O  O360  1  0.151230  0.470120  0.580910  1.0  -0.5948
  O  O361  1  0.251970  0.487780  0.776710  1.0  -0.5955
  O  O362  1  0.470000  0.343720  0.036100  1.0  -0.4313
  O  O363  1  0.516000  0.281990  0.969100  1.0  -0.4299
  O  O364  1  0.958810  0.461390  0.345120  1.0  -0.8596
