# generated using pymatgen
data_Zn3H28C40(N3O7)2
_symmetry_space_group_name_H-M   'P 1'
_cell_length_a   13.44200000
_cell_length_b   13.59060000
_cell_length_c   14.81290000
_cell_angle_alpha   107.21500000
_cell_angle_beta   106.80600000
_cell_angle_gamma   111.02500000
_symmetry_Int_Tables_number   1
_chemical_formula_structural   Zn3H28C40(N3O7)2
_chemical_formula_sum   'Zn6 H56 C80 N12 O28'
_cell_volume   2162.65755082
_cell_formula_units_Z   2
loop_
 _symmetry_equiv_pos_site_id
 _symmetry_equiv_pos_as_xyz
  1  'x, y, z'
loop_
 _atom_site_type_symbol
 _atom_site_label
 _atom_site_symmetry_multiplicity
 _atom_site_fract_x
 _atom_site_fract_y
 _atom_site_fract_z
 _atom_site_occupancy
 _atom_site_charge
  Zn  Zn1  1  0.032680  0.259720  0.897560  1.0  0.9255
  Zn  Zn2  1  0.635120  0.362160  0.102440  1.0  0.9249
  Zn  Zn3  1  0.000000  0.500000  0.000000  1.0  0.9135
  Zn  Zn4  1  0.500000  0.500000  0.000000  1.0  0.9121
  Zn  Zn5  1  0.364880  0.637840  0.897560  1.0  0.9249
  Zn  Zn6  1  0.967320  0.740280  0.102440  1.0  0.9246
  H  H7  1  0.431500  0.110800  0.609000  1.0  0.0967
  H  H8  1  0.557400  0.221400  0.796600  1.0  0.122
  H  H9  1  0.906500  0.787800  0.821200  1.0  0.1255
  H  H10  1  0.738100  0.353800  0.938200  1.0  0.0869
  H  H11  1  0.261900  0.646200  0.061800  1.0  0.0874
  H  H12  1  0.401100  0.034900  0.288600  1.0  0.1271
  H  H13  1  0.271500  0.509900  0.518000  1.0  0.1267
  H  H14  1  0.219200  0.900800  0.149200  1.0  0.0928
  H  H15  1  0.942000  0.994900  0.373000  1.0  0.1146
  H  H16  1  0.430000  0.248400  0.149200  1.0  0.09
  H  H17  1  0.603800  0.664800  0.393000  1.0  0.1263
  H  H18  1  0.414700  0.033400  0.821200  1.0  0.1246
  H  H19  1  0.387500  0.253700  0.288600  1.0  0.1282
  H  H20  1  0.253500  0.991900  0.482000  1.0  0.1292
  H  H21  1  0.710200  0.552900  0.119400  1.0  0.431
  H  H22  1  0.746500  0.008100  0.518000  1.0  0.1308
  H  H23  1  0.739200  0.575200  0.796600  1.0  0.1221
  H  H24  1  0.760800  0.481800  0.338200  1.0  0.0847
  H  H25  1  0.289800  0.447100  0.880600  1.0  0.429
  H  H26  1  0.112500  0.599900  0.245800  1.0  0.0779
  H  H27  1  0.366700  0.354100  0.754200  1.0  0.078
  H  H28  1  0.077400  0.856400  0.338200  1.0  0.0859
  H  H29  1  0.289200  0.728200  0.393000  1.0  0.1286
  H  H30  1  0.553200  0.672200  0.523000  1.0  0.0969
  H  H31  1  0.892000  0.136700  0.443000  1.0  0.1307
  H  H32  1  0.612500  0.746300  0.711400  1.0  0.1282
  H  H33  1  0.322500  0.501800  0.391000  1.0  0.0953
  H  H34  1  0.108000  0.863300  0.557000  1.0  0.1294
  H  H35  1  0.728500  0.490100  0.482000  1.0  0.1273
  H  H36  1  0.446800  0.327800  0.477000  1.0  0.097
  H  H37  1  0.598900  0.965100  0.711400  1.0  0.1272
  H  H38  1  0.570000  0.751600  0.850800  1.0  0.0892
  H  H39  1  0.093500  0.212200  0.178800  1.0  0.1262
  H  H40  1  0.568500  0.889200  0.391000  1.0  0.0954
  H  H41  1  0.780800  0.099200  0.850800  1.0  0.0923
  H  H42  1  0.949000  0.693700  0.557000  1.0  0.1297
  H  H43  1  0.069000  0.621900  0.627000  1.0  0.1128
  H  H44  1  0.585300  0.966600  0.178800  1.0  0.1254
  H  H45  1  0.299900  0.415600  0.061800  1.0  0.0844
  H  H46  1  0.922600  0.143600  0.661800  1.0  0.0856
  H  H47  1  0.633300  0.645900  0.245800  1.0  0.0788
  H  H48  1  0.931000  0.378100  0.373000  1.0  0.1132
  H  H49  1  0.469800  0.850800  0.523000  1.0  0.0975
  H  H50  1  0.887500  0.400100  0.754200  1.0  0.0781
  H  H51  1  0.051000  0.306300  0.443000  1.0  0.1302
  H  H52  1  0.710800  0.271800  0.607000  1.0  0.1294
  H  H53  1  0.677500  0.498200  0.609000  1.0  0.0958
  H  H54  1  0.396200  0.335200  0.607000  1.0  0.1273
  H  H55  1  0.530200  0.149200  0.477000  1.0  0.0964
  H  H56  1  0.260800  0.424800  0.203400  1.0  0.1226
  H  H57  1  0.700100  0.584400  0.938200  1.0  0.085
  H  H58  1  0.058000  0.005100  0.627000  1.0  0.1155
  H  H59  1  0.239200  0.518200  0.661800  1.0  0.085
  H  H60  1  0.090800  0.433500  0.880600  1.0  0.4311
  H  H61  1  0.909200  0.566500  0.119400  1.0  0.431
  H  H62  1  0.442600  0.778600  0.203400  1.0  0.1217
  C  C63  1  0.344110  0.029450  0.782340  1.0  -0.0642
  C  C64  1  0.035180  0.302280  0.376200  1.0  -0.1523
  C  C65  1  0.665570  0.440970  0.414940  1.0  -0.1756
  C  C66  1  0.350680  0.029400  0.403280  1.0  0.1357
  C  C67  1  0.993180  0.293500  0.176840  1.0  -0.1295
  C  C68  1  0.249370  0.973970  0.414940  1.0  -0.1745
  C  C69  1  0.334430  0.559030  0.585060  1.0  -0.175
  C  C70  1  0.164790  0.192070  0.806160  1.0  0.6804
  C  C71  1  0.265540  0.937040  0.683580  1.0  0.003
  C  C72  1  0.016470  0.699170  0.924500  1.0  0.6662
  C  C73  1  0.835210  0.807930  0.193840  1.0  0.682
  C  C74  1  0.918040  0.746540  0.683580  1.0  0.0023
  C  C75  1  0.638280  0.534080  0.870680  1.0  0.1805
  C  C76  1  0.061770  0.247110  0.217660  1.0  -0.0682
  C  C77  1  0.858630  0.385910  0.193840  1.0  0.6807
  C  C78  1  0.506290  0.854490  0.406380  1.0  -0.1329
  C  C79  1  0.129940  0.011240  0.665940  1.0  -0.0483
  C  C80  1  0.732400  0.336600  0.870680  1.0  0.1789
  C  C81  1  0.464520  0.301120  0.300940  1.0  -0.2101
  C  C82  1  0.683660  0.883340  0.176840  1.0  -0.1299
  C  C83  1  0.856460  0.106860  0.671920  1.0  0.1774
  C  C84  1  0.206850  0.106080  0.765760  1.0  -0.0286
  C  C85  1  0.081960  0.253460  0.316420  1.0  0.0027
  C  C86  1  0.773550  0.081550  0.782760  1.0  0.1771
  C  C87  1  0.557270  0.601440  0.237380  1.0  0.1875
  C  C88  1  0.941090  0.340320  0.234240  1.0  -0.0318
  C  C89  1  0.611000  0.229700  0.683580  1.0  0.1192
  C  C90  1  0.389000  0.770300  0.316420  1.0  0.1207
  C  C91  1  0.684540  0.434940  0.328080  1.0  0.1786
  C  C92  1  0.663580  0.000180  0.699060  1.0  -0.2094
  C  C93  1  0.524420  0.378340  0.492600  1.0  -0.1424
  C  C94  1  0.938230  0.752890  0.782340  1.0  -0.0712
  C  C95  1  0.535480  0.698880  0.699060  1.0  -0.2109
  C  C96  1  0.475580  0.621660  0.507400  1.0  -0.1424
  C  C97  1  0.226450  0.918450  0.217240  1.0  0.1781
  C  C98  1  0.599910  0.448110  0.593620  1.0  -0.1336
  C  C99  1  0.459550  0.387020  0.673360  1.0  -0.1877
  C  C100  1  0.793150  0.893920  0.234240  1.0  -0.0288
  C  C101  1  0.490790  0.298790  0.217240  1.0  0.1757
  C  C102  1  0.447400  0.626120  0.596720  1.0  0.1362
  C  C103  1  0.400090  0.551890  0.406380  1.0  -0.1348
  C  C104  1  0.870060  0.988760  0.334060  1.0  -0.0487
  C  C105  1  0.158980  0.926080  0.623800  1.0  -0.1526
  C  C106  1  0.141370  0.614090  0.806160  1.0  0.6822
  C  C107  1  0.841020  0.073920  0.376200  1.0  -0.1525
  C  C108  1  0.983530  0.300830  0.075500  1.0  0.6664
  C  C109  1  0.006820  0.706500  0.823160  1.0  -0.1299
  C  C110  1  0.750630  0.026030  0.585060  1.0  -0.1728
  C  C111  1  0.286190  0.713660  0.326640  1.0  -0.1883
  C  C112  1  0.315460  0.565060  0.671920  1.0  0.1797
  C  C113  1  0.361720  0.465920  0.129320  1.0  0.1808
  C  C114  1  0.623190  0.256990  0.785720  1.0  -0.2135
  C  C115  1  0.180110  0.635940  0.237380  1.0  0.1876
  C  C116  1  0.713810  0.286340  0.673360  1.0  -0.1878
  C  C117  1  0.649320  0.970600  0.596720  1.0  0.1361
  C  C118  1  0.408030  0.225330  0.924500  1.0  0.6633
  C  C119  1  0.468180  0.114260  0.492600  1.0  -0.142
  C  C120  1  0.427420  0.546120  0.316420  1.0  0.1206
  C  C121  1  0.531820  0.885740  0.507400  1.0  -0.1437
  C  C122  1  0.058910  0.659680  0.765760  1.0  -0.0306
  C  C123  1  0.819890  0.364060  0.762620  1.0  0.1858
  C  C124  1  0.143540  0.893140  0.328080  1.0  0.1771
  C  C125  1  0.591970  0.774670  0.075500  1.0  0.6638
  C  C126  1  0.964000  0.345300  0.334060  1.0  -0.0464
  C  C127  1  0.662530  0.528730  0.785720  1.0  -0.217
  C  C128  1  0.734460  0.062960  0.316420  1.0  0.002
  C  C129  1  0.540450  0.612980  0.326640  1.0  -0.1879
  C  C130  1  0.376810  0.743010  0.214280  1.0  -0.1975
  C  C131  1  0.552600  0.373880  0.403280  1.0  0.1365
  C  C132  1  0.442730  0.398560  0.762620  1.0  0.1908
  C  C133  1  0.336420  0.999820  0.300940  1.0  -0.2104
  C  C134  1  0.267600  0.663400  0.129320  1.0  0.1811
  C  C135  1  0.509210  0.701210  0.782760  1.0  0.1752
  C  C136  1  0.316340  0.116660  0.823160  1.0  -0.1309
  C  C137  1  0.572580  0.453880  0.683580  1.0  0.1206
  C  C138  1  0.655890  0.970550  0.217660  1.0  -0.0637
  C  C139  1  0.964820  0.697720  0.623800  1.0  -0.1533
  C  C140  1  0.493710  0.145510  0.593620  1.0  -0.1339
  C  C141  1  0.337470  0.471270  0.214280  1.0  -0.1997
  C  C142  1  0.036000  0.654700  0.665940  1.0  -0.0475
  N  N143  1  0.470210  0.529860  0.139540  1.0  -0.3208
  N  N144  1  0.842540  0.793140  0.639880  1.0  0.6063
  N  N145  1  0.297340  0.846740  0.639880  1.0  0.6051
  N  N146  1  0.830670  0.390320  0.860460  1.0  -0.3229
  N  N147  1  0.598670  0.364900  0.228840  1.0  -0.35
  N  N148  1  0.169330  0.609680  0.139540  1.0  -0.3253
  N  N149  1  0.157460  0.206860  0.360120  1.0  0.6066
  N  N150  1  0.130170  0.863940  0.228840  1.0  -0.3481
  N  N151  1  0.529790  0.470140  0.860460  1.0  -0.3214
  N  N152  1  0.869830  0.136060  0.771160  1.0  -0.348
  N  N153  1  0.401330  0.635100  0.771160  1.0  -0.3522
  N  N154  1  0.702660  0.153260  0.360120  1.0  0.6054
  O  O155  1  0.496200  0.219790  0.978900  1.0  -0.5985
  O  O156  1  0.946720  0.366480  0.054540  1.0  -0.5936
  O  O157  1  0.197130  0.162960  0.306520  1.0  -0.406
  O  O158  1  0.392180  0.311940  0.945460  1.0  -0.5934
  O  O159  1  0.607820  0.688060  0.054540  1.0  -0.5935
  O  O160  1  0.017300  0.240890  0.021100  1.0  -0.5989
  O  O161  1  0.802870  0.837040  0.693480  1.0  -0.4049
  O  O162  1  0.351910  0.508870  0.926700  1.0  -0.8446
  O  O163  1  0.129110  0.182200  0.875140  1.0  -0.5816
  O  O164  1  0.770760  0.232960  0.447120  1.0  -0.4218
  O  O165  1  0.648090  0.491130  0.073300  1.0  -0.8447
  O  O166  1  0.823640  0.785840  0.552880  1.0  -0.4225
  O  O167  1  0.246030  0.692940  0.875140  1.0  -0.5813
  O  O168  1  0.982700  0.759110  0.978900  1.0  -0.5996
  O  O169  1  0.503800  0.780210  0.021100  1.0  -0.5996
  O  O170  1  0.390610  0.856440  0.693480  1.0  -0.4091
  O  O171  1  0.159030  0.257730  0.765320  1.0  -0.5544
  O  O172  1  0.106290  0.507590  0.765320  1.0  -0.5504
  O  O173  1  0.176360  0.214160  0.447120  1.0  -0.4214
  O  O174  1  0.925210  0.582170  0.073300  1.0  -0.846
  O  O175  1  0.753970  0.307060  0.124860  1.0  -0.5802
  O  O176  1  0.893710  0.492410  0.234680  1.0  -0.5514
  O  O177  1  0.229240  0.767040  0.552880  1.0  -0.4239
  O  O178  1  0.609390  0.143560  0.306520  1.0  -0.4085
  O  O179  1  0.870890  0.817800  0.124860  1.0  -0.5787
  O  O180  1  0.053280  0.633520  0.945460  1.0  -0.5941
  O  O181  1  0.840970  0.742270  0.234680  1.0  -0.5536
  O  O182  1  0.074790  0.417830  0.926700  1.0  -0.8414
