# generated using pymatgen
data_Zn3H28C40(N3O7)2
_symmetry_space_group_name_H-M   'P 1'
_cell_length_a   16.29100000
_cell_length_b   24.68400000
_cell_length_c   13.43500000
_cell_angle_alpha   90.00000000
_cell_angle_beta   124.09800000
_cell_angle_gamma   90.00000000
_symmetry_Int_Tables_number   1
_chemical_formula_structural   Zn3H28C40(N3O7)2
_chemical_formula_sum   'Zn12 H112 C160 N24 O56'
_cell_volume   4473.76530842
_cell_formula_units_Z   4
loop_
 _symmetry_equiv_pos_site_id
 _symmetry_equiv_pos_as_xyz
  1  'x, y, z'
loop_
 _atom_site_type_symbol
 _atom_site_label
 _atom_site_symmetry_multiplicity
 _atom_site_fract_x
 _atom_site_fract_y
 _atom_site_fract_z
 _atom_site_occupancy
 _atom_site_charge
  Zn  Zn1  1  0.825090  0.552380  0.729030  1.0  0.9583
  Zn  Zn2  1  0.325090  0.052380  0.729030  1.0  0.9583
  Zn  Zn3  1  0.174910  0.552380  0.770970  1.0  0.9592
  Zn  Zn4  1  0.674910  0.052380  0.770970  1.0  0.9592
  Zn  Zn5  1  0.174910  0.447620  0.270970  1.0  0.9593
  Zn  Zn6  1  0.674910  0.947620  0.270970  1.0  0.9593
  Zn  Zn7  1  0.825090  0.447620  0.229030  1.0  0.9584
  Zn  Zn8  1  0.325090  0.947620  0.229030  1.0  0.9584
  Zn  Zn9  1  0.000000  0.500000  0.000000  1.0  0.8889
  Zn  Zn10  1  0.500000  0.000000  0.000000  1.0  0.8889
  Zn  Zn11  1  0.000000  0.500000  0.500000  1.0  0.8889
  Zn  Zn12  1  0.500000  0.000000  0.500000  1.0  0.8889
  H  H13  1  0.998500  0.562000  0.845300  1.0  0.4342
  H  H14  1  0.359800  0.590800  0.384600  1.0  0.1193
  H  H15  1  0.424500  0.716800  0.252000  1.0  0.1372
  H  H16  1  0.311300  0.685200  0.058600  1.0  0.1119
  H  H17  1  0.018000  0.627000  0.015800  1.0  0.0753
  H  H18  1  0.961600  0.701000  0.062000  1.0  0.1244
  H  H19  1  0.829000  0.598700  0.163400  1.0  0.1145
  H  H20  1  0.888100  0.528400  0.112300  1.0  0.0987
  H  H21  1  0.809000  0.693500  0.181200  1.0  0.1101
  H  H22  1  0.905500  0.765300  0.128600  1.0  0.094
  H  H23  1  0.807100  0.928600  0.185800  1.0  0.0898
  H  H24  1  0.875500  0.860800  0.140500  1.0  0.1329
  H  H25  1  0.751100  0.754400  0.241700  1.0  0.1296
  H  H26  1  0.682300  0.825700  0.278600  1.0  0.0818
  H  H27  1  0.498500  0.062000  0.845300  1.0  0.4342
  H  H28  1  0.859800  0.090800  0.384600  1.0  0.1193
  H  H29  1  0.924500  0.216800  0.252000  1.0  0.1372
  H  H30  1  0.811300  0.185200  0.058600  1.0  0.1119
  H  H31  1  0.518000  0.127000  0.015800  1.0  0.0753
  H  H32  1  0.461600  0.201000  0.062000  1.0  0.1244
  H  H33  1  0.329000  0.098700  0.163400  1.0  0.1145
  H  H34  1  0.388100  0.028400  0.112300  1.0  0.0987
  H  H35  1  0.309000  0.193500  0.181200  1.0  0.1101
  H  H36  1  0.405500  0.265300  0.128600  1.0  0.094
  H  H37  1  0.307100  0.428600  0.185800  1.0  0.0898
  H  H38  1  0.375500  0.360800  0.140500  1.0  0.1329
  H  H39  1  0.251100  0.254400  0.241700  1.0  0.1296
  H  H40  1  0.182300  0.325700  0.278600  1.0  0.0818
  H  H41  1  0.001500  0.562000  0.654700  1.0  0.435
  H  H42  1  0.640200  0.590800  0.115400  1.0  0.1199
  H  H43  1  0.575500  0.716800  0.248000  1.0  0.1374
  H  H44  1  0.688700  0.685200  0.441400  1.0  0.1119
  H  H45  1  0.982000  0.627000  0.484200  1.0  0.0758
  H  H46  1  0.038400  0.701000  0.438000  1.0  0.1242
  H  H47  1  0.171000  0.598700  0.336600  1.0  0.114
  H  H48  1  0.111900  0.528400  0.387700  1.0  0.0981
  H  H49  1  0.191000  0.693500  0.318800  1.0  0.1097
  H  H50  1  0.094500  0.765300  0.371400  1.0  0.0942
  H  H51  1  0.192900  0.928600  0.314200  1.0  0.089
  H  H52  1  0.124500  0.860800  0.359500  1.0  0.1329
  H  H53  1  0.248900  0.754400  0.258300  1.0  0.1289
  H  H54  1  0.317700  0.825700  0.221400  1.0  0.0816
  H  H55  1  0.501500  0.062000  0.654700  1.0  0.435
  H  H56  1  0.140200  0.090800  0.115400  1.0  0.1199
  H  H57  1  0.075500  0.216800  0.248000  1.0  0.1374
  H  H58  1  0.188700  0.185200  0.441400  1.0  0.1119
  H  H59  1  0.482000  0.127000  0.484200  1.0  0.0758
  H  H60  1  0.538400  0.201000  0.438000  1.0  0.1242
  H  H61  1  0.671000  0.098700  0.336600  1.0  0.114
  H  H62  1  0.611900  0.028400  0.387700  1.0  0.0981
  H  H63  1  0.691000  0.193500  0.318800  1.0  0.1097
  H  H64  1  0.594500  0.265300  0.371400  1.0  0.0942
  H  H65  1  0.692900  0.428600  0.314200  1.0  0.089
  H  H66  1  0.624500  0.360800  0.359500  1.0  0.1329
  H  H67  1  0.748900  0.254400  0.258300  1.0  0.1289
  H  H68  1  0.817700  0.325700  0.221400  1.0  0.0816
  H  H69  1  0.001500  0.438000  0.154700  1.0  0.4358
  H  H70  1  0.640200  0.409200  0.615400  1.0  0.1198
  H  H71  1  0.575500  0.283200  0.748000  1.0  0.137
  H  H72  1  0.688700  0.314800  0.941400  1.0  0.112
  H  H73  1  0.982000  0.373000  0.984200  1.0  0.0758
  H  H74  1  0.038400  0.299000  0.938000  1.0  0.125
  H  H75  1  0.171000  0.401300  0.836600  1.0  0.1143
  H  H76  1  0.111900  0.471600  0.887700  1.0  0.0984
  H  H77  1  0.191000  0.306500  0.818800  1.0  0.1097
  H  H78  1  0.094500  0.234700  0.871400  1.0  0.0942
  H  H79  1  0.192900  0.071400  0.814200  1.0  0.0891
  H  H80  1  0.124500  0.139200  0.859500  1.0  0.1333
  H  H81  1  0.248900  0.245600  0.758300  1.0  0.1291
  H  H82  1  0.317700  0.174300  0.721400  1.0  0.0815
  H  H83  1  0.501500  0.938000  0.154700  1.0  0.4358
  H  H84  1  0.140200  0.909200  0.615400  1.0  0.1198
  H  H85  1  0.075500  0.783200  0.748000  1.0  0.137
  H  H86  1  0.188700  0.814800  0.941400  1.0  0.112
  H  H87  1  0.482000  0.873000  0.984200  1.0  0.0758
  H  H88  1  0.538400  0.799000  0.938000  1.0  0.125
  H  H89  1  0.671000  0.901300  0.836600  1.0  0.1143
  H  H90  1  0.611900  0.971600  0.887700  1.0  0.0984
  H  H91  1  0.691000  0.806500  0.818800  1.0  0.1097
  H  H92  1  0.594500  0.734700  0.871400  1.0  0.0942
  H  H93  1  0.692900  0.571400  0.814200  1.0  0.0891
  H  H94  1  0.624500  0.639200  0.859500  1.0  0.1333
  H  H95  1  0.748900  0.745600  0.758300  1.0  0.1291
  H  H96  1  0.817700  0.674300  0.721400  1.0  0.0815
  H  H97  1  0.998500  0.438000  0.345300  1.0  0.4348
  H  H98  1  0.359800  0.409200  0.884600  1.0  0.1192
  H  H99  1  0.424500  0.283200  0.752000  1.0  0.1367
  H  H100  1  0.311300  0.314800  0.558600  1.0  0.1118
  H  H101  1  0.018000  0.373000  0.515800  1.0  0.0751
  H  H102  1  0.961600  0.299000  0.562000  1.0  0.1247
  H  H103  1  0.829000  0.401300  0.663400  1.0  0.1142
  H  H104  1  0.888100  0.471600  0.612300  1.0  0.0988
  H  H105  1  0.809000  0.306500  0.681200  1.0  0.1101
  H  H106  1  0.905500  0.234700  0.628600  1.0  0.0935
  H  H107  1  0.807100  0.071400  0.685800  1.0  0.0901
  H  H108  1  0.875500  0.139200  0.640500  1.0  0.1327
  H  H109  1  0.751100  0.245600  0.741700  1.0  0.1296
  H  H110  1  0.682300  0.174300  0.778600  1.0  0.0818
  H  H111  1  0.498500  0.938000  0.345300  1.0  0.4348
  H  H112  1  0.859800  0.909200  0.884600  1.0  0.1192
  H  H113  1  0.924500  0.783200  0.752000  1.0  0.1367
  H  H114  1  0.811300  0.814800  0.558600  1.0  0.1118
  H  H115  1  0.518000  0.873000  0.515800  1.0  0.0751
  H  H116  1  0.461600  0.799000  0.562000  1.0  0.1247
  H  H117  1  0.329000  0.901300  0.663400  1.0  0.1142
  H  H118  1  0.388100  0.971600  0.612300  1.0  0.0988
  H  H119  1  0.309000  0.806500  0.681200  1.0  0.1101
  H  H120  1  0.405500  0.734700  0.628600  1.0  0.0935
  H  H121  1  0.307100  0.571400  0.685800  1.0  0.0901
  H  H122  1  0.375500  0.639200  0.640500  1.0  0.1327
  H  H123  1  0.251100  0.745600  0.741700  1.0  0.1296
  H  H124  1  0.182300  0.674300  0.778600  1.0  0.0818
  C  C125  1  0.268300  0.618000  0.104200  1.0  -0.0349
  C  C126  1  0.281500  0.590300  0.203500  1.0  -0.1339
  C  C127  1  0.349000  0.609600  0.318300  1.0  -0.0805
  C  C128  1  0.400100  0.656700  0.334300  1.0  0.0216
  C  C129  1  0.388500  0.685400  0.239300  1.0  -0.16
  C  C130  1  0.321300  0.665900  0.124100  1.0  -0.0615
  C  C131  1  0.200500  0.599700  0.976600  1.0  0.6791
  C  C132  1  0.221500  0.540400  0.185400  1.0  0.6614
  C  C133  1  0.979300  0.621600  0.045900  1.0  0.1916
  C  C134  1  0.946000  0.666300  0.073600  1.0  -0.1855
  C  C135  1  0.887500  0.659000  0.120000  1.0  0.1133
  C  C136  1  0.867300  0.605700  0.133300  1.0  -0.2071
  C  C137  1  0.903100  0.563600  0.102800  1.0  0.1715
  C  C138  1  0.848800  0.703300  0.154700  1.0  -0.0984
  C  C139  1  0.863900  0.755200  0.152300  1.0  -0.1301
  C  C140  1  0.794600  0.893000  0.195900  1.0  0.1866
  C  C141  1  0.836600  0.852300  0.169000  1.0  -0.2221
  C  C142  1  0.821200  0.799200  0.184000  1.0  0.1413
  C  C143  1  0.762700  0.789600  0.228000  1.0  -0.188
  C  C144  1  0.722300  0.832900  0.250900  1.0  0.1687
  C  C145  1  0.768300  0.118000  0.104200  1.0  -0.0349
  C  C146  1  0.781500  0.090300  0.203500  1.0  -0.1339
  C  C147  1  0.849000  0.109600  0.318300  1.0  -0.0805
  C  C148  1  0.900100  0.156700  0.334300  1.0  0.0216
  C  C149  1  0.888500  0.185400  0.239300  1.0  -0.16
  C  C150  1  0.821300  0.165900  0.124100  1.0  -0.0615
  C  C151  1  0.700500  0.099700  0.976600  1.0  0.6791
  C  C152  1  0.721500  0.040400  0.185400  1.0  0.6614
  C  C153  1  0.479300  0.121600  0.045900  1.0  0.1916
  C  C154  1  0.446000  0.166300  0.073600  1.0  -0.1855
  C  C155  1  0.387500  0.159000  0.120000  1.0  0.1133
  C  C156  1  0.367300  0.105700  0.133300  1.0  -0.2071
  C  C157  1  0.403100  0.063600  0.102800  1.0  0.1715
  C  C158  1  0.348800  0.203300  0.154700  1.0  -0.0984
  C  C159  1  0.363900  0.255200  0.152300  1.0  -0.1301
  C  C160  1  0.294600  0.393000  0.195900  1.0  0.1866
  C  C161  1  0.336600  0.352300  0.169000  1.0  -0.2221
  C  C162  1  0.321200  0.299200  0.184000  1.0  0.1413
  C  C163  1  0.262700  0.289600  0.228000  1.0  -0.188
  C  C164  1  0.222300  0.332900  0.250900  1.0  0.1687
  C  C165  1  0.731700  0.618000  0.395800  1.0  -0.0354
  C  C166  1  0.718500  0.590300  0.296500  1.0  -0.1352
  C  C167  1  0.651000  0.609600  0.181700  1.0  -0.0802
  C  C168  1  0.599900  0.656700  0.165700  1.0  0.0216
  C  C169  1  0.611500  0.685400  0.260700  1.0  -0.159
  C  C170  1  0.678700  0.665900  0.375900  1.0  -0.061
  C  C171  1  0.799500  0.599700  0.523400  1.0  0.6792
  C  C172  1  0.778500  0.540400  0.314600  1.0  0.6597
  C  C173  1  0.020700  0.621600  0.454100  1.0  0.1916
  C  C174  1  0.054000  0.666300  0.426400  1.0  -0.187
  C  C175  1  0.112500  0.659000  0.380000  1.0  0.113
  C  C176  1  0.132700  0.605700  0.366700  1.0  -0.2071
  C  C177  1  0.096900  0.563600  0.397200  1.0  0.1709
  C  C178  1  0.151200  0.703300  0.345300  1.0  -0.0985
  C  C179  1  0.136100  0.755200  0.347700  1.0  -0.1306
  C  C180  1  0.205400  0.893000  0.304100  1.0  0.1871
  C  C181  1  0.163400  0.852300  0.331000  1.0  -0.2213
  C  C182  1  0.178800  0.799200  0.316000  1.0  0.1419
  C  C183  1  0.237300  0.789600  0.272000  1.0  -0.187
  C  C184  1  0.277700  0.832900  0.249100  1.0  0.1687
  C  C185  1  0.231700  0.118000  0.395800  1.0  -0.0354
  C  C186  1  0.218500  0.090300  0.296500  1.0  -0.1352
  C  C187  1  0.151000  0.109600  0.181700  1.0  -0.0802
  C  C188  1  0.099900  0.156700  0.165700  1.0  0.0216
  C  C189  1  0.111500  0.185400  0.260700  1.0  -0.159
  C  C190  1  0.178700  0.165900  0.375900  1.0  -0.061
  C  C191  1  0.299500  0.099700  0.523400  1.0  0.6792
  C  C192  1  0.278500  0.040400  0.314600  1.0  0.6597
  C  C193  1  0.520700  0.121600  0.454100  1.0  0.1916
  C  C194  1  0.554000  0.166300  0.426400  1.0  -0.187
  C  C195  1  0.612500  0.159000  0.380000  1.0  0.113
  C  C196  1  0.632700  0.105700  0.366700  1.0  -0.2071
  C  C197  1  0.596900  0.063600  0.397200  1.0  0.1709
  C  C198  1  0.651200  0.203300  0.345300  1.0  -0.0985
  C  C199  1  0.636100  0.255200  0.347700  1.0  -0.1306
  C  C200  1  0.705400  0.393000  0.304100  1.0  0.1871
  C  C201  1  0.663400  0.352300  0.331000  1.0  -0.2213
  C  C202  1  0.678800  0.299200  0.316000  1.0  0.1419
  C  C203  1  0.737300  0.289600  0.272000  1.0  -0.187
  C  C204  1  0.777700  0.332900  0.249100  1.0  0.1687
  C  C205  1  0.731700  0.382000  0.895800  1.0  -0.0364
  C  C206  1  0.718500  0.409700  0.796500  1.0  -0.1351
  C  C207  1  0.651000  0.390400  0.681700  1.0  -0.0795
  C  C208  1  0.599900  0.343300  0.665700  1.0  0.0217
  C  C209  1  0.611500  0.314600  0.760700  1.0  -0.1601
  C  C210  1  0.678700  0.334100  0.875900  1.0  -0.0611
  C  C211  1  0.799500  0.400300  0.023400  1.0  0.6795
  C  C212  1  0.778500  0.459600  0.814600  1.0  0.6593
  C  C213  1  0.020700  0.378400  0.954100  1.0  0.1923
  C  C214  1  0.054000  0.333700  0.926400  1.0  -0.1874
  C  C215  1  0.112500  0.341000  0.880000  1.0  0.1127
  C  C216  1  0.132700  0.394300  0.866700  1.0  -0.2075
  C  C217  1  0.096900  0.436400  0.897200  1.0  0.1713
  C  C218  1  0.151200  0.296700  0.845300  1.0  -0.0983
  C  C219  1  0.136100  0.244800  0.847700  1.0  -0.1308
  C  C220  1  0.205400  0.107000  0.804100  1.0  0.1861
  C  C221  1  0.163400  0.147700  0.831000  1.0  -0.2199
  C  C222  1  0.178800  0.200800  0.816000  1.0  0.1425
  C  C223  1  0.237300  0.210400  0.772000  1.0  -0.1881
  C  C224  1  0.277700  0.167100  0.749100  1.0  0.1688
  C  C225  1  0.231700  0.882000  0.895800  1.0  -0.0364
  C  C226  1  0.218500  0.909700  0.796500  1.0  -0.1351
  C  C227  1  0.151000  0.890400  0.681700  1.0  -0.0795
  C  C228  1  0.099900  0.843300  0.665700  1.0  0.0217
  C  C229  1  0.111500  0.814600  0.760700  1.0  -0.1601
  C  C230  1  0.178700  0.834100  0.875900  1.0  -0.0611
  C  C231  1  0.299500  0.900300  0.023400  1.0  0.6795
  C  C232  1  0.278500  0.959600  0.814600  1.0  0.6593
  C  C233  1  0.520700  0.878400  0.954100  1.0  0.1923
  C  C234  1  0.554000  0.833700  0.926400  1.0  -0.1874
  C  C235  1  0.612500  0.841000  0.880000  1.0  0.1127
  C  C236  1  0.632700  0.894300  0.866700  1.0  -0.2075
  C  C237  1  0.596900  0.936400  0.897200  1.0  0.1713
  C  C238  1  0.651200  0.796700  0.845300  1.0  -0.0983
  C  C239  1  0.636100  0.744800  0.847700  1.0  -0.1308
  C  C240  1  0.705400  0.607000  0.804100  1.0  0.1861
  C  C241  1  0.663400  0.647700  0.831000  1.0  -0.2199
  C  C242  1  0.678800  0.700800  0.816000  1.0  0.1425
  C  C243  1  0.737300  0.710400  0.772000  1.0  -0.1881
  C  C244  1  0.777700  0.667100  0.749100  1.0  0.1688
  C  C245  1  0.268300  0.382000  0.604200  1.0  -0.0347
  C  C246  1  0.281500  0.409700  0.703500  1.0  -0.1338
  C  C247  1  0.349000  0.390400  0.818300  1.0  -0.0806
  C  C248  1  0.400100  0.343300  0.834300  1.0  0.0215
  C  C249  1  0.388500  0.314600  0.739300  1.0  -0.1603
  C  C250  1  0.321300  0.334100  0.624100  1.0  -0.0615
  C  C251  1  0.200500  0.400300  0.476600  1.0  0.6795
  C  C252  1  0.221500  0.459600  0.685400  1.0  0.6598
  C  C253  1  0.979300  0.378400  0.545900  1.0  0.1919
  C  C254  1  0.946000  0.333700  0.573600  1.0  -0.185
  C  C255  1  0.887500  0.341000  0.620000  1.0  0.1131
  C  C256  1  0.867300  0.394300  0.633300  1.0  -0.2072
  C  C257  1  0.903100  0.436400  0.602800  1.0  0.1718
  C  C258  1  0.848800  0.296700  0.654700  1.0  -0.0987
  C  C259  1  0.863900  0.244800  0.652300  1.0  -0.131
  C  C260  1  0.794600  0.107000  0.695900  1.0  0.1856
  C  C261  1  0.836600  0.147700  0.669000  1.0  -0.2217
  C  C262  1  0.821200  0.200800  0.684000  1.0  0.1419
  C  C263  1  0.762700  0.210400  0.728000  1.0  -0.1879
  C  C264  1  0.722300  0.167100  0.750900  1.0  0.1689
  C  C265  1  0.768300  0.882000  0.604200  1.0  -0.0347
  C  C266  1  0.781500  0.909700  0.703500  1.0  -0.1338
  C  C267  1  0.849000  0.890400  0.818300  1.0  -0.0806
  C  C268  1  0.900100  0.843300  0.834300  1.0  0.0215
  C  C269  1  0.888500  0.814600  0.739300  1.0  -0.1603
  C  C270  1  0.821300  0.834100  0.624100  1.0  -0.0615
  C  C271  1  0.700500  0.900300  0.476600  1.0  0.6795
  C  C272  1  0.721500  0.959600  0.685400  1.0  0.6598
  C  C273  1  0.479300  0.878400  0.545900  1.0  0.1919
  C  C274  1  0.446000  0.833700  0.573600  1.0  -0.185
  C  C275  1  0.387500  0.841000  0.620000  1.0  0.1131
  C  C276  1  0.367300  0.894300  0.633300  1.0  -0.2072
  C  C277  1  0.403100  0.936400  0.602800  1.0  0.1718
  C  C278  1  0.348800  0.796700  0.654700  1.0  -0.0987
  C  C279  1  0.363900  0.744800  0.652300  1.0  -0.131
  C  C280  1  0.294600  0.607000  0.695900  1.0  0.1856
  C  C281  1  0.336600  0.647700  0.669000  1.0  -0.2217
  C  C282  1  0.321200  0.700800  0.684000  1.0  0.1419
  C  C283  1  0.262700  0.710400  0.728000  1.0  -0.1879
  C  C284  1  0.222300  0.667100  0.750900  1.0  0.1689
  N  N285  1  0.468100  0.677800  0.455000  1.0  0.6185
  N  N286  1  0.959700  0.571000  0.059200  1.0  -0.3216
  N  N287  1  0.737200  0.884400  0.235600  1.0  -0.3463
  N  N288  1  0.968100  0.177800  0.455000  1.0  0.6185
  N  N289  1  0.459700  0.071000  0.059200  1.0  -0.3216
  N  N290  1  0.237200  0.384400  0.235600  1.0  -0.3463
  N  N291  1  0.531900  0.677800  0.045000  1.0  0.6188
  N  N292  1  0.040300  0.571000  0.440800  1.0  -0.3209
  N  N293  1  0.262800  0.884400  0.264400  1.0  -0.3467
  N  N294  1  0.031900  0.177800  0.045000  1.0  0.6188
  N  N295  1  0.540300  0.071000  0.440800  1.0  -0.3209
  N  N296  1  0.762800  0.384400  0.264400  1.0  -0.3467
  N  N297  1  0.531900  0.322200  0.545000  1.0  0.6191
  N  N298  1  0.040300  0.429000  0.940800  1.0  -0.3222
  N  N299  1  0.262800  0.115600  0.764400  1.0  -0.3463
  N  N300  1  0.031900  0.822200  0.545000  1.0  0.6191
  N  N301  1  0.540300  0.929000  0.940800  1.0  -0.3222
  N  N302  1  0.762800  0.615600  0.764400  1.0  -0.3463
  N  N303  1  0.468100  0.322200  0.955000  1.0  0.618
  N  N304  1  0.959700  0.429000  0.559200  1.0  -0.3219
  N  N305  1  0.737200  0.115600  0.735600  1.0  -0.3461
  N  N306  1  0.968100  0.822200  0.955000  1.0  0.618
  N  N307  1  0.459700  0.929000  0.559200  1.0  -0.3219
  N  N308  1  0.237200  0.615600  0.735600  1.0  -0.3461
  O  O309  1  0.236100  0.563400  0.943600  1.0  -0.5645
  O  O310  1  0.120000  0.622300  0.910500  1.0  -0.5523
  O  O311  1  0.150900  0.529800  0.083500  1.0  -0.5833
  O  O312  1  0.250800  0.512900  0.280300  1.0  -0.5862
  O  O313  1  0.469000  0.656800  0.536100  1.0  -0.4395
  O  O314  1  0.518000  0.716400  0.470300  1.0  -0.452
  O  O315  1  0.959800  0.538970  0.845600  1.0  -0.8592
  O  O316  1  0.736100  0.063400  0.943600  1.0  -0.5645
  O  O317  1  0.620000  0.122300  0.910500  1.0  -0.5523
  O  O318  1  0.650900  0.029800  0.083500  1.0  -0.5833
  O  O319  1  0.750800  0.012900  0.280300  1.0  -0.5861
  O  O320  1  0.969000  0.156800  0.536100  1.0  -0.4395
  O  O321  1  0.018000  0.216400  0.470300  1.0  -0.452
  O  O322  1  0.459800  0.038970  0.845600  1.0  -0.8592
  O  O323  1  0.763900  0.563400  0.556400  1.0  -0.5641
  O  O324  1  0.880000  0.622300  0.589500  1.0  -0.553
  O  O325  1  0.849100  0.529800  0.416500  1.0  -0.5841
  O  O326  1  0.749200  0.512900  0.219700  1.0  -0.5881
  O  O327  1  0.531000  0.656800  0.963900  1.0  -0.4402
  O  O328  1  0.482000  0.716400  0.029700  1.0  -0.4519
  O  O329  1  0.040200  0.538970  0.654400  1.0  -0.8598
  O  O330  1  0.263900  0.063400  0.556400  1.0  -0.5641
  O  O331  1  0.380000  0.122300  0.589500  1.0  -0.553
  O  O332  1  0.349100  0.029800  0.416500  1.0  -0.5841
  O  O333  1  0.249200  0.012900  0.219700  1.0  -0.5881
  O  O334  1  0.031000  0.156800  0.963900  1.0  -0.4402
  O  O335  1  0.982000  0.216400  0.029700  1.0  -0.4519
  O  O336  1  0.540200  0.038970  0.654400  1.0  -0.8598
  O  O337  1  0.763900  0.436600  0.056400  1.0  -0.5659
  O  O338  1  0.880000  0.377700  0.089500  1.0  -0.5534
  O  O339  1  0.849100  0.470200  0.916500  1.0  -0.5843
  O  O340  1  0.749200  0.487100  0.719700  1.0  -0.5873
  O  O341  1  0.531000  0.343200  0.463900  1.0  -0.4391
  O  O342  1  0.482000  0.283600  0.529700  1.0  -0.4515
  O  O343  1  0.040200  0.461030  0.154400  1.0  -0.8597
  O  O344  1  0.263900  0.936600  0.056400  1.0  -0.5659
  O  O345  1  0.380000  0.877700  0.089500  1.0  -0.5534
  O  O346  1  0.349100  0.970200  0.916500  1.0  -0.5843
  O  O347  1  0.249200  0.987100  0.719700  1.0  -0.5872
  O  O348  1  0.031000  0.843200  0.463900  1.0  -0.4391
  O  O349  1  0.982000  0.783600  0.529700  1.0  -0.4515
  O  O350  1  0.540200  0.961030  0.154400  1.0  -0.8597
  O  O351  1  0.236100  0.436600  0.443600  1.0  -0.5649
  O  O352  1  0.120000  0.377700  0.410500  1.0  -0.5527
  O  O353  1  0.150900  0.470200  0.583500  1.0  -0.5829
  O  O354  1  0.250800  0.487100  0.780300  1.0  -0.5858
  O  O355  1  0.469000  0.343200  0.036100  1.0  -0.4394
  O  O356  1  0.518000  0.283600  0.970300  1.0  -0.4516
  O  O357  1  0.959800  0.461030  0.345600  1.0  -0.8592
  O  O358  1  0.736100  0.936600  0.443600  1.0  -0.5649
  O  O359  1  0.620000  0.877700  0.410500  1.0  -0.5527
  O  O360  1  0.650900  0.970200  0.583500  1.0  -0.5829
  O  O361  1  0.750800  0.987100  0.780300  1.0  -0.5858
  O  O362  1  0.969000  0.843200  0.036100  1.0  -0.4394
  O  O363  1  0.018000  0.783600  0.970300  1.0  -0.4516
  O  O364  1  0.459800  0.961030  0.345600  1.0  -0.8592
