# generated using pymatgen
data_Zn11H18C54(NO12)4
_symmetry_space_group_name_H-M   'P 1'
_cell_length_a   20.46660000
_cell_length_b   20.46660000
_cell_length_c   20.46660000
_cell_angle_alpha   90.00000000
_cell_angle_beta   90.00000000
_cell_angle_gamma   90.00000000
_symmetry_Int_Tables_number   1
_chemical_formula_structural   Zn11H18C54(NO12)4
_chemical_formula_sum   'Zn22 H36 C108 N8 O96'
_cell_volume   8573.08451968
_cell_formula_units_Z   2
loop_
 _symmetry_equiv_pos_site_id
 _symmetry_equiv_pos_as_xyz
  1  'x, y, z'
loop_
 _atom_site_type_symbol
 _atom_site_label
 _atom_site_symmetry_multiplicity
 _atom_site_fract_x
 _atom_site_fract_y
 _atom_site_fract_z
 _atom_site_occupancy
 _atom_site_charge
  Zn  Zn1  1  0.426230  0.000000  0.000000  1.0  1.1558
  Zn  Zn2  1  0.573770  0.000000  0.000000  1.0  1.1588
  Zn  Zn3  1  0.000000  0.426230  0.000000  1.0  1.155
  Zn  Zn4  1  0.000000  0.573770  0.000000  1.0  1.1561
  Zn  Zn5  1  0.000000  0.000000  0.426230  1.0  1.1527
  Zn  Zn6  1  0.000000  0.000000  0.573770  1.0  1.1524
  Zn  Zn7  1  0.336960  0.663040  0.663040  1.0  0.9462
  Zn  Zn8  1  0.235810  0.764190  0.764190  1.0  1.0947
  Zn  Zn9  1  0.663040  0.336960  0.663040  1.0  0.944
  Zn  Zn10  1  0.764190  0.235810  0.764190  1.0  1.0945
  Zn  Zn11  1  0.663040  0.663040  0.336960  1.0  0.943
  Zn  Zn12  1  0.764190  0.764190  0.235810  1.0  1.093
  Zn  Zn13  1  0.336960  0.336960  0.336960  1.0  0.9433
  Zn  Zn14  1  0.235810  0.235810  0.235810  1.0  1.0941
  Zn  Zn15  1  0.663040  0.336960  0.336960  1.0  0.9437
  Zn  Zn16  1  0.764190  0.235810  0.235810  1.0  1.0935
  Zn  Zn17  1  0.336960  0.663040  0.336960  1.0  0.943
  Zn  Zn18  1  0.235810  0.764190  0.235810  1.0  1.0934
  Zn  Zn19  1  0.663040  0.663040  0.663040  1.0  0.9461
  Zn  Zn20  1  0.764190  0.764190  0.764190  1.0  1.0942
  Zn  Zn21  1  0.336960  0.336960  0.663040  1.0  0.9439
  Zn  Zn22  1  0.235810  0.235810  0.764190  1.0  1.0952
  H  H23  1  0.400100  0.851500  0.851500  1.0  0.1453
  H  H24  1  0.599900  0.148500  0.851500  1.0  0.1449
  H  H25  1  0.599900  0.851500  0.148500  1.0  0.1449
  H  H26  1  0.400100  0.148500  0.148500  1.0  0.1448
  H  H27  1  0.851500  0.400100  0.851500  1.0  0.1458
  H  H28  1  0.851500  0.599900  0.148500  1.0  0.1451
  H  H29  1  0.148500  0.599900  0.851500  1.0  0.1456
  H  H30  1  0.148500  0.400100  0.148500  1.0  0.1451
  H  H31  1  0.851500  0.851500  0.400100  1.0  0.145
  H  H32  1  0.148500  0.851500  0.599900  1.0  0.1454
  H  H33  1  0.851500  0.148500  0.599900  1.0  0.1452
  H  H34  1  0.148500  0.148500  0.400100  1.0  0.1444
  H  H35  1  0.851500  0.400100  0.148500  1.0  0.1455
  H  H36  1  0.148500  0.599900  0.148500  1.0  0.1449
  H  H37  1  0.851500  0.599900  0.851500  1.0  0.1456
  H  H38  1  0.148500  0.400100  0.851500  1.0  0.1455
  H  H39  1  0.400100  0.851500  0.148500  1.0  0.1451
  H  H40  1  0.599900  0.851500  0.851500  1.0  0.145
  H  H41  1  0.599900  0.148500  0.148500  1.0  0.1444
  H  H42  1  0.400100  0.148500  0.851500  1.0  0.1453
  H  H43  1  0.851500  0.851500  0.599900  1.0  0.1453
  H  H44  1  0.851500  0.148500  0.400100  1.0  0.1447
  H  H45  1  0.148500  0.851500  0.400100  1.0  0.1447
  H  H46  1  0.148500  0.148500  0.599900  1.0  0.1452
  H  H47  1  0.500000  0.732300  0.732300  1.0  0.1434
  H  H48  1  0.500000  0.267700  0.732300  1.0  0.1426
  H  H49  1  0.500000  0.732300  0.267700  1.0  0.1439
  H  H50  1  0.500000  0.267700  0.267700  1.0  0.1434
  H  H51  1  0.732300  0.500000  0.732300  1.0  0.1431
  H  H52  1  0.732300  0.500000  0.267700  1.0  0.1436
  H  H53  1  0.267700  0.500000  0.732300  1.0  0.1425
  H  H54  1  0.267700  0.500000  0.267700  1.0  0.1431
  H  H55  1  0.732300  0.732300  0.500000  1.0  0.1423
  H  H56  1  0.267700  0.732300  0.500000  1.0  0.1418
  H  H57  1  0.732300  0.267700  0.500000  1.0  0.1419
  H  H58  1  0.267700  0.267700  0.500000  1.0  0.1412
  C  C59  1  0.377300  0.761500  0.761500  1.0  0.7494
  C  C60  1  0.440700  0.835600  0.835600  1.0  0.0397
  C  C61  1  0.441800  0.787800  0.787800  1.0  -0.1138
  C  C62  1  0.622700  0.238500  0.761500  1.0  0.7497
  C  C63  1  0.559300  0.164400  0.835600  1.0  0.039
  C  C64  1  0.558200  0.212200  0.787800  1.0  -0.1138
  C  C65  1  0.622700  0.761500  0.238500  1.0  0.7496
  C  C66  1  0.559300  0.835600  0.164400  1.0  0.0387
  C  C67  1  0.558200  0.787800  0.212200  1.0  -0.1141
  C  C68  1  0.377300  0.238500  0.238500  1.0  0.7493
  C  C69  1  0.440700  0.164400  0.164400  1.0  0.0398
  C  C70  1  0.441800  0.212200  0.212200  1.0  -0.1144
  C  C71  1  0.761500  0.377300  0.761500  1.0  0.7506
  C  C72  1  0.835600  0.440700  0.835600  1.0  0.0383
  C  C73  1  0.787800  0.441800  0.787800  1.0  -0.1133
  C  C74  1  0.761500  0.622700  0.238500  1.0  0.7513
  C  C75  1  0.835600  0.559300  0.164400  1.0  0.0374
  C  C76  1  0.787800  0.558200  0.212200  1.0  -0.1133
  C  C77  1  0.238500  0.622700  0.761500  1.0  0.7511
  C  C78  1  0.164400  0.559300  0.835600  1.0  0.037
  C  C79  1  0.212200  0.558200  0.787800  1.0  -0.1134
  C  C80  1  0.238500  0.377300  0.238500  1.0  0.7504
  C  C81  1  0.164400  0.440700  0.164400  1.0  0.0383
  C  C82  1  0.212200  0.441800  0.212200  1.0  -0.1135
  C  C83  1  0.761500  0.761500  0.377300  1.0  0.7517
  C  C84  1  0.835600  0.835600  0.440700  1.0  0.0366
  C  C85  1  0.787800  0.787800  0.441800  1.0  -0.1134
  C  C86  1  0.238500  0.761500  0.622700  1.0  0.7519
  C  C87  1  0.164400  0.835600  0.559300  1.0  0.0362
  C  C88  1  0.212200  0.787800  0.558200  1.0  -0.1134
  C  C89  1  0.761500  0.238500  0.622700  1.0  0.752
  C  C90  1  0.835600  0.164400  0.559300  1.0  0.0367
  C  C91  1  0.787800  0.212200  0.558200  1.0  -0.113
  C  C92  1  0.238500  0.238500  0.377300  1.0  0.7514
  C  C93  1  0.164400  0.164400  0.440700  1.0  0.0372
  C  C94  1  0.212200  0.212200  0.441800  1.0  -0.1136
  C  C95  1  0.761500  0.377300  0.238500  1.0  0.7506
  C  C96  1  0.835600  0.440700  0.164400  1.0  0.0383
  C  C97  1  0.787800  0.441800  0.212200  1.0  -0.1135
  C  C98  1  0.238500  0.622700  0.238500  1.0  0.7511
  C  C99  1  0.164400  0.559300  0.164400  1.0  0.0374
  C  C100  1  0.212200  0.558200  0.212200  1.0  -0.1137
  C  C101  1  0.761500  0.622700  0.761500  1.0  0.7513
  C  C102  1  0.835600  0.559300  0.835600  1.0  0.0369
  C  C103  1  0.787800  0.558200  0.787800  1.0  -0.113
  C  C104  1  0.238500  0.377300  0.761500  1.0  0.7505
  C  C105  1  0.164400  0.440700  0.835600  1.0  0.0382
  C  C106  1  0.212200  0.441800  0.787800  1.0  -0.1133
  C  C107  1  0.377300  0.761500  0.238500  1.0  0.7493
  C  C108  1  0.440700  0.835600  0.164400  1.0  0.0398
  C  C109  1  0.441800  0.787800  0.212200  1.0  -0.1142
  C  C110  1  0.622700  0.761500  0.761500  1.0  0.7497
  C  C111  1  0.559300  0.835600  0.835600  1.0  0.0384
  C  C112  1  0.558200  0.787800  0.787800  1.0  -0.1137
  C  C113  1  0.622700  0.238500  0.238500  1.0  0.7496
  C  C114  1  0.559300  0.164400  0.164400  1.0  0.0389
  C  C115  1  0.558200  0.212200  0.212200  1.0  -0.1144
  C  C116  1  0.377300  0.238500  0.761500  1.0  0.7493
  C  C117  1  0.440700  0.164400  0.835600  1.0  0.0401
  C  C118  1  0.441800  0.212200  0.787800  1.0  -0.114
  C  C119  1  0.761500  0.761500  0.622700  1.0  0.752
  C  C120  1  0.835600  0.835600  0.559300  1.0  0.0364
  C  C121  1  0.787800  0.787800  0.558200  1.0  -0.1129
  C  C122  1  0.761500  0.238500  0.377300  1.0  0.7517
  C  C123  1  0.835600  0.164400  0.440700  1.0  0.0369
  C  C124  1  0.787800  0.212200  0.441800  1.0  -0.1134
  C  C125  1  0.238500  0.761500  0.377300  1.0  0.7515
  C  C126  1  0.164400  0.835600  0.440700  1.0  0.0371
  C  C127  1  0.212200  0.787800  0.441800  1.0  -0.1137
  C  C128  1  0.238500  0.238500  0.622700  1.0  0.7518
  C  C129  1  0.164400  0.164400  0.559300  1.0  0.0365
  C  C130  1  0.212200  0.212200  0.558200  1.0  -0.1137
  C  C131  1  0.500000  0.911700  0.911700  1.0  0.7464
  C  C132  1  0.500000  0.860800  0.860800  1.0  -0.1141
  C  C133  1  0.500000  0.765100  0.765100  1.0  -0.0256
  C  C134  1  0.500000  0.088300  0.911700  1.0  0.7458
  C  C135  1  0.500000  0.139200  0.860800  1.0  -0.1137
  C  C136  1  0.500000  0.234900  0.765100  1.0  -0.0266
  C  C137  1  0.500000  0.911700  0.088300  1.0  0.7461
  C  C138  1  0.500000  0.860800  0.139200  1.0  -0.1138
  C  C139  1  0.500000  0.765100  0.234900  1.0  -0.0259
  C  C140  1  0.500000  0.088300  0.088300  1.0  0.7455
  C  C141  1  0.500000  0.139200  0.139200  1.0  -0.1136
  C  C142  1  0.500000  0.234900  0.234900  1.0  -0.0276
  C  C143  1  0.911700  0.500000  0.911700  1.0  0.7458
  C  C144  1  0.860800  0.500000  0.860800  1.0  -0.1143
  C  C145  1  0.765100  0.500000  0.765100  1.0  -0.0266
  C  C146  1  0.911700  0.500000  0.088300  1.0  0.7454
  C  C147  1  0.860800  0.500000  0.139200  1.0  -0.1139
  C  C148  1  0.765100  0.500000  0.234900  1.0  -0.0275
  C  C149  1  0.088300  0.500000  0.911700  1.0  0.7463
  C  C150  1  0.139200  0.500000  0.860800  1.0  -0.1145
  C  C151  1  0.234900  0.500000  0.765100  1.0  -0.0245
  C  C152  1  0.088300  0.500000  0.088300  1.0  0.7461
  C  C153  1  0.139200  0.500000  0.139200  1.0  -0.1141
  C  C154  1  0.234900  0.500000  0.234900  1.0  -0.0255
  C  C155  1  0.911700  0.911700  0.500000  1.0  0.7452
  C  C156  1  0.860800  0.860800  0.500000  1.0  -0.1139
  C  C157  1  0.765100  0.765100  0.500000  1.0  -0.0267
  C  C158  1  0.088300  0.911700  0.500000  1.0  0.7457
  C  C159  1  0.139200  0.860800  0.500000  1.0  -0.1141
  C  C160  1  0.234900  0.765100  0.500000  1.0  -0.0243
  C  C161  1  0.911700  0.088300  0.500000  1.0  0.7445
  C  C162  1  0.860800  0.139200  0.500000  1.0  -0.1137
  C  C163  1  0.765100  0.234900  0.500000  1.0  -0.0279
  C  C164  1  0.088300  0.088300  0.500000  1.0  0.7451
  C  C165  1  0.139200  0.139200  0.500000  1.0  -0.1139
  C  C166  1  0.234900  0.234900  0.500000  1.0  -0.026
  N  N167  1  0.178200  0.821800  0.821800  1.0  0.4699
  N  N168  1  0.821800  0.178200  0.821800  1.0  0.4598
  N  N169  1  0.821800  0.821800  0.178200  1.0  0.4577
  N  N170  1  0.178200  0.178200  0.178200  1.0  0.4615
  N  N171  1  0.821800  0.178200  0.178200  1.0  0.4562
  N  N172  1  0.178200  0.821800  0.178200  1.0  0.4655
  N  N173  1  0.821800  0.821800  0.821800  1.0  0.4622
  N  N174  1  0.178200  0.178200  0.821800  1.0  0.4651
  O  O175  1  0.327500  0.782600  0.782600  1.0  -0.5384
  O  O176  1  0.385900  0.717900  0.717900  1.0  -0.6008
  O  O177  1  0.444500  0.931630  0.931630  1.0  -0.5707
  O  O178  1  0.672500  0.217400  0.782600  1.0  -0.5395
  O  O179  1  0.614100  0.282100  0.717900  1.0  -0.6021
  O  O180  1  0.555500  0.068370  0.931630  1.0  -0.5707
  O  O181  1  0.672500  0.782600  0.217400  1.0  -0.5396
  O  O182  1  0.614100  0.717900  0.282100  1.0  -0.6011
  O  O183  1  0.555500  0.931630  0.068370  1.0  -0.5705
  O  O184  1  0.327500  0.217400  0.217400  1.0  -0.5384
  O  O185  1  0.385900  0.282100  0.282100  1.0  -0.6019
  O  O186  1  0.444500  0.068370  0.068370  1.0  -0.5705
  O  O187  1  0.782600  0.327500  0.782600  1.0  -0.5411
  O  O188  1  0.717900  0.385900  0.717900  1.0  -0.6015
  O  O189  1  0.931630  0.444500  0.931630  1.0  -0.571
  O  O190  1  0.782600  0.672500  0.217400  1.0  -0.542
  O  O191  1  0.717900  0.614100  0.282100  1.0  -0.6027
  O  O192  1  0.931630  0.555500  0.068370  1.0  -0.5708
  O  O193  1  0.217400  0.672500  0.782600  1.0  -0.541
  O  O194  1  0.282100  0.614100  0.717900  1.0  -0.602
  O  O195  1  0.068370  0.555500  0.931630  1.0  -0.5705
  O  O196  1  0.217400  0.327500  0.217400  1.0  -0.5401
  O  O197  1  0.282100  0.385900  0.282100  1.0  -0.6012
  O  O198  1  0.068370  0.444500  0.068370  1.0  -0.5714
  O  O199  1  0.782600  0.782600  0.327500  1.0  -0.5396
  O  O200  1  0.717900  0.717900  0.385900  1.0  -0.6037
  O  O201  1  0.931630  0.931630  0.444500  1.0  -0.5712
  O  O202  1  0.217400  0.782600  0.672500  1.0  -0.5401
  O  O203  1  0.282100  0.717900  0.614100  1.0  -0.6032
  O  O204  1  0.068370  0.931630  0.555500  1.0  -0.5709
  O  O205  1  0.782600  0.217400  0.672500  1.0  -0.5405
  O  O206  1  0.717900  0.282100  0.614100  1.0  -0.6041
  O  O207  1  0.931630  0.068370  0.555500  1.0  -0.5715
  O  O208  1  0.217400  0.217400  0.327500  1.0  -0.5389
  O  O209  1  0.282100  0.282100  0.385900  1.0  -0.604
  O  O210  1  0.068370  0.068370  0.444500  1.0  -0.5716
  O  O211  1  0.782600  0.327500  0.217400  1.0  -0.5409
  O  O212  1  0.717900  0.385900  0.282100  1.0  -0.6021
  O  O213  1  0.931630  0.444500  0.068370  1.0  -0.571
  O  O214  1  0.217400  0.672500  0.217400  1.0  -0.5409
  O  O215  1  0.282100  0.614100  0.282100  1.0  -0.602
  O  O216  1  0.068370  0.555500  0.068370  1.0  -0.5705
  O  O217  1  0.782600  0.672500  0.782600  1.0  -0.5417
  O  O218  1  0.717900  0.614100  0.717900  1.0  -0.6023
  O  O219  1  0.931630  0.555500  0.931630  1.0  -0.5708
  O  O220  1  0.217400  0.327500  0.782600  1.0  -0.5406
  O  O221  1  0.282100  0.385900  0.717900  1.0  -0.6012
  O  O222  1  0.068370  0.444500  0.931630  1.0  -0.5713
  O  O223  1  0.327500  0.782600  0.217400  1.0  -0.5383
  O  O224  1  0.385900  0.717900  0.282100  1.0  -0.6007
  O  O225  1  0.444500  0.931630  0.068370  1.0  -0.5705
  O  O226  1  0.672500  0.782600  0.782600  1.0  -0.5396
  O  O227  1  0.614100  0.717900  0.717900  1.0  -0.6013
  O  O228  1  0.555500  0.931630  0.931630  1.0  -0.5707
  O  O229  1  0.672500  0.217400  0.217400  1.0  -0.5397
  O  O230  1  0.614100  0.282100  0.282100  1.0  -0.6025
  O  O231  1  0.555500  0.068370  0.068370  1.0  -0.5705
  O  O232  1  0.327500  0.217400  0.782600  1.0  -0.5385
  O  O233  1  0.385900  0.282100  0.717900  1.0  -0.6016
  O  O234  1  0.444500  0.068370  0.931630  1.0  -0.5707
  O  O235  1  0.782600  0.782600  0.672500  1.0  -0.5405
  O  O236  1  0.717900  0.717900  0.614100  1.0  -0.6038
  O  O237  1  0.931630  0.931630  0.555500  1.0  -0.5712
  O  O238  1  0.782600  0.217400  0.327500  1.0  -0.5395
  O  O239  1  0.717900  0.282100  0.385900  1.0  -0.6047
  O  O240  1  0.931630  0.068370  0.444500  1.0  -0.5718
  O  O241  1  0.217400  0.782600  0.327500  1.0  -0.5389
  O  O242  1  0.282100  0.717900  0.385900  1.0  -0.6031
  O  O243  1  0.068370  0.931630  0.444500  1.0  -0.571
  O  O244  1  0.217400  0.217400  0.672500  1.0  -0.54
  O  O245  1  0.282100  0.282100  0.614100  1.0  -0.6036
  O  O246  1  0.068370  0.068370  0.555500  1.0  -0.5712
  O  O247  1  0.211600  0.788400  0.866000  1.0  -0.6042
  O  O248  1  0.788400  0.211600  0.866000  1.0  -0.6051
  O  O249  1  0.788400  0.788400  0.134000  1.0  -0.6049
  O  O250  1  0.211600  0.211600  0.134000  1.0  -0.6036
  O  O251  1  0.866000  0.211600  0.788400  1.0  -0.6033
  O  O252  1  0.866000  0.788400  0.211600  1.0  -0.6029
  O  O253  1  0.134000  0.788400  0.788400  1.0  -0.6008
  O  O254  1  0.134000  0.211600  0.211600  1.0  -0.6014
  O  O255  1  0.788400  0.866000  0.211600  1.0  -0.6035
  O  O256  1  0.211600  0.866000  0.788400  1.0  -0.603
  O  O257  1  0.788400  0.134000  0.788400  1.0  -0.6031
  O  O258  1  0.211600  0.134000  0.211600  1.0  -0.6027
  O  O259  1  0.788400  0.211600  0.134000  1.0  -0.6043
  O  O260  1  0.211600  0.788400  0.134000  1.0  -0.6045
  O  O261  1  0.788400  0.788400  0.866000  1.0  -0.6053
  O  O262  1  0.211600  0.211600  0.866000  1.0  -0.6039
  O  O263  1  0.211600  0.866000  0.211600  1.0  -0.6029
  O  O264  1  0.788400  0.866000  0.788400  1.0  -0.6033
  O  O265  1  0.788400  0.134000  0.211600  1.0  -0.6042
  O  O266  1  0.211600  0.134000  0.788400  1.0  -0.6022
  O  O267  1  0.866000  0.788400  0.788400  1.0  -0.6035
  O  O268  1  0.866000  0.211600  0.211600  1.0  -0.6033
  O  O269  1  0.134000  0.788400  0.211600  1.0  -0.601
  O  O270  1  0.134000  0.211600  0.788400  1.0  -0.6007
