# generated using pymatgen
data_Zn3H26C40(N3O7)2
_symmetry_space_group_name_H-M   'P 1'
_cell_length_a   13.83800000
_cell_length_b   13.84400000
_cell_length_c   14.42000000
_cell_angle_alpha   108.31000000
_cell_angle_beta   110.43000000
_cell_angle_gamma   107.04600000
_symmetry_Int_Tables_number   1
_chemical_formula_structural   Zn3H26C40(N3O7)2
_chemical_formula_sum   'Zn6 H52 C80 N12 O28'
_cell_volume   2191.32806157
_cell_formula_units_Z   2
loop_
 _symmetry_equiv_pos_site_id
 _symmetry_equiv_pos_as_xyz
  1  'x, y, z'
loop_
 _atom_site_type_symbol
 _atom_site_label
 _atom_site_symmetry_multiplicity
 _atom_site_fract_x
 _atom_site_fract_y
 _atom_site_fract_z
 _atom_site_occupancy
 _atom_site_charge
  Zn  Zn1  1  0.447000  0.726000  0.599800  1.0  0.9874
  Zn  Zn2  1  0.500000  0.500000  0.500000  1.0  0.9765
  Zn  Zn3  1  0.553000  0.274000  0.400200  1.0  0.9879
  Zn  Zn4  1  0.155900  0.369300  0.600200  1.0  0.9762
  Zn  Zn5  1  0.844100  0.630700  0.399800  1.0  0.978
  Zn  Zn6  1  0.000000  0.500000  0.500000  1.0  0.9611
  H  H7  1  0.858300  0.004400  0.759700  1.0  0.1158
  H  H8  1  0.554600  0.616200  0.117000  1.0  0.1294
  H  H9  1  0.219400  0.592300  0.295600  1.0  0.1135
  H  H10  1  0.125400  0.656300  0.766800  1.0  0.084
  H  H11  1  0.924500  0.777000  0.704500  1.0  0.1076
  H  H12  1  0.357400  0.393000  0.229700  1.0  0.0733
  H  H13  1  0.874600  0.343700  0.233200  1.0  0.0832
  H  H14  1  0.445200  0.992500  0.872100  1.0  0.1172
  H  H15  1  0.598800  0.857000  0.057600  1.0  0.1277
  H  H16  1  0.623700  0.228400  0.697800  1.0  0.1305
  H  H17  1  0.445400  0.383800  0.883000  1.0  0.1294
  H  H18  1  0.814600  0.754700  0.917100  1.0  0.0969
  H  H19  1  0.853800  0.456400  0.903500  1.0  0.1141
  H  H20  1  0.557600  0.294300  0.953600  1.0  0.1313
  H  H21  1  0.748200  0.636100  0.564700  1.0  0.0974
  H  H22  1  0.777500  0.506700  0.009100  1.0  0.1143
  H  H23  1  0.075500  0.223000  0.295500  1.0  0.1069
  H  H24  1  0.376300  0.771600  0.302200  1.0  0.1303
  H  H25  1  0.554800  0.007500  0.127900  1.0  0.118
  H  H26  1  0.185400  0.245300  0.082900  1.0  0.0974
  H  H27  1  0.582200  0.866200  0.857300  1.0  0.1138
  H  H28  1  0.814300  0.421400  0.562000  1.0  0.0823
  H  H29  1  0.897800  0.350000  0.083000  1.0  0.1093
  H  H30  1  0.772000  0.003400  0.991300  1.0  0.1016
  H  H31  1  0.062500  0.654300  0.056900  1.0  0.1102
  H  H32  1  0.962900  0.225100  0.631300  1.0  0.1118
  H  H33  1  0.251800  0.363900  0.435300  1.0  0.0969
  H  H34  1  0.937500  0.345700  0.943100  1.0  0.1107
  H  H35  1  0.069100  0.956200  0.694600  1.0  0.1244
  H  H36  1  0.222500  0.493300  0.990900  1.0  0.1142
  H  H37  1  0.904600  0.255000  0.764400  1.0  0.132
  H  H38  1  0.669000  0.888500  0.624300  1.0  0.1106
  H  H39  1  0.331000  0.111500  0.375700  1.0  0.11
  H  H40  1  0.102200  0.650000  0.917000  1.0  0.1098
  H  H41  1  0.277300  0.475400  0.859900  1.0  0.1012
  H  H42  1  0.576800  0.444300  0.375000  1.0  0.3985
  H  H43  1  0.095400  0.745000  0.235600  1.0  0.1321
  H  H44  1  0.780600  0.407700  0.704400  1.0  0.113
  H  H45  1  0.417800  0.133800  0.142700  1.0  0.1135
  H  H46  1  0.037100  0.774900  0.368700  1.0  0.1115
  H  H47  1  0.930900  0.043800  0.305400  1.0  0.1237
  H  H48  1  0.141700  0.995600  0.240300  1.0  0.1156
  H  H49  1  0.642600  0.607000  0.770300  1.0  0.0728
  H  H50  1  0.442400  0.705700  0.046400  1.0  0.1303
  H  H51  1  0.228000  0.996600  0.008700  1.0  0.1016
  H  H52  1  0.722700  0.524600  0.140100  1.0  0.1021
  H  H53  1  0.201800  0.564700  0.626800  1.0  0.4033
  H  H54  1  0.798200  0.435300  0.373200  1.0  0.4027
  H  H55  1  0.185700  0.578600  0.438000  1.0  0.0824
  H  H56  1  0.146200  0.543600  0.096500  1.0  0.1132
  H  H57  1  0.423200  0.555700  0.625000  1.0  0.4003
  H  H58  1  0.401200  0.143000  0.942400  1.0  0.1277
  C  C59  1  0.125000  0.533000  0.365100  1.0  0.18
  C  C60  1  0.924000  0.241000  0.416600  1.0  0.6339
  C  C61  1  0.458700  0.342000  0.743900  1.0  -0.0878
  C  C62  1  0.698200  0.642000  0.754000  1.0  0.1813
  C  C63  1  0.629000  0.611000  0.307000  1.0  0.6507
  C  C64  1  0.805000  0.735000  0.845000  1.0  -0.0841
  C  C65  1  0.979000  0.302000  0.783000  1.0  -0.1352
  C  C66  1  0.994000  0.916000  0.921000  1.0  -0.079
  C  C67  1  0.041400  0.597000  0.845500  1.0  -0.1551
  C  C68  1  0.673000  0.197000  0.308000  1.0  0.6485
  C  C69  1  0.453000  0.702000  0.112200  1.0  -0.0987
  C  C70  1  0.833000  0.008000  0.886000  1.0  0.1083
  C  C71  1  0.655000  0.925000  0.121300  1.0  -0.1054
  C  C72  1  0.039000  0.932000  0.039000  1.0  0.0022
  C  C73  1  0.751000  0.973000  0.916000  1.0  -0.089
  C  C74  1  0.597500  0.256000  0.829000  1.0  0.0266
  C  C75  1  0.799000  0.568000  0.161500  1.0  0.1678
  C  C76  1  0.201000  0.432000  0.838500  1.0  0.1689
  C  C77  1  0.402500  0.744000  0.171000  1.0  0.0273
  C  C78  1  0.167000  0.992000  0.114000  1.0  0.1082
  C  C79  1  0.948000  0.613000  0.113400  1.0  0.1205
  C  C80  1  0.014000  0.285000  0.703000  1.0  0.1512
  C  C81  1  0.479700  0.691000  0.308900  1.0  -0.1124
  C  C82  1  0.944800  0.397000  0.247900  1.0  0.1795
  C  C83  1  0.770000  0.942000  0.178000  1.0  -0.0151
  C  C84  1  0.132000  0.251000  0.277000  1.0  -0.1449
  C  C85  1  0.994200  0.415000  0.952500  1.0  -0.0838
  C  C86  1  0.690000  0.906000  0.698000  1.0  0.1392
  C  C87  1  0.168000  0.445000  0.916000  1.0  -0.1314
  C  C88  1  0.958600  0.403000  0.154500  1.0  -0.1542
  C  C89  1  0.240000  0.341000  0.363000  1.0  0.1764
  C  C90  1  0.169300  0.868000  0.682200  1.0  -0.0496
  C  C91  1  0.327000  0.803000  0.692000  1.0  0.6478
  C  C92  1  0.371000  0.389000  0.693000  1.0  0.6492
  C  C93  1  0.488900  0.677000  0.411400  1.0  0.6723
  C  C94  1  0.145900  0.544000  0.278000  1.0  -0.1413
  C  C95  1  0.310000  0.094000  0.302000  1.0  0.1396
  C  C96  1  0.803000  0.977000  0.780000  1.0  -0.1376
  C  C97  1  0.523200  0.651000  0.156000  1.0  -0.0851
  C  C98  1  0.055200  0.603000  0.752100  1.0  0.179
  C  C99  1  0.006000  0.084000  0.079000  1.0  -0.0803
  C  C100  1  0.854100  0.456000  0.722000  1.0  -0.1415
  C  C101  1  0.547000  0.298000  0.887800  1.0  -0.1001
  C  C102  1  0.636000  0.894000  0.836000  1.0  0.1459
  C  C103  1  0.945500  0.520000  0.836900  1.0  0.0746
  C  C104  1  0.005800  0.585000  0.047500  1.0  -0.0831
  C  C105  1  0.195000  0.265000  0.155000  1.0  -0.0854
  C  C106  1  0.961000  0.068000  0.961000  1.0  0.0006
  C  C107  1  0.894000  0.798000  0.834000  1.0  -0.0282
  C  C108  1  0.230000  0.058000  0.822000  1.0  -0.0157
  C  C109  1  0.830700  0.132000  0.317800  1.0  -0.0487
  C  C110  1  0.868000  0.749000  0.723000  1.0  -0.146
  C  C111  1  0.587600  0.259000  0.734000  1.0  -0.0881
  C  C112  1  0.301800  0.358000  0.246000  1.0  0.1811
  C  C113  1  0.511100  0.323000  0.588600  1.0  0.6718
  C  C114  1  0.476800  0.349000  0.844000  1.0  -0.083
  C  C115  1  0.371000  0.985000  0.836000  1.0  -0.0801
  C  C116  1  0.285000  0.886000  0.738000  1.0  -0.0623
  C  C117  1  0.760000  0.659000  0.637000  1.0  0.1759
  C  C118  1  0.197000  0.023000  0.220000  1.0  -0.1359
  C  C119  1  0.052000  0.387000  0.886600  1.0  0.1235
  C  C120  1  0.364000  0.106000  0.164000  1.0  0.144
  C  C121  1  0.935600  0.493000  0.924100  1.0  -0.0781
  C  C122  1  0.412400  0.741000  0.266000  1.0  -0.0903
  C  C123  1  0.143000  0.962000  0.728000  1.0  -0.0666
  C  C124  1  0.021000  0.698000  0.217000  1.0  -0.1241
  C  C125  1  0.106000  0.202000  0.166000  1.0  -0.0314
  C  C126  1  0.520300  0.309000  0.691100  1.0  -0.1126
  C  C127  1  0.715000  0.114000  0.262000  1.0  -0.063
  C  C128  1  0.249000  0.027000  0.084000  1.0  -0.09
  C  C129  1  0.832000  0.555000  0.084000  1.0  -0.1319
  C  C130  1  0.875000  0.467000  0.634900  1.0  0.1807
  C  C131  1  0.054500  0.480000  0.163100  1.0  0.0751
  C  C132  1  0.076000  0.759000  0.583400  1.0  0.6341
  C  C133  1  0.541300  0.658000  0.256100  1.0  -0.0873
  C  C134  1  0.345000  0.075000  0.878700  1.0  -0.1075
  C  C135  1  0.629000  0.015000  0.164000  1.0  -0.082
  C  C136  1  0.857000  0.038000  0.272000  1.0  -0.0657
  C  C137  1  0.986000  0.715000  0.297000  1.0  0.1518
  C  C138  1  0.064400  0.507000  0.075900  1.0  -0.077
  N  N139  1  0.874200  0.644200  0.271000  1.0  -0.3532
  N  N140  1  0.326000  0.791000  0.123000  1.0  0.5792
  N  N141  1  0.125800  0.355800  0.729000  1.0  -0.3529
  N  N142  1  0.202000  0.153000  0.866000  1.0  0.5917
  N  N143  1  0.025400  0.461500  0.351000  1.0  -0.3318
  N  N144  1  0.672500  0.602000  0.649900  1.0  -0.3111
  N  N145  1  0.327500  0.398000  0.350100  1.0  -0.311
  N  N146  1  0.798000  0.847000  0.134000  1.0  0.5918
  N  N147  1  0.603600  0.858000  0.724000  1.0  -0.3751
  N  N148  1  0.396400  0.142000  0.276000  1.0  -0.3744
  N  N149  1  0.674000  0.209000  0.877000  1.0  0.5781
  N  N150  1  0.974600  0.538500  0.649000  1.0  -0.3289
  O  O151  1  0.728300  0.684900  0.386300  1.0  -0.5668
  O  O152  1  0.569200  0.420400  0.420700  1.0  -0.8499
  O  O153  1  0.101000  0.130000  0.831000  1.0  -0.4861
  O  O154  1  0.663000  0.186000  0.949900  1.0  -0.4907
  O  O155  1  0.467700  0.382900  0.561800  1.0  -0.5789
  O  O156  1  0.149900  0.496200  0.582800  1.0  -0.8452
  O  O157  1  0.906000  0.324800  0.444000  1.0  -0.5643
  O  O158  1  0.736100  0.190000  0.838000  1.0  -0.5538
  O  O159  1  0.555000  0.271900  0.537400  1.0  -0.595
  O  O160  1  0.337000  0.814000  0.050100  1.0  -0.49
  O  O161  1  0.445000  0.728100  0.462600  1.0  -0.595
  O  O162  1  0.271700  0.315100  0.613700  1.0  -0.5653
  O  O163  1  0.094000  0.675200  0.556000  1.0  -0.5645
  O  O164  1  0.850100  0.503800  0.417200  1.0  -0.8447
  O  O165  1  0.664700  0.257300  0.258300  1.0  -0.5375
  O  O166  1  0.430800  0.579600  0.579300  1.0  -0.8549
  O  O167  1  0.977900  0.762300  0.537000  1.0  -0.5925
  O  O168  1  0.346300  0.797900  0.613000  1.0  -0.5627
  O  O169  1  0.286000  0.244000  0.943000  1.0  -0.5396
  O  O170  1  0.022100  0.237700  0.463000  1.0  -0.5935
  O  O171  1  0.653700  0.202100  0.387000  1.0  -0.5646
  O  O172  1  0.404800  0.492000  0.743100  1.0  -0.5421
  O  O173  1  0.335300  0.742700  0.741700  1.0  -0.536
  O  O174  1  0.714000  0.756000  0.057000  1.0  -0.5393
  O  O175  1  0.899000  0.870000  0.169000  1.0  -0.4865
  O  O176  1  0.532300  0.617100  0.438200  1.0  -0.5783
  O  O177  1  0.263900  0.810000  0.162000  1.0  -0.5525
  O  O178  1  0.595200  0.508000  0.256900  1.0  -0.5423
