# generated using pymatgen
data_CdH17C17N5O4
_symmetry_space_group_name_H-M   'P 1'
_cell_length_a   12.20480000
_cell_length_b   12.20480000
_cell_length_c   16.31220000
_cell_angle_alpha   77.63990000
_cell_angle_beta   70.50990000
_cell_angle_gamma   105.54400000
_symmetry_Int_Tables_number   1
_chemical_formula_structural   CdH17C17N5O4
_chemical_formula_sum   'Cd4 H68 C68 N20 O16'
_cell_volume   2079.97684408
_cell_formula_units_Z   4
loop_
 _symmetry_equiv_pos_site_id
 _symmetry_equiv_pos_as_xyz
  1  'x, y, z'
loop_
 _atom_site_type_symbol
 _atom_site_label
 _atom_site_symmetry_multiplicity
 _atom_site_fract_x
 _atom_site_fract_y
 _atom_site_fract_z
 _atom_site_occupancy
 _atom_site_charge
  Cd  Cd1  1  0.300560  0.174340  0.368700  1.0  0.9846
  Cd  Cd2  1  0.956960  0.330740  0.868700  1.0  0.9858
  Cd  Cd3  1  0.043040  0.669260  0.131300  1.0  0.9859
  Cd  Cd4  1  0.699440  0.825660  0.631300  1.0  0.9846
  H  H5  1  0.539500  0.865500  0.818600  1.0  0.0797
  H  H6  1  0.915100  0.747300  0.980600  1.0  0.0995
  H  H7  1  0.840300  0.838500  0.159800  1.0  0.0861
  H  H8  1  0.304100  0.632300  0.123400  1.0  0.1024
  H  H9  1  0.308500  0.951900  0.779800  1.0  0.0608
  H  H10  1  0.501700  0.999900  0.659800  1.0  0.0834
  H  H11  1  0.988000  0.851000  0.624600  1.0  0.0921
  H  H12  1  0.557400  0.447800  0.048600  1.0  0.0572
  H  H13  1  0.927400  0.307900  0.369700  1.0  0.1241
  H  H14  1  0.342900  0.198000  0.710900  1.0  0.0743
  H  H15  1  0.442600  0.552200  0.951400  1.0  0.0574
  H  H16  1  0.774300  0.729600  0.430500  1.0  0.107
  H  H17  1  0.024400  0.387400  0.124600  1.0  0.0897
  H  H18  1  0.691500  0.048100  0.220200  1.0  0.0619
  H  H19  1  0.768300  0.911700  0.279800  1.0  0.0593
  H  H20  1  0.591100  0.946200  0.210900  1.0  0.072
  H  H21  1  0.070800  0.106300  0.578300  1.0  0.1035
  H  H22  1  0.628000  0.628100  0.822500  1.0  0.0802
  H  H23  1  0.012800  0.057900  0.136100  1.0  0.1233
  H  H24  1  0.950600  0.450500  0.677500  1.0  0.0793
  H  H25  1  0.734000  0.851600  0.129400  1.0  0.0823
  H  H26  1  0.072600  0.692100  0.630300  1.0  0.1243
  H  H27  1  0.772100  0.104300  0.480600  1.0  0.0996
  H  H28  1  0.563200  0.487900  0.852100  1.0  0.0823
  H  H29  1  0.306000  0.851100  0.636100  1.0  0.1239
  H  H30  1  0.339900  0.795200  0.930500  1.0  0.1072
  H  H31  1  0.657100  0.802000  0.289100  1.0  0.0734
  H  H32  1  0.660100  0.204800  0.069500  1.0  0.1075
  H  H33  1  0.159700  0.161500  0.840200  1.0  0.0859
  H  H34  1  0.184600  0.649100  0.921700  1.0  0.1017
  H  H35  1  0.084900  0.252700  0.019400  1.0  0.0991
  H  H36  1  0.266000  0.148400  0.870600  1.0  0.0808
  H  H37  1  0.694000  0.148900  0.363900  1.0  0.1246
  H  H38  1  0.160000  0.584700  0.352100  1.0  0.0798
  H  H39  1  0.408900  0.053800  0.789100  1.0  0.0711
  H  H40  1  0.907500  0.477100  0.467800  1.0  0.0671
  H  H41  1  0.975600  0.612600  0.875400  1.0  0.0897
  H  H42  1  0.822400  0.702900  0.869700  1.0  0.1241
  H  H43  1  0.227900  0.895700  0.519400  1.0  0.0989
  H  H44  1  0.184100  0.358100  0.681400  1.0  0.0808
  H  H45  1  0.012000  0.149000  0.375400  1.0  0.0911
  H  H46  1  0.840000  0.415300  0.647900  1.0  0.0794
  H  H47  1  0.460500  0.134500  0.181400  1.0  0.0798
  H  H48  1  0.815900  0.641900  0.318600  1.0  0.0805
  H  H49  1  0.231700  0.088300  0.720200  1.0  0.0596
  H  H50  1  0.695900  0.367700  0.876600  1.0  0.0992
  H  H51  1  0.996400  0.606000  0.451400  1.0  0.061
  H  H52  1  0.987200  0.942100  0.863900  1.0  0.1234
  H  H53  1  0.929200  0.893700  0.421700  1.0  0.103
  H  H54  1  0.049400  0.549500  0.322500  1.0  0.079
  H  H55  1  0.744300  0.572500  0.623400  1.0  0.0973
  H  H56  1  0.212700  0.952500  0.988200  1.0  0.1004
  H  H57  1  0.481000  0.863400  0.370600  1.0  0.0822
  H  H58  1  0.177600  0.297100  0.130300  1.0  0.1243
  H  H59  1  0.372000  0.371900  0.177500  1.0  0.0808
  H  H60  1  0.519000  0.136600  0.629400  1.0  0.0811
  H  H61  1  0.003600  0.394000  0.548600  1.0  0.0582
  H  H62  1  0.225700  0.270400  0.569500  1.0  0.1068
  H  H63  1  0.436800  0.512100  0.147900  1.0  0.0818
  H  H64  1  0.498300  0.000100  0.340200  1.0  0.0831
  H  H65  1  0.444900  0.375300  0.032200  1.0  0.069
  H  H66  1  0.787300  0.047500  0.011800  1.0  0.1002
  H  H67  1  0.815400  0.350900  0.078300  1.0  0.1016
  H  H68  1  0.555100  0.624700  0.967800  1.0  0.0694
  H  H69  1  0.559300  0.799100  0.488200  1.0  0.1022
  H  H70  1  0.440700  0.200900  0.511800  1.0  0.1021
  H  H71  1  0.255700  0.427500  0.376600  1.0  0.0986
  H  H72  1  0.092500  0.522900  0.532200  1.0  0.0697
  C  C73  1  0.183900  0.375400  0.128500  1.0  -0.1708
  C  C74  1  0.051300  0.226000  0.374900  1.0  0.0299
  C  C75  1  0.089100  0.829200  0.250900  1.0  0.069
  C  C76  1  0.533600  0.399800  0.319000  1.0  0.6568
  C  C77  1  0.985400  0.813500  0.967300  1.0  0.0171
  C  C78  1  0.880300  0.704000  0.317900  1.0  0.116
  C  C79  1  0.704300  0.379100  0.188400  1.0  -0.1002
  C  C80  1  0.854300  0.758000  0.383500  1.0  -0.1394
  C  C81  1  0.184600  0.376900  0.375300  1.0  0.1397
  C  C82  1  0.267000  0.673900  0.879100  1.0  -0.0253
  C  C83  1  0.991600  0.523700  0.457900  1.0  -0.1434
  C  C84  1  0.419900  0.660000  0.750900  1.0  0.0673
  C  C85  1  0.603800  0.881100  0.471500  1.0  0.139
  C  C86  1  0.580100  0.340000  0.249100  1.0  0.0669
  C  C87  1  0.295700  0.620900  0.811600  1.0  -0.1021
  C  C88  1  0.677000  0.072900  0.402900  1.0  -0.1501
  C  C89  1  0.635700  0.964100  0.248600  1.0  -0.1453
  C  C90  1  0.280800  0.952700  0.532700  1.0  0.0168
  C  C91  1  0.358500  0.762200  0.883500  1.0  -0.1418
  C  C92  1  0.747800  0.440100  0.875300  1.0  0.1402
  C  C93  1  0.008400  0.476300  0.542100  1.0  -0.142
  C  C94  1  0.078200  0.524800  0.369600  1.0  -0.0227
  C  C95  1  0.948700  0.774000  0.625100  1.0  0.0306
  C  C96  1  0.210200  0.113100  0.844700  1.0  -0.0372
  C  C97  1  0.719200  0.047300  0.467300  1.0  0.0179
  C  C98  1  0.835000  0.998600  0.692800  1.0  0.6613
  C  C99  1  0.481600  0.449500  0.042100  1.0  -0.1461
  C  C100  1  0.191400  0.527800  0.807200  1.0  0.6602
  C  C101  1  0.733000  0.326100  0.120900  1.0  -0.0273
  C  C102  1  0.518400  0.550500  0.957900  1.0  -0.1455
  C  C103  1  0.323000  0.927100  0.597100  1.0  -0.1496
  C  C104  1  0.975800  0.079900  0.097100  1.0  -0.1514
  C  C105  1  0.100900  0.426200  0.125100  1.0  0.0312
  C  C106  1  0.218800  0.852600  0.181000  1.0  0.6545
  C  C107  1  0.457800  0.054900  0.655300  1.0  -0.0301
  C  C108  1  0.287300  0.115700  0.748600  1.0  -0.1446
  C  C109  1  0.119700  0.296000  0.682100  1.0  0.1155
  C  C110  1  0.165000  0.001400  0.307200  1.0  0.6618
  C  C111  1  0.478100  0.801800  0.817900  1.0  0.115
  C  C112  1  0.910900  0.170800  0.749100  1.0  0.0683
  C  C113  1  0.947000  0.853900  0.379100  1.0  -0.0214
  C  C114  1  0.921800  0.475200  0.630400  1.0  -0.0235
  C  C115  1  0.145700  0.242000  0.616500  1.0  -0.1394
  C  C116  1  0.899100  0.573800  0.874900  1.0  0.0308
  C  C117  1  0.852600  0.075300  0.028500  1.0  0.1409
  C  C118  1  0.521900  0.198200  0.182100  1.0  0.1149
  C  C119  1  0.542200  0.945100  0.344700  1.0  -0.0311
  C  C120  1  0.396200  0.118900  0.528500  1.0  0.1386
  C  C121  1  0.067500  0.892700  0.311600  1.0  -0.1065
  C  C122  1  0.996100  0.687600  0.628500  1.0  -0.1703
  C  C123  1  0.014600  0.186500  0.032700  1.0  0.0159
  C  C124  1  0.053000  0.146100  0.620900  1.0  -0.0211
  C  C125  1  0.605600  0.552200  0.869600  1.0  -0.0217
  C  C126  1  0.252200  0.559900  0.124700  1.0  0.1386
  C  C127  1  0.712700  0.884300  0.251400  1.0  -0.1443
  C  C128  1  0.932500  0.107300  0.688400  1.0  -0.1075
  C  C129  1  0.815400  0.623100  0.624700  1.0  0.1405
  C  C130  1  0.466400  0.600200  0.681000  1.0  0.6555
  C  C131  1  0.816100  0.624600  0.871500  1.0  -0.1713
  C  C132  1  0.808600  0.472200  0.192800  1.0  0.66
  C  C133  1  0.394400  0.447800  0.130400  1.0  -0.0234
  C  C134  1  0.147400  0.924700  0.971500  1.0  0.1393
  C  C135  1  0.641500  0.237800  0.116500  1.0  -0.1418
  C  C136  1  0.781200  0.147400  0.819000  1.0  0.6545
  C  C137  1  0.003900  0.312400  0.371500  1.0  -0.1705
  C  C138  1  0.789800  0.886900  0.155300  1.0  -0.0387
  C  C139  1  0.024200  0.920100  0.902900  1.0  -0.1535
  C  C140  1  0.364300  0.035900  0.751400  1.0  -0.1473
  N  N141  1  0.508500  0.751600  0.753300  1.0  -0.3579
  N  N142  1  0.062200  0.815000  0.010400  1.0  -0.4016
  N  N143  1  0.395800  0.034800  0.594000  1.0  0.0396
  N  N144  1  0.908900  0.591900  0.628800  1.0  0.0552
  N  N145  1  0.604200  0.965200  0.406000  1.0  0.0398
  N  N146  1  0.720700  0.537700  0.871200  1.0  0.0552
  N  N147  1  0.857300  0.457700  0.877400  1.0  -0.3981
  N  N148  1  0.164900  0.265300  0.377400  1.0  -0.3982
  N  N149  1  0.004900  0.261800  0.746700  1.0  -0.3605
  N  N150  1  0.091100  0.408100  0.371200  1.0  0.0553
  N  N151  1  0.279300  0.462300  0.128800  1.0  0.0553
  N  N152  1  0.674600  0.927400  0.510400  1.0  -0.398
  N  N153  1  0.142700  0.542300  0.122600  1.0  -0.3981
  N  N154  1  0.871200  0.010200  0.094000  1.0  0.0403
  N  N155  1  0.491500  0.248400  0.246700  1.0  -0.3601
  N  N156  1  0.995100  0.738200  0.253300  1.0  -0.3608
  N  N157  1  0.325400  0.072600  0.489600  1.0  -0.3988
  N  N158  1  0.937800  0.185000  0.989600  1.0  -0.4015
  N  N159  1  0.128800  0.989800  0.906000  1.0  0.0405
  N  N160  1  0.835100  0.734700  0.622600  1.0  -0.398
  O  O161  1  0.794000  0.903300  0.757700  1.0  -0.5924
  O  O162  1  0.808300  0.009000  0.626700  1.0  -0.5971
  O  O163  1  0.395700  0.502500  0.691600  1.0  -0.5267
  O  O164  1  0.573000  0.654700  0.618300  1.0  -0.6096
  O  O165  1  0.864300  0.565000  0.126700  1.0  -0.5983
  O  O166  1  0.604300  0.497500  0.308400  1.0  -0.5253
  O  O167  1  0.839000  0.448300  0.257700  1.0  -0.5933
  O  O168  1  0.427000  0.345300  0.381700  1.0  -0.6107
  O  O169  1  0.161000  0.551700  0.742300  1.0  -0.5939
  O  O170  1  0.227000  0.808700  0.118300  1.0  -0.6093
  O  O171  1  0.305900  0.912700  0.191600  1.0  -0.5282
  O  O172  1  0.206000  0.096700  0.242300  1.0  -0.5926
  O  O173  1  0.773000  0.191300  0.881700  1.0  -0.6091
  O  O174  1  0.135700  0.435000  0.873300  1.0  -0.5977
  O  O175  1  0.694100  0.087300  0.808400  1.0  -0.5277
  O  O176  1  0.191700  0.991000  0.373300  1.0  -0.5972
