# generated using pymatgen
data_NiH14C22N3O4
_symmetry_space_group_name_H-M   'P 1'
_cell_length_a   17.24100000
_cell_length_b   15.95000000
_cell_length_c   16.74000000
_cell_angle_alpha   90.00000000
_cell_angle_beta   108.38600000
_cell_angle_gamma   90.00000000
_symmetry_Int_Tables_number   1
_chemical_formula_structural   NiH14C22N3O4
_chemical_formula_sum   'Ni8 H112 C176 N24 O32'
_cell_volume   4368.40953903
_cell_formula_units_Z   8
loop_
 _symmetry_equiv_pos_site_id
 _symmetry_equiv_pos_as_xyz
  1  'x, y, z'
loop_
 _atom_site_type_symbol
 _atom_site_label
 _atom_site_symmetry_multiplicity
 _atom_site_fract_x
 _atom_site_fract_y
 _atom_site_fract_z
 _atom_site_occupancy
 _atom_site_charge
  Ni  Ni1  1  0.247600  0.313150  0.148500  1.0  0.7249
  Ni  Ni2  1  0.747600  0.813150  0.148500  1.0  0.7249
  Ni  Ni3  1  0.752400  0.313150  0.351500  1.0  0.7248
  Ni  Ni4  1  0.252400  0.813150  0.351500  1.0  0.7248
  Ni  Ni5  1  0.752400  0.686850  0.851500  1.0  0.7306
  Ni  Ni6  1  0.252400  0.186850  0.851500  1.0  0.7333
  Ni  Ni7  1  0.247600  0.686850  0.648500  1.0  0.7309
  Ni  Ni8  1  0.747600  0.186850  0.648500  1.0  0.7337
  H  H9  1  0.529800  0.239100  0.415900  1.0  0.1127
  H  H10  1  0.532800  0.387500  0.609800  1.0  0.1164
  H  H11  1  0.345400  0.396300  0.395700  1.0  0.1129
  H  H12  1  0.289400  0.478600  0.449100  1.0  0.1154
  H  H13  1  0.230800  0.583000  0.499700  1.0  0.0767
  H  H14  1  0.415700  0.597500  0.697700  1.0  0.0781
  H  H15  1  0.480400  0.495000  0.651300  1.0  0.1162
  H  H16  1  0.236700  0.518100  0.167100  1.0  0.1148
  H  H17  1  0.183400  0.582700  0.271800  1.0  0.1473
  H  H18  1  0.123700  0.344600  0.248600  1.0  0.1051
  H  H19  1  0.121100  0.361200  0.392600  1.0  0.1221
  H  H20  1  0.057200  0.376900  0.493700  1.0  0.1159
  H  H21  1  0.992700  0.605300  0.413000  1.0  0.1174
  H  H22  1  0.057000  0.591400  0.314100  1.0  0.1138
  H  H23  1  0.029800  0.739100  0.415900  1.0  0.1127
  H  H24  1  0.032800  0.887500  0.609800  1.0  0.1164
  H  H25  1  0.845400  0.896300  0.395700  1.0  0.1129
  H  H26  1  0.789400  0.978600  0.449100  1.0  0.1154
  H  H27  1  0.730800  0.083000  0.499700  1.0  0.0767
  H  H28  1  0.915700  0.097500  0.697700  1.0  0.0781
  H  H29  1  0.980400  0.995000  0.651300  1.0  0.1162
  H  H30  1  0.736700  0.018100  0.167100  1.0  0.1148
  H  H31  1  0.683400  0.082700  0.271800  1.0  0.1473
  H  H32  1  0.623700  0.844600  0.248600  1.0  0.1051
  H  H33  1  0.621100  0.861200  0.392600  1.0  0.1221
  H  H34  1  0.557200  0.876900  0.493700  1.0  0.1159
  H  H35  1  0.492700  0.105300  0.413000  1.0  0.1174
  H  H36  1  0.557000  0.091400  0.314100  1.0  0.1138
  H  H37  1  0.470200  0.239100  0.084100  1.0  0.1132
  H  H38  1  0.467200  0.387500  0.890200  1.0  0.1163
  H  H39  1  0.654600  0.396300  0.104300  1.0  0.1124
  H  H40  1  0.710600  0.478600  0.050900  1.0  0.1159
  H  H41  1  0.769200  0.583000  0.000300  1.0  0.0765
  H  H42  1  0.584300  0.597500  0.802300  1.0  0.0781
  H  H43  1  0.519600  0.495000  0.848700  1.0  0.1164
  H  H44  1  0.763300  0.518100  0.332900  1.0  0.1153
  H  H45  1  0.816600  0.582700  0.228200  1.0  0.1475
  H  H46  1  0.876300  0.344600  0.251400  1.0  0.1044
  H  H47  1  0.878900  0.361200  0.107400  1.0  0.1218
  H  H48  1  0.942800  0.376900  0.006300  1.0  0.1151
  H  H49  1  0.007300  0.605300  0.087000  1.0  0.1174
  H  H50  1  0.943000  0.591400  0.185900  1.0  0.1138
  H  H51  1  0.970200  0.739100  0.084100  1.0  0.1132
  H  H52  1  0.967200  0.887500  0.890200  1.0  0.1163
  H  H53  1  0.154600  0.896300  0.104300  1.0  0.1124
  H  H54  1  0.210600  0.978600  0.050900  1.0  0.1159
  H  H55  1  0.269200  0.083000  0.000300  1.0  0.0765
  H  H56  1  0.084300  0.097500  0.802300  1.0  0.0781
  H  H57  1  0.019600  0.995000  0.848700  1.0  0.1164
  H  H58  1  0.263300  0.018100  0.332900  1.0  0.1153
  H  H59  1  0.316600  0.082700  0.228200  1.0  0.1475
  H  H60  1  0.376300  0.844600  0.251400  1.0  0.1044
  H  H61  1  0.378900  0.861200  0.107400  1.0  0.1218
  H  H62  1  0.442800  0.876900  0.006300  1.0  0.1151
  H  H63  1  0.507300  0.105300  0.087000  1.0  0.1175
  H  H64  1  0.443000  0.091400  0.185900  1.0  0.1138
  H  H65  1  0.470200  0.760900  0.584100  1.0  0.1127
  H  H66  1  0.467200  0.612500  0.390200  1.0  0.1162
  H  H67  1  0.654600  0.603700  0.604300  1.0  0.1124
  H  H68  1  0.710600  0.521400  0.550900  1.0  0.1158
  H  H69  1  0.769200  0.417000  0.500300  1.0  0.0767
  H  H70  1  0.584300  0.402500  0.302300  1.0  0.0782
  H  H71  1  0.519600  0.505000  0.348700  1.0  0.1167
  H  H72  1  0.763300  0.481900  0.832900  1.0  0.1157
  H  H73  1  0.816600  0.417300  0.728200  1.0  0.1473
  H  H74  1  0.876300  0.655400  0.751400  1.0  0.1039
  H  H75  1  0.878900  0.638800  0.607400  1.0  0.1227
  H  H76  1  0.942800  0.623100  0.506300  1.0  0.1155
  H  H77  1  0.007300  0.394700  0.587000  1.0  0.1175
  H  H78  1  0.943000  0.408600  0.685900  1.0  0.1134
  H  H79  1  0.970200  0.260900  0.584100  1.0  0.1127
  H  H80  1  0.967200  0.112500  0.390200  1.0  0.1162
  H  H81  1  0.154600  0.103700  0.604300  1.0  0.1124
  H  H82  1  0.210600  0.021400  0.550900  1.0  0.1158
  H  H83  1  0.269200  0.917000  0.500300  1.0  0.0767
  H  H84  1  0.084300  0.902500  0.302300  1.0  0.0782
  H  H85  1  0.019600  0.005000  0.348700  1.0  0.1167
  H  H86  1  0.263300  0.981900  0.832900  1.0  0.1157
  H  H87  1  0.316600  0.917300  0.728200  1.0  0.1473
  H  H88  1  0.376300  0.155400  0.751400  1.0  0.1039
  H  H89  1  0.378900  0.138800  0.607400  1.0  0.1227
  H  H90  1  0.442800  0.123100  0.506300  1.0  0.1155
  H  H91  1  0.507300  0.894700  0.587000  1.0  0.1176
  H  H92  1  0.443000  0.908600  0.685900  1.0  0.1134
  H  H93  1  0.529800  0.760900  0.915900  1.0  0.1126
  H  H94  1  0.532800  0.612500  0.109800  1.0  0.1162
  H  H95  1  0.345400  0.603700  0.895700  1.0  0.113
  H  H96  1  0.289400  0.521400  0.949100  1.0  0.1159
  H  H97  1  0.230800  0.417000  0.999700  1.0  0.0766
  H  H98  1  0.415700  0.402500  0.197700  1.0  0.0783
  H  H99  1  0.480400  0.505000  0.151300  1.0  0.1163
  H  H100  1  0.236700  0.481900  0.667100  1.0  0.1151
  H  H101  1  0.183400  0.417300  0.771800  1.0  0.1474
  H  H102  1  0.123700  0.655400  0.748600  1.0  0.1047
  H  H103  1  0.121100  0.638800  0.892600  1.0  0.1223
  H  H104  1  0.057200  0.623100  0.993700  1.0  0.1161
  H  H105  1  0.992700  0.394700  0.913000  1.0  0.1174
  H  H106  1  0.057000  0.408600  0.814100  1.0  0.1128
  H  H107  1  0.029800  0.260900  0.915900  1.0  0.1126
  H  H108  1  0.032800  0.112500  0.109800  1.0  0.1162
  H  H109  1  0.845400  0.103700  0.895700  1.0  0.113
  H  H110  1  0.789400  0.021400  0.949100  1.0  0.1159
  H  H111  1  0.730800  0.917000  0.999700  1.0  0.0766
  H  H112  1  0.915700  0.902500  0.197700  1.0  0.0783
  H  H113  1  0.980400  0.005000  0.151300  1.0  0.1163
  H  H114  1  0.736700  0.981900  0.667100  1.0  0.1151
  H  H115  1  0.683400  0.917300  0.771800  1.0  0.1474
  H  H116  1  0.623700  0.155400  0.748600  1.0  0.1047
  H  H117  1  0.621100  0.138800  0.892600  1.0  0.1223
  H  H118  1  0.557200  0.123100  0.993700  1.0  0.1161
  H  H119  1  0.492700  0.894700  0.913000  1.0  0.1174
  H  H120  1  0.557000  0.908600  0.814100  1.0  0.1128
  C  C121  1  0.387100  0.279800  0.305400  1.0  0.6978
  C  C122  1  0.430300  0.311500  0.392700  1.0  -0.1775
  C  C123  1  0.504800  0.279500  0.439400  1.0  -0.0551
  C  C124  1  0.543400  0.306500  0.521100  1.0  -0.1564
  C  C125  1  0.507100  0.369200  0.555000  1.0  -0.0457
  C  C126  1  0.433000  0.404800  0.508400  1.0  0.0271
  C  C127  1  0.395500  0.374000  0.427400  1.0  -0.0812
  C  C128  1  0.621900  0.264400  0.571100  1.0  0.6563
  C  C129  1  0.393900  0.473300  0.543000  1.0  0.1084
  C  C130  1  0.317900  0.502200  0.500900  1.0  -0.22
  C  C131  1  0.282200  0.564800  0.532600  1.0  0.1849
  C  C132  1  0.388700  0.573000  0.645900  1.0  0.1729
  C  C133  1  0.428400  0.511300  0.618100  1.0  -0.2172
  C  C134  1  0.206600  0.490600  0.196500  1.0  0.0485
  C  C135  1  0.177100  0.527100  0.254200  1.0  -0.1502
  C  C136  1  0.144900  0.396400  0.240400  1.0  0.1816
  C  C137  1  0.096500  0.474700  0.343800  1.0  0.1601
  C  C138  1  0.095700  0.411800  0.396800  1.0  -0.1402
  C  C139  1  0.057300  0.421500  0.458000  1.0  -0.1169
  C  C140  1  0.020200  0.494200  0.467000  1.0  0.0466
  C  C141  1  0.019900  0.555500  0.410600  1.0  -0.1191
  C  C142  1  0.057800  0.547200  0.350500  1.0  -0.179
  C  C143  1  0.887100  0.779800  0.305400  1.0  0.6978
  C  C144  1  0.930300  0.811500  0.392700  1.0  -0.1775
  C  C145  1  0.004800  0.779500  0.439400  1.0  -0.0551
  C  C146  1  0.043400  0.806500  0.521100  1.0  -0.1564
  C  C147  1  0.007100  0.869200  0.555000  1.0  -0.0457
  C  C148  1  0.933000  0.904800  0.508400  1.0  0.0271
  C  C149  1  0.895500  0.874000  0.427400  1.0  -0.0812
  C  C150  1  0.121900  0.764400  0.571100  1.0  0.6563
  C  C151  1  0.893900  0.973300  0.543000  1.0  0.1084
  C  C152  1  0.817900  0.002200  0.500900  1.0  -0.22
  C  C153  1  0.782200  0.064800  0.532600  1.0  0.1849
  C  C154  1  0.888700  0.073000  0.645900  1.0  0.1729
  C  C155  1  0.928400  0.011300  0.618100  1.0  -0.2172
  C  C156  1  0.706600  0.990600  0.196500  1.0  0.0485
  C  C157  1  0.677100  0.027100  0.254200  1.0  -0.1502
  C  C158  1  0.644900  0.896400  0.240400  1.0  0.1816
  C  C159  1  0.596500  0.974700  0.343800  1.0  0.1601
  C  C160  1  0.595700  0.911800  0.396800  1.0  -0.1402
  C  C161  1  0.557300  0.921500  0.458000  1.0  -0.1169
  C  C162  1  0.520200  0.994200  0.467000  1.0  0.0466
  C  C163  1  0.519900  0.055500  0.410600  1.0  -0.1191
  C  C164  1  0.557800  0.047200  0.350500  1.0  -0.179
  C  C165  1  0.612900  0.279800  0.194600  1.0  0.6975
  C  C166  1  0.569700  0.311500  0.107300  1.0  -0.1771
  C  C167  1  0.495200  0.279500  0.060600  1.0  -0.0552
  C  C168  1  0.456600  0.306500  0.978900  1.0  -0.1573
  C  C169  1  0.492900  0.369200  0.945000  1.0  -0.046
  C  C170  1  0.567000  0.404800  0.991600  1.0  0.0298
  C  C171  1  0.604500  0.374000  0.072600  1.0  -0.0795
  C  C172  1  0.378100  0.264400  0.928900  1.0  0.6557
  C  C173  1  0.606100  0.473300  0.957000  1.0  0.1082
  C  C174  1  0.682100  0.502200  0.999100  1.0  -0.219
  C  C175  1  0.717800  0.564800  0.967400  1.0  0.1851
  C  C176  1  0.611300  0.573000  0.854100  1.0  0.1725
  C  C177  1  0.571600  0.511300  0.881900  1.0  -0.2175
  C  C178  1  0.793400  0.490600  0.303500  1.0  0.0493
  C  C179  1  0.822900  0.527100  0.245800  1.0  -0.1498
  C  C180  1  0.855100  0.396400  0.259600  1.0  0.1815
  C  C181  1  0.903500  0.474700  0.156200  1.0  0.1593
  C  C182  1  0.904300  0.411800  0.103200  1.0  -0.1408
  C  C183  1  0.942700  0.421500  0.042000  1.0  -0.1164
  C  C184  1  0.979800  0.494200  0.033000  1.0  0.047
  C  C185  1  0.980100  0.555500  0.089400  1.0  -0.1198
  C  C186  1  0.942200  0.547200  0.149500  1.0  -0.1789
  C  C187  1  0.112900  0.779800  0.194600  1.0  0.6975
  C  C188  1  0.069700  0.811500  0.107300  1.0  -0.1771
  C  C189  1  0.995200  0.779500  0.060600  1.0  -0.0552
  C  C190  1  0.956600  0.806500  0.978900  1.0  -0.1573
  C  C191  1  0.992900  0.869200  0.945000  1.0  -0.046
  C  C192  1  0.067000  0.904800  0.991600  1.0  0.0298
  C  C193  1  0.104500  0.874000  0.072600  1.0  -0.0795
  C  C194  1  0.878100  0.764400  0.928900  1.0  0.6557
  C  C195  1  0.106100  0.973300  0.957000  1.0  0.1082
  C  C196  1  0.182100  0.002200  0.999100  1.0  -0.219
  C  C197  1  0.217800  0.064800  0.967400  1.0  0.1851
  C  C198  1  0.111300  0.073000  0.854100  1.0  0.1725
  C  C199  1  0.071600  0.011300  0.881900  1.0  -0.2175
  C  C200  1  0.293400  0.990600  0.303500  1.0  0.0493
  C  C201  1  0.322900  0.027100  0.245800  1.0  -0.1498
  C  C202  1  0.355100  0.896400  0.259600  1.0  0.1815
  C  C203  1  0.403500  0.974700  0.156200  1.0  0.1593
  C  C204  1  0.404300  0.911800  0.103200  1.0  -0.1408
  C  C205  1  0.442700  0.921500  0.042000  1.0  -0.1164
  C  C206  1  0.479800  0.994200  0.033000  1.0  0.047
  C  C207  1  0.480100  0.055500  0.089400  1.0  -0.1198
  C  C208  1  0.442200  0.047200  0.149500  1.0  -0.1789
  C  C209  1  0.612900  0.720200  0.694600  1.0  0.6967
  C  C210  1  0.569700  0.688500  0.607300  1.0  -0.1769
  C  C211  1  0.495200  0.720500  0.560600  1.0  -0.0552
  C  C212  1  0.456600  0.693500  0.478900  1.0  -0.1564
  C  C213  1  0.492900  0.630800  0.445000  1.0  -0.0463
  C  C214  1  0.567000  0.595200  0.491600  1.0  0.0297
  C  C215  1  0.604500  0.626000  0.572600  1.0  -0.0797
  C  C216  1  0.378100  0.735600  0.428900  1.0  0.6552
  C  C217  1  0.606100  0.526700  0.457000  1.0  0.109
  C  C218  1  0.682100  0.497800  0.499100  1.0  -0.2188
  C  C219  1  0.717800  0.435200  0.467400  1.0  0.185
  C  C220  1  0.611300  0.427000  0.354100  1.0  0.172
  C  C221  1  0.571600  0.488700  0.381900  1.0  -0.2174
  C  C222  1  0.793400  0.509400  0.803500  1.0  0.05
  C  C223  1  0.822900  0.472900  0.745800  1.0  -0.1505
  C  C224  1  0.855100  0.603600  0.759600  1.0  0.181
  C  C225  1  0.903500  0.525300  0.656200  1.0  0.1595
  C  C226  1  0.904300  0.588200  0.603200  1.0  -0.1415
  C  C227  1  0.942700  0.578500  0.542000  1.0  -0.1157
  C  C228  1  0.979800  0.505800  0.533000  1.0  0.0469
  C  C229  1  0.980100  0.444500  0.589400  1.0  -0.1154
  C  C230  1  0.942200  0.452800  0.649500  1.0  -0.1793
  C  C231  1  0.112900  0.220200  0.694600  1.0  0.6967
  C  C232  1  0.069700  0.188500  0.607300  1.0  -0.1769
  C  C233  1  0.995200  0.220500  0.560600  1.0  -0.0552
  C  C234  1  0.956600  0.193500  0.478900  1.0  -0.1564
  C  C235  1  0.992900  0.130800  0.445000  1.0  -0.0463
  C  C236  1  0.067000  0.095200  0.491600  1.0  0.0297
  C  C237  1  0.104500  0.126000  0.572600  1.0  -0.0797
  C  C238  1  0.878100  0.235600  0.428900  1.0  0.6552
  C  C239  1  0.106100  0.026700  0.457000  1.0  0.109
  C  C240  1  0.182100  0.997800  0.499100  1.0  -0.2188
  C  C241  1  0.217800  0.935200  0.467400  1.0  0.185
  C  C242  1  0.111300  0.927000  0.354100  1.0  0.172
  C  C243  1  0.071600  0.988700  0.381900  1.0  -0.2174
  C  C244  1  0.293400  0.009400  0.803500  1.0  0.05
  C  C245  1  0.322900  0.972900  0.745800  1.0  -0.1505
  C  C246  1  0.355100  0.103600  0.759600  1.0  0.181
  C  C247  1  0.403500  0.025300  0.656200  1.0  0.1595
  C  C248  1  0.404300  0.088200  0.603200  1.0  -0.1415
  C  C249  1  0.442700  0.078500  0.542000  1.0  -0.1157
  C  C250  1  0.479800  0.005800  0.533000  1.0  0.0469
  C  C251  1  0.480100  0.944500  0.589400  1.0  -0.1154
  C  C252  1  0.442200  0.952800  0.649500  1.0  -0.1793
  C  C253  1  0.387100  0.720200  0.805400  1.0  0.6977
  C  C254  1  0.430300  0.688500  0.892700  1.0  -0.1766
  C  C255  1  0.504800  0.720500  0.939400  1.0  -0.0558
  C  C256  1  0.543400  0.693500  0.021100  1.0  -0.1563
  C  C257  1  0.507100  0.630800  0.055000  1.0  -0.0453
  C  C258  1  0.433000  0.595200  0.008400  1.0  0.0269
  C  C259  1  0.395500  0.626000  0.927400  1.0  -0.0811
  C  C260  1  0.621900  0.735600  0.071100  1.0  0.6563
  C  C261  1  0.393900  0.526700  0.043000  1.0  0.1093
  C  C262  1  0.317900  0.497800  0.000900  1.0  -0.2203
  C  C263  1  0.282200  0.435200  0.032600  1.0  0.185
  C  C264  1  0.388700  0.427000  0.145900  1.0  0.1723
  C  C265  1  0.428400  0.488700  0.118100  1.0  -0.2169
  C  C266  1  0.206600  0.509400  0.696500  1.0  0.0484
  C  C267  1  0.177100  0.472900  0.754200  1.0  -0.1509
  C  C268  1  0.144900  0.603600  0.740400  1.0  0.1806
  C  C269  1  0.096500  0.525300  0.843800  1.0  0.16
  C  C270  1  0.095700  0.588200  0.896800  1.0  -0.1415
  C  C271  1  0.057300  0.578500  0.958000  1.0  -0.1156
  C  C272  1  0.020200  0.505800  0.967000  1.0  0.0464
  C  C273  1  0.019900  0.444500  0.910600  1.0  -0.1151
  C  C274  1  0.057800  0.452800  0.850500  1.0  -0.1792
  C  C275  1  0.887100  0.220200  0.805400  1.0  0.6977
  C  C276  1  0.930300  0.188500  0.892700  1.0  -0.1766
  C  C277  1  0.004800  0.220500  0.939400  1.0  -0.0558
  C  C278  1  0.043400  0.193500  0.021100  1.0  -0.1563
  C  C279  1  0.007100  0.130800  0.055000  1.0  -0.0453
  C  C280  1  0.933000  0.095200  0.008400  1.0  0.0269
  C  C281  1  0.895500  0.126000  0.927400  1.0  -0.0811
  C  C282  1  0.121900  0.235600  0.071100  1.0  0.6563
  C  C283  1  0.893900  0.026700  0.043000  1.0  0.1093
  C  C284  1  0.817900  0.997800  0.000900  1.0  -0.2203
  C  C285  1  0.782200  0.935200  0.032600  1.0  0.185
  C  C286  1  0.888700  0.927000  0.145900  1.0  0.1723
  C  C287  1  0.928400  0.988700  0.118100  1.0  -0.2169
  C  C288  1  0.706600  0.009400  0.696500  1.0  0.0484
  C  C289  1  0.677100  0.972900  0.754200  1.0  -0.1509
  C  C290  1  0.644900  0.103600  0.740400  1.0  0.1806
  C  C291  1  0.596500  0.025300  0.843800  1.0  0.16
  C  C292  1  0.595700  0.088200  0.896800  1.0  -0.1415
  C  C293  1  0.557300  0.078500  0.958000  1.0  -0.1156
  C  C294  1  0.520200  0.005800  0.967000  1.0  0.0464
  C  C295  1  0.519900  0.944500  0.910600  1.0  -0.1151
  C  C296  1  0.557800  0.952800  0.850500  1.0  -0.1792
  N  N297  1  0.314200  0.600800  0.604600  1.0  -0.3419
  N  N298  1  0.186000  0.408500  0.188000  1.0  -0.3862
  N  N299  1  0.136500  0.465900  0.280900  1.0  0.0516
  N  N300  1  0.814200  0.100800  0.604600  1.0  -0.3419
  N  N301  1  0.686000  0.908500  0.188000  1.0  -0.3862
  N  N302  1  0.636500  0.965900  0.280900  1.0  0.0516
  N  N303  1  0.685800  0.600800  0.895400  1.0  -0.341
  N  N304  1  0.814000  0.408500  0.312000  1.0  -0.3842
  N  N305  1  0.863500  0.465900  0.219100  1.0  0.0518
  N  N306  1  0.185800  0.100800  0.895400  1.0  -0.341
  N  N307  1  0.314000  0.908500  0.312000  1.0  -0.3842
  N  N308  1  0.363500  0.965900  0.219100  1.0  0.0518
  N  N309  1  0.685800  0.399200  0.395400  1.0  -0.3399
  N  N310  1  0.814000  0.591500  0.812000  1.0  -0.3851
  N  N311  1  0.863500  0.534100  0.719100  1.0  0.0518
  N  N312  1  0.185800  0.899200  0.395400  1.0  -0.3399
  N  N313  1  0.314000  0.091500  0.812000  1.0  -0.3851
  N  N314  1  0.363500  0.034100  0.719100  1.0  0.0518
  N  N315  1  0.314200  0.399200  0.104600  1.0  -0.3406
  N  N316  1  0.186000  0.591500  0.688000  1.0  -0.3872
  N  N317  1  0.136500  0.534100  0.780900  1.0  0.0519
  N  N318  1  0.814200  0.899200  0.104600  1.0  -0.3406
  N  N319  1  0.686000  0.091500  0.688000  1.0  -0.3872
  N  N320  1  0.636500  0.034100  0.780900  1.0  0.0519
  O  O321  1  0.317300  0.311000  0.270220  1.0  -0.591
  O  O322  1  0.421200  0.227600  0.273800  1.0  -0.5293
  O  O323  1  0.656700  0.214800  0.534130  1.0  -0.5545
  O  O324  1  0.651500  0.276800  0.649350  1.0  -0.5725
  O  O325  1  0.817300  0.811000  0.270220  1.0  -0.591
  O  O326  1  0.921200  0.727600  0.273800  1.0  -0.5293
  O  O327  1  0.156700  0.714800  0.534130  1.0  -0.5545
  O  O328  1  0.151500  0.776800  0.649350  1.0  -0.5725
  O  O329  1  0.682700  0.311000  0.229780  1.0  -0.5912
  O  O330  1  0.578800  0.227600  0.226200  1.0  -0.529
  O  O331  1  0.343300  0.214800  0.965870  1.0  -0.5559
  O  O332  1  0.348500  0.276800  0.850650  1.0  -0.5709
  O  O333  1  0.182700  0.811000  0.229780  1.0  -0.5912
  O  O334  1  0.078800  0.727600  0.226200  1.0  -0.529
  O  O335  1  0.843300  0.714800  0.965870  1.0  -0.5559
  O  O336  1  0.848500  0.776800  0.850650  1.0  -0.5709
  O  O337  1  0.682700  0.689000  0.729780  1.0  -0.5911
  O  O338  1  0.578800  0.772400  0.726200  1.0  -0.5288
  O  O339  1  0.343300  0.785200  0.465870  1.0  -0.5555
  O  O340  1  0.348500  0.723200  0.350650  1.0  -0.5701
  O  O341  1  0.182700  0.189000  0.729780  1.0  -0.5911
  O  O342  1  0.078800  0.272400  0.726200  1.0  -0.5288
  O  O343  1  0.843300  0.285200  0.465870  1.0  -0.5555
  O  O344  1  0.848500  0.223200  0.350650  1.0  -0.5701
  O  O345  1  0.317300  0.689000  0.770220  1.0  -0.5913
  O  O346  1  0.421200  0.772400  0.773800  1.0  -0.5297
  O  O347  1  0.656700  0.785200  0.034130  1.0  -0.5543
  O  O348  1  0.651500  0.723200  0.149350  1.0  -0.5728
  O  O349  1  0.817300  0.189000  0.770220  1.0  -0.5913
  O  O350  1  0.921200  0.272400  0.773800  1.0  -0.5297
  O  O351  1  0.156700  0.285200  0.034130  1.0  -0.5543
  O  O352  1  0.151500  0.223200  0.149350  1.0  -0.5728
