# generated using pymatgen
data_Cd3H40C48S2(NO)8
_symmetry_space_group_name_H-M   'P 1'
_cell_length_a   14.07000000
_cell_length_b   22.00100000
_cell_length_c   20.96600000
_cell_angle_alpha   90.00000000
_cell_angle_beta   101.07000000
_cell_angle_gamma   90.00000000
_symmetry_Int_Tables_number   1
_chemical_formula_structural   Cd3H40C48S2(NO)8
_chemical_formula_sum   'Cd12 H160 C192 S8 N32 O32'
_cell_volume   6369.35130911
_cell_formula_units_Z   4
loop_
 _symmetry_equiv_pos_site_id
 _symmetry_equiv_pos_as_xyz
  1  'x, y, z'
loop_
 _atom_site_type_symbol
 _atom_site_label
 _atom_site_symmetry_multiplicity
 _atom_site_fract_x
 _atom_site_fract_y
 _atom_site_fract_z
 _atom_site_occupancy
 _atom_site_charge
  Cd  Cd1  1  0.515010  0.744170  0.262180  1.0  0.8961
  Cd  Cd2  1  0.640140  0.988820  0.190280  1.0  0.5629
  Cd  Cd3  1  0.320610  0.502880  0.302550  1.0  0.5458
  Cd  Cd4  1  0.984990  0.244170  0.237820  1.0  0.8958
  Cd  Cd5  1  0.859860  0.488820  0.309720  1.0  0.5632
  Cd  Cd6  1  0.179390  0.002880  0.197450  1.0  0.5436
  Cd  Cd7  1  0.484990  0.255830  0.737820  1.0  0.8958
  Cd  Cd8  1  0.359860  0.011180  0.809720  1.0  0.5628
  Cd  Cd9  1  0.679390  0.497120  0.697450  1.0  0.5437
  Cd  Cd10  1  0.015010  0.755830  0.762180  1.0  0.8961
  Cd  Cd11  1  0.140140  0.511180  0.690280  1.0  0.5629
  Cd  Cd12  1  0.820610  0.997120  0.802550  1.0  0.5453
  H  H13  1  0.316800  0.828100  0.225800  1.0  0.0643
  H  H14  1  0.157600  0.825800  0.174900  1.0  0.1114
  H  H15  1  0.191900  0.652200  0.131500  1.0  0.115
  H  H16  1  0.349700  0.659100  0.182300  1.0  0.0671
  H  H17  1  0.042000  0.694600  0.090200  1.0  0.1011
  H  H18  1  0.052300  0.849400  0.880400  1.0  0.0748
  H  H19  1  0.052100  0.860000  0.989400  1.0  0.1112
  H  H20  1  0.923800  0.698900  0.985900  1.0  0.1156
  H  H21  1  0.928600  0.691500  0.877800  1.0  0.0727
  H  H22  1  0.019100  0.823800  0.089700  1.0  0.0989
  H  H23  1  0.748600  0.947900  0.072400  1.0  0.0697
  H  H24  1  0.850900  0.875200  0.046400  1.0  0.1063
  H  H25  1  0.799200  0.776800  0.196400  1.0  0.0872
  H  H26  1  0.700800  0.853300  0.219200  1.0  0.0661
  H  H27  1  0.865500  0.736600  0.075400  1.0  0.0963
  H  H28  1  0.771100  0.584900  0.198900  1.0  0.0734
  H  H29  1  0.805100  0.671500  0.147200  1.0  0.107
  H  H30  1  0.079500  0.658200  0.241600  1.0  0.1021
  H  H31  1  0.039500  0.570600  0.287800  1.0  0.0682
  H  H32  1  0.993300  0.764700  0.194300  1.0  0.0807
  H  H33  1  0.666500  0.832900  0.346600  1.0  0.0744
  H  H34  1  0.825300  0.848500  0.395000  1.0  0.1209
  H  H35  1  0.883700  0.680100  0.341500  1.0  0.1201
  H  H36  1  0.724700  0.671500  0.290700  1.0  0.0671
  H  H37  1  0.984800  0.814600  0.429800  1.0  0.0995
  H  H38  1  0.989300  0.660000  0.647100  1.0  0.0732
  H  H39  1  0.989300  0.648300  0.538600  1.0  0.1088
  H  H40  1  0.096900  0.815300  0.535900  1.0  0.1194
  H  H41  1  0.094300  0.823300  0.644200  1.0  0.0585
  H  H42  1  0.005400  0.685200  0.437000  1.0  0.0919
  H  H43  1  0.323800  0.645700  0.306900  1.0  0.0624
  H  H44  1  0.248400  0.728400  0.340300  1.0  0.0864
  H  H45  1  0.134200  0.620200  0.457500  1.0  0.1024
  H  H46  1  0.210700  0.539800  0.420100  1.0  0.0703
  H  H47  1  0.167000  0.766800  0.446400  1.0  0.1069
  H  H48  1  0.262300  0.913000  0.314200  1.0  0.0752
  H  H49  1  0.225400  0.831700  0.373000  1.0  0.1113
  H  H50  1  0.950800  0.846100  0.279700  1.0  0.0995
  H  H51  1  0.994000  0.928000  0.225400  1.0  0.0716
  H  H52  1  0.032400  0.740100  0.328600  1.0  0.0899
  H  H53  1  0.183200  0.328100  0.274200  1.0  0.0644
  H  H54  1  0.342400  0.325800  0.325100  1.0  0.1122
  H  H55  1  0.308100  0.152200  0.368500  1.0  0.1155
  H  H56  1  0.150300  0.159100  0.317700  1.0  0.0688
  H  H57  1  0.458000  0.194600  0.409800  1.0  0.1026
  H  H58  1  0.447700  0.349400  0.619600  1.0  0.0746
  H  H59  1  0.447900  0.360000  0.510600  1.0  0.1117
  H  H60  1  0.576200  0.198900  0.514100  1.0  0.1157
  H  H61  1  0.571400  0.191500  0.622200  1.0  0.0715
  H  H62  1  0.480900  0.323800  0.410300  1.0  0.0984
  H  H63  1  0.751400  0.447900  0.427600  1.0  0.0691
  H  H64  1  0.649100  0.375200  0.453600  1.0  0.1067
  H  H65  1  0.700800  0.276800  0.303600  1.0  0.0867
  H  H66  1  0.799200  0.353300  0.280800  1.0  0.0659
  H  H67  1  0.634500  0.236600  0.424600  1.0  0.0964
  H  H68  1  0.728900  0.084900  0.301100  1.0  0.0729
  H  H69  1  0.694900  0.171500  0.352800  1.0  0.1068
  H  H70  1  0.420500  0.158200  0.258400  1.0  0.1033
  H  H71  1  0.460500  0.070600  0.212200  1.0  0.0681
  H  H72  1  0.506700  0.264700  0.305700  1.0  0.0822
  H  H73  1  0.833500  0.332900  0.153400  1.0  0.0709
  H  H74  1  0.674700  0.348500  0.105000  1.0  0.1213
  H  H75  1  0.616300  0.180100  0.158500  1.0  0.1202
  H  H76  1  0.775300  0.171500  0.209300  1.0  0.0655
  H  H77  1  0.515200  0.314600  0.070200  1.0  0.1009
  H  H78  1  0.510700  0.160000  0.852900  1.0  0.0746
  H  H79  1  0.510700  0.148300  0.961400  1.0  0.1088
  H  H80  1  0.403100  0.315300  0.964100  1.0  0.1192
  H  H81  1  0.405700  0.323300  0.855800  1.0  0.0583
  H  H82  1  0.494600  0.185200  0.063000  1.0  0.0918
  H  H83  1  0.176200  0.145700  0.193100  1.0  0.0604
  H  H84  1  0.251600  0.228400  0.159700  1.0  0.0877
  H  H85  1  0.365800  0.120200  0.042500  1.0  0.1018
  H  H86  1  0.289300  0.039800  0.079900  1.0  0.0717
  H  H87  1  0.333000  0.266800  0.053600  1.0  0.1082
  H  H88  1  0.237700  0.413000  0.185800  1.0  0.0744
  H  H89  1  0.274600  0.331700  0.127000  1.0  0.11
  H  H90  1  0.549200  0.346100  0.220300  1.0  0.0984
  H  H91  1  0.506000  0.428000  0.274600  1.0  0.0712
  H  H92  1  0.467600  0.240100  0.171400  1.0  0.0893
  H  H93  1  0.683200  0.171900  0.774200  1.0  0.0646
  H  H94  1  0.842400  0.174200  0.825100  1.0  0.1118
  H  H95  1  0.808100  0.347800  0.868500  1.0  0.1154
  H  H96  1  0.650300  0.340900  0.817700  1.0  0.0691
  H  H97  1  0.958000  0.305400  0.909800  1.0  0.1015
  H  H98  1  0.947700  0.150600  0.119600  1.0  0.0743
  H  H99  1  0.947900  0.140000  0.010600  1.0  0.1115
  H  H100  1  0.076200  0.301100  0.014100  1.0  0.1161
  H  H101  1  0.071400  0.308500  0.122200  1.0  0.0701
  H  H102  1  0.980900  0.176200  0.910300  1.0  0.099
  H  H103  1  0.251400  0.052100  0.927600  1.0  0.0697
  H  H104  1  0.149100  0.124800  0.953600  1.0  0.1066
  H  H105  1  0.200800  0.223200  0.803600  1.0  0.0868
  H  H106  1  0.299200  0.146700  0.780800  1.0  0.0665
  H  H107  1  0.134500  0.263400  0.924600  1.0  0.0956
  H  H108  1  0.228900  0.415100  0.801100  1.0  0.0729
  H  H109  1  0.194900  0.328500  0.852800  1.0  0.1082
  H  H110  1  0.920500  0.341800  0.758400  1.0  0.103
  H  H111  1  0.960500  0.429400  0.712200  1.0  0.0663
  H  H112  1  0.006700  0.235300  0.805700  1.0  0.0817
  H  H113  1  0.333500  0.167100  0.653400  1.0  0.0704
  H  H114  1  0.174700  0.151500  0.605000  1.0  0.1211
  H  H115  1  0.116300  0.319900  0.658500  1.0  0.1204
  H  H116  1  0.275300  0.328500  0.709300  1.0  0.0668
  H  H117  1  0.015200  0.185400  0.570200  1.0  0.1001
  H  H118  1  0.010700  0.340000  0.352900  1.0  0.0725
  H  H119  1  0.010700  0.351700  0.461400  1.0  0.1083
  H  H120  1  0.903100  0.184700  0.464100  1.0  0.119
  H  H121  1  0.905700  0.176700  0.355800  1.0  0.0631
  H  H122  1  0.994600  0.314800  0.563000  1.0  0.0916
  H  H123  1  0.676200  0.354300  0.693100  1.0  0.0604
  H  H124  1  0.751600  0.271600  0.659700  1.0  0.0852
  H  H125  1  0.865800  0.379800  0.542500  1.0  0.1018
  H  H126  1  0.789300  0.460200  0.579900  1.0  0.0702
  H  H127  1  0.833000  0.233200  0.553600  1.0  0.1076
  H  H128  1  0.737700  0.087000  0.685800  1.0  0.0749
  H  H129  1  0.774600  0.168300  0.627000  1.0  0.111
  H  H130  1  0.049200  0.153900  0.720300  1.0  0.0989
  H  H131  1  0.006000  0.072000  0.774600  1.0  0.0726
  H  H132  1  0.967600  0.259900  0.671400  1.0  0.0892
  H  H133  1  0.816800  0.671900  0.725800  1.0  0.0642
  H  H134  1  0.657600  0.674200  0.674900  1.0  0.1104
  H  H135  1  0.691900  0.847800  0.631500  1.0  0.1157
  H  H136  1  0.849700  0.840900  0.682300  1.0  0.066
  H  H137  1  0.542000  0.805400  0.590200  1.0  0.1015
  H  H138  1  0.552300  0.650600  0.380400  1.0  0.0747
  H  H139  1  0.552100  0.640000  0.489400  1.0  0.1113
  H  H140  1  0.423800  0.801100  0.485900  1.0  0.1156
  H  H141  1  0.428600  0.808500  0.377800  1.0  0.0707
  H  H142  1  0.519100  0.676200  0.589700  1.0  0.0993
  H  H143  1  0.248600  0.552100  0.572400  1.0  0.0696
  H  H144  1  0.350900  0.624800  0.546400  1.0  0.1059
  H  H145  1  0.299200  0.723200  0.696400  1.0  0.0871
  H  H146  1  0.200800  0.646700  0.719200  1.0  0.0662
  H  H147  1  0.365500  0.763400  0.575400  1.0  0.0968
  H  H148  1  0.271100  0.915100  0.698900  1.0  0.0731
  H  H149  1  0.305100  0.828500  0.647200  1.0  0.107
  H  H150  1  0.579500  0.841800  0.741600  1.0  0.1022
  H  H151  1  0.539500  0.929400  0.787800  1.0  0.0657
  H  H152  1  0.493300  0.735300  0.694300  1.0  0.081
  H  H153  1  0.166500  0.667100  0.846600  1.0  0.0744
  H  H154  1  0.325300  0.651500  0.895000  1.0  0.122
  H  H155  1  0.383700  0.819900  0.841500  1.0  0.1198
  H  H156  1  0.224700  0.828500  0.790700  1.0  0.0671
  H  H157  1  0.484800  0.685400  0.929800  1.0  0.1005
  H  H158  1  0.489300  0.840000  0.147100  1.0  0.0727
  H  H159  1  0.489300  0.851700  0.038600  1.0  0.1094
  H  H160  1  0.596900  0.684700  0.035900  1.0  0.1189
  H  H161  1  0.594300  0.676700  0.144200  1.0  0.0633
  H  H162  1  0.505400  0.814800  0.937000  1.0  0.0919
  H  H163  1  0.823800  0.854300  0.806900  1.0  0.0623
  H  H164  1  0.748400  0.771600  0.840300  1.0  0.0878
  H  H165  1  0.634200  0.879800  0.957500  1.0  0.1017
  H  H166  1  0.710700  0.960200  0.920100  1.0  0.0679
  H  H167  1  0.667000  0.733200  0.946400  1.0  0.1074
  H  H168  1  0.762300  0.587000  0.814200  1.0  0.0751
  H  H169  1  0.725400  0.668300  0.873000  1.0  0.11
  H  H170  1  0.450800  0.653900  0.779700  1.0  0.1001
  H  H171  1  0.494000  0.572000  0.725400  1.0  0.0721
  H  H172  1  0.532400  0.759900  0.828600  1.0  0.0901
  C  C173  1  0.291300  0.791900  0.207000  1.0  0.1707
  C  C174  1  0.195200  0.790900  0.176000  1.0  -0.2305
  C  C175  1  0.154900  0.738400  0.146800  1.0  0.1051
  C  C176  1  0.215400  0.688900  0.150400  1.0  -0.2339
  C  C177  1  0.310300  0.693100  0.181700  1.0  0.1724
  C  C178  1  0.050600  0.732400  0.115300  1.0  -0.0951
  C  C179  1  0.026300  0.818400  0.901800  1.0  0.1763
  C  C180  1  0.026400  0.825000  0.967800  1.0  -0.1866
  C  C181  1  0.989100  0.780600  0.001000  1.0  0.1153
  C  C182  1  0.951200  0.730200  0.965600  1.0  -0.2062
  C  C183  1  0.953700  0.726100  0.900500  1.0  0.1666
  C  C184  1  0.993800  0.784100  0.073400  1.0  -0.0905
  C  C185  1  0.759800  0.913300  0.098200  1.0  0.1543
  C  C186  1  0.821000  0.869300  0.081800  1.0  -0.2148
  C  C187  1  0.838000  0.816100  0.118100  1.0  0.1018
  C  C188  1  0.790800  0.811400  0.170400  1.0  -0.2134
  C  C189  1  0.731500  0.857800  0.183900  1.0  0.1679
  C  C190  1  0.903800  0.767300  0.102900  1.0  -0.1184
  C  C191  1  0.834100  0.599900  0.207600  1.0  0.1458
  C  C192  1  0.854000  0.652400  0.176500  1.0  -0.1934
  C  C193  1  0.946600  0.676800  0.188800  1.0  0.0945
  C  C194  1  0.016000  0.644300  0.231900  1.0  -0.1778
  C  C195  1  0.991200  0.591800  0.260100  1.0  0.169
  C  C196  1  0.972400  0.735200  0.159400  1.0  -0.0857
  C  C197  1  0.711200  0.802200  0.344300  1.0  0.1692
  C  C198  1  0.806600  0.811600  0.374800  1.0  -0.2184
  C  C199  1  0.873900  0.765700  0.374900  1.0  0.1034
  C  C200  1  0.841300  0.712400  0.342700  1.0  -0.2486
  C  C201  1  0.745100  0.707600  0.312200  1.0  0.1652
  C  C202  1  0.977900  0.775600  0.407000  1.0  -0.1133
  C  C203  1  0.010700  0.692000  0.624500  1.0  0.164
  C  C204  1  0.010200  0.684900  0.558900  1.0  -0.1844
  C  C205  1  0.039800  0.730800  0.523300  1.0  0.1273
  C  C206  1  0.073500  0.783200  0.557300  1.0  -0.2311
  C  C207  1  0.072300  0.787600  0.622600  1.0  0.1714
  C  C208  1  0.032700  0.725000  0.451400  1.0  -0.0937
  C  C209  1  0.283800  0.640200  0.337000  1.0  0.1719
  C  C210  1  0.238600  0.690300  0.357000  1.0  -0.2021
  C  C211  1  0.178600  0.684200  0.401900  1.0  0.077
  C  C212  1  0.171200  0.626700  0.425800  1.0  -0.2072
  C  C213  1  0.218000  0.578200  0.403300  1.0  0.1515
  C  C214  1  0.123300  0.737600  0.420300  1.0  -0.1186
  C  C215  1  0.198700  0.899000  0.306900  1.0  0.1582
  C  C216  1  0.177200  0.849600  0.342200  1.0  -0.2193
  C  C217  1  0.083600  0.826700  0.331500  1.0  0.1013
  C  C218  1  0.015200  0.858400  0.287200  1.0  -0.2001
  C  C219  1  0.041600  0.907600  0.254500  1.0  0.1665
  C  C220  1  0.055000  0.770100  0.362700  1.0  -0.1026
  C  C221  1  0.208700  0.291900  0.293000  1.0  0.1706
  C  C222  1  0.304800  0.290900  0.324000  1.0  -0.2298
  C  C223  1  0.345100  0.238400  0.353200  1.0  0.107
  C  C224  1  0.284600  0.188900  0.349600  1.0  -0.2341
  C  C225  1  0.189700  0.193100  0.318300  1.0  0.1727
  C  C226  1  0.449400  0.232400  0.384700  1.0  -0.0949
  C  C227  1  0.473700  0.318400  0.598200  1.0  0.1769
  C  C228  1  0.473600  0.325000  0.532200  1.0  -0.1844
  C  C229  1  0.510900  0.280600  0.499000  1.0  0.1153
  C  C230  1  0.548800  0.230200  0.534400  1.0  -0.206
  C  C231  1  0.546300  0.226100  0.599500  1.0  0.1669
  C  C232  1  0.506200  0.284100  0.426600  1.0  -0.0902
  C  C233  1  0.740200  0.413300  0.401800  1.0  0.1557
  C  C234  1  0.679000  0.369300  0.418200  1.0  -0.2127
  C  C235  1  0.662000  0.316100  0.381900  1.0  0.1024
  C  C236  1  0.709200  0.311400  0.329600  1.0  -0.2185
  C  C237  1  0.768500  0.357800  0.316100  1.0  0.1676
  C  C238  1  0.596200  0.267300  0.397100  1.0  -0.115
  C  C239  1  0.665900  0.099900  0.292400  1.0  0.1447
  C  C240  1  0.646000  0.152400  0.323500  1.0  -0.1925
  C  C241  1  0.553400  0.176800  0.311200  1.0  0.0946
  C  C242  1  0.484000  0.144300  0.268100  1.0  -0.1786
  C  C243  1  0.508800  0.091800  0.239900  1.0  0.1695
  C  C244  1  0.527600  0.235200  0.340600  1.0  -0.0851
  C  C245  1  0.788800  0.302200  0.155700  1.0  0.1729
  C  C246  1  0.693400  0.311600  0.125200  1.0  -0.2138
  C  C247  1  0.626100  0.265700  0.125100  1.0  0.0955
  C  C248  1  0.658700  0.212400  0.157300  1.0  -0.251
  C  C249  1  0.754900  0.207600  0.187800  1.0  0.1656
  C  C250  1  0.522100  0.275600  0.093000  1.0  -0.1109
  C  C251  1  0.489300  0.192000  0.875500  1.0  0.1642
  C  C252  1  0.489800  0.184900  0.941100  1.0  -0.1842
  C  C253  1  0.460200  0.230800  0.976700  1.0  0.1258
  C  C254  1  0.426500  0.283200  0.942700  1.0  -0.2304
  C  C255  1  0.427700  0.287600  0.877400  1.0  0.1713
  C  C256  1  0.467300  0.225000  0.048600  1.0  -0.093
  C  C257  1  0.216200  0.140200  0.163000  1.0  0.1732
  C  C258  1  0.261400  0.190300  0.143000  1.0  -0.2014
  C  C259  1  0.321400  0.184200  0.098100  1.0  0.0771
  C  C260  1  0.328800  0.126700  0.074200  1.0  -0.2078
  C  C261  1  0.282000  0.078200  0.096700  1.0  0.1518
  C  C262  1  0.376700  0.237600  0.079700  1.0  -0.1219
  C  C263  1  0.301300  0.399000  0.193100  1.0  0.1572
  C  C264  1  0.322800  0.349600  0.157800  1.0  -0.2177
  C  C265  1  0.416400  0.326700  0.168500  1.0  0.101
  C  C266  1  0.484800  0.358400  0.212800  1.0  -0.1996
  C  C267  1  0.458400  0.407600  0.245500  1.0  0.1673
  C  C268  1  0.445000  0.270100  0.137300  1.0  -0.1041
  C  C269  1  0.708700  0.208100  0.793000  1.0  0.1712
  C  C270  1  0.804800  0.209100  0.824000  1.0  -0.227
  C  C271  1  0.845100  0.261600  0.853200  1.0  0.1031
  C  C272  1  0.784600  0.311100  0.849600  1.0  -0.2343
  C  C273  1  0.689700  0.306900  0.818300  1.0  0.1728
  C  C274  1  0.949400  0.267600  0.884700  1.0  -0.0965
  C  C275  1  0.973700  0.181600  0.098200  1.0  0.1775
  C  C276  1  0.973600  0.175000  0.032200  1.0  -0.1779
  C  C277  1  0.010900  0.219400  0.999000  1.0  0.1153
  C  C278  1  0.048800  0.269800  0.034400  1.0  -0.2088
  C  C279  1  0.046300  0.273900  0.099500  1.0  0.167
  C  C280  1  0.006200  0.215900  0.926600  1.0  -0.0903
  C  C281  1  0.240200  0.086700  0.901800  1.0  0.1554
  C  C282  1  0.179000  0.130700  0.918200  1.0  -0.2146
  C  C283  1  0.162000  0.183900  0.881900  1.0  0.1023
  C  C284  1  0.209200  0.188600  0.829600  1.0  -0.2108
  C  C285  1  0.268500  0.142200  0.816100  1.0  0.1672
  C  C286  1  0.096200  0.232700  0.897100  1.0  -0.1156
  C  C287  1  0.165900  0.400100  0.792400  1.0  0.1436
  C  C288  1  0.146000  0.347600  0.823500  1.0  -0.1949
  C  C289  1  0.053400  0.323200  0.811200  1.0  0.0943
  C  C290  1  0.984000  0.355700  0.768100  1.0  -0.19
  C  C291  1  0.008800  0.408200  0.739900  1.0  0.168
  C  C292  1  0.027600  0.264800  0.840600  1.0  -0.0838
  C  C293  1  0.288800  0.197800  0.655700  1.0  0.1719
  C  C294  1  0.193400  0.188400  0.625200  1.0  -0.216
  C  C295  1  0.126100  0.234300  0.625100  1.0  0.1032
  C  C296  1  0.158700  0.287600  0.657300  1.0  -0.2491
  C  C297  1  0.254900  0.292400  0.687800  1.0  0.1663
  C  C298  1  0.022100  0.224400  0.593000  1.0  -0.1108
  C  C299  1  0.989300  0.308000  0.375500  1.0  0.1649
  C  C300  1  0.989800  0.315100  0.441100  1.0  -0.1858
  C  C301  1  0.960200  0.269200  0.476700  1.0  0.1206
  C  C302  1  0.926500  0.216800  0.442700  1.0  -0.2308
  C  C303  1  0.927700  0.212400  0.377400  1.0  0.1714
  C  C304  1  0.967300  0.275000  0.548600  1.0  -0.0938
  C  C305  1  0.716200  0.359800  0.663000  1.0  0.1729
  C  C306  1  0.761400  0.309700  0.643000  1.0  -0.2106
  C  C307  1  0.821400  0.315800  0.598100  1.0  0.0776
  C  C308  1  0.828800  0.373300  0.574200  1.0  -0.2084
  C  C309  1  0.782000  0.421800  0.596700  1.0  0.1554
  C  C310  1  0.876700  0.262400  0.579700  1.0  -0.1208
  C  C311  1  0.801300  0.101000  0.693100  1.0  0.1579
  C  C312  1  0.822800  0.150400  0.657800  1.0  -0.2149
  C  C313  1  0.916400  0.173300  0.668500  1.0  0.101
  C  C314  1  0.984800  0.141600  0.712800  1.0  -0.1891
  C  C315  1  0.958400  0.092400  0.745500  1.0  0.1668
  C  C316  1  0.945000  0.229900  0.637300  1.0  -0.1054
  C  C317  1  0.791300  0.708100  0.707000  1.0  0.1707
  C  C318  1  0.695200  0.709100  0.676000  1.0  -0.2299
  C  C319  1  0.654900  0.761600  0.646800  1.0  0.1009
  C  C320  1  0.715400  0.811100  0.650400  1.0  -0.2334
  C  C321  1  0.810300  0.806900  0.681700  1.0  0.1735
  C  C322  1  0.550600  0.767600  0.615300  1.0  -0.0948
  C  C323  1  0.526300  0.681600  0.401800  1.0  0.1767
  C  C324  1  0.526400  0.675000  0.467800  1.0  -0.186
  C  C325  1  0.489100  0.719400  0.501000  1.0  0.1151
  C  C326  1  0.451200  0.769800  0.465600  1.0  -0.2078
  C  C327  1  0.453700  0.773900  0.400500  1.0  0.1668
  C  C328  1  0.493800  0.715900  0.573400  1.0  -0.0899
  C  C329  1  0.259800  0.586700  0.598200  1.0  0.1549
  C  C330  1  0.321000  0.630700  0.581800  1.0  -0.2131
  C  C331  1  0.338000  0.683900  0.618100  1.0  0.1017
  C  C332  1  0.290800  0.688600  0.670400  1.0  -0.2107
  C  C333  1  0.231500  0.642200  0.683900  1.0  0.1687
  C  C334  1  0.403800  0.732700  0.602900  1.0  -0.1187
  C  C335  1  0.334100  0.900100  0.707600  1.0  0.1439
  C  C336  1  0.354000  0.847600  0.676500  1.0  -0.1976
  C  C337  1  0.446600  0.823200  0.688800  1.0  0.0945
  C  C338  1  0.516000  0.855700  0.731900  1.0  -0.1795
  C  C339  1  0.491200  0.908200  0.760100  1.0  0.1694
  C  C340  1  0.472400  0.764800  0.659400  1.0  -0.0846
  C  C341  1  0.211200  0.697800  0.844300  1.0  0.1727
  C  C342  1  0.306600  0.688400  0.874800  1.0  -0.2154
  C  C343  1  0.373900  0.734300  0.874900  1.0  0.104
  C  C344  1  0.341300  0.787600  0.842700  1.0  -0.2491
  C  C345  1  0.245100  0.792400  0.812200  1.0  0.1654
  C  C346  1  0.477900  0.724400  0.907000  1.0  -0.1123
  C  C347  1  0.510700  0.808000  0.124500  1.0  0.1644
  C  C348  1  0.510200  0.815100  0.058900  1.0  -0.1873
  C  C349  1  0.539800  0.769200  0.023300  1.0  0.1272
  C  C350  1  0.573500  0.716800  0.057300  1.0  -0.2306
  C  C351  1  0.572300  0.712400  0.122600  1.0  0.1723
  C  C352  1  0.532700  0.775000  0.951400  1.0  -0.0938
  C  C353  1  0.783800  0.859800  0.837000  1.0  0.1729
  C  C354  1  0.738600  0.809700  0.857000  1.0  -0.2111
  C  C355  1  0.678600  0.815800  0.901900  1.0  0.0778
  C  C356  1  0.671200  0.873300  0.925800  1.0  -0.208
  C  C357  1  0.718000  0.921800  0.903300  1.0  0.1557
  C  C358  1  0.623300  0.762400  0.920300  1.0  -0.1171
  C  C359  1  0.698700  0.601000  0.806900  1.0  0.1579
  C  C360  1  0.677200  0.650400  0.842200  1.0  -0.2169
  C  C361  1  0.583600  0.673300  0.831500  1.0  0.1016
  C  C362  1  0.515200  0.641600  0.787200  1.0  -0.1925
  C  C363  1  0.541600  0.592400  0.754500  1.0  0.1668
  C  C364  1  0.555000  0.729900  0.862700  1.0  -0.1048
  S  S365  1  0.514800  0.913890  0.282820  1.0  1.6683
  S  S366  1  0.510080  0.577580  0.245460  1.0  1.6363
  S  S367  1  0.985200  0.413890  0.217180  1.0  1.6675
  S  S368  1  0.989920  0.077580  0.254540  1.0  1.636
  S  S369  1  0.485200  0.086110  0.717180  1.0  1.6676
  S  S370  1  0.489920  0.422420  0.754540  1.0  1.6356
  S  S371  1  0.014800  0.586110  0.782820  1.0  1.6688
  S  S372  1  0.010080  0.922420  0.745460  1.0  1.6362
  N  N373  1  0.349100  0.743400  0.211400  1.0  -0.3671
  N  N374  1  0.991100  0.770100  0.868400  1.0  -0.3615
  N  N375  1  0.716200  0.908700  0.148900  1.0  -0.3195
  N  N376  1  0.901000  0.569630  0.249600  1.0  -0.3457
  N  N377  1  0.680300  0.751660  0.312000  1.0  -0.3703
  N  N378  1  0.040800  0.743000  0.656300  1.0  -0.3641
  N  N379  1  0.272800  0.584230  0.358700  1.0  -0.3403
  N  N380  1  0.133000  0.927730  0.262800  1.0  -0.3491
  N  N381  1  0.150900  0.243400  0.288600  1.0  -0.3664
  N  N382  1  0.508900  0.270100  0.631600  1.0  -0.3606
  N  N383  1  0.783800  0.408700  0.351100  1.0  -0.3223
  N  N384  1  0.599000  0.069630  0.250400  1.0  -0.3462
  N  N385  1  0.819700  0.251660  0.188000  1.0  -0.3676
  N  N386  1  0.459200  0.243000  0.843700  1.0  -0.3651
  N  N387  1  0.227200  0.084230  0.141300  1.0  -0.3442
  N  N388  1  0.367000  0.427730  0.237200  1.0  -0.3472
  N  N389  1  0.650900  0.256600  0.788600  1.0  -0.3667
  N  N390  1  0.008900  0.229900  0.131600  1.0  -0.3606
  N  N391  1  0.283800  0.091300  0.851100  1.0  -0.3228
  N  N392  1  0.099000  0.430370  0.750400  1.0  -0.3467
  N  N393  1  0.319700  0.248340  0.688000  1.0  -0.3677
  N  N394  1  0.959200  0.257000  0.343700  1.0  -0.3655
  N  N395  1  0.727200  0.415770  0.641300  1.0  -0.3437
  N  N396  1  0.867000  0.072270  0.737200  1.0  -0.3514
  N  N397  1  0.849100  0.756600  0.711400  1.0  -0.367
  N  N398  1  0.491100  0.729900  0.368400  1.0  -0.3609
  N  N399  1  0.216200  0.591300  0.648900  1.0  -0.3232
  N  N400  1  0.401000  0.930370  0.749600  1.0  -0.3446
  N  N401  1  0.180300  0.748340  0.812000  1.0  -0.3676
  N  N402  1  0.540800  0.757000  0.156300  1.0  -0.3633
  N  N403  1  0.772800  0.915770  0.858700  1.0  -0.3445
  N  N404  1  0.633000  0.572270  0.762800  1.0  -0.3493
  O  O405  1  0.498400  0.848290  0.278000  1.0  -0.7186
  O  O406  1  0.438600  0.942200  0.308600  1.0  -0.6056
  O  O407  1  0.607400  0.928900  0.320900  1.0  -0.5661
  O  O408  1  0.509200  0.939200  0.216300  1.0  -0.8468
  O  O409  1  0.540400  0.640970  0.252700  1.0  -0.7184
  O  O410  1  0.418000  0.570900  0.264800  1.0  -0.6886
  O  O411  1  0.579100  0.537700  0.284600  1.0  -0.6321
  O  O412  1  0.499500  0.559400  0.179000  1.0  -0.5935
  O  O413  1  0.001600  0.348290  0.222000  1.0  -0.7172
  O  O414  1  0.061400  0.442200  0.191400  1.0  -0.6092
  O  O415  1  0.892600  0.428900  0.179100  1.0  -0.5664
  O  O416  1  0.990800  0.439200  0.283700  1.0  -0.8484
  O  O417  1  0.959600  0.140970  0.247300  1.0  -0.718
  O  O418  1  0.082000  0.070900  0.235200  1.0  -0.6866
  O  O419  1  0.920900  0.037700  0.215400  1.0  -0.6333
  O  O420  1  0.000500  0.059400  0.321000  1.0  -0.5925
  O  O421  1  0.501600  0.151710  0.722000  1.0  -0.7164
  O  O422  1  0.561400  0.057800  0.691400  1.0  -0.6086
  O  O423  1  0.392600  0.071100  0.679100  1.0  -0.565
  O  O424  1  0.490800  0.060800  0.783700  1.0  -0.8475
  O  O425  1  0.459600  0.359030  0.747300  1.0  -0.7193
  O  O426  1  0.582000  0.429100  0.735200  1.0  -0.6872
  O  O427  1  0.420900  0.462300  0.715400  1.0  -0.633
  O  O428  1  0.500500  0.440600  0.821000  1.0  -0.5932
  O  O429  1  0.998400  0.651710  0.778000  1.0  -0.7162
  O  O430  1  0.938600  0.557800  0.808600  1.0  -0.6061
  O  O431  1  0.107400  0.571100  0.820900  1.0  -0.5664
  O  O432  1  0.009200  0.560800  0.716300  1.0  -0.8464
  O  O433  1  0.040400  0.859030  0.752700  1.0  -0.7207
  O  O434  1  0.918000  0.929100  0.764800  1.0  -0.6907
  O  O435  1  0.079100  0.962300  0.784600  1.0  -0.6322
  O  O436  1  0.999500  0.940600  0.679000  1.0  -0.596
