# generated using pymatgen
data_CdC4
_symmetry_space_group_name_H-M   'P 1'
_cell_length_a   8.49700000
_cell_length_b   9.16700000
_cell_length_c   12.57000000
_cell_angle_alpha   90.00000000
_cell_angle_beta   90.00000000
_cell_angle_gamma   90.00000000
_symmetry_Int_Tables_number   1
_chemical_formula_structural   CdC4
_chemical_formula_sum   'Cd4 C16'
_cell_volume   979.10242743
_cell_formula_units_Z   4
loop_
 _symmetry_equiv_pos_site_id
 _symmetry_equiv_pos_as_xyz
  1  'x, y, z'
loop_
 _atom_site_type_symbol
 _atom_site_label
 _atom_site_symmetry_multiplicity
 _atom_site_fract_x
 _atom_site_fract_y
 _atom_site_fract_z
 _atom_site_occupancy
 _atom_site_charge
  Cd  Cd1  1  0.593600  0.250000  0.895600  1.0  0.6913
  Cd  Cd2  1  0.906400  0.750000  0.395600  1.0  0.6909
  Cd  Cd3  1  0.406400  0.750000  0.104400  1.0  0.6891
  Cd  Cd4  1  0.093600  0.250000  0.604400  1.0  0.6895
  C  C5  1  0.518500  0.445300  0.979000  1.0  -0.1606
  C  C6  1  0.981500  0.554700  0.479000  1.0  -0.1639
  C  C7  1  0.481500  0.945300  0.021000  1.0  -0.1617
  C  C8  1  0.018500  0.054700  0.521000  1.0  -0.1638
  C  C9  1  0.481500  0.554700  0.021000  1.0  -0.1645
  C  C10  1  0.018500  0.445300  0.521000  1.0  -0.1611
  C  C11  1  0.518500  0.054700  0.979000  1.0  -0.1632
  C  C12  1  0.981500  0.945300  0.479000  1.0  -0.1611
  C  C13  1  0.386600  0.250000  0.778500  1.0  -0.1921
  C  C14  1  0.786400  0.250000  0.782000  1.0  -0.1743
  C  C15  1  0.113400  0.750000  0.278500  1.0  -0.1921
  C  C16  1  0.713600  0.750000  0.282000  1.0  -0.1747
  C  C17  1  0.613400  0.750000  0.221500  1.0  -0.1908
  C  C18  1  0.213600  0.750000  0.218000  1.0  -0.173
  C  C19  1  0.886600  0.250000  0.721500  1.0  -0.1915
  C  C20  1  0.286400  0.250000  0.718000  1.0  -0.1726
