# generated using pymatgen
data_Zn2H14C21(N3O4)2
_symmetry_space_group_name_H-M   'P 1'
_cell_length_a   7.31710000
_cell_length_b   15.21730000
_cell_length_c   35.75700000
_cell_angle_alpha   98.50210000
_cell_angle_beta   90.00000000
_cell_angle_gamma   103.91100000
_symmetry_Int_Tables_number   1
_chemical_formula_structural   Zn2H14C21(N3O4)2
_chemical_formula_sum   'Zn8 H56 C84 N24 O32'
_cell_volume   3819.55197524
_cell_formula_units_Z   4
loop_
 _symmetry_equiv_pos_site_id
 _symmetry_equiv_pos_as_xyz
  1  'x, y, z'
loop_
 _atom_site_type_symbol
 _atom_site_label
 _atom_site_symmetry_multiplicity
 _atom_site_fract_x
 _atom_site_fract_y
 _atom_site_fract_z
 _atom_site_occupancy
 _atom_site_charge
  Zn  Zn1  1  0.102570  0.095300  0.781540  1.0  0.8655
  Zn  Zn2  1  0.752450  0.580640  0.184660  1.0  0.8681
  Zn  Zn3  1  0.828190  0.580640  0.684660  1.0  0.8725
  Zn  Zn4  1  0.007270  0.904700  0.718460  1.0  0.866
  Zn  Zn5  1  0.992730  0.095300  0.281540  1.0  0.8677
  Zn  Zn6  1  0.897430  0.904700  0.218460  1.0  0.8682
  Zn  Zn7  1  0.247550  0.419360  0.815340  1.0  0.8741
  Zn  Zn8  1  0.171810  0.419360  0.315340  1.0  0.8722
  H  H9  1  0.000400  0.730600  0.798000  1.0  0.1061
  H  H10  1  0.491600  0.271000  0.357900  1.0  0.1123
  H  H11  1  0.260400  0.134400  0.577400  1.0  0.1196
  H  H12  1  0.372300  0.631800  0.683800  1.0  0.128
  H  H13  1  0.991400  0.563600  0.413000  1.0  0.113
  H  H14  1  0.386300  0.358400  0.656500  1.0  0.0906
  H  H15  1  0.972100  0.358400  0.156500  1.0  0.0901
  H  H16  1  0.220600  0.729000  0.142100  1.0  0.1129
  H  H17  1  0.126000  0.865600  0.922600  1.0  0.1185
  H  H18  1  0.752600  0.600000  0.523800  1.0  0.2869
  H  H19  1  0.269800  0.269400  0.702000  1.0  0.1052
  H  H20  1  0.999600  0.269400  0.202000  1.0  0.1054
  H  H21  1  0.259400  0.544600  0.154600  1.0  0.1205
  H  H22  1  0.411000  0.271600  0.560800  1.0  0.2749
  H  H23  1  0.685400  0.711600  0.620300  1.0  0.1142
  H  H24  1  0.589000  0.728400  0.439200  1.0  0.2747
  H  H25  1  0.670400  0.363600  0.490800  1.0  0.1307
  H  H26  1  0.739600  0.865600  0.422600  1.0  0.1182
  H  H27  1  0.109800  0.379800  0.529600  1.0  0.1185
  H  H28  1  0.026200  0.711600  0.120300  1.0  0.1131
  H  H29  1  0.508400  0.729000  0.642100  1.0  0.1125
  H  H30  1  0.152600  0.400000  0.976200  1.0  0.2885
  H  H31  1  0.892000  0.045800  0.123500  1.0  0.1084
  H  H32  1  0.270000  0.379800  0.029600  1.0  0.1185
  H  H33  1  0.572200  0.563600  0.913000  1.0  0.1132
  H  H34  1  0.329600  0.636400  0.509200  1.0  0.1308
  H  H35  1  0.730200  0.730600  0.298000  1.0  0.1061
  H  H36  1  0.613700  0.641600  0.343500  1.0  0.0911
  H  H37  1  0.769000  0.308000  0.432500  1.0  0.1042
  H  H38  1  0.427800  0.436400  0.087000  1.0  0.1123
  H  H39  1  0.740600  0.455400  0.845400  1.0  0.1218
  H  H40  1  0.247400  0.400000  0.476200  1.0  0.288
  H  H41  1  0.846200  0.954200  0.376500  1.0  0.1086
  H  H42  1  0.874000  0.134400  0.077400  1.0  0.1195
  H  H43  1  0.139400  0.728400  0.939200  1.0  0.2741
  H  H44  1  0.108000  0.954200  0.876500  1.0  0.1086
  H  H45  1  0.714800  0.455400  0.345400  1.0  0.1207
  H  H46  1  0.539000  0.308000  0.932500  1.0  0.1044
  H  H47  1  0.306800  0.636400  0.009200  1.0  0.1312
  H  H48  1  0.740500  0.368200  0.816200  1.0  0.1276
  H  H49  1  0.153800  0.045800  0.623500  1.0  0.1085
  H  H50  1  0.730000  0.620200  0.970400  1.0  0.1162
  H  H51  1  0.314600  0.288400  0.379700  1.0  0.1133
  H  H52  1  0.890200  0.620200  0.470400  1.0  0.1161
  H  H53  1  0.860600  0.271600  0.060800  1.0  0.2749
  H  H54  1  0.461000  0.692000  0.067500  1.0  0.1032
  H  H55  1  0.779400  0.271000  0.857900  1.0  0.1123
  H  H56  1  0.259500  0.631800  0.183800  1.0  0.1269
  H  H57  1  0.231000  0.692000  0.567500  1.0  0.1034
  H  H58  1  0.973800  0.288400  0.879700  1.0  0.1132
  H  H59  1  0.285200  0.544600  0.654600  1.0  0.1215
  H  H60  1  0.693200  0.363600  0.990800  1.0  0.1308
  H  H61  1  0.008600  0.436400  0.587000  1.0  0.1123
  H  H62  1  0.027900  0.641600  0.843500  1.0  0.0916
  H  H63  1  0.847400  0.600000  0.023800  1.0  0.2861
  H  H64  1  0.627700  0.368200  0.316200  1.0  0.1279
  C  C65  1  0.258010  0.248620  0.322580  1.0  0.739
  C  C66  1  0.090500  0.891200  0.869790  1.0  -0.0336
  C  C67  1  0.913540  0.297680  0.856960  1.0  -0.1299
  C  C68  1  0.269640  0.241880  0.676970  1.0  -0.0426
  C  C69  1  0.199300  0.108800  0.630210  1.0  -0.0338
  C  C70  1  0.741990  0.751380  0.677420  1.0  0.7372
  C  C71  1  0.772410  0.498020  0.486840  1.0  0.2293
  C  C72  1  0.959400  0.091600  0.198270  1.0  0.6769
  C  C73  1  0.725610  0.498020  0.986840  1.0  0.2297
  C  C74  1  0.384140  0.297680  0.356960  1.0  -0.1286
  C  C75  1  0.927270  0.523340  0.428490  1.0  -0.0294
  C  C76  1  0.947700  0.148000  0.167860  1.0  -0.1464
  C  C77  1  0.092690  0.603580  0.916430  1.0  0.6337
  C  C78  1  0.446400  0.457000  0.388570  1.0  0.3731
  C  C79  1  0.734820  0.403840  0.475310  1.0  -0.162
  C  C80  1  0.866100  0.507600  0.052090  1.0  0.6791
  C  C81  1  0.662650  0.743700  0.388080  1.0  0.2384
  C  C82  1  0.489110  0.396420  0.583570  1.0  0.6427
  C  C83  1  0.086460  0.702320  0.143040  1.0  -0.1307
  C  C84  1  0.009390  0.751380  0.177420  1.0  0.7373
  C  C85  1  0.730360  0.758120  0.323030  1.0  -0.0426
  C  C86  1  0.178790  0.576980  0.169650  1.0  -0.1851
  C  C87  1  0.575940  0.370880  0.940310  1.0  -0.0246
  C  C88  1  0.909500  0.108800  0.130210  1.0  -0.0338
  C  C89  1  0.102900  0.838200  0.897510  1.0  -0.1824
  C  C90  1  0.132660  0.442720  0.537070  1.0  -0.2023
  C  C91  1  0.435330  0.516860  0.697560  1.0  0.7655
  C  C92  1  0.027760  0.758120  0.823030  1.0  -0.0425
  C  C93  1  0.072730  0.476660  0.571510  1.0  -0.029
  C  C94  1  0.567410  0.606820  0.120450  1.0  0.6579
  C  C95  1  0.794940  0.370880  0.440310  1.0  -0.0259
  C  C96  1  0.265180  0.596160  0.524690  1.0  -0.1606
  C  C97  1  0.043090  0.704380  0.850380  1.0  -0.1522
  C  C98  1  0.897100  0.161800  0.102490  1.0  -0.184
  C  C99  1  0.867800  0.908400  0.301730  1.0  0.6774
  C  C100  1  0.615860  0.702320  0.643040  1.0  -0.132
  C  C101  1  0.274390  0.501980  0.013160  1.0  0.2288
  C  C102  1  0.689940  0.557280  0.962930  1.0  -0.2033
  C  C103  1  0.432590  0.393180  0.879550  1.0  0.6591
  C  C104  1  0.536690  0.429180  0.916790  1.0  -0.1546
  C  C105  1  0.081530  0.516860  0.197560  1.0  0.7646
  C  C106  1  0.989400  0.543000  0.111430  1.0  0.3728
  C  C107  1  0.669020  0.403840  0.975310  1.0  -0.1625
  C  C108  1  0.081050  0.743700  0.888080  1.0  0.2378
  C  C109  1  0.133900  0.492400  0.947910  1.0  0.679
  C  C110  1  0.107510  0.570820  0.583210  1.0  -0.1547
  C  C111  1  0.200300  0.148000  0.667860  1.0  -0.147
  C  C112  1  0.867340  0.557280  0.462930  1.0  -0.2045
  C  C113  1  0.918470  0.483140  0.802440  1.0  0.7606
  C  C114  1  0.424060  0.629120  0.059690  1.0  -0.0225
  C  C115  1  0.510890  0.603580  0.416430  1.0  0.6328
  C  C116  1  0.338710  0.295620  0.649620  1.0  -0.1515
  C  C117  1  0.398190  0.576980  0.669650  1.0  -0.1843
  C  C118  1  0.132200  0.091600  0.698270  1.0  0.6768
  C  C119  1  0.972240  0.241880  0.176970  1.0  -0.0423
  C  C120  1  0.463310  0.570820  0.083210  1.0  -0.1536
  C  C121  1  0.735300  0.838200  0.397510  1.0  -0.1841
  C  C122  1  0.800700  0.891200  0.369790  1.0  -0.033
  C  C123  1  0.918950  0.256300  0.111920  1.0  0.2378
  C  C124  1  0.821210  0.423020  0.830350  1.0  -0.1858
  C  C125  1  0.892490  0.429180  0.416790  1.0  -0.1532
  C  C126  1  0.264700  0.161800  0.602490  1.0  -0.1839
  C  C127  1  0.337350  0.256300  0.611920  1.0  0.2371
  C  C128  1  0.956910  0.295620  0.149620  1.0  -0.1533
  C  C129  1  0.039410  0.606820  0.620450  1.0  0.6575
  C  C130  1  0.661290  0.704380  0.350380  1.0  -0.1515
  C  C131  1  0.553600  0.543000  0.611430  1.0  0.3726
  C  C132  1  0.205060  0.629120  0.559690  1.0  -0.0215
  C  C133  1  0.799700  0.852000  0.332140  1.0  -0.1446
  C  C134  1  0.052300  0.852000  0.832140  1.0  -0.1453
  C  C135  1  0.330980  0.596160  0.024690  1.0  -0.1617
  C  C136  1  0.358500  0.492400  0.447910  1.0  0.6792
  C  C137  1  0.641500  0.507600  0.552090  1.0  0.6779
  C  C138  1  0.990610  0.248620  0.822580  1.0  0.7388
  C  C139  1  0.596070  0.523340  0.928490  1.0  -0.0278
  C  C140  1  0.960590  0.393180  0.379550  1.0  0.6584
  C  C141  1  0.010600  0.457000  0.888570  1.0  0.373
  C  C142  1  0.601810  0.423020  0.330350  1.0  -0.1868
  C  C143  1  0.564670  0.483140  0.302440  1.0  0.7608
  C  C144  1  0.040600  0.908400  0.801730  1.0  0.6774
  C  C145  1  0.227590  0.501980  0.513160  1.0  0.2292
  C  C146  1  0.403930  0.476660  0.071510  1.0  -0.0303
  C  C147  1  0.310060  0.442720  0.037070  1.0  -0.2024
  C  C148  1  0.907310  0.396420  0.083570  1.0  0.6315
  N  N149  1  0.944490  0.395180  0.856190  1.0  -0.1097
  N  N150  1  0.362680  0.425960  0.418450  1.0  -0.5491
  N  N151  1  0.063280  0.425960  0.918450  1.0  -0.5486
  N  N152  1  0.526430  0.545260  0.385670  1.0  -0.5074
  N  N153  1  0.936720  0.574040  0.081550  1.0  -0.5475
  N  N154  1  0.412920  0.304640  0.582590  1.0  -0.3227
  N  N155  1  0.275590  0.458780  0.478550  1.0  -0.3649
  N  N156  1  0.154810  0.582220  0.948580  1.0  -0.6033
  N  N157  1  0.587080  0.695360  0.417410  1.0  -0.3239
  N  N158  1  0.108280  0.695360  0.917410  1.0  -0.3229
  N  N159  1  0.018830  0.545260  0.885670  1.0  -0.5079
  N  N160  1  0.816810  0.541220  0.021450  1.0  -0.3635
  N  N161  1  0.473570  0.454740  0.614330  1.0  -0.5072
  N  N162  1  0.549310  0.604820  0.643810  1.0  -0.1095
  N  N163  1  0.891720  0.304640  0.082590  1.0  -0.3234
  N  N164  1  0.427410  0.582220  0.448580  1.0  -0.6032
  N  N165  1  0.183190  0.458780  0.978550  1.0  -0.3644
  N  N166  1  0.572590  0.417780  0.551420  1.0  -0.6043
  N  N167  1  0.845190  0.417780  0.051420  1.0  -0.6045
  N  N168  1  0.637320  0.574040  0.581550  1.0  -0.5482
  N  N169  1  0.981170  0.454740  0.114330  1.0  -0.5062
  N  N170  1  0.450690  0.395180  0.356190  1.0  -0.1106
  N  N171  1  0.055510  0.604820  0.143810  1.0  -0.1097
  N  N172  1  0.724410  0.541220  0.521450  1.0  -0.3657
  O  O173  1  0.002140  0.866480  0.768510  1.0  -0.6322
  O  O174  1  0.076200  0.005800  0.688230  1.0  -0.6118
  O  O175  1  0.815130  0.518660  0.784860  1.0  -0.5588
  O  O176  1  0.923860  0.309920  0.367920  1.0  -0.5482
  O  O177  1  0.076140  0.690080  0.632080  1.0  -0.5496
  O  O178  1  0.192850  0.291900  0.301030  1.0  -0.592
  O  O179  1  0.780080  0.838160  0.682380  1.0  -0.602
  O  O180  1  0.997860  0.133520  0.231490  1.0  -0.6334
  O  O181  1  0.184870  0.481340  0.215140  1.0  -0.5601
  O  O182  1  0.058080  0.838160  0.182380  1.0  -0.601
  O  O183  1  0.945390  0.545580  0.638840  1.0  -0.5996
  O  O184  1  0.864340  0.866480  0.268510  1.0  -0.6324
  O  O185  1  0.093400  0.494800  0.797490  1.0  -0.6035
  O  O186  1  0.401400  0.494800  0.297490  1.0  -0.6012
  O  O187  1  0.613940  0.690080  0.132080  1.0  -0.5503
  O  O188  1  0.399810  0.454420  0.861160  1.0  -0.6013
  O  O189  1  0.070400  0.994200  0.811770  1.0  -0.6128
  O  O190  1  0.600190  0.545580  0.138840  1.0  -0.6005
  O  O191  1  0.929600  0.005800  0.188230  1.0  -0.6119
  O  O192  1  0.219920  0.161840  0.317620  1.0  -0.6022
  O  O193  1  0.906600  0.505200  0.202510  1.0  -0.604
  O  O194  1  0.135660  0.133520  0.731490  1.0  -0.6335
  O  O195  1  0.099050  0.291900  0.801030  1.0  -0.5924
  O  O196  1  0.900950  0.708100  0.198970  1.0  -0.5953
  O  O197  1  0.703530  0.518660  0.284860  1.0  -0.5592
  O  O198  1  0.386060  0.309920  0.867920  1.0  -0.5482
  O  O199  1  0.296470  0.481340  0.715140  1.0  -0.5582
  O  O200  1  0.807150  0.708100  0.698970  1.0  -0.5948
  O  O201  1  0.598600  0.505200  0.702510  1.0  -0.6027
  O  O202  1  0.941920  0.161840  0.817620  1.0  -0.6018
  O  O203  1  0.923800  0.994200  0.311770  1.0  -0.6128
  O  O204  1  0.054610  0.454420  0.361160  1.0  -0.6012
