# generated using pymatgen
data_ZnH7C10N5O2
_symmetry_space_group_name_H-M   'P 1'
_cell_length_a   18.48820000
_cell_length_b   26.64070000
_cell_length_c   26.64070000
_cell_angle_alpha   120.00000000
_cell_angle_beta   90.00000000
_cell_angle_gamma   90.00000000
_symmetry_Int_Tables_number   1
_chemical_formula_structural   ZnH7C10N5O2
_chemical_formula_sum   'Zn24 H168 C240 N120 O48'
_cell_volume   11363.61538906
_cell_formula_units_Z   24
loop_
 _symmetry_equiv_pos_site_id
 _symmetry_equiv_pos_as_xyz
  1  'x, y, z'
loop_
 _atom_site_type_symbol
 _atom_site_label
 _atom_site_symmetry_multiplicity
 _atom_site_fract_x
 _atom_site_fract_y
 _atom_site_fract_z
 _atom_site_occupancy
 _atom_site_charge
  Zn  Zn1  1  0.412820  0.891770  0.331770  1.0  0.8034
  Zn  Zn2  1  0.412820  0.440000  0.108230  1.0  0.8035
  Zn  Zn3  1  0.412820  0.668230  0.560000  1.0  0.8035
  Zn  Zn4  1  0.912820  0.108230  0.668230  1.0  0.8034
  Zn  Zn5  1  0.912820  0.560000  0.891770  1.0  0.8033
  Zn  Zn6  1  0.912820  0.331770  0.440000  1.0  0.8034
  Zn  Zn7  1  0.587180  0.560000  0.668230  1.0  0.8044
  Zn  Zn8  1  0.587180  0.331770  0.891770  1.0  0.8041
  Zn  Zn9  1  0.587180  0.108230  0.440000  1.0  0.8042
  Zn  Zn10  1  0.087180  0.440000  0.331770  1.0  0.8039
  Zn  Zn11  1  0.087180  0.668230  0.108230  1.0  0.8043
  Zn  Zn12  1  0.087180  0.891770  0.560000  1.0  0.8041
  Zn  Zn13  1  0.587180  0.108230  0.668230  1.0  0.8042
  Zn  Zn14  1  0.587180  0.560000  0.891770  1.0  0.8041
  Zn  Zn15  1  0.587180  0.331770  0.440000  1.0  0.8042
  Zn  Zn16  1  0.087180  0.891770  0.331770  1.0  0.8041
  Zn  Zn17  1  0.087180  0.440000  0.108230  1.0  0.8042
  Zn  Zn18  1  0.087180  0.668230  0.560000  1.0  0.8043
  Zn  Zn19  1  0.412820  0.440000  0.331770  1.0  0.8032
  Zn  Zn20  1  0.412820  0.668230  0.108230  1.0  0.8035
  Zn  Zn21  1  0.412820  0.891770  0.560000  1.0  0.8034
  Zn  Zn22  1  0.912820  0.560000  0.668230  1.0  0.8036
  Zn  Zn23  1  0.912820  0.331770  0.891770  1.0  0.8034
  Zn  Zn24  1  0.912820  0.108230  0.440000  1.0  0.8035
  H  H25  1  0.580000  0.872400  0.302900  1.0  0.107
  H  H26  1  0.688800  0.833100  0.254500  1.0  0.1005
  H  H27  1  0.505300  0.808700  0.355400  1.0  0.0888
  H  H28  1  0.428300  0.911700  0.219000  1.0  0.1226
  H  H29  1  0.469000  0.954700  0.165100  1.0  0.1032
  H  H30  1  0.310500  0.982400  0.314400  1.0  0.104
  H  H31  1  0.580000  0.430500  0.127600  1.0  0.1084
  H  H32  1  0.688800  0.421400  0.166900  1.0  0.1028
  H  H33  1  0.505300  0.546700  0.191300  1.0  0.0893
  H  H34  1  0.428300  0.307300  0.088300  1.0  0.1241
  H  H35  1  0.469000  0.210400  0.045300  1.0  0.1054
  H  H36  1  0.310500  0.332000  0.017600  1.0  0.1039
  H  H37  1  0.580000  0.697100  0.569500  1.0  0.1079
  H  H38  1  0.688800  0.745500  0.578600  1.0  0.1019
  H  H39  1  0.505300  0.644600  0.453300  1.0  0.0888
  H  H40  1  0.428300  0.781000  0.692700  1.0  0.1221
  H  H41  1  0.469000  0.834900  0.789600  1.0  0.1057
  H  H42  1  0.310500  0.685600  0.668000  1.0  0.1047
  H  H43  1  0.080000  0.127600  0.697100  1.0  0.107
  H  H44  1  0.188800  0.166900  0.745500  1.0  0.1022
  H  H45  1  0.005300  0.191300  0.644600  1.0  0.0888
  H  H46  1  0.928300  0.088300  0.781000  1.0  0.1228
  H  H47  1  0.969000  0.045300  0.834900  1.0  0.1024
  H  H48  1  0.810500  0.017600  0.685600  1.0  0.1038
  H  H49  1  0.080000  0.569500  0.872400  1.0  0.1077
  H  H50  1  0.188800  0.578600  0.833100  1.0  0.1024
  H  H51  1  0.005300  0.453300  0.808700  1.0  0.0902
  H  H52  1  0.928300  0.692700  0.911700  1.0  0.1227
  H  H53  1  0.969000  0.789600  0.954700  1.0  0.1031
  H  H54  1  0.810500  0.668000  0.982400  1.0  0.1037
  H  H55  1  0.080000  0.302900  0.430500  1.0  0.1078
  H  H56  1  0.188800  0.254500  0.421400  1.0  0.1022
  H  H57  1  0.005300  0.355400  0.546700  1.0  0.0893
  H  H58  1  0.928300  0.219000  0.307300  1.0  0.1224
  H  H59  1  0.969000  0.165100  0.210400  1.0  0.1059
  H  H60  1  0.810500  0.314400  0.332000  1.0  0.1039
  H  H61  1  0.420000  0.569500  0.697100  1.0  0.1086
  H  H62  1  0.311200  0.578600  0.745500  1.0  0.1025
  H  H63  1  0.494700  0.453300  0.644600  1.0  0.0903
  H  H64  1  0.571700  0.692700  0.781000  1.0  0.1234
  H  H65  1  0.531000  0.789600  0.834900  1.0  0.1043
  H  H66  1  0.689500  0.668000  0.685600  1.0  0.1045
  H  H67  1  0.420000  0.302900  0.872400  1.0  0.1083
  H  H68  1  0.311200  0.254500  0.833100  1.0  0.1011
  H  H69  1  0.494700  0.355400  0.808700  1.0  0.0891
  H  H70  1  0.571700  0.219000  0.911700  1.0  0.1227
  H  H71  1  0.531000  0.165100  0.954700  1.0  0.1056
  H  H72  1  0.689500  0.314400  0.982400  1.0  0.1039
  H  H73  1  0.420000  0.127600  0.430500  1.0  0.108
  H  H74  1  0.311200  0.166900  0.421400  1.0  0.1007
  H  H75  1  0.494700  0.191300  0.546700  1.0  0.0896
  H  H76  1  0.571700  0.088300  0.307300  1.0  0.1224
  H  H77  1  0.531000  0.045300  0.210400  1.0  0.1026
  H  H78  1  0.689500  0.017600  0.332000  1.0  0.1036
  H  H79  1  0.920000  0.430500  0.302900  1.0  0.1083
  H  H80  1  0.811200  0.421400  0.254500  1.0  0.102
  H  H81  1  0.994700  0.546700  0.355400  1.0  0.09
  H  H82  1  0.071700  0.307300  0.219000  1.0  0.1242
  H  H83  1  0.031000  0.210400  0.165100  1.0  0.1039
  H  H84  1  0.189500  0.332000  0.314400  1.0  0.1035
  H  H85  1  0.920000  0.697100  0.127600  1.0  0.1081
  H  H86  1  0.811200  0.745500  0.166900  1.0  0.1024
  H  H87  1  0.994700  0.644600  0.191300  1.0  0.0898
  H  H88  1  0.071700  0.781000  0.088300  1.0  0.1213
  H  H89  1  0.031000  0.834900  0.045300  1.0  0.1056
  H  H90  1  0.189500  0.685600  0.017600  1.0  0.1043
  H  H91  1  0.920000  0.872400  0.569500  1.0  0.1079
  H  H92  1  0.811200  0.833100  0.578600  1.0  0.1011
  H  H93  1  0.994700  0.808700  0.453300  1.0  0.089
  H  H94  1  0.071700  0.911700  0.692700  1.0  0.1228
  H  H95  1  0.031000  0.954700  0.789600  1.0  0.1028
  H  H96  1  0.189500  0.982400  0.668000  1.0  0.1042
  H  H97  1  0.420000  0.127600  0.697100  1.0  0.1076
  H  H98  1  0.311200  0.166900  0.745500  1.0  0.1013
  H  H99  1  0.494700  0.191300  0.644600  1.0  0.0892
  H  H100  1  0.571700  0.088300  0.781000  1.0  0.1222
  H  H101  1  0.531000  0.045300  0.834900  1.0  0.1024
  H  H102  1  0.689500  0.017600  0.685600  1.0  0.1034
  H  H103  1  0.420000  0.569500  0.872400  1.0  0.1083
  H  H104  1  0.311200  0.578600  0.833100  1.0  0.102
  H  H105  1  0.494700  0.453300  0.808700  1.0  0.0901
  H  H106  1  0.571700  0.692700  0.911700  1.0  0.1228
  H  H107  1  0.531000  0.789600  0.954700  1.0  0.1031
  H  H108  1  0.689500  0.668000  0.982400  1.0  0.1039
  H  H109  1  0.420000  0.302900  0.430500  1.0  0.1082
  H  H110  1  0.311200  0.254500  0.421400  1.0  0.1017
  H  H111  1  0.494700  0.355400  0.546700  1.0  0.0895
  H  H112  1  0.571700  0.219000  0.307300  1.0  0.1222
  H  H113  1  0.531000  0.165100  0.210400  1.0  0.1057
  H  H114  1  0.689500  0.314400  0.332000  1.0  0.1039
  H  H115  1  0.920000  0.872400  0.302900  1.0  0.1077
  H  H116  1  0.811200  0.833100  0.254500  1.0  0.1005
  H  H117  1  0.994700  0.808700  0.355400  1.0  0.0884
  H  H118  1  0.071700  0.911700  0.219000  1.0  0.1226
  H  H119  1  0.031000  0.954700  0.165100  1.0  0.1033
  H  H120  1  0.189500  0.982400  0.314400  1.0  0.1044
  H  H121  1  0.920000  0.430500  0.127600  1.0  0.1087
  H  H122  1  0.811200  0.421400  0.166900  1.0  0.1024
  H  H123  1  0.994700  0.546700  0.191300  1.0  0.0896
  H  H124  1  0.071700  0.307300  0.088300  1.0  0.1239
  H  H125  1  0.031000  0.210400  0.045300  1.0  0.105
  H  H126  1  0.189500  0.332000  0.017600  1.0  0.1037
  H  H127  1  0.920000  0.697100  0.569500  1.0  0.1087
  H  H128  1  0.811200  0.745500  0.578600  1.0  0.1016
  H  H129  1  0.994700  0.644600  0.453300  1.0  0.0888
  H  H130  1  0.071700  0.781000  0.692700  1.0  0.1219
  H  H131  1  0.031000  0.834900  0.789600  1.0  0.1058
  H  H132  1  0.189500  0.685600  0.668000  1.0  0.1042
  H  H133  1  0.580000  0.430500  0.302900  1.0  0.1078
  H  H134  1  0.688800  0.421400  0.254500  1.0  0.1023
  H  H135  1  0.505300  0.546700  0.355400  1.0  0.09
  H  H136  1  0.428300  0.307300  0.219000  1.0  0.1241
  H  H137  1  0.469000  0.210400  0.165100  1.0  0.1037
  H  H138  1  0.310500  0.332000  0.314400  1.0  0.1039
  H  H139  1  0.580000  0.697100  0.127600  1.0  0.1073
  H  H140  1  0.688800  0.745500  0.166900  1.0  0.1029
  H  H141  1  0.505300  0.644600  0.191300  1.0  0.0888
  H  H142  1  0.428300  0.781000  0.088300  1.0  0.1216
  H  H143  1  0.469000  0.834900  0.045300  1.0  0.1055
  H  H144  1  0.310500  0.685600  0.017600  1.0  0.1043
  H  H145  1  0.580000  0.872400  0.569500  1.0  0.1077
  H  H146  1  0.688800  0.833100  0.578600  1.0  0.1016
  H  H147  1  0.505300  0.808700  0.453300  1.0  0.0887
  H  H148  1  0.428300  0.911700  0.692700  1.0  0.1232
  H  H149  1  0.469000  0.954700  0.789600  1.0  0.103
  H  H150  1  0.310500  0.982400  0.668000  1.0  0.104
  H  H151  1  0.080000  0.569500  0.697100  1.0  0.1082
  H  H152  1  0.188800  0.578600  0.745500  1.0  0.103
  H  H153  1  0.005300  0.453300  0.644600  1.0  0.0894
  H  H154  1  0.928300  0.692700  0.781000  1.0  0.1235
  H  H155  1  0.969000  0.789600  0.834900  1.0  0.1044
  H  H156  1  0.810500  0.668000  0.685600  1.0  0.1042
  H  H157  1  0.080000  0.302900  0.872400  1.0  0.1079
  H  H158  1  0.188800  0.254500  0.833100  1.0  0.1012
  H  H159  1  0.005300  0.355400  0.808700  1.0  0.0893
  H  H160  1  0.928300  0.219000  0.911700  1.0  0.1227
  H  H161  1  0.969000  0.165100  0.954700  1.0  0.1061
  H  H162  1  0.810500  0.314400  0.982400  1.0  0.1045
  H  H163  1  0.080000  0.127600  0.430500  1.0  0.1073
  H  H164  1  0.188800  0.166900  0.421400  1.0  0.1012
  H  H165  1  0.005300  0.191300  0.546700  1.0  0.0889
  H  H166  1  0.928300  0.088300  0.307300  1.0  0.1226
  H  H167  1  0.969000  0.045300  0.210400  1.0  0.1023
  H  H168  1  0.810500  0.017600  0.332000  1.0  0.1037
  H  H169  1  0.362600  0.778950  0.221050  1.0  0.0824
  H  H170  1  0.362600  0.442100  0.221050  1.0  0.0817
  H  H171  1  0.362600  0.778950  0.557900  1.0  0.0825
  H  H172  1  0.862600  0.221050  0.778950  1.0  0.0826
  H  H173  1  0.862600  0.557900  0.778950  1.0  0.0819
  H  H174  1  0.862600  0.221050  0.442100  1.0  0.0824
  H  H175  1  0.637400  0.557900  0.778950  1.0  0.081
  H  H176  1  0.637400  0.221050  0.778950  1.0  0.0817
  H  H177  1  0.637400  0.221050  0.442100  1.0  0.0813
  H  H178  1  0.137400  0.442100  0.221050  1.0  0.0809
  H  H179  1  0.137400  0.778950  0.221050  1.0  0.0813
  H  H180  1  0.137400  0.778950  0.557900  1.0  0.0817
  H  H181  1  0.500000  0.000000  0.419600  1.0  0.0849
  H  H182  1  0.500000  0.419600  0.000000  1.0  0.084
  H  H183  1  0.500000  0.580400  0.580400  1.0  0.0837
  H  H184  1  0.000000  0.000000  0.580400  1.0  0.0841
  H  H185  1  0.000000  0.580400  0.000000  1.0  0.0843
  H  H186  1  0.000000  0.419600  0.419600  1.0  0.0836
  H  H187  1  0.500000  0.000000  0.580400  1.0  0.0841
  H  H188  1  0.500000  0.580400  0.000000  1.0  0.0843
  H  H189  1  0.500000  0.419600  0.419600  1.0  0.0836
  H  H190  1  0.000000  0.000000  0.419600  1.0  0.0849
  H  H191  1  0.000000  0.419600  0.000000  1.0  0.084
  H  H192  1  0.000000  0.580400  0.580400  1.0  0.0837
  C  C193  1  0.515000  0.810200  0.241900  1.0  0.2401
  C  C194  1  0.579900  0.837400  0.266500  1.0  -0.1528
  C  C195  1  0.644500  0.813700  0.238300  1.0  -0.1063
  C  C196  1  0.482000  0.836700  0.389900  1.0  0.0603
  C  C197  1  0.479000  0.972900  0.295400  1.0  0.0933
  C  C198  1  0.457000  0.945900  0.236400  1.0  -0.0923
  C  C199  1  0.479900  0.972700  0.205300  1.0  -0.0797
  C  C200  1  0.280400  0.954400  0.316100  1.0  0.0841
  C  C201  1  0.515000  0.431700  0.189800  1.0  0.2421
  C  C202  1  0.579900  0.429100  0.162600  1.0  -0.1513
  C  C203  1  0.644500  0.424600  0.186300  1.0  -0.1056
  C  C204  1  0.482000  0.553200  0.163300  1.0  0.0646
  C  C205  1  0.479000  0.322500  0.027100  1.0  0.0928
  C  C206  1  0.457000  0.290500  0.054100  1.0  -0.0916
  C  C207  1  0.479900  0.232600  0.027300  1.0  -0.0825
  C  C208  1  0.280400  0.361700  0.045600  1.0  0.0804
  C  C209  1  0.515000  0.758100  0.568300  1.0  0.2411
  C  C210  1  0.579900  0.733500  0.570900  1.0  -0.1518
  C  C211  1  0.644500  0.761700  0.575400  1.0  -0.1058
  C  C212  1  0.482000  0.610100  0.446800  1.0  0.0608
  C  C213  1  0.479000  0.704600  0.677500  1.0  0.0926
  C  C214  1  0.457000  0.763600  0.709500  1.0  -0.0894
  C  C215  1  0.479900  0.794700  0.767400  1.0  -0.0766
  C  C216  1  0.280400  0.683900  0.638300  1.0  0.0879
  C  C217  1  0.015000  0.189800  0.758100  1.0  0.2411
  C  C218  1  0.079900  0.162600  0.733500  1.0  -0.1512
  C  C219  1  0.144500  0.186300  0.761700  1.0  -0.1069
  C  C220  1  0.982000  0.163300  0.610100  1.0  0.0616
  C  C221  1  0.979000  0.027100  0.704600  1.0  0.0935
  C  C222  1  0.957000  0.054100  0.763600  1.0  -0.0922
  C  C223  1  0.979900  0.027300  0.794700  1.0  -0.0787
  C  C224  1  0.780400  0.045600  0.683900  1.0  0.0845
  C  C225  1  0.015000  0.568300  0.810200  1.0  0.2414
  C  C226  1  0.079900  0.570900  0.837400  1.0  -0.1505
  C  C227  1  0.144500  0.575400  0.813700  1.0  -0.1049
  C  C228  1  0.982000  0.446800  0.836700  1.0  0.0629
  C  C229  1  0.979000  0.677500  0.972900  1.0  0.0926
  C  C230  1  0.957000  0.709500  0.945900  1.0  -0.0911
  C  C231  1  0.979900  0.767400  0.972700  1.0  -0.0809
  C  C232  1  0.780400  0.638300  0.954400  1.0  0.083
  C  C233  1  0.015000  0.241900  0.431700  1.0  0.2402
  C  C234  1  0.079900  0.266500  0.429100  1.0  -0.1507
  C  C235  1  0.144500  0.238300  0.424600  1.0  -0.1067
  C  C236  1  0.982000  0.389900  0.553200  1.0  0.0633
  C  C237  1  0.979000  0.295400  0.322500  1.0  0.0923
  C  C238  1  0.957000  0.236400  0.290500  1.0  -0.0898
  C  C239  1  0.979900  0.205300  0.232600  1.0  -0.0789
  C  C240  1  0.780400  0.316100  0.361700  1.0  0.0868
  C  C241  1  0.485000  0.568300  0.758100  1.0  0.2389
  C  C242  1  0.420100  0.570900  0.733500  1.0  -0.1495
  C  C243  1  0.355500  0.575400  0.761700  1.0  -0.1055
  C  C244  1  0.518000  0.446800  0.610100  1.0  0.0629
  C  C245  1  0.521000  0.677500  0.704600  1.0  0.0936
  C  C246  1  0.543000  0.709500  0.763600  1.0  -0.0913
  C  C247  1  0.520100  0.767400  0.794700  1.0  -0.0809
  C  C248  1  0.719600  0.638300  0.683900  1.0  0.0828
  C  C249  1  0.485000  0.241900  0.810200  1.0  0.2368
  C  C250  1  0.420100  0.266500  0.837400  1.0  -0.1506
  C  C251  1  0.355500  0.238300  0.813700  1.0  -0.1069
  C  C252  1  0.518000  0.389900  0.836700  1.0  0.063
  C  C253  1  0.521000  0.295400  0.972900  1.0  0.0929
  C  C254  1  0.543000  0.236400  0.945900  1.0  -0.0883
  C  C255  1  0.520100  0.205300  0.972700  1.0  -0.0806
  C  C256  1  0.719600  0.316100  0.954400  1.0  0.0877
  C  C257  1  0.485000  0.189800  0.431700  1.0  0.2368
  C  C258  1  0.420100  0.162600  0.429100  1.0  -0.1495
  C  C259  1  0.355500  0.186300  0.424600  1.0  -0.1063
  C  C260  1  0.518000  0.163300  0.553200  1.0  0.0607
  C  C261  1  0.521000  0.027100  0.322500  1.0  0.0938
  C  C262  1  0.543000  0.054100  0.290500  1.0  -0.0913
  C  C263  1  0.520100  0.027300  0.232600  1.0  -0.0806
  C  C264  1  0.719600  0.045600  0.361700  1.0  0.0822
  C  C265  1  0.985000  0.431700  0.241900  1.0  0.2378
  C  C266  1  0.920100  0.429100  0.266500  1.0  -0.1488
  C  C267  1  0.855500  0.424600  0.238300  1.0  -0.1055
  C  C268  1  0.018000  0.553200  0.389900  1.0  0.0636
  C  C269  1  0.021000  0.322500  0.295400  1.0  0.0931
  C  C270  1  0.043000  0.290500  0.236400  1.0  -0.091
  C  C271  1  0.020100  0.232600  0.205300  1.0  -0.0829
  C  C272  1  0.219600  0.361700  0.316100  1.0  0.0812
  C  C273  1  0.985000  0.758100  0.189800  1.0  0.2376
  C  C274  1  0.920100  0.733500  0.162600  1.0  -0.1489
  C  C275  1  0.855500  0.761700  0.186300  1.0  -0.106
  C  C276  1  0.018000  0.610100  0.163300  1.0  0.0595
  C  C277  1  0.021000  0.704600  0.027100  1.0  0.0935
  C  C278  1  0.043000  0.763600  0.054100  1.0  -0.0897
  C  C279  1  0.020100  0.794700  0.027300  1.0  -0.0771
  C  C280  1  0.219600  0.683900  0.045600  1.0  0.0861
  C  C281  1  0.985000  0.810200  0.568300  1.0  0.2374
  C  C282  1  0.920100  0.837400  0.570900  1.0  -0.1508
  C  C283  1  0.855500  0.813700  0.575400  1.0  -0.1057
  C  C284  1  0.018000  0.836700  0.446800  1.0  0.062
  C  C285  1  0.021000  0.972900  0.677500  1.0  0.0946
  C  C286  1  0.043000  0.945900  0.709500  1.0  -0.0907
  C  C287  1  0.020100  0.972700  0.767400  1.0  -0.0791
  C  C288  1  0.219600  0.954400  0.638300  1.0  0.0838
  C  C289  1  0.485000  0.189800  0.758100  1.0  0.2373
  C  C290  1  0.420100  0.162600  0.733500  1.0  -0.152
  C  C291  1  0.355500  0.186300  0.761700  1.0  -0.1063
  C  C292  1  0.518000  0.163300  0.610100  1.0  0.0619
  C  C293  1  0.521000  0.027100  0.704600  1.0  0.0929
  C  C294  1  0.543000  0.054100  0.763600  1.0  -0.0917
  C  C295  1  0.520100  0.027300  0.794700  1.0  -0.0784
  C  C296  1  0.719600  0.045600  0.683900  1.0  0.0842
  C  C297  1  0.485000  0.568300  0.810200  1.0  0.2385
  C  C298  1  0.420100  0.570900  0.837400  1.0  -0.1515
  C  C299  1  0.355500  0.575400  0.813700  1.0  -0.1057
  C  C300  1  0.518000  0.446800  0.836700  1.0  0.0636
  C  C301  1  0.521000  0.677500  0.972900  1.0  0.0921
  C  C302  1  0.543000  0.709500  0.945900  1.0  -0.0912
  C  C303  1  0.520100  0.767400  0.972700  1.0  -0.0816
  C  C304  1  0.719600  0.638300  0.954400  1.0  0.082
  C  C305  1  0.485000  0.241900  0.431700  1.0  0.2368
  C  C306  1  0.420100  0.266500  0.429100  1.0  -0.1526
  C  C307  1  0.355500  0.238300  0.424600  1.0  -0.1062
  C  C308  1  0.518000  0.389900  0.553200  1.0  0.0624
  C  C309  1  0.521000  0.295400  0.322500  1.0  0.0918
  C  C310  1  0.543000  0.236400  0.290500  1.0  -0.0897
  C  C311  1  0.520100  0.205300  0.232600  1.0  -0.0798
  C  C312  1  0.719600  0.316100  0.361700  1.0  0.0864
  C  C313  1  0.985000  0.810200  0.241900  1.0  0.2369
  C  C314  1  0.920100  0.837400  0.266500  1.0  -0.1544
  C  C315  1  0.855500  0.813700  0.238300  1.0  -0.1055
  C  C316  1  0.018000  0.836700  0.389900  1.0  0.0605
  C  C317  1  0.021000  0.972900  0.295400  1.0  0.0927
  C  C318  1  0.043000  0.945900  0.236400  1.0  -0.0929
  C  C319  1  0.020100  0.972700  0.205300  1.0  -0.0806
  C  C320  1  0.219600  0.954400  0.316100  1.0  0.0837
  C  C321  1  0.985000  0.431700  0.189800  1.0  0.2383
  C  C322  1  0.920100  0.429100  0.162600  1.0  -0.1527
  C  C323  1  0.855500  0.424600  0.186300  1.0  -0.105
  C  C324  1  0.018000  0.553200  0.163300  1.0  0.0635
  C  C325  1  0.021000  0.322500  0.027100  1.0  0.0924
  C  C326  1  0.043000  0.290500  0.054100  1.0  -0.0909
  C  C327  1  0.020100  0.232600  0.027300  1.0  -0.0826
  C  C328  1  0.219600  0.361700  0.045600  1.0  0.0803
  C  C329  1  0.985000  0.758100  0.568300  1.0  0.2376
  C  C330  1  0.920100  0.733500  0.570900  1.0  -0.1523
  C  C331  1  0.855500  0.761700  0.575400  1.0  -0.1057
  C  C332  1  0.018000  0.610100  0.446800  1.0  0.0608
  C  C333  1  0.021000  0.704600  0.677500  1.0  0.092
  C  C334  1  0.043000  0.763600  0.709500  1.0  -0.0893
  C  C335  1  0.020100  0.794700  0.767400  1.0  -0.077
  C  C336  1  0.219600  0.683900  0.638300  1.0  0.0874
  C  C337  1  0.515000  0.431700  0.241900  1.0  0.2413
  C  C338  1  0.579900  0.429100  0.266500  1.0  -0.1535
  C  C339  1  0.644500  0.424600  0.238300  1.0  -0.1042
  C  C340  1  0.482000  0.553200  0.389900  1.0  0.0643
  C  C341  1  0.479000  0.322500  0.295400  1.0  0.0936
  C  C342  1  0.457000  0.290500  0.236400  1.0  -0.0906
  C  C343  1  0.479900  0.232600  0.205300  1.0  -0.082
  C  C344  1  0.280400  0.361700  0.316100  1.0  0.0818
  C  C345  1  0.515000  0.758100  0.189800  1.0  0.2408
  C  C346  1  0.579900  0.733500  0.162600  1.0  -0.1541
  C  C347  1  0.644500  0.761700  0.186300  1.0  -0.1059
  C  C348  1  0.482000  0.610100  0.163300  1.0  0.0616
  C  C349  1  0.479000  0.704600  0.027100  1.0  0.094
  C  C350  1  0.457000  0.763600  0.054100  1.0  -0.09
  C  C351  1  0.479900  0.794700  0.027300  1.0  -0.0764
  C  C352  1  0.280400  0.683900  0.045600  1.0  0.0864
  C  C353  1  0.515000  0.810200  0.568300  1.0  0.2406
  C  C354  1  0.579900  0.837400  0.570900  1.0  -0.1543
  C  C355  1  0.644500  0.813700  0.575400  1.0  -0.106
  C  C356  1  0.482000  0.836700  0.446800  1.0  0.0625
  C  C357  1  0.479000  0.972900  0.677500  1.0  0.0953
  C  C358  1  0.457000  0.945900  0.709500  1.0  -0.091
  C  C359  1  0.479900  0.972700  0.767400  1.0  -0.0795
  C  C360  1  0.280400  0.954400  0.638300  1.0  0.0844
  C  C361  1  0.015000  0.568300  0.758100  1.0  0.2422
  C  C362  1  0.079900  0.570900  0.733500  1.0  -0.1544
  C  C363  1  0.144500  0.575400  0.761700  1.0  -0.1049
  C  C364  1  0.982000  0.446800  0.610100  1.0  0.0642
  C  C365  1  0.979000  0.677500  0.704600  1.0  0.0941
  C  C366  1  0.957000  0.709500  0.763600  1.0  -0.092
  C  C367  1  0.979900  0.767400  0.794700  1.0  -0.081
  C  C368  1  0.780400  0.638300  0.683900  1.0  0.0833
  C  C369  1  0.015000  0.241900  0.810200  1.0  0.2405
  C  C370  1  0.079900  0.266500  0.837400  1.0  -0.1544
  C  C371  1  0.144500  0.238300  0.813700  1.0  -0.1057
  C  C372  1  0.982000  0.389900  0.836700  1.0  0.0638
  C  C373  1  0.979000  0.295400  0.972900  1.0  0.0935
  C  C374  1  0.957000  0.236400  0.945900  1.0  -0.0884
  C  C375  1  0.979900  0.205300  0.972700  1.0  -0.0799
  C  C376  1  0.780400  0.316100  0.954400  1.0  0.0883
  C  C377  1  0.015000  0.189800  0.431700  1.0  0.2405
  C  C378  1  0.079900  0.162600  0.429100  1.0  -0.1548
  C  C379  1  0.144500  0.186300  0.424600  1.0  -0.1057
  C  C380  1  0.982000  0.163300  0.553200  1.0  0.0606
  C  C381  1  0.979000  0.027100  0.322500  1.0  0.0943
  C  C382  1  0.957000  0.054100  0.290500  1.0  -0.0907
  C  C383  1  0.979900  0.027300  0.232600  1.0  -0.0799
  C  C384  1  0.780400  0.045600  0.361700  1.0  0.0822
  C  C385  1  0.413800  0.780550  0.219450  1.0  0.2489
  C  C386  1  0.413800  0.438900  0.219450  1.0  0.2493
  C  C387  1  0.413800  0.780550  0.561100  1.0  0.2492
  C  C388  1  0.913800  0.219450  0.780550  1.0  0.2491
  C  C389  1  0.913800  0.561100  0.780550  1.0  0.2491
  C  C390  1  0.913800  0.219450  0.438900  1.0  0.2488
  C  C391  1  0.586200  0.561100  0.780550  1.0  0.2507
  C  C392  1  0.586200  0.219450  0.780550  1.0  0.2508
  C  C393  1  0.586200  0.219450  0.438900  1.0  0.2505
  C  C394  1  0.086200  0.438900  0.219450  1.0  0.2509
  C  C395  1  0.086200  0.780550  0.219450  1.0  0.2507
  C  C396  1  0.086200  0.780550  0.561100  1.0  0.251
  C  C397  1  0.422300  0.904600  0.452300  1.0  0.5019
  C  C398  1  0.422300  0.547700  0.095400  1.0  0.502
  C  C399  1  0.422300  0.547700  0.452300  1.0  0.5014
  C  C400  1  0.922300  0.095400  0.547700  1.0  0.5017
  C  C401  1  0.922300  0.452300  0.904600  1.0  0.5012
  C  C402  1  0.922300  0.452300  0.547700  1.0  0.5019
  C  C403  1  0.577700  0.452300  0.547700  1.0  0.5027
  C  C404  1  0.577700  0.452300  0.904600  1.0  0.502
  C  C405  1  0.577700  0.095400  0.547700  1.0  0.5024
  C  C406  1  0.077700  0.547700  0.452300  1.0  0.5022
  C  C407  1  0.077700  0.547700  0.095400  1.0  0.5027
  C  C408  1  0.077700  0.904600  0.452300  1.0  0.5027
  C  C409  1  0.500000  0.000000  0.383900  1.0  0.2022
  C  C410  1  0.500000  0.383900  0.000000  1.0  0.201
  C  C411  1  0.500000  0.616100  0.616100  1.0  0.2018
  C  C412  1  0.000000  0.000000  0.616100  1.0  0.202
  C  C413  1  0.000000  0.616100  0.000000  1.0  0.2018
  C  C414  1  0.000000  0.383900  0.383900  1.0  0.2016
  C  C415  1  0.500000  0.000000  0.616100  1.0  0.202
  C  C416  1  0.500000  0.616100  0.000000  1.0  0.2018
  C  C417  1  0.500000  0.383900  0.383900  1.0  0.2016
  C  C418  1  0.000000  0.000000  0.383900  1.0  0.2022
  C  C419  1  0.000000  0.383900  0.000000  1.0  0.201
  C  C420  1  0.000000  0.616100  0.616100  1.0  0.2018
  C  C421  1  0.250000  0.873900  0.321700  1.0  0.2748
  C  C422  1  0.250000  0.447800  0.126100  1.0  0.2746
  C  C423  1  0.250000  0.678300  0.552200  1.0  0.2751
  C  C424  1  0.750000  0.126100  0.678300  1.0  0.2749
  C  C425  1  0.750000  0.552200  0.873900  1.0  0.2748
  C  C426  1  0.750000  0.321700  0.447800  1.0  0.2756
  C  C427  1  0.750000  0.552200  0.678300  1.0  0.2746
  C  C428  1  0.750000  0.321700  0.873900  1.0  0.2751
  C  C429  1  0.750000  0.126100  0.447800  1.0  0.275
  C  C430  1  0.250000  0.447800  0.321700  1.0  0.2748
  C  C431  1  0.250000  0.678300  0.126100  1.0  0.2755
  C  C432  1  0.250000  0.873900  0.552200  1.0  0.2747
  N  N433  1  0.450500  0.823400  0.260000  1.0  -0.3632
  N  N434  1  0.447100  0.878600  0.395200  1.0  -0.4026
  N  N435  1  0.466000  0.956300  0.337900  1.0  -0.4542
  N  N436  1  0.304800  0.904200  0.319200  1.0  -0.3503
  N  N437  1  0.450500  0.436600  0.176600  1.0  -0.3606
  N  N438  1  0.447100  0.516600  0.121400  1.0  -0.4034
  N  N439  1  0.466000  0.381600  0.043700  1.0  -0.4546
  N  N440  1  0.304800  0.415000  0.095800  1.0  -0.3502
  N  N441  1  0.450500  0.740000  0.563400  1.0  -0.3644
  N  N442  1  0.447100  0.604800  0.483400  1.0  -0.406
  N  N443  1  0.466000  0.662100  0.618400  1.0  -0.4542
  N  N444  1  0.304800  0.680800  0.585000  1.0  -0.3506
  N  N445  1  0.950500  0.176600  0.740000  1.0  -0.3635
  N  N446  1  0.947100  0.121400  0.604800  1.0  -0.4034
  N  N447  1  0.966000  0.043700  0.662100  1.0  -0.4545
  N  N448  1  0.804800  0.095800  0.680800  1.0  -0.3497
  N  N449  1  0.950500  0.563400  0.823400  1.0  -0.3605
  N  N450  1  0.947100  0.483400  0.878600  1.0  -0.4029
  N  N451  1  0.966000  0.618400  0.956300  1.0  -0.4544
  N  N452  1  0.804800  0.585000  0.904200  1.0  -0.3504
  N  N453  1  0.950500  0.260000  0.436600  1.0  -0.3642
  N  N454  1  0.947100  0.395200  0.516600  1.0  -0.4038
  N  N455  1  0.966000  0.337900  0.381600  1.0  -0.4535
  N  N456  1  0.804800  0.319200  0.415000  1.0  -0.3497
  N  N457  1  0.549500  0.563400  0.740000  1.0  -0.3605
  N  N458  1  0.552900  0.483400  0.604800  1.0  -0.4027
  N  N459  1  0.534000  0.618400  0.662100  1.0  -0.4538
  N  N460  1  0.695200  0.585000  0.680800  1.0  -0.3486
  N  N461  1  0.549500  0.260000  0.823400  1.0  -0.3631
  N  N462  1  0.552900  0.395200  0.878600  1.0  -0.4054
  N  N463  1  0.534000  0.337900  0.956300  1.0  -0.4534
  N  N464  1  0.695200  0.319200  0.904200  1.0  -0.3489
  N  N465  1  0.549500  0.176600  0.436600  1.0  -0.3622
  N  N466  1  0.552900  0.121400  0.516600  1.0  -0.4029
  N  N467  1  0.534000  0.043700  0.381600  1.0  -0.4536
  N  N468  1  0.695200  0.095800  0.415000  1.0  -0.3486
  N  N469  1  0.049500  0.436600  0.260000  1.0  -0.3597
  N  N470  1  0.052900  0.516600  0.395200  1.0  -0.4032
  N  N471  1  0.034000  0.381600  0.337900  1.0  -0.4538
  N  N472  1  0.195200  0.415000  0.319200  1.0  -0.3489
  N  N473  1  0.049500  0.740000  0.176600  1.0  -0.364
  N  N474  1  0.052900  0.604800  0.121400  1.0  -0.4044
  N  N475  1  0.034000  0.662100  0.043700  1.0  -0.4531
  N  N476  1  0.195200  0.680800  0.095800  1.0  -0.3477
  N  N477  1  0.049500  0.823400  0.563400  1.0  -0.363
  N  N478  1  0.052900  0.878600  0.483400  1.0  -0.4033
  N  N479  1  0.034000  0.956300  0.618400  1.0  -0.4537
  N  N480  1  0.195200  0.904200  0.585000  1.0  -0.3483
  N  N481  1  0.549500  0.176600  0.740000  1.0  -0.3631
  N  N482  1  0.552900  0.121400  0.604800  1.0  -0.4032
  N  N483  1  0.534000  0.043700  0.662100  1.0  -0.4538
  N  N484  1  0.695200  0.095800  0.680800  1.0  -0.3484
  N  N485  1  0.549500  0.563400  0.823400  1.0  -0.3594
  N  N486  1  0.552900  0.483400  0.878600  1.0  -0.4022
  N  N487  1  0.534000  0.618400  0.956300  1.0  -0.4537
  N  N488  1  0.695200  0.585000  0.904200  1.0  -0.3485
  N  N489  1  0.549500  0.260000  0.436600  1.0  -0.3638
  N  N490  1  0.552900  0.395200  0.516600  1.0  -0.4038
  N  N491  1  0.534000  0.337900  0.381600  1.0  -0.4529
  N  N492  1  0.695200  0.319200  0.415000  1.0  -0.3478
  N  N493  1  0.049500  0.823400  0.260000  1.0  -0.3626
  N  N494  1  0.052900  0.878600  0.395200  1.0  -0.4022
  N  N495  1  0.034000  0.956300  0.337900  1.0  -0.4535
  N  N496  1  0.195200  0.904200  0.319200  1.0  -0.3486
  N  N497  1  0.049500  0.436600  0.176600  1.0  -0.3607
  N  N498  1  0.052900  0.516600  0.121400  1.0  -0.403
  N  N499  1  0.034000  0.381600  0.043700  1.0  -0.4539
  N  N500  1  0.195200  0.415000  0.095800  1.0  -0.3491
  N  N501  1  0.049500  0.740000  0.563400  1.0  -0.3638
  N  N502  1  0.052900  0.604800  0.483400  1.0  -0.4056
  N  N503  1  0.034000  0.662100  0.618400  1.0  -0.4534
  N  N504  1  0.195200  0.680800  0.585000  1.0  -0.3489
  N  N505  1  0.450500  0.436600  0.260000  1.0  -0.3606
  N  N506  1  0.447100  0.516600  0.395200  1.0  -0.4028
  N  N507  1  0.466000  0.381600  0.337900  1.0  -0.4544
  N  N508  1  0.304800  0.415000  0.319200  1.0  -0.3501
  N  N509  1  0.450500  0.740000  0.176600  1.0  -0.3644
  N  N510  1  0.447100  0.604800  0.121400  1.0  -0.4039
  N  N511  1  0.466000  0.662100  0.043700  1.0  -0.454
  N  N512  1  0.304800  0.680800  0.095800  1.0  -0.3497
  N  N513  1  0.450500  0.823400  0.563400  1.0  -0.3634
  N  N514  1  0.447100  0.878600  0.483400  1.0  -0.403
  N  N515  1  0.466000  0.956300  0.618400  1.0  -0.4546
  N  N516  1  0.304800  0.904200  0.585000  1.0  -0.3502
  N  N517  1  0.950500  0.563400  0.740000  1.0  -0.3607
  N  N518  1  0.947100  0.483400  0.604800  1.0  -0.4027
  N  N519  1  0.966000  0.618400  0.662100  1.0  -0.4545
  N  N520  1  0.804800  0.585000  0.680800  1.0  -0.3504
  N  N521  1  0.950500  0.260000  0.823400  1.0  -0.3637
  N  N522  1  0.947100  0.395200  0.878600  1.0  -0.4051
  N  N523  1  0.966000  0.337900  0.956300  1.0  -0.4539
  N  N524  1  0.804800  0.319200  0.904200  1.0  -0.3506
  N  N525  1  0.950500  0.176600  0.436600  1.0  -0.3628
  N  N526  1  0.947100  0.121400  0.516600  1.0  -0.4022
  N  N527  1  0.966000  0.043700  0.381600  1.0  -0.4541
  N  N528  1  0.804800  0.095800  0.415000  1.0  -0.3499
  N  N529  1  0.386400  0.949700  0.474850  1.0  0.7816
  N  N530  1  0.386400  0.525150  0.050300  1.0  0.7841
  N  N531  1  0.386400  0.525150  0.474850  1.0  0.7846
  N  N532  1  0.886400  0.050300  0.525150  1.0  0.7813
  N  N533  1  0.886400  0.474850  0.949700  1.0  0.7843
  N  N534  1  0.886400  0.474850  0.525150  1.0  0.7849
  N  N535  1  0.613600  0.474850  0.525150  1.0  0.7846
  N  N536  1  0.613600  0.474850  0.949700  1.0  0.7834
  N  N537  1  0.613600  0.050300  0.525150  1.0  0.7817
  N  N538  1  0.113600  0.525150  0.474850  1.0  0.784
  N  N539  1  0.113600  0.525150  0.050300  1.0  0.784
  N  N540  1  0.113600  0.949700  0.474850  1.0  0.7807
  N  N541  1  0.250000  0.828900  0.324900  1.0  0.2494
  N  N542  1  0.250000  0.496000  0.171100  1.0  0.2488
  N  N543  1  0.250000  0.675100  0.504000  1.0  0.2492
  N  N544  1  0.750000  0.171100  0.675100  1.0  0.2505
  N  N545  1  0.750000  0.504000  0.828900  1.0  0.2499
  N  N546  1  0.750000  0.324900  0.496000  1.0  0.2507
  N  N547  1  0.750000  0.504000  0.675100  1.0  0.2486
  N  N548  1  0.750000  0.324900  0.828900  1.0  0.2499
  N  N549  1  0.750000  0.171100  0.496000  1.0  0.2497
  N  N550  1  0.250000  0.496000  0.324900  1.0  0.2509
  N  N551  1  0.250000  0.675100  0.171100  1.0  0.2501
  N  N552  1  0.250000  0.828900  0.504000  1.0  0.2492
  O  O553  1  0.375500  0.973200  0.444900  1.0  -0.6352
  O  O554  1  0.305800  0.812100  0.327900  1.0  -0.4926
  O  O555  1  0.375500  0.471700  0.026800  1.0  -0.6364
  O  O556  1  0.305800  0.515800  0.187900  1.0  -0.4906
  O  O557  1  0.375500  0.555100  0.528300  1.0  -0.6378
  O  O558  1  0.305800  0.672100  0.484200  1.0  -0.4945
  O  O559  1  0.875500  0.026800  0.555100  1.0  -0.6339
  O  O560  1  0.805800  0.187900  0.672100  1.0  -0.493
  O  O561  1  0.875500  0.528300  0.973200  1.0  -0.6382
  O  O562  1  0.805800  0.484200  0.812100  1.0  -0.4909
  O  O563  1  0.875500  0.444900  0.471700  1.0  -0.6357
  O  O564  1  0.805800  0.327900  0.515800  1.0  -0.4947
  O  O565  1  0.624500  0.528300  0.555100  1.0  -0.6358
  O  O566  1  0.694200  0.484200  0.672100  1.0  -0.4915
  O  O567  1  0.624500  0.444900  0.973200  1.0  -0.6372
  O  O568  1  0.694200  0.327900  0.812100  1.0  -0.4947
  O  O569  1  0.624500  0.026800  0.471700  1.0  -0.635
  O  O570  1  0.694200  0.187900  0.515800  1.0  -0.495
  O  O571  1  0.124500  0.471700  0.444900  1.0  -0.6369
  O  O572  1  0.194200  0.515800  0.327900  1.0  -0.4925
  O  O573  1  0.124500  0.555100  0.026800  1.0  -0.6359
  O  O574  1  0.194200  0.672100  0.187900  1.0  -0.4948
  O  O575  1  0.124500  0.973200  0.528300  1.0  -0.6341
  O  O576  1  0.194200  0.812100  0.484200  1.0  -0.493
  O  O577  1  0.624500  0.026800  0.555100  1.0  -0.6339
  O  O578  1  0.694200  0.187900  0.672100  1.0  -0.4952
  O  O579  1  0.624500  0.528300  0.973200  1.0  -0.6357
  O  O580  1  0.694200  0.484200  0.812100  1.0  -0.4921
  O  O581  1  0.624500  0.444900  0.471700  1.0  -0.6351
  O  O582  1  0.694200  0.327900  0.515800  1.0  -0.4954
  O  O583  1  0.124500  0.973200  0.444900  1.0  -0.6341
  O  O584  1  0.194200  0.812100  0.327900  1.0  -0.4933
  O  O585  1  0.124500  0.471700  0.026800  1.0  -0.6367
  O  O586  1  0.194200  0.515800  0.187900  1.0  -0.4927
  O  O587  1  0.124500  0.555100  0.528300  1.0  -0.6375
  O  O588  1  0.194200  0.672100  0.484200  1.0  -0.4942
  O  O589  1  0.375500  0.471700  0.444900  1.0  -0.6368
  O  O590  1  0.305800  0.515800  0.327900  1.0  -0.4906
  O  O591  1  0.375500  0.555100  0.026800  1.0  -0.6361
  O  O592  1  0.305800  0.672100  0.187900  1.0  -0.4942
  O  O593  1  0.375500  0.973200  0.528300  1.0  -0.6349
  O  O594  1  0.305800  0.812100  0.484200  1.0  -0.4926
  O  O595  1  0.875500  0.528300  0.555100  1.0  -0.6374
  O  O596  1  0.805800  0.484200  0.672100  1.0  -0.4901
  O  O597  1  0.875500  0.444900  0.973200  1.0  -0.638
  O  O598  1  0.805800  0.327900  0.812100  1.0  -0.4951
  O  O599  1  0.875500  0.026800  0.471700  1.0  -0.6352
  O  O600  1  0.805800  0.187900  0.515800  1.0  -0.4923
