# generated using pymatgen
data_Co3H29(C2N)12
_symmetry_space_group_name_H-M   'P 1'
_cell_length_a   14.68680000
_cell_length_b   14.68680000
_cell_length_c   14.68680000
_cell_angle_alpha   109.47100000
_cell_angle_beta   109.47100000
_cell_angle_gamma   109.47100000
_symmetry_Int_Tables_number   1
_chemical_formula_structural   Co3H29(C2N)12
_chemical_formula_sum   'Co6 H58 C48 N24'
_cell_volume   2438.72707201
_cell_formula_units_Z   2
loop_
 _symmetry_equiv_pos_site_id
 _symmetry_equiv_pos_as_xyz
  1  'x, y, z'
loop_
 _atom_site_type_symbol
 _atom_site_label
 _atom_site_symmetry_multiplicity
 _atom_site_fract_x
 _atom_site_fract_y
 _atom_site_fract_z
 _atom_site_occupancy
 _atom_site_charge
  Co  Co1  1  0.750000  0.250000  0.500000  1.0  0.799
  Co  Co2  1  0.250000  0.750000  0.500000  1.0  0.7792
  Co  Co3  1  0.500000  0.250000  0.750000  1.0  0.8226
  Co  Co4  1  0.500000  0.750000  0.250000  1.0  0.8234
  Co  Co5  1  0.250000  0.500000  0.750000  1.0  0.8456
  Co  Co6  1  0.750000  0.500000  0.250000  1.0  0.779
  H  H7  1  0.572110  0.352020  0.469070  1.0  0.092
  H  H8  1  0.117060  0.647980  0.220090  1.0  0.0944
  H  H9  1  0.427890  0.896970  0.779910  1.0  0.0999
  H  H10  1  0.220090  0.117060  0.647980  1.0  0.0919
  H  H11  1  0.779910  0.427890  0.896970  1.0  0.0947
  H  H12  1  0.469070  0.572110  0.352020  1.0  0.0933
  H  H13  1  0.530920  0.882940  0.103030  1.0  0.0996
  H  H14  1  0.352020  0.469070  0.572110  1.0  0.0835
  H  H15  1  0.896970  0.779910  0.427890  1.0  0.094
  H  H16  1  0.647980  0.220090  0.117060  1.0  0.0966
  H  H17  1  0.103030  0.882940  0.530920  1.0  0.0933
  H  H18  1  0.352020  0.572110  0.469070  1.0  0.0962
  H  H19  1  0.896970  0.427890  0.779910  1.0  0.1011
  H  H20  1  0.647980  0.117060  0.220090  1.0  0.0901
  H  H21  1  0.572110  0.469070  0.352020  1.0  0.0995
  H  H22  1  0.882940  0.530920  0.103030  1.0  0.0998
  H  H23  1  0.117060  0.220090  0.647980  1.0  0.1015
  H  H24  1  0.427890  0.779910  0.896970  1.0  0.0906
  H  H25  1  0.220090  0.647980  0.117060  1.0  0.1019
  H  H26  1  0.779910  0.896970  0.427890  1.0  0.1024
  H  H27  1  0.469070  0.352020  0.572110  1.0  0.0998
  H  H28  1  0.530920  0.103030  0.882940  1.0  0.0899
  H  H29  1  0.736850  0.174330  0.647230  1.0  0.131
  H  H30  1  0.608910  0.103460  0.652450  1.0  0.1389
  H  H31  1  0.727010  0.241320  0.773080  1.0  0.1281
  H  H32  1  0.436130  0.914190  0.286080  1.0  0.1323
  H  H33  1  0.502760  0.020490  0.252230  1.0  0.119
  H  H34  1  0.507460  0.065320  0.388930  1.0  0.1403
  H  H35  1  0.560210  0.874470  0.488300  1.0  0.143
  H  H36  1  0.512450  0.747890  0.502090  1.0  0.1236
  H  H37  1  0.480980  0.858530  0.563260  1.0  0.1269
  H  H38  1  0.303220  0.921570  0.437730  1.0  0.134
  H  H39  1  0.383020  0.076780  0.515000  1.0  0.1343
  H  H40  1  0.240990  0.001650  0.493620  1.0  0.1258
  H  H41  1  0.497240  0.517730  0.749460  1.0  0.1203
  H  H42  1  0.563870  0.478060  0.849950  1.0  0.1334
  H  H43  1  0.492540  0.557850  0.881470  1.0  0.1426
  H  H44  1  0.487550  0.235430  0.989640  1.0  0.1245
  H  H45  1  0.439790  0.314250  0.928080  1.0  0.1422
  H  H46  1  0.519020  0.377550  0.082280  1.0  0.1251
  H  H47  1  0.616980  0.693760  0.131980  1.0  0.1341
  H  H48  1  0.696780  0.618350  0.134510  1.0  0.131
  H  H49  1  0.759010  0.760660  0.252630  1.0  0.1299
  H  H50  1  0.391090  0.494550  0.043550  1.0  0.1375
  H  H51  1  0.263150  0.437480  0.910380  1.0  0.1298
  H  H52  1  0.272990  0.514320  0.046070  1.0  0.1259
  H  H53  1  0.051800  0.391230  0.499300  1.0  0.1311
  H  H54  1  0.910760  0.270830  0.436510  1.0  0.1296
  H  H55  1  0.037450  0.265180  0.510550  1.0  0.128
  H  H56  1  0.127940  0.614950  0.688800  1.0  0.1297
  H  H57  1  0.138780  0.701710  0.620810  1.0  0.1327
  H  H58  1  0.252400  0.756110  0.763150  1.0  0.1234
  H  H59  1  0.023610  0.504230  0.254390  1.0  0.1254
  H  H60  1  0.913320  0.436060  0.283260  1.0  0.1329
  H  H61  1  0.063070  0.506070  0.389580  1.0  0.1427
  H  H62  1  0.861220  0.562930  0.482030  1.0  0.1294
  H  H63  1  0.872060  0.487000  0.560860  1.0  0.1343
  H  H64  1  0.747600  0.503710  0.510760  1.0  0.1245
  C  C65  1  0.584100  0.317700  0.528600  1.0  -0.0603
  C  C66  1  0.789100  0.055500  0.471400  1.0  0.0327
  C  C67  1  0.210900  0.682300  0.266400  1.0  -0.04
  C  C68  1  0.415900  0.944500  0.733600  1.0  -0.0497
  C  C69  1  0.266400  0.210900  0.682300  1.0  -0.0652
  C  C70  1  0.733600  0.415900  0.944500  1.0  -0.0624
  C  C71  1  0.528600  0.584100  0.317700  1.0  -0.0678
  C  C72  1  0.471400  0.789100  0.055500  1.0  -0.0654
  C  C73  1  0.055500  0.471400  0.789100  1.0  0.0509
  C  C74  1  0.317700  0.528600  0.584100  1.0  -0.0497
  C  C75  1  0.944500  0.733600  0.415900  1.0  -0.0606
  C  C76  1  0.682300  0.266400  0.210900  1.0  -0.0423
  C  C77  1  0.055500  0.789100  0.471400  1.0  -0.0626
  C  C78  1  0.317700  0.584100  0.528600  1.0  -0.0636
  C  C79  1  0.944500  0.415900  0.733600  1.0  0.023
  C  C80  1  0.682300  0.210900  0.266400  1.0  -0.0388
  C  C81  1  0.584100  0.528600  0.317700  1.0  -0.0464
  C  C82  1  0.789100  0.471400  0.055500  1.0  -0.0679
  C  C83  1  0.210900  0.266400  0.682300  1.0  -0.0565
  C  C84  1  0.415900  0.733600  0.944500  1.0  -0.0657
  C  C85  1  0.266400  0.682300  0.210900  1.0  -0.0541
  C  C86  1  0.733600  0.944500  0.415900  1.0  0.0082
  C  C87  1  0.528600  0.317700  0.584100  1.0  -0.059
  C  C88  1  0.471400  0.055500  0.789100  1.0  -0.0722
  C  C89  1  0.628200  0.245400  0.628200  1.0  0.454
  C  C90  1  0.678300  0.187600  0.678300  1.0  -0.4806
  C  C91  1  0.617200  0.000000  0.371800  1.0  0.435
  C  C92  1  0.509300  0.000000  0.321700  1.0  -0.4833
  C  C93  1  0.382800  0.754600  0.382800  1.0  0.4496
  C  C94  1  0.490700  0.812400  0.490700  1.0  -0.4701
  C  C95  1  0.371800  0.000000  0.617200  1.0  0.4487
  C  C96  1  0.321700  0.000000  0.509300  1.0  -0.4773
  C  C97  1  0.382800  0.382800  0.754600  1.0  0.4442
  C  C98  1  0.490700  0.490700  0.812400  1.0  -0.4809
  C  C99  1  0.617200  0.371800  0.000000  1.0  0.4561
  C  C100  1  0.509300  0.321700  0.000000  1.0  -0.4698
  C  C101  1  0.628200  0.628200  0.245400  1.0  0.4463
  C  C102  1  0.678300  0.678300  0.187600  1.0  -0.4777
  C  C103  1  0.371800  0.617200  0.000000  1.0  0.452
  C  C104  1  0.321700  0.509300  0.000000  1.0  -0.4671
  C  C105  1  0.000000  0.371800  0.617200  1.0  0.4546
  C  C106  1  0.000000  0.321700  0.509300  1.0  -0.4646
  C  C107  1  0.245400  0.628200  0.628200  1.0  0.4419
  C  C108  1  0.187600  0.678300  0.678300  1.0  -0.4782
  C  C109  1  0.000000  0.617200  0.371800  1.0  0.4617
  C  C110  1  0.000000  0.509300  0.321700  1.0  -0.4747
  C  C111  1  0.754600  0.382800  0.382800  1.0  0.4416
  C  C112  1  0.812400  0.490700  0.490700  1.0  -0.4795
  N  N113  1  0.649700  0.272500  0.557200  1.0  -0.415
  N  N114  1  0.715300  0.092500  0.442800  1.0  -0.428
  N  N115  1  0.284700  0.727500  0.377200  1.0  -0.4347
  N  N116  1  0.350300  0.907500  0.622800  1.0  -0.4359
  N  N117  1  0.377200  0.284700  0.727500  1.0  -0.431
  N  N118  1  0.622800  0.350300  0.907500  1.0  -0.4406
  N  N119  1  0.557200  0.649700  0.272500  1.0  -0.4337
  N  N120  1  0.442800  0.715300  0.092500  1.0  -0.4187
  N  N121  1  0.092500  0.442800  0.715300  1.0  -0.4161
  N  N122  1  0.272500  0.557200  0.649700  1.0  -0.4253
  N  N123  1  0.907500  0.622800  0.350300  1.0  -0.4251
  N  N124  1  0.727500  0.377200  0.284700  1.0  -0.4398
  N  N125  1  0.092500  0.715300  0.442800  1.0  -0.4421
  N  N126  1  0.272500  0.649700  0.557200  1.0  -0.4391
  N  N127  1  0.907500  0.350300  0.622800  1.0  -0.411
  N  N128  1  0.727500  0.284700  0.377200  1.0  -0.432
  N  N129  1  0.649700  0.557200  0.272500  1.0  -0.4353
  N  N130  1  0.715300  0.442800  0.092500  1.0  -0.4376
  N  N131  1  0.284700  0.377200  0.727500  1.0  -0.4374
  N  N132  1  0.350300  0.622800  0.907500  1.0  -0.4209
  N  N133  1  0.377200  0.727500  0.284700  1.0  -0.4385
  N  N134  1  0.622800  0.907500  0.350300  1.0  -0.4233
  N  N135  1  0.557200  0.272500  0.649700  1.0  -0.4216
  N  N136  1  0.442800  0.092500  0.715300  1.0  -0.436
