# generated using pymatgen
data_CoH10(C2N)4
_symmetry_space_group_name_H-M   'P 1'
_cell_length_a   14.68680000
_cell_length_b   14.68680000
_cell_length_c   14.68680000
_cell_angle_alpha   109.47100000
_cell_angle_beta   109.47100000
_cell_angle_gamma   109.47100000
_symmetry_Int_Tables_number   1
_chemical_formula_structural   CoH10(C2N)4
_chemical_formula_sum   'Co6 H60 C48 N24'
_cell_volume   2438.72707201
_cell_formula_units_Z   6
loop_
 _symmetry_equiv_pos_site_id
 _symmetry_equiv_pos_as_xyz
  1  'x, y, z'
loop_
 _atom_site_type_symbol
 _atom_site_label
 _atom_site_symmetry_multiplicity
 _atom_site_fract_x
 _atom_site_fract_y
 _atom_site_fract_z
 _atom_site_occupancy
 _atom_site_charge
  Co  Co1  1  0.750000  0.250000  0.500000  1.0  0.8218
  Co  Co2  1  0.250000  0.750000  0.500000  1.0  0.824
  Co  Co3  1  0.500000  0.250000  0.750000  1.0  0.847
  Co  Co4  1  0.500000  0.750000  0.250000  1.0  0.8475
  Co  Co5  1  0.250000  0.500000  0.750000  1.0  0.8562
  Co  Co6  1  0.750000  0.500000  0.250000  1.0  0.8188
  H  H7  1  0.573970  0.355080  0.471640  1.0  0.0966
  H  H8  1  0.883440  0.102330  0.528360  1.0  0.103
  H  H9  1  0.116560  0.644920  0.218890  1.0  0.0952
  H  H10  1  0.426030  0.897670  0.781110  1.0  0.0959
  H  H11  1  0.218890  0.116560  0.644920  1.0  0.0942
  H  H12  1  0.781110  0.426030  0.897670  1.0  0.0989
  H  H13  1  0.471640  0.573970  0.355080  1.0  0.0972
  H  H14  1  0.528360  0.883440  0.102330  1.0  0.1032
  H  H15  1  0.102330  0.528360  0.883440  1.0  0.101
  H  H16  1  0.355080  0.471640  0.573970  1.0  0.0887
  H  H17  1  0.897670  0.781110  0.426030  1.0  0.0984
  H  H18  1  0.644920  0.218890  0.116560  1.0  0.1008
  H  H19  1  0.102330  0.883440  0.528360  1.0  0.0938
  H  H20  1  0.355080  0.573970  0.471640  1.0  0.0998
  H  H21  1  0.897670  0.426030  0.781110  1.0  0.103
  H  H22  1  0.644920  0.116560  0.218890  1.0  0.0955
  H  H23  1  0.573970  0.471640  0.355080  1.0  0.0964
  H  H24  1  0.883440  0.528360  0.102330  1.0  0.1029
  H  H25  1  0.116560  0.218890  0.644920  1.0  0.1027
  H  H26  1  0.426030  0.781110  0.897670  1.0  0.0948
  H  H27  1  0.218890  0.644920  0.116560  1.0  0.0974
  H  H28  1  0.781110  0.897670  0.426030  1.0  0.0949
  H  H29  1  0.471640  0.355080  0.573970  1.0  0.1042
  H  H30  1  0.528360  0.102330  0.883440  1.0  0.0945
  H  H31  1  0.735730  0.173680  0.646100  1.0  0.1351
  H  H32  1  0.608590  0.105220  0.653480  1.0  0.1404
  H  H33  1  0.728640  0.242400  0.773370  1.0  0.1313
  H  H34  1  0.437020  0.914270  0.286370  1.0  0.1365
  H  H35  1  0.502570  0.020210  0.251640  1.0  0.123
  H  H36  1  0.508760  0.065520  0.389040  1.0  0.1447
  H  H37  1  0.559080  0.873590  0.487240  1.0  0.1422
  H  H38  1  0.512590  0.747570  0.502110  1.0  0.1253
  H  H39  1  0.479980  0.857540  0.562310  1.0  0.1384
  H  H40  1  0.304350  0.922120  0.438920  1.0  0.1384
  H  H41  1  0.382680  0.077350  0.516440  1.0  0.1382
  H  H42  1  0.240020  0.000530  0.492990  1.0  0.1267
  H  H43  1  0.497430  0.517640  0.749070  1.0  0.124
  H  H44  1  0.562980  0.477250  0.849350  1.0  0.1366
  H  H45  1  0.491240  0.556760  0.880280  1.0  0.1455
  H  H46  1  0.487410  0.234980  0.989520  1.0  0.1275
  H  H47  1  0.440920  0.314500  0.928150  1.0  0.1421
  H  H48  1  0.520020  0.377560  0.082330  1.0  0.1362
  H  H49  1  0.617320  0.694680  0.133760  1.0  0.1381
  H  H50  1  0.695650  0.617770  0.134570  1.0  0.1363
  H  H51  1  0.759980  0.760510  0.252970  1.0  0.1297
  H  H52  1  0.391410  0.496630  0.044900  1.0  0.1406
  H  H53  1  0.264270  0.437960  0.910370  1.0  0.1314
  H  H54  1  0.271360  0.513760  0.044730  1.0  0.1321
  H  H55  1  0.052310  0.391410  0.500870  1.0  0.1352
  H  H56  1  0.910820  0.271320  0.437200  1.0  0.1383
  H  H57  1  0.036870  0.264310  0.510280  1.0  0.1297
  H  H58  1  0.128800  0.614770  0.688550  1.0  0.1361
  H  H59  1  0.139780  0.701740  0.620790  1.0  0.1386
  H  H60  1  0.252720  0.756440  0.763620  1.0  0.126
  H  H61  1  0.023560  0.504150  0.253960  1.0  0.1283
  H  H62  1  0.913330  0.436920  0.283330  1.0  0.1376
  H  H63  1  0.063110  0.507280  0.389750  1.0  0.146
  H  H64  1  0.860220  0.561960  0.481000  1.0  0.1413
  H  H65  1  0.871200  0.485970  0.559750  1.0  0.1368
  H  H66  1  0.747280  0.503720  0.510900  1.0  0.1291
  C  C67  1  0.585500  0.320200  0.530700  1.0  -0.0316
  C  C68  1  0.789500  0.054800  0.469300  1.0  -0.0317
  C  C69  1  0.210500  0.679800  0.265300  1.0  -0.0387
  C  C70  1  0.414500  0.945200  0.734700  1.0  -0.0429
  C  C71  1  0.265300  0.210500  0.679800  1.0  -0.0331
  C  C72  1  0.734700  0.414500  0.945200  1.0  -0.0476
  C  C73  1  0.530700  0.585500  0.320200  1.0  -0.0285
  C  C74  1  0.469300  0.789500  0.054800  1.0  -0.0368
  C  C75  1  0.054800  0.469300  0.789500  1.0  -0.0395
  C  C76  1  0.320200  0.530700  0.585500  1.0  -0.0442
  C  C77  1  0.945200  0.734700  0.414500  1.0  -0.05
  C  C78  1  0.679800  0.265300  0.210500  1.0  -0.0258
  C  C79  1  0.054800  0.789500  0.469300  1.0  -0.0483
  C  C80  1  0.320200  0.585500  0.530700  1.0  -0.0338
  C  C81  1  0.945200  0.414500  0.734700  1.0  -0.0426
  C  C82  1  0.679800  0.210500  0.265300  1.0  -0.034
  C  C83  1  0.585500  0.530700  0.320200  1.0  -0.0372
  C  C84  1  0.789500  0.469300  0.054800  1.0  -0.0401
  C  C85  1  0.210500  0.265300  0.679800  1.0  -0.0274
  C  C86  1  0.414500  0.734700  0.945200  1.0  -0.0484
  C  C87  1  0.265300  0.679800  0.210500  1.0  -0.0343
  C  C88  1  0.734700  0.945200  0.414500  1.0  -0.044
  C  C89  1  0.530700  0.320200  0.585500  1.0  -0.0322
  C  C90  1  0.469300  0.054800  0.789500  1.0  -0.0405
  C  C91  1  0.630000  0.246800  0.630000  1.0  0.4753
  C  C92  1  0.678600  0.188600  0.678600  1.0  -0.4684
  C  C93  1  0.616800  0.000000  0.370000  1.0  0.4575
  C  C94  1  0.510000  0.000000  0.321400  1.0  -0.4835
  C  C95  1  0.383200  0.753200  0.383200  1.0  0.4713
  C  C96  1  0.490000  0.811400  0.490000  1.0  -0.4749
  C  C97  1  0.370000  0.000000  0.616800  1.0  0.4711
  C  C98  1  0.321400  0.000000  0.510000  1.0  -0.4826
  C  C99  1  0.383200  0.383200  0.753200  1.0  0.4616
  C  C100  1  0.490000  0.490000  0.811400  1.0  -0.4817
  C  C101  1  0.616800  0.370000  0.000000  1.0  0.4792
  C  C102  1  0.510000  0.321400  0.000000  1.0  -0.4758
  C  C103  1  0.630000  0.630000  0.246800  1.0  0.4677
  C  C104  1  0.678600  0.678600  0.188600  1.0  -0.4827
  C  C105  1  0.370000  0.616800  0.000000  1.0  0.4776
  C  C106  1  0.321400  0.510000  0.000000  1.0  -0.468
  C  C107  1  0.000000  0.370000  0.616800  1.0  0.4792
  C  C108  1  0.000000  0.321400  0.510000  1.0  -0.4766
  C  C109  1  0.246800  0.630000  0.630000  1.0  0.4644
  C  C110  1  0.188600  0.678600  0.678600  1.0  -0.4864
  C  C111  1  0.000000  0.616800  0.370000  1.0  0.4821
  C  C112  1  0.000000  0.510000  0.321400  1.0  -0.4762
  C  C113  1  0.753200  0.383200  0.383200  1.0  0.4599
  C  C114  1  0.811400  0.490000  0.490000  1.0  -0.4853
  N  N115  1  0.651900  0.273500  0.558800  1.0  -0.4502
  N  N116  1  0.714700  0.093100  0.441200  1.0  -0.4738
  N  N117  1  0.285300  0.726500  0.378400  1.0  -0.468
  N  N118  1  0.348100  0.906900  0.621600  1.0  -0.4718
  N  N119  1  0.378400  0.285300  0.726500  1.0  -0.4717
  N  N120  1  0.621600  0.348100  0.906900  1.0  -0.4719
  N  N121  1  0.558800  0.651900  0.273500  1.0  -0.46
  N  N122  1  0.441200  0.714700  0.093100  1.0  -0.473
  N  N123  1  0.093100  0.441200  0.714700  1.0  -0.4692
  N  N124  1  0.273500  0.558800  0.651900  1.0  -0.4706
  N  N125  1  0.906900  0.621600  0.348100  1.0  -0.4755
  N  N126  1  0.726500  0.378400  0.285300  1.0  -0.4667
  N  N127  1  0.093100  0.714700  0.441200  1.0  -0.472
  N  N128  1  0.273500  0.651900  0.558800  1.0  -0.4688
  N  N129  1  0.906900  0.348100  0.621600  1.0  -0.4521
  N  N130  1  0.726500  0.285300  0.378400  1.0  -0.4664
  N  N131  1  0.651900  0.558800  0.273500  1.0  -0.4717
  N  N132  1  0.714700  0.441200  0.093100  1.0  -0.4686
  N  N133  1  0.285300  0.378400  0.726500  1.0  -0.4775
  N  N134  1  0.348100  0.621600  0.906900  1.0  -0.4495
  N  N135  1  0.378400  0.726500  0.285300  1.0  -0.4729
  N  N136  1  0.621600  0.906900  0.348100  1.0  -0.4695
  N  N137  1  0.558800  0.273500  0.651900  1.0  -0.472
  N  N138  1  0.441200  0.093100  0.714700  1.0  -0.4594
