# generated using pymatgen
data_Zn2H11C12N9O2
_symmetry_space_group_name_H-M   'P 1'
_cell_length_a   18.02080000
_cell_length_b   27.01110000
_cell_length_c   27.01110000
_cell_angle_alpha   120.00000000
_cell_angle_beta   90.00000000
_cell_angle_gamma   90.00000000
_symmetry_Int_Tables_number   1
_chemical_formula_structural   Zn2H11C12N9O2
_chemical_formula_sum   'Zn24 H132 C144 N108 O24'
_cell_volume   11386.47350621
_cell_formula_units_Z   12
loop_
 _symmetry_equiv_pos_site_id
 _symmetry_equiv_pos_as_xyz
  1  'x, y, z'
loop_
 _atom_site_type_symbol
 _atom_site_label
 _atom_site_symmetry_multiplicity
 _atom_site_fract_x
 _atom_site_fract_y
 _atom_site_fract_z
 _atom_site_occupancy
 _atom_site_charge
  Zn  Zn1  1  0.579660  0.332780  0.443520  1.0  0.7719
  Zn  Zn2  1  0.579660  0.110740  0.667220  1.0  0.7714
  Zn  Zn3  1  0.579660  0.556480  0.889260  1.0  0.7714
  Zn  Zn4  1  0.079660  0.667220  0.556480  1.0  0.7718
  Zn  Zn5  1  0.079660  0.889260  0.332780  1.0  0.7719
  Zn  Zn6  1  0.079660  0.443520  0.110740  1.0  0.7715
  Zn  Zn7  1  0.420340  0.889260  0.556480  1.0  0.7715
  Zn  Zn8  1  0.420340  0.443520  0.332780  1.0  0.7711
  Zn  Zn9  1  0.420340  0.667220  0.110740  1.0  0.7716
  Zn  Zn10  1  0.920340  0.110740  0.443520  1.0  0.7714
  Zn  Zn11  1  0.920340  0.556480  0.667220  1.0  0.7712
  Zn  Zn12  1  0.920340  0.332780  0.889260  1.0  0.7715
  Zn  Zn13  1  0.420340  0.667220  0.556480  1.0  0.7715
  Zn  Zn14  1  0.420340  0.889260  0.332780  1.0  0.7716
  Zn  Zn15  1  0.420340  0.443520  0.110740  1.0  0.7713
  Zn  Zn16  1  0.920340  0.332780  0.443520  1.0  0.7716
  Zn  Zn17  1  0.920340  0.110740  0.667220  1.0  0.7712
  Zn  Zn18  1  0.920340  0.556480  0.889260  1.0  0.7711
  Zn  Zn19  1  0.579660  0.110740  0.443520  1.0  0.7716
  Zn  Zn20  1  0.579660  0.556480  0.667220  1.0  0.7715
  Zn  Zn21  1  0.579660  0.332780  0.889260  1.0  0.7718
  Zn  Zn22  1  0.079660  0.889260  0.556480  1.0  0.7718
  Zn  Zn23  1  0.079660  0.443520  0.332780  1.0  0.7714
  Zn  Zn24  1  0.079660  0.667220  0.110740  1.0  0.7719
  H  H25  1  0.445200  0.244700  0.398100  1.0  0.1085
  H  H26  1  0.682100  0.331900  0.347300  1.0  0.0971
  H  H27  1  0.432000  0.401300  0.508900  1.0  0.0991
  H  H28  1  0.530400  0.262000  0.308400  1.0  0.1011
  H  H29  1  0.445200  0.153400  0.755300  1.0  0.1099
  H  H30  1  0.682100  0.015400  0.668100  1.0  0.0967
  H  H31  1  0.432000  0.107600  0.598700  1.0  0.0977
  H  H32  1  0.530400  0.046400  0.738000  1.0  0.0982
  H  H33  1  0.445200  0.601900  0.846600  1.0  0.1094
  H  H34  1  0.682100  0.652700  0.984600  1.0  0.0974
  H  H35  1  0.432000  0.491100  0.892400  1.0  0.0982
  H  H36  1  0.530400  0.691600  0.953600  1.0  0.0995
  H  H37  1  0.945200  0.755300  0.601900  1.0  0.1084
  H  H38  1  0.182100  0.668100  0.652700  1.0  0.0982
  H  H39  1  0.932000  0.598700  0.491100  1.0  0.0983
  H  H40  1  0.030400  0.738000  0.691600  1.0  0.0996
  H  H41  1  0.945200  0.846600  0.244700  1.0  0.1099
  H  H42  1  0.182100  0.984600  0.331900  1.0  0.0965
  H  H43  1  0.932000  0.892400  0.401300  1.0  0.098
  H  H44  1  0.030400  0.953600  0.262000  1.0  0.0992
  H  H45  1  0.945200  0.398100  0.153400  1.0  0.1092
  H  H46  1  0.182100  0.347300  0.015400  1.0  0.0967
  H  H47  1  0.932000  0.508900  0.107600  1.0  0.0984
  H  H48  1  0.030400  0.308400  0.046400  1.0  0.0996
  H  H49  1  0.554800  0.846600  0.601900  1.0  0.1095
  H  H50  1  0.317900  0.984600  0.652700  1.0  0.0961
  H  H51  1  0.568000  0.892400  0.491100  1.0  0.0969
  H  H52  1  0.469600  0.953600  0.691600  1.0  0.0985
  H  H53  1  0.554800  0.398100  0.244700  1.0  0.1095
  H  H54  1  0.317900  0.347300  0.331900  1.0  0.0968
  H  H55  1  0.568000  0.508900  0.401300  1.0  0.0977
  H  H56  1  0.469600  0.308400  0.262000  1.0  0.1004
  H  H57  1  0.554800  0.755300  0.153400  1.0  0.1084
  H  H58  1  0.317900  0.668100  0.015400  1.0  0.0969
  H  H59  1  0.568000  0.598700  0.107600  1.0  0.0986
  H  H60  1  0.469600  0.738000  0.046400  1.0  0.1001
  H  H61  1  0.054800  0.153400  0.398100  1.0  0.1103
  H  H62  1  0.817900  0.015400  0.347300  1.0  0.096
  H  H63  1  0.068000  0.107600  0.508900  1.0  0.098
  H  H64  1  0.969600  0.046400  0.308400  1.0  0.0991
  H  H65  1  0.054800  0.601900  0.755300  1.0  0.1093
  H  H66  1  0.817900  0.652700  0.668100  1.0  0.0963
  H  H67  1  0.068000  0.491100  0.598700  1.0  0.0977
  H  H68  1  0.969600  0.691600  0.738000  1.0  0.0994
  H  H69  1  0.054800  0.244700  0.846600  1.0  0.1081
  H  H70  1  0.817900  0.331900  0.984600  1.0  0.0981
  H  H71  1  0.068000  0.401300  0.892400  1.0  0.0981
  H  H72  1  0.969600  0.262000  0.953600  1.0  0.1003
  H  H73  1  0.554800  0.755300  0.601900  1.0  0.1078
  H  H74  1  0.317900  0.668100  0.652700  1.0  0.0984
  H  H75  1  0.568000  0.598700  0.491100  1.0  0.0986
  H  H76  1  0.469600  0.738000  0.691600  1.0  0.0997
  H  H77  1  0.554800  0.846600  0.244700  1.0  0.1096
  H  H78  1  0.317900  0.984600  0.331900  1.0  0.0962
  H  H79  1  0.568000  0.892400  0.401300  1.0  0.0977
  H  H80  1  0.469600  0.953600  0.262000  1.0  0.0993
  H  H81  1  0.554800  0.398100  0.153400  1.0  0.1091
  H  H82  1  0.317900  0.347300  0.015400  1.0  0.0968
  H  H83  1  0.568000  0.508900  0.107600  1.0  0.0982
  H  H84  1  0.469600  0.308400  0.046400  1.0  0.0999
  H  H85  1  0.054800  0.244700  0.398100  1.0  0.1085
  H  H86  1  0.817900  0.331900  0.347300  1.0  0.097
  H  H87  1  0.068000  0.401300  0.508900  1.0  0.0987
  H  H88  1  0.969600  0.262000  0.308400  1.0  0.101
  H  H89  1  0.054800  0.153400  0.755300  1.0  0.1102
  H  H90  1  0.817900  0.015400  0.668100  1.0  0.0969
  H  H91  1  0.068000  0.107600  0.598700  1.0  0.0976
  H  H92  1  0.969600  0.046400  0.738000  1.0  0.0981
  H  H93  1  0.054800  0.601900  0.846600  1.0  0.1092
  H  H94  1  0.817900  0.652700  0.984600  1.0  0.097
  H  H95  1  0.068000  0.491100  0.892400  1.0  0.0978
  H  H96  1  0.969600  0.691600  0.953600  1.0  0.0997
  H  H97  1  0.445200  0.153400  0.398100  1.0  0.1099
  H  H98  1  0.682100  0.015400  0.347300  1.0  0.0963
  H  H99  1  0.432000  0.107600  0.508900  1.0  0.0985
  H  H100  1  0.530400  0.046400  0.308400  1.0  0.0992
  H  H101  1  0.445200  0.601900  0.755300  1.0  0.1095
  H  H102  1  0.682100  0.652700  0.668100  1.0  0.0974
  H  H103  1  0.432000  0.491100  0.598700  1.0  0.0985
  H  H104  1  0.530400  0.691600  0.738000  1.0  0.0991
  H  H105  1  0.445200  0.244700  0.846600  1.0  0.1087
  H  H106  1  0.682100  0.331900  0.984600  1.0  0.0982
  H  H107  1  0.432000  0.401300  0.892400  1.0  0.0986
  H  H108  1  0.530400  0.262000  0.953600  1.0  0.1001
  H  H109  1  0.945200  0.846600  0.601900  1.0  0.11
  H  H110  1  0.182100  0.984600  0.652700  1.0  0.0972
  H  H111  1  0.932000  0.892400  0.491100  1.0  0.0979
  H  H112  1  0.030400  0.953600  0.691600  1.0  0.0984
  H  H113  1  0.945200  0.398100  0.244700  1.0  0.1096
  H  H114  1  0.182100  0.347300  0.331900  1.0  0.0972
  H  H115  1  0.932000  0.508900  0.401300  1.0  0.0983
  H  H116  1  0.030400  0.308400  0.262000  1.0  0.1004
  H  H117  1  0.945200  0.755300  0.153400  1.0  0.1083
  H  H118  1  0.182100  0.668100  0.015400  1.0  0.0976
  H  H119  1  0.932000  0.598700  0.107600  1.0  0.0991
  H  H120  1  0.030400  0.738000  0.046400  1.0  0.1004
  H  H121  1  0.628900  0.223400  0.446800  1.0  0.0226
  H  H122  1  0.628900  0.223400  0.776600  1.0  0.0227
  H  H123  1  0.628900  0.553200  0.776600  1.0  0.0222
  H  H124  1  0.128900  0.776600  0.553200  1.0  0.0227
  H  H125  1  0.128900  0.776600  0.223400  1.0  0.0226
  H  H126  1  0.128900  0.446800  0.223400  1.0  0.0222
  H  H127  1  0.371100  0.776600  0.553200  1.0  0.0217
  H  H128  1  0.371100  0.446800  0.223400  1.0  0.0213
  H  H129  1  0.371100  0.776600  0.223400  1.0  0.0217
  H  H130  1  0.871100  0.223400  0.446800  1.0  0.0217
  H  H131  1  0.871100  0.553200  0.776600  1.0  0.0213
  H  H132  1  0.871100  0.223400  0.776600  1.0  0.0217
  H  H133  1  0.627300  0.453850  0.546150  1.0  0.0545
  H  H134  1  0.627300  0.092300  0.546150  1.0  0.0536
  H  H135  1  0.627300  0.453850  0.907700  1.0  0.0534
  H  H136  1  0.127300  0.546150  0.453850  1.0  0.0535
  H  H137  1  0.127300  0.907700  0.453850  1.0  0.0536
  H  H138  1  0.127300  0.546150  0.092300  1.0  0.0541
  H  H139  1  0.372700  0.907700  0.453850  1.0  0.0527
  H  H140  1  0.372700  0.546150  0.453850  1.0  0.0532
  H  H141  1  0.372700  0.546150  0.092300  1.0  0.0534
  H  H142  1  0.872700  0.092300  0.546150  1.0  0.0529
  H  H143  1  0.872700  0.453850  0.546150  1.0  0.0538
  H  H144  1  0.872700  0.453850  0.907700  1.0  0.053
  H  H145  1  0.500000  0.421500  0.421500  1.0  0.0632
  H  H146  1  0.500000  0.000000  0.578500  1.0  0.0639
  H  H147  1  0.500000  0.578500  0.000000  1.0  0.063
  H  H148  1  0.000000  0.578500  0.578500  1.0  0.0628
  H  H149  1  0.000000  0.000000  0.421500  1.0  0.0642
  H  H150  1  0.000000  0.421500  0.000000  1.0  0.0635
  H  H151  1  0.500000  0.578500  0.578500  1.0  0.0628
  H  H152  1  0.500000  0.000000  0.421500  1.0  0.0642
  H  H153  1  0.500000  0.421500  0.000000  1.0  0.0635
  H  H154  1  0.000000  0.421500  0.421500  1.0  0.0632
  H  H155  1  0.000000  0.000000  0.578500  1.0  0.0639
  H  H156  1  0.000000  0.578500  0.000000  1.0  0.063
  C  C157  1  0.481400  0.232500  0.414200  1.0  -0.0144
  C  C158  1  0.712000  0.331600  0.375200  1.0  -0.0244
  C  C159  1  0.473600  0.419500  0.530700  1.0  -0.0078
  C  C160  1  0.517000  0.300390  0.326120  1.0  -0.0353
  C  C161  1  0.481400  0.181700  0.767500  1.0  -0.0166
  C  C162  1  0.712000  0.043600  0.668400  1.0  -0.0244
  C  C163  1  0.473600  0.111200  0.580500  1.0  -0.0057
  C  C164  1  0.517000  0.025730  0.699610  1.0  -0.0366
  C  C165  1  0.481400  0.585800  0.818300  1.0  -0.0157
  C  C166  1  0.712000  0.624800  0.956400  1.0  -0.0251
  C  C167  1  0.473600  0.469300  0.888800  1.0  -0.0081
  C  C168  1  0.517000  0.673880  0.974270  1.0  -0.0371
  C  C169  1  0.981400  0.767500  0.585800  1.0  -0.0133
  C  C170  1  0.212000  0.668400  0.624800  1.0  -0.0243
  C  C171  1  0.973600  0.580500  0.469300  1.0  -0.0077
  C  C172  1  0.017000  0.699610  0.673880  1.0  -0.037
  C  C173  1  0.981400  0.818300  0.232500  1.0  -0.0165
  C  C174  1  0.212000  0.956400  0.331600  1.0  -0.0259
  C  C175  1  0.973600  0.888800  0.419500  1.0  -0.0068
  C  C176  1  0.017000  0.974270  0.300390  1.0  -0.0349
  C  C177  1  0.981400  0.414200  0.181700  1.0  -0.0136
  C  C178  1  0.212000  0.375200  0.043600  1.0  -0.0257
  C  C179  1  0.973600  0.530700  0.111200  1.0  -0.008
  C  C180  1  0.017000  0.326120  0.025730  1.0  -0.0374
  C  C181  1  0.518600  0.818300  0.585800  1.0  -0.0185
  C  C182  1  0.288000  0.956400  0.624800  1.0  -0.025
  C  C183  1  0.526400  0.888800  0.469300  1.0  -0.0042
  C  C184  1  0.483000  0.974270  0.673880  1.0  -0.0373
  C  C185  1  0.518600  0.414200  0.232500  1.0  -0.0155
  C  C186  1  0.288000  0.375200  0.331600  1.0  -0.0232
  C  C187  1  0.526400  0.530700  0.419500  1.0  -0.0071
  C  C188  1  0.483000  0.326120  0.300390  1.0  -0.0373
  C  C189  1  0.518600  0.767500  0.181700  1.0  -0.0165
  C  C190  1  0.288000  0.668400  0.043600  1.0  -0.0242
  C  C191  1  0.526400  0.580500  0.111200  1.0  -0.0067
  C  C192  1  0.483000  0.699610  0.025730  1.0  -0.0366
  C  C193  1  0.018600  0.181700  0.414200  1.0  -0.0181
  C  C194  1  0.788000  0.043600  0.375200  1.0  -0.0248
  C  C195  1  0.026400  0.111200  0.530700  1.0  -0.0057
  C  C196  1  0.983000  0.025730  0.326120  1.0  -0.0346
  C  C197  1  0.018600  0.585800  0.767500  1.0  -0.0163
  C  C198  1  0.788000  0.624800  0.668400  1.0  -0.0252
  C  C199  1  0.026400  0.469300  0.580500  1.0  -0.0061
  C  C200  1  0.983000  0.673880  0.699610  1.0  -0.0391
  C  C201  1  0.018600  0.232500  0.818300  1.0  -0.0145
  C  C202  1  0.788000  0.331600  0.956400  1.0  -0.0232
  C  C203  1  0.026400  0.419500  0.888800  1.0  -0.0058
  C  C204  1  0.983000  0.300390  0.974270  1.0  -0.036
  C  C205  1  0.518600  0.767500  0.585800  1.0  -0.0155
  C  C206  1  0.288000  0.668400  0.624800  1.0  -0.0238
  C  C207  1  0.526400  0.580500  0.469300  1.0  -0.0063
  C  C208  1  0.483000  0.699610  0.673880  1.0  -0.038
  C  C209  1  0.518600  0.818300  0.232500  1.0  -0.0204
  C  C210  1  0.288000  0.956400  0.331600  1.0  -0.0263
  C  C211  1  0.526400  0.888800  0.419500  1.0  -0.0069
  C  C212  1  0.483000  0.974270  0.300390  1.0  -0.0346
  C  C213  1  0.518600  0.414200  0.181700  1.0  -0.0172
  C  C214  1  0.288000  0.375200  0.043600  1.0  -0.0255
  C  C215  1  0.526400  0.530700  0.111200  1.0  -0.0063
  C  C216  1  0.483000  0.326120  0.025730  1.0  -0.0382
  C  C217  1  0.018600  0.232500  0.414200  1.0  -0.018
  C  C218  1  0.788000  0.331600  0.375200  1.0  -0.0247
  C  C219  1  0.026400  0.419500  0.530700  1.0  -0.0069
  C  C220  1  0.983000  0.300390  0.326120  1.0  -0.0356
  C  C221  1  0.018600  0.181700  0.767500  1.0  -0.0192
  C  C222  1  0.788000  0.043600  0.668400  1.0  -0.0241
  C  C223  1  0.026400  0.111200  0.580500  1.0  -0.0036
  C  C224  1  0.983000  0.025730  0.699610  1.0  -0.0378
  C  C225  1  0.018600  0.585800  0.818300  1.0  -0.0179
  C  C226  1  0.788000  0.624800  0.956400  1.0  -0.0248
  C  C227  1  0.026400  0.469300  0.888800  1.0  -0.0067
  C  C228  1  0.983000  0.673880  0.974270  1.0  -0.0378
  C  C229  1  0.481400  0.181700  0.414200  1.0  -0.0178
  C  C230  1  0.712000  0.043600  0.375200  1.0  -0.0258
  C  C231  1  0.473600  0.111200  0.530700  1.0  -0.0068
  C  C232  1  0.517000  0.025730  0.326120  1.0  -0.0345
  C  C233  1  0.481400  0.585800  0.767500  1.0  -0.0159
  C  C234  1  0.712000  0.624800  0.668400  1.0  -0.0262
  C  C235  1  0.473600  0.469300  0.580500  1.0  -0.0081
  C  C236  1  0.517000  0.673880  0.699610  1.0  -0.0379
  C  C237  1  0.481400  0.232500  0.818300  1.0  -0.0147
  C  C238  1  0.712000  0.331600  0.956400  1.0  -0.0246
  C  C239  1  0.473600  0.419500  0.888800  1.0  -0.0068
  C  C240  1  0.517000  0.300390  0.974270  1.0  -0.0353
  C  C241  1  0.981400  0.818300  0.585800  1.0  -0.0178
  C  C242  1  0.212000  0.956400  0.624800  1.0  -0.0262
  C  C243  1  0.973600  0.888800  0.469300  1.0  -0.0055
  C  C244  1  0.017000  0.974270  0.673880  1.0  -0.0362
  C  C245  1  0.981400  0.414200  0.232500  1.0  -0.0157
  C  C246  1  0.212000  0.375200  0.331600  1.0  -0.0245
  C  C247  1  0.973600  0.530700  0.419500  1.0  -0.0079
  C  C248  1  0.017000  0.326120  0.300390  1.0  -0.0369
  C  C249  1  0.981400  0.767500  0.181700  1.0  -0.0159
  C  C250  1  0.212000  0.668400  0.043600  1.0  -0.0249
  C  C251  1  0.973600  0.580500  0.111200  1.0  -0.0078
  C  C252  1  0.017000  0.699610  0.025730  1.0  -0.036
  C  C253  1  0.577400  0.222060  0.444120  1.0  0.2474
  C  C254  1  0.577400  0.222060  0.777940  1.0  0.2481
  C  C255  1  0.577400  0.555880  0.777940  1.0  0.2472
  C  C256  1  0.077400  0.777940  0.555880  1.0  0.2482
  C  C257  1  0.077400  0.777940  0.222060  1.0  0.2475
  C  C258  1  0.077400  0.444120  0.222060  1.0  0.2478
  C  C259  1  0.422600  0.777940  0.555880  1.0  0.2479
  C  C260  1  0.422600  0.444120  0.222060  1.0  0.2472
  C  C261  1  0.422600  0.777940  0.222060  1.0  0.2472
  C  C262  1  0.922600  0.222060  0.444120  1.0  0.2468
  C  C263  1  0.922600  0.555880  0.777940  1.0  0.247
  C  C264  1  0.922600  0.222060  0.777940  1.0  0.2477
  C  C265  1  0.750000  0.331530  0.447160  1.0  0.2757
  C  C266  1  0.750000  0.115630  0.668470  1.0  0.2746
  C  C267  1  0.750000  0.552840  0.884370  1.0  0.2731
  C  C268  1  0.250000  0.668470  0.552840  1.0  0.2747
  C  C269  1  0.250000  0.884370  0.331530  1.0  0.2739
  C  C270  1  0.250000  0.447160  0.115630  1.0  0.2748
  C  C271  1  0.250000  0.884370  0.552840  1.0  0.2734
  C  C272  1  0.250000  0.447160  0.331530  1.0  0.2745
  C  C273  1  0.250000  0.668470  0.115630  1.0  0.2758
  C  C274  1  0.750000  0.115630  0.447160  1.0  0.2749
  C  C275  1  0.750000  0.552840  0.668470  1.0  0.2736
  C  C276  1  0.750000  0.331530  0.884370  1.0  0.2747
  C  C277  1  0.579500  0.446400  0.553600  1.0  0.2767
  C  C278  1  0.579500  0.107200  0.553600  1.0  0.2773
  C  C279  1  0.579500  0.446400  0.892800  1.0  0.2772
  C  C280  1  0.079500  0.553600  0.446400  1.0  0.2771
  C  C281  1  0.079500  0.892800  0.446400  1.0  0.2774
  C  C282  1  0.079500  0.553600  0.107200  1.0  0.2766
  C  C283  1  0.420500  0.892800  0.446400  1.0  0.2758
  C  C284  1  0.420500  0.553600  0.446400  1.0  0.2754
  C  C285  1  0.420500  0.553600  0.107200  1.0  0.2751
  C  C286  1  0.920500  0.107200  0.553600  1.0  0.276
  C  C287  1  0.920500  0.446400  0.553600  1.0  0.2751
  C  C288  1  0.920500  0.446400  0.892800  1.0  0.2753
  C  C289  1  0.500000  0.387080  0.387080  1.0  0.249
  C  C290  1  0.500000  0.000000  0.612920  1.0  0.2491
  C  C291  1  0.500000  0.612920  0.000000  1.0  0.2495
  C  C292  1  0.000000  0.612920  0.612920  1.0  0.2489
  C  C293  1  0.000000  0.000000  0.387080  1.0  0.25
  C  C294  1  0.000000  0.387080  0.000000  1.0  0.2487
  C  C295  1  0.500000  0.612920  0.612920  1.0  0.2489
  C  C296  1  0.500000  0.000000  0.387080  1.0  0.25
  C  C297  1  0.500000  0.387080  0.000000  1.0  0.2487
  C  C298  1  0.000000  0.387080  0.387080  1.0  0.249
  C  C299  1  0.000000  0.000000  0.612920  1.0  0.2491
  C  C300  1  0.000000  0.612920  0.000000  1.0  0.2495
  N  N301  1  0.545440  0.262620  0.442500  1.0  -0.3944
  N  N302  1  0.687600  0.331090  0.422100  1.0  -0.4291
  N  N303  1  0.546200  0.399800  0.517410  1.0  -0.4018
  N  N304  1  0.528360  0.339600  0.381910  1.0  -0.3906
  N  N305  1  0.545440  0.179880  0.737380  1.0  -0.3918
  N  N306  1  0.687600  0.091010  0.668910  1.0  -0.4296
  N  N307  1  0.546200  0.117610  0.600200  1.0  -0.4009
  N  N308  1  0.528360  0.042310  0.660400  1.0  -0.3924
  N  N309  1  0.545440  0.557500  0.820120  1.0  -0.3913
  N  N310  1  0.687600  0.577900  0.908990  1.0  -0.4295
  N  N311  1  0.546200  0.482590  0.882390  1.0  -0.4027
  N  N312  1  0.528360  0.618090  0.957690  1.0  -0.3927
  N  N313  1  0.045440  0.737380  0.557500  1.0  -0.3945
  N  N314  1  0.187600  0.668910  0.577900  1.0  -0.4282
  N  N315  1  0.046200  0.600200  0.482590  1.0  -0.4027
  N  N316  1  0.028360  0.660400  0.618090  1.0  -0.3923
  N  N317  1  0.045440  0.820120  0.262620  1.0  -0.3909
  N  N318  1  0.187600  0.908990  0.331090  1.0  -0.4298
  N  N319  1  0.046200  0.882390  0.399800  1.0  -0.4004
  N  N320  1  0.028360  0.957690  0.339600  1.0  -0.3918
  N  N321  1  0.045440  0.442500  0.179880  1.0  -0.3937
  N  N322  1  0.187600  0.422100  0.091010  1.0  -0.4296
  N  N323  1  0.046200  0.517410  0.117610  1.0  -0.4008
  N  N324  1  0.028360  0.381910  0.042310  1.0  -0.3905
  N  N325  1  0.454560  0.820120  0.557500  1.0  -0.3905
  N  N326  1  0.312400  0.908990  0.577900  1.0  -0.4289
  N  N327  1  0.453800  0.882390  0.482590  1.0  -0.3998
  N  N328  1  0.471640  0.957690  0.618090  1.0  -0.3923
  N  N329  1  0.454560  0.442500  0.262620  1.0  -0.393
  N  N330  1  0.312400  0.422100  0.331090  1.0  -0.4287
  N  N331  1  0.453800  0.517410  0.399800  1.0  -0.4032
  N  N332  1  0.471640  0.381910  0.339600  1.0  -0.3917
  N  N333  1  0.454560  0.737380  0.179880  1.0  -0.394
  N  N334  1  0.312400  0.668910  0.091010  1.0  -0.4285
  N  N335  1  0.453800  0.600200  0.117610  1.0  -0.403
  N  N336  1  0.471640  0.660400  0.042310  1.0  -0.391
  N  N337  1  0.954560  0.179880  0.442500  1.0  -0.3913
  N  N338  1  0.812400  0.091010  0.422100  1.0  -0.4287
  N  N339  1  0.953800  0.117610  0.517410  1.0  -0.4011
  N  N340  1  0.971640  0.042310  0.381910  1.0  -0.3927
  N  N341  1  0.954560  0.557500  0.737380  1.0  -0.3919
  N  N342  1  0.812400  0.577900  0.668910  1.0  -0.429
  N  N343  1  0.953800  0.482590  0.600200  1.0  -0.4008
  N  N344  1  0.971640  0.618090  0.660400  1.0  -0.3911
  N  N345  1  0.954560  0.262620  0.820120  1.0  -0.3946
  N  N346  1  0.812400  0.331090  0.908990  1.0  -0.428
  N  N347  1  0.953800  0.399800  0.882390  1.0  -0.4025
  N  N348  1  0.971640  0.339600  0.957690  1.0  -0.3928
  N  N349  1  0.454560  0.737380  0.557500  1.0  -0.3942
  N  N350  1  0.312400  0.668910  0.577900  1.0  -0.4275
  N  N351  1  0.453800  0.600200  0.482590  1.0  -0.4032
  N  N352  1  0.471640  0.660400  0.618090  1.0  -0.3925
  N  N353  1  0.454560  0.820120  0.262620  1.0  -0.3909
  N  N354  1  0.312400  0.908990  0.331090  1.0  -0.4285
  N  N355  1  0.453800  0.882390  0.399800  1.0  -0.4008
  N  N356  1  0.471640  0.957690  0.339600  1.0  -0.3923
  N  N357  1  0.454560  0.442500  0.179880  1.0  -0.393
  N  N358  1  0.312400  0.422100  0.091010  1.0  -0.4284
  N  N359  1  0.453800  0.517410  0.117610  1.0  -0.4011
  N  N360  1  0.471640  0.381910  0.042310  1.0  -0.3905
  N  N361  1  0.954560  0.262620  0.442500  1.0  -0.3945
  N  N362  1  0.812400  0.331090  0.422100  1.0  -0.4281
  N  N363  1  0.953800  0.399800  0.517410  1.0  -0.4025
  N  N364  1  0.971640  0.339600  0.381910  1.0  -0.3909
  N  N365  1  0.954560  0.179880  0.737380  1.0  -0.3912
  N  N366  1  0.812400  0.091010  0.668910  1.0  -0.4284
  N  N367  1  0.953800  0.117610  0.600200  1.0  -0.4015
  N  N368  1  0.971640  0.042310  0.660400  1.0  -0.3924
  N  N369  1  0.954560  0.557500  0.820120  1.0  -0.3915
  N  N370  1  0.812400  0.577900  0.908990  1.0  -0.4284
  N  N371  1  0.953800  0.482590  0.882390  1.0  -0.4033
  N  N372  1  0.971640  0.618090  0.957690  1.0  -0.3929
  N  N373  1  0.545440  0.179880  0.442500  1.0  -0.3916
  N  N374  1  0.687600  0.091010  0.422100  1.0  -0.4291
  N  N375  1  0.546200  0.117610  0.517410  1.0  -0.4011
  N  N376  1  0.528360  0.042310  0.381910  1.0  -0.3926
  N  N377  1  0.545440  0.557500  0.737380  1.0  -0.3921
  N  N378  1  0.687600  0.577900  0.668910  1.0  -0.4293
  N  N379  1  0.546200  0.482590  0.600200  1.0  -0.4005
  N  N380  1  0.528360  0.618090  0.660400  1.0  -0.3911
  N  N381  1  0.545440  0.262620  0.820120  1.0  -0.3946
  N  N382  1  0.687600  0.331090  0.908990  1.0  -0.4279
  N  N383  1  0.546200  0.399800  0.882390  1.0  -0.4016
  N  N384  1  0.528360  0.339600  0.957690  1.0  -0.3926
  N  N385  1  0.045440  0.820120  0.557500  1.0  -0.3908
  N  N386  1  0.187600  0.908990  0.577900  1.0  -0.4296
  N  N387  1  0.046200  0.882390  0.482590  1.0  -0.399
  N  N388  1  0.028360  0.957690  0.618090  1.0  -0.3918
  N  N389  1  0.045440  0.442500  0.262620  1.0  -0.3932
  N  N390  1  0.187600  0.422100  0.331090  1.0  -0.4291
  N  N391  1  0.046200  0.517410  0.399800  1.0  -0.4032
  N  N392  1  0.028360  0.381910  0.339600  1.0  -0.3914
  N  N393  1  0.045440  0.737380  0.179880  1.0  -0.3944
  N  N394  1  0.187600  0.668910  0.091010  1.0  -0.4289
  N  N395  1  0.046200  0.600200  0.117610  1.0  -0.4028
  N  N396  1  0.028360  0.660400  0.042310  1.0  -0.3908
  N  N397  1  0.750000  0.331990  0.501530  1.0  0.6146
  N  N398  1  0.750000  0.169540  0.668010  1.0  0.6086
  N  N399  1  0.750000  0.498470  0.830460  1.0  0.6064
  N  N400  1  0.250000  0.668010  0.498470  1.0  0.6154
  N  N401  1  0.250000  0.830460  0.331990  1.0  0.6074
  N  N402  1  0.250000  0.501530  0.169540  1.0  0.6086
  N  N403  1  0.250000  0.830460  0.498470  1.0  0.6065
  N  N404  1  0.250000  0.501530  0.331990  1.0  0.6092
  N  N405  1  0.250000  0.668010  0.169540  1.0  0.6145
  N  N406  1  0.750000  0.169540  0.501530  1.0  0.6074
  N  N407  1  0.750000  0.498470  0.668010  1.0  0.6073
  N  N408  1  0.750000  0.331990  0.830460  1.0  0.6154
  O  O409  1  0.690350  0.332120  0.522740  1.0  -0.3754
  O  O410  1  0.690350  0.190620  0.667880  1.0  -0.3754
  O  O411  1  0.690350  0.477260  0.809380  1.0  -0.3745
  O  O412  1  0.190350  0.667880  0.477260  1.0  -0.3767
  O  O413  1  0.190350  0.809380  0.332120  1.0  -0.3739
  O  O414  1  0.190350  0.522740  0.190620  1.0  -0.3723
  O  O415  1  0.309650  0.809380  0.477260  1.0  -0.374
  O  O416  1  0.309650  0.522740  0.332120  1.0  -0.3723
  O  O417  1  0.309650  0.667880  0.190620  1.0  -0.375
  O  O418  1  0.809650  0.190620  0.522740  1.0  -0.3735
  O  O419  1  0.809650  0.477260  0.667880  1.0  -0.3715
  O  O420  1  0.809650  0.332120  0.809380  1.0  -0.3762
  O  O421  1  0.309650  0.667880  0.477260  1.0  -0.3761
  O  O422  1  0.309650  0.809380  0.332120  1.0  -0.3727
  O  O423  1  0.309650  0.522740  0.190620  1.0  -0.3711
  O  O424  1  0.809650  0.332120  0.522740  1.0  -0.3751
  O  O425  1  0.809650  0.190620  0.667880  1.0  -0.3748
  O  O426  1  0.809650  0.477260  0.809380  1.0  -0.3732
  O  O427  1  0.690350  0.190620  0.522740  1.0  -0.3746
  O  O428  1  0.690350  0.477260  0.667880  1.0  -0.3728
  O  O429  1  0.690350  0.332120  0.809380  1.0  -0.3768
  O  O430  1  0.190350  0.809380  0.477260  1.0  -0.3752
  O  O431  1  0.190350  0.522740  0.332120  1.0  -0.373
  O  O432  1  0.190350  0.667880  0.190620  1.0  -0.3754
