# generated using pymatgen
data_Zn2H11C12N9O2
_symmetry_space_group_name_H-M   'P 1'
_cell_length_a   18.02080000
_cell_length_b   27.01110000
_cell_length_c   27.01110000
_cell_angle_alpha   120.00000000
_cell_angle_beta   90.00000000
_cell_angle_gamma   90.00000000
_symmetry_Int_Tables_number   1
_chemical_formula_structural   Zn2H11C12N9O2
_chemical_formula_sum   'Zn24 H132 C144 N108 O24'
_cell_volume   11386.47350621
_cell_formula_units_Z   12
loop_
 _symmetry_equiv_pos_site_id
 _symmetry_equiv_pos_as_xyz
  1  'x, y, z'
loop_
 _atom_site_type_symbol
 _atom_site_label
 _atom_site_symmetry_multiplicity
 _atom_site_fract_x
 _atom_site_fract_y
 _atom_site_fract_z
 _atom_site_occupancy
 _atom_site_charge
  Zn  Zn1  1  0.579670  0.332790  0.443530  1.0  0.75
  Zn  Zn2  1  0.579670  0.110740  0.667210  1.0  0.7497
  Zn  Zn3  1  0.579670  0.556470  0.889260  1.0  0.7498
  Zn  Zn4  1  0.079670  0.667210  0.556470  1.0  0.7501
  Zn  Zn5  1  0.079670  0.889260  0.332790  1.0  0.7502
  Zn  Zn6  1  0.079670  0.443530  0.110740  1.0  0.7499
  Zn  Zn7  1  0.420330  0.889260  0.556470  1.0  0.7507
  Zn  Zn8  1  0.420330  0.443530  0.332790  1.0  0.7501
  Zn  Zn9  1  0.420330  0.667210  0.110740  1.0  0.7506
  Zn  Zn10  1  0.920330  0.110740  0.443530  1.0  0.7503
  Zn  Zn11  1  0.920330  0.556470  0.667210  1.0  0.7503
  Zn  Zn12  1  0.920330  0.332790  0.889260  1.0  0.7503
  Zn  Zn13  1  0.420330  0.667210  0.556470  1.0  0.7505
  Zn  Zn14  1  0.420330  0.889260  0.332790  1.0  0.7506
  Zn  Zn15  1  0.420330  0.443530  0.110740  1.0  0.7503
  Zn  Zn16  1  0.920330  0.332790  0.443530  1.0  0.7504
  Zn  Zn17  1  0.920330  0.110740  0.667210  1.0  0.7502
  Zn  Zn18  1  0.920330  0.556470  0.889260  1.0  0.7502
  Zn  Zn19  1  0.579670  0.110740  0.443530  1.0  0.7498
  Zn  Zn20  1  0.579670  0.556470  0.667210  1.0  0.7499
  Zn  Zn21  1  0.579670  0.332790  0.889260  1.0  0.7499
  Zn  Zn22  1  0.079670  0.889260  0.556470  1.0  0.7503
  Zn  Zn23  1  0.079670  0.443530  0.332790  1.0  0.7497
  Zn  Zn24  1  0.079670  0.667210  0.110740  1.0  0.7502
  H  H25  1  0.445400  0.244300  0.399300  1.0  0.1032
  H  H26  1  0.682800  0.329400  0.345700  1.0  0.0988
  H  H27  1  0.431700  0.401200  0.511100  1.0  0.0978
  H  H28  1  0.532300  0.262500  0.308100  1.0  0.1047
  H  H29  1  0.445400  0.155000  0.755700  1.0  0.1041
  H  H30  1  0.682800  0.016300  0.670600  1.0  0.0983
  H  H31  1  0.431700  0.109900  0.598800  1.0  0.097
  H  H32  1  0.532300  0.045600  0.737500  1.0  0.1025
  H  H33  1  0.445400  0.600700  0.845000  1.0  0.1038
  H  H34  1  0.682800  0.654300  0.983700  1.0  0.0995
  H  H35  1  0.431700  0.488900  0.890100  1.0  0.0972
  H  H36  1  0.532300  0.691900  0.954400  1.0  0.1035
  H  H37  1  0.945400  0.755700  0.600700  1.0  0.1031
  H  H38  1  0.182800  0.670600  0.654300  1.0  0.0994
  H  H39  1  0.931700  0.598800  0.488900  1.0  0.0975
  H  H40  1  0.032300  0.737500  0.691900  1.0  0.1039
  H  H41  1  0.945400  0.845000  0.244300  1.0  0.1041
  H  H42  1  0.182800  0.983700  0.329400  1.0  0.0983
  H  H43  1  0.931700  0.890100  0.401200  1.0  0.0972
  H  H44  1  0.032300  0.954400  0.262500  1.0  0.1032
  H  H45  1  0.945400  0.399300  0.155000  1.0  0.1037
  H  H46  1  0.182800  0.345700  0.016300  1.0  0.0983
  H  H47  1  0.931700  0.511100  0.109900  1.0  0.0976
  H  H48  1  0.032300  0.308100  0.045600  1.0  0.1032
  H  H49  1  0.554600  0.845000  0.600700  1.0  0.1042
  H  H50  1  0.317200  0.983700  0.654300  1.0  0.0976
  H  H51  1  0.568300  0.890100  0.488900  1.0  0.097
  H  H52  1  0.467700  0.954400  0.691900  1.0  0.1028
  H  H53  1  0.554600  0.399300  0.244300  1.0  0.1043
  H  H54  1  0.317200  0.345700  0.329400  1.0  0.0983
  H  H55  1  0.568300  0.511100  0.401200  1.0  0.0975
  H  H56  1  0.467700  0.308100  0.262500  1.0  0.1039
  H  H57  1  0.554600  0.755700  0.155000  1.0  0.1036
  H  H58  1  0.317200  0.670600  0.016300  1.0  0.0985
  H  H59  1  0.568300  0.598800  0.109900  1.0  0.0974
  H  H60  1  0.467700  0.737500  0.045600  1.0  0.1043
  H  H61  1  0.054600  0.155000  0.399300  1.0  0.1047
  H  H62  1  0.817200  0.016300  0.345700  1.0  0.0973
  H  H63  1  0.068300  0.109900  0.511100  1.0  0.0972
  H  H64  1  0.967700  0.045600  0.308100  1.0  0.1027
  H  H65  1  0.054600  0.600700  0.755700  1.0  0.1041
  H  H66  1  0.817200  0.654300  0.670600  1.0  0.098
  H  H67  1  0.068300  0.488900  0.598800  1.0  0.0975
  H  H68  1  0.967700  0.691900  0.737500  1.0  0.1035
  H  H69  1  0.054600  0.244300  0.845000  1.0  0.1032
  H  H70  1  0.817200  0.329400  0.983700  1.0  0.0991
  H  H71  1  0.068300  0.401200  0.890100  1.0  0.098
  H  H72  1  0.967700  0.262500  0.954400  1.0  0.1041
  H  H73  1  0.554600  0.755700  0.600700  1.0  0.103
  H  H74  1  0.317200  0.670600  0.654300  1.0  0.0994
  H  H75  1  0.568300  0.598800  0.488900  1.0  0.0986
  H  H76  1  0.467700  0.737500  0.691900  1.0  0.1042
  H  H77  1  0.554600  0.845000  0.244300  1.0  0.1042
  H  H78  1  0.317200  0.983700  0.329400  1.0  0.0977
  H  H79  1  0.568300  0.890100  0.401200  1.0  0.0979
  H  H80  1  0.467700  0.954400  0.262500  1.0  0.1031
  H  H81  1  0.554600  0.399300  0.155000  1.0  0.1039
  H  H82  1  0.317200  0.345700  0.016300  1.0  0.0981
  H  H83  1  0.568300  0.511100  0.109900  1.0  0.0982
  H  H84  1  0.467700  0.308100  0.045600  1.0  0.1034
  H  H85  1  0.054600  0.244300  0.399300  1.0  0.1036
  H  H86  1  0.817200  0.329400  0.345700  1.0  0.0983
  H  H87  1  0.068300  0.401200  0.511100  1.0  0.0982
  H  H88  1  0.967700  0.262500  0.308100  1.0  0.1047
  H  H89  1  0.054600  0.155000  0.755700  1.0  0.1047
  H  H90  1  0.817200  0.016300  0.670600  1.0  0.0981
  H  H91  1  0.068300  0.109900  0.598800  1.0  0.0976
  H  H92  1  0.967700  0.045600  0.737500  1.0  0.1024
  H  H93  1  0.054600  0.600700  0.845000  1.0  0.104
  H  H94  1  0.817200  0.654300  0.983700  1.0  0.0986
  H  H95  1  0.068300  0.488900  0.890100  1.0  0.098
  H  H96  1  0.967700  0.691900  0.954400  1.0  0.1037
  H  H97  1  0.445400  0.155000  0.399300  1.0  0.1039
  H  H98  1  0.682800  0.016300  0.345700  1.0  0.0978
  H  H99  1  0.431700  0.109900  0.511100  1.0  0.0978
  H  H100  1  0.532300  0.045600  0.308100  1.0  0.1028
  H  H101  1  0.445400  0.600700  0.755700  1.0  0.104
  H  H102  1  0.682800  0.654300  0.670600  1.0  0.0994
  H  H103  1  0.431700  0.488900  0.598800  1.0  0.0982
  H  H104  1  0.532300  0.691900  0.737500  1.0  0.1033
  H  H105  1  0.445400  0.244300  0.845000  1.0  0.1034
  H  H106  1  0.682800  0.329400  0.983700  1.0  0.0993
  H  H107  1  0.431700  0.401200  0.890100  1.0  0.0986
  H  H108  1  0.532300  0.262500  0.954400  1.0  0.1041
  H  H109  1  0.945400  0.845000  0.600700  1.0  0.1042
  H  H110  1  0.182800  0.983700  0.654300  1.0  0.0989
  H  H111  1  0.931700  0.890100  0.488900  1.0  0.0982
  H  H112  1  0.032300  0.954400  0.691900  1.0  0.1028
  H  H113  1  0.945400  0.399300  0.244300  1.0  0.104
  H  H114  1  0.182800  0.345700  0.329400  1.0  0.0987
  H  H115  1  0.931700  0.511100  0.401200  1.0  0.0981
  H  H116  1  0.032300  0.308100  0.262500  1.0  0.1041
  H  H117  1  0.945400  0.755700  0.155000  1.0  0.1031
  H  H118  1  0.182800  0.670600  0.016300  1.0  0.0992
  H  H119  1  0.931700  0.598800  0.109900  1.0  0.098
  H  H120  1  0.032300  0.737500  0.045600  1.0  0.1041
  H  H121  1  0.628800  0.222300  0.444600  1.0  0.0236
  H  H122  1  0.628800  0.222300  0.777700  1.0  0.0236
  H  H123  1  0.628800  0.555400  0.777700  1.0  0.0233
  H  H124  1  0.128800  0.777700  0.555400  1.0  0.0236
  H  H125  1  0.128800  0.777700  0.222300  1.0  0.0236
  H  H126  1  0.128800  0.444600  0.222300  1.0  0.0233
  H  H127  1  0.371200  0.777700  0.555400  1.0  0.0211
  H  H128  1  0.371200  0.444600  0.222300  1.0  0.0207
  H  H129  1  0.371200  0.777700  0.222300  1.0  0.0212
  H  H130  1  0.871200  0.222300  0.444600  1.0  0.0212
  H  H131  1  0.871200  0.555400  0.777700  1.0  0.0208
  H  H132  1  0.871200  0.222300  0.777700  1.0  0.0211
  H  H133  1  0.627000  0.453600  0.546400  1.0  0.0622
  H  H134  1  0.627000  0.092800  0.546400  1.0  0.0617
  H  H135  1  0.627000  0.453600  0.907200  1.0  0.0616
  H  H136  1  0.127000  0.546400  0.453600  1.0  0.0618
  H  H137  1  0.127000  0.907200  0.453600  1.0  0.0612
  H  H138  1  0.127000  0.546400  0.092800  1.0  0.0622
  H  H139  1  0.373000  0.907200  0.453600  1.0  0.0607
  H  H140  1  0.373000  0.546400  0.453600  1.0  0.0619
  H  H141  1  0.373000  0.546400  0.092800  1.0  0.0618
  H  H142  1  0.873000  0.092800  0.546400  1.0  0.0615
  H  H143  1  0.873000  0.453600  0.546400  1.0  0.0619
  H  H144  1  0.873000  0.453600  0.907200  1.0  0.0616
  H  H145  1  0.500000  0.422000  0.422000  1.0  0.0782
  H  H146  1  0.500000  0.000000  0.578000  1.0  0.0789
  H  H147  1  0.500000  0.578000  0.000000  1.0  0.0783
  H  H148  1  0.000000  0.578000  0.578000  1.0  0.0786
  H  H149  1  0.000000  0.000000  0.422000  1.0  0.0791
  H  H150  1  0.000000  0.422000  0.000000  1.0  0.0786
  H  H151  1  0.500000  0.578000  0.578000  1.0  0.0786
  H  H152  1  0.500000  0.000000  0.422000  1.0  0.0791
  H  H153  1  0.500000  0.422000  0.000000  1.0  0.0786
  H  H154  1  0.000000  0.422000  0.422000  1.0  0.0782
  H  H155  1  0.000000  0.000000  0.578000  1.0  0.0789
  H  H156  1  0.000000  0.578000  0.000000  1.0  0.0783
  C  C157  1  0.482300  0.232200  0.415000  1.0  -0.0076
  C  C158  1  0.712700  0.330100  0.374100  1.0  -0.0205
  C  C159  1  0.473800  0.419600  0.532300  1.0  0.0004
  C  C160  1  0.517600  0.300600  0.326000  1.0  -0.0338
  C  C161  1  0.482300  0.182800  0.767800  1.0  -0.0096
  C  C162  1  0.712700  0.044000  0.669900  1.0  -0.0203
  C  C163  1  0.473800  0.112700  0.580400  1.0  0.0009
  C  C164  1  0.517600  0.025400  0.699400  1.0  -0.0347
  C  C165  1  0.482300  0.585000  0.817200  1.0  -0.008
  C  C166  1  0.712700  0.625900  0.956000  1.0  -0.0207
  C  C167  1  0.473800  0.467700  0.887300  1.0  -0.0016
  C  C168  1  0.517600  0.674000  0.974600  1.0  -0.0345
  C  C169  1  0.982300  0.767800  0.585000  1.0  -0.0079
  C  C170  1  0.212700  0.669900  0.625900  1.0  -0.0208
  C  C171  1  0.973800  0.580400  0.467700  1.0  -1e-04
  C  C172  1  0.017600  0.699400  0.674000  1.0  -0.0342
  C  C173  1  0.982300  0.817200  0.232200  1.0  -0.0098
  C  C174  1  0.212700  0.956000  0.330100  1.0  -0.021
  C  C175  1  0.973800  0.887300  0.419600  1.0  0.0017
  C  C176  1  0.017600  0.974600  0.300600  1.0  -0.0335
  C  C177  1  0.982300  0.415000  0.182800  1.0  -0.0071
  C  C178  1  0.212700  0.374100  0.044000  1.0  -0.0214
  C  C179  1  0.973800  0.532300  0.112700  1.0  -0.0011
  C  C180  1  0.017600  0.326000  0.025400  1.0  -0.035
  C  C181  1  0.517700  0.817200  0.585000  1.0  -0.0108
  C  C182  1  0.287300  0.956000  0.625900  1.0  -0.0209
  C  C183  1  0.526200  0.887300  0.467700  1.0  -1e-04
  C  C184  1  0.482400  0.974600  0.674000  1.0  -0.0352
  C  C185  1  0.517700  0.415000  0.232200  1.0  -0.0076
  C  C186  1  0.287300  0.374100  0.330100  1.0  -0.0196
  C  C187  1  0.526200  0.532300  0.419600  1.0  -0.0019
  C  C188  1  0.482400  0.326000  0.300600  1.0  -0.0358
  C  C189  1  0.517700  0.767800  0.182800  1.0  -0.0082
  C  C190  1  0.287300  0.669900  0.044000  1.0  -0.0208
  C  C191  1  0.526200  0.580400  0.112700  1.0  -0.0012
  C  C192  1  0.482400  0.699400  0.025400  1.0  -0.034
  C  C193  1  0.017700  0.182800  0.415000  1.0  -0.0103
  C  C194  1  0.787300  0.044000  0.374100  1.0  -0.0207
  C  C195  1  0.026200  0.112700  0.532300  1.0  0.0002
  C  C196  1  0.982400  0.025400  0.326000  1.0  -0.0336
  C  C197  1  0.017700  0.585000  0.767800  1.0  -0.0081
  C  C198  1  0.787300  0.625900  0.669900  1.0  -0.0205
  C  C199  1  0.026200  0.467700  0.580400  1.0  -0.0022
  C  C200  1  0.982400  0.674000  0.699400  1.0  -0.0363
  C  C201  1  0.017700  0.232200  0.817200  1.0  -0.0082
  C  C202  1  0.787300  0.330100  0.956000  1.0  -0.0202
  C  C203  1  0.026200  0.419600  0.887300  1.0  0.0002
  C  C204  1  0.982400  0.300600  0.974600  1.0  -0.0343
  C  C205  1  0.517700  0.767800  0.585000  1.0  -0.0094
  C  C206  1  0.287300  0.669900  0.625900  1.0  -0.0204
  C  C207  1  0.526200  0.580400  0.467700  1.0  -0.0009
  C  C208  1  0.482400  0.699400  0.674000  1.0  -0.0353
  C  C209  1  0.517700  0.817200  0.232200  1.0  -0.0126
  C  C210  1  0.287300  0.956000  0.330100  1.0  -0.0208
  C  C211  1  0.526200  0.887300  0.419600  1.0  -0.0006
  C  C212  1  0.482400  0.974600  0.300600  1.0  -0.0335
  C  C213  1  0.517700  0.415000  0.182800  1.0  -0.0096
  C  C214  1  0.287300  0.374100  0.044000  1.0  -0.021
  C  C215  1  0.526200  0.532300  0.112700  1.0  -0.0016
  C  C216  1  0.482400  0.326000  0.025400  1.0  -0.0363
  C  C217  1  0.017700  0.232200  0.415000  1.0  -0.0099
  C  C218  1  0.787300  0.330100  0.374100  1.0  -0.0208
  C  C219  1  0.026200  0.419600  0.532300  1.0  -0.0007
  C  C220  1  0.982400  0.300600  0.326000  1.0  -0.0341
  C  C221  1  0.017700  0.182800  0.767800  1.0  -0.0114
  C  C222  1  0.787300  0.044000  0.669900  1.0  -0.0201
  C  C223  1  0.026200  0.112700  0.580400  1.0  0.0004
  C  C224  1  0.982400  0.025400  0.699400  1.0  -0.0359
  C  C225  1  0.017700  0.585000  0.817200  1.0  -0.0095
  C  C226  1  0.787300  0.625900  0.956000  1.0  -0.0204
  C  C227  1  0.026200  0.467700  0.887300  1.0  -0.0022
  C  C228  1  0.982400  0.674000  0.974600  1.0  -0.0351
  C  C229  1  0.482300  0.182800  0.415000  1.0  -0.0106
  C  C230  1  0.712700  0.044000  0.374100  1.0  -0.0209
  C  C231  1  0.473800  0.112700  0.532300  1.0  0.0013
  C  C232  1  0.517600  0.025400  0.326000  1.0  -0.0333
  C  C233  1  0.482300  0.585000  0.767800  1.0  -0.0087
  C  C234  1  0.712700  0.625900  0.669900  1.0  -0.021
  C  C235  1  0.473800  0.467700  0.580400  1.0  -0.0021
  C  C236  1  0.517600  0.674000  0.699400  1.0  -0.035
  C  C237  1  0.482300  0.232200  0.817200  1.0  -0.0089
  C  C238  1  0.712700  0.330100  0.956000  1.0  -0.0206
  C  C239  1  0.473800  0.419600  0.887300  1.0  0.0015
  C  C240  1  0.517600  0.300600  0.974600  1.0  -0.0334
  C  C241  1  0.982300  0.817200  0.585000  1.0  -0.011
  C  C242  1  0.212700  0.956000  0.625900  1.0  -0.021
  C  C243  1  0.973800  0.887300  0.467700  1.0  0.0013
  C  C244  1  0.017600  0.974600  0.674000  1.0  -0.0341
  C  C245  1  0.982300  0.415000  0.232200  1.0  -0.0082
  C  C246  1  0.212700  0.374100  0.330100  1.0  -0.0199
  C  C247  1  0.973800  0.532300  0.419600  1.0  -0.0008
  C  C248  1  0.017600  0.326000  0.300600  1.0  -0.0351
  C  C249  1  0.982300  0.767800  0.182800  1.0  -0.0088
  C  C250  1  0.212700  0.669900  0.044000  1.0  -0.0205
  C  C251  1  0.973800  0.580400  0.112700  1.0  -0.0004
  C  C252  1  0.017600  0.699400  0.025400  1.0  -0.0334
  C  C253  1  0.577300  0.221500  0.443000  1.0  0.2308
  C  C254  1  0.577300  0.221500  0.778500  1.0  0.2313
  C  C255  1  0.577300  0.557000  0.778500  1.0  0.2305
  C  C256  1  0.077300  0.778500  0.557000  1.0  0.2314
  C  C257  1  0.077300  0.778500  0.221500  1.0  0.231
  C  C258  1  0.077300  0.443000  0.221500  1.0  0.2306
  C  C259  1  0.422700  0.778500  0.557000  1.0  0.2313
  C  C260  1  0.422700  0.443000  0.221500  1.0  0.2302
  C  C261  1  0.422700  0.778500  0.221500  1.0  0.2307
  C  C262  1  0.922700  0.221500  0.443000  1.0  0.2302
  C  C263  1  0.922700  0.557000  0.778500  1.0  0.2303
  C  C264  1  0.922700  0.221500  0.778500  1.0  0.231
  C  C265  1  0.750000  0.331400  0.447200  1.0  0.2596
  C  C266  1  0.750000  0.115800  0.668600  1.0  0.2577
  C  C267  1  0.750000  0.552800  0.884200  1.0  0.2577
  C  C268  1  0.250000  0.668600  0.552800  1.0  0.2586
  C  C269  1  0.250000  0.884200  0.331400  1.0  0.258
  C  C270  1  0.250000  0.447200  0.115800  1.0  0.2578
  C  C271  1  0.250000  0.884200  0.552800  1.0  0.2576
  C  C272  1  0.250000  0.447200  0.331400  1.0  0.2577
  C  C273  1  0.250000  0.668600  0.115800  1.0  0.2596
  C  C274  1  0.750000  0.115800  0.447200  1.0  0.2578
  C  C275  1  0.750000  0.552800  0.668600  1.0  0.258
  C  C276  1  0.750000  0.331400  0.884200  1.0  0.2586
  C  C277  1  0.579100  0.446250  0.553750  1.0  0.2857
  C  C278  1  0.579100  0.107500  0.553750  1.0  0.2863
  C  C279  1  0.579100  0.446250  0.892500  1.0  0.2863
  C  C280  1  0.079100  0.553750  0.446250  1.0  0.2864
  C  C281  1  0.079100  0.892500  0.446250  1.0  0.2864
  C  C282  1  0.079100  0.553750  0.107500  1.0  0.2858
  C  C283  1  0.420900  0.892500  0.446250  1.0  0.2849
  C  C284  1  0.420900  0.553750  0.446250  1.0  0.285
  C  C285  1  0.420900  0.553750  0.107500  1.0  0.2846
  C  C286  1  0.920900  0.107500  0.553750  1.0  0.2851
  C  C287  1  0.920900  0.446250  0.553750  1.0  0.2842
  C  C288  1  0.920900  0.446250  0.892500  1.0  0.2845
  C  C289  1  0.500000  0.387600  0.387600  1.0  0.228
  C  C290  1  0.500000  0.000000  0.612400  1.0  0.2279
  C  C291  1  0.500000  0.612400  0.000000  1.0  0.2293
  C  C292  1  0.000000  0.612400  0.612400  1.0  0.2283
  C  C293  1  0.000000  0.000000  0.387600  1.0  0.2298
  C  C294  1  0.000000  0.387600  0.000000  1.0  0.2273
  C  C295  1  0.500000  0.612400  0.612400  1.0  0.2283
  C  C296  1  0.500000  0.000000  0.387600  1.0  0.2298
  C  C297  1  0.500000  0.387600  0.000000  1.0  0.2273
  C  C298  1  0.000000  0.387600  0.387600  1.0  0.228
  C  C299  1  0.000000  0.000000  0.612400  1.0  0.2279
  C  C300  1  0.000000  0.612400  0.000000  1.0  0.2293
  N  N301  1  0.545600  0.262320  0.441940  1.0  -0.3783
  N  N302  1  0.687900  0.331300  0.422300  1.0  -0.4263
  N  N303  1  0.546300  0.399730  0.517370  1.0  -0.3929
  N  N304  1  0.527900  0.339530  0.381870  1.0  -0.3856
  N  N305  1  0.545600  0.179620  0.737680  1.0  -0.3737
  N  N306  1  0.687900  0.091000  0.668700  1.0  -0.4264
  N  N307  1  0.546300  0.117640  0.600270  1.0  -0.39
  N  N308  1  0.527900  0.042340  0.660470  1.0  -0.387
  N  N309  1  0.545600  0.558060  0.820380  1.0  -0.3768
  N  N310  1  0.687900  0.577700  0.909000  1.0  -0.4269
  N  N311  1  0.546300  0.482630  0.882360  1.0  -0.3934
  N  N312  1  0.527900  0.618130  0.957660  1.0  -0.3868
  N  N313  1  0.045600  0.737680  0.558060  1.0  -0.3769
  N  N314  1  0.187900  0.668700  0.577700  1.0  -0.4254
  N  N315  1  0.046300  0.600270  0.482630  1.0  -0.3933
  N  N316  1  0.027900  0.660470  0.618130  1.0  -0.3867
  N  N317  1  0.045600  0.820380  0.262320  1.0  -0.3758
  N  N318  1  0.187900  0.909000  0.331300  1.0  -0.4269
  N  N319  1  0.046300  0.882360  0.399730  1.0  -0.3904
  N  N320  1  0.027900  0.957660  0.339530  1.0  -0.3873
  N  N321  1  0.045600  0.441940  0.179620  1.0  -0.3767
  N  N322  1  0.187900  0.422300  0.091000  1.0  -0.427
  N  N323  1  0.046300  0.517370  0.117640  1.0  -0.3899
  N  N324  1  0.027900  0.381870  0.042340  1.0  -0.385
  N  N325  1  0.454400  0.820380  0.558060  1.0  -0.3744
  N  N326  1  0.312100  0.909000  0.577700  1.0  -0.4258
  N  N327  1  0.453700  0.882360  0.482630  1.0  -0.3885
  N  N328  1  0.472100  0.957660  0.618130  1.0  -0.388
  N  N329  1  0.454400  0.441940  0.262320  1.0  -0.3776
  N  N330  1  0.312100  0.422300  0.331300  1.0  -0.4263
  N  N331  1  0.453700  0.517370  0.399730  1.0  -0.3926
  N  N332  1  0.472100  0.381870  0.339530  1.0  -0.3865
  N  N333  1  0.454400  0.737680  0.179620  1.0  -0.3773
  N  N334  1  0.312100  0.668700  0.091000  1.0  -0.4261
  N  N335  1  0.453700  0.600270  0.117640  1.0  -0.3928
  N  N336  1  0.472100  0.660470  0.042340  1.0  -0.3865
  N  N337  1  0.954400  0.179620  0.441940  1.0  -0.375
  N  N338  1  0.812100  0.091000  0.422300  1.0  -0.426
  N  N339  1  0.953700  0.117640  0.517370  1.0  -0.3904
  N  N340  1  0.972100  0.042340  0.381870  1.0  -0.388
  N  N341  1  0.954400  0.558060  0.737680  1.0  -0.3746
  N  N342  1  0.812100  0.577700  0.668700  1.0  -0.4263
  N  N343  1  0.953700  0.482630  0.600270  1.0  -0.3899
  N  N344  1  0.972100  0.618130  0.660470  1.0  -0.386
  N  N345  1  0.954400  0.262320  0.820380  1.0  -0.3783
  N  N346  1  0.812100  0.331300  0.909000  1.0  -0.4252
  N  N347  1  0.953700  0.399730  0.882360  1.0  -0.3922
  N  N348  1  0.972100  0.339530  0.957660  1.0  -0.3875
  N  N349  1  0.454400  0.737680  0.558060  1.0  -0.3762
  N  N350  1  0.312100  0.668700  0.577700  1.0  -0.4253
  N  N351  1  0.453700  0.600270  0.482630  1.0  -0.393
  N  N352  1  0.472100  0.660470  0.618130  1.0  -0.3872
  N  N353  1  0.454400  0.820380  0.262320  1.0  -0.3753
  N  N354  1  0.312100  0.909000  0.331300  1.0  -0.4264
  N  N355  1  0.453700  0.882360  0.399730  1.0  -0.3904
  N  N356  1  0.472100  0.957660  0.339530  1.0  -0.3882
  N  N357  1  0.454400  0.441940  0.179620  1.0  -0.3758
  N  N358  1  0.312100  0.422300  0.091000  1.0  -0.4262
  N  N359  1  0.453700  0.517370  0.117640  1.0  -0.3899
  N  N360  1  0.472100  0.381870  0.042340  1.0  -0.3854
  N  N361  1  0.954400  0.262320  0.441940  1.0  -0.3776
  N  N362  1  0.812100  0.331300  0.422300  1.0  -0.426
  N  N363  1  0.953700  0.399730  0.517370  1.0  -0.3928
  N  N364  1  0.972100  0.339530  0.381870  1.0  -0.3862
  N  N365  1  0.954400  0.179620  0.737680  1.0  -0.3728
  N  N366  1  0.812100  0.091000  0.668700  1.0  -0.4256
  N  N367  1  0.953700  0.117640  0.600270  1.0  -0.3906
  N  N368  1  0.972100  0.042340  0.660470  1.0  -0.3875
  N  N369  1  0.954400  0.558060  0.820380  1.0  -0.3762
  N  N370  1  0.812100  0.577700  0.909000  1.0  -0.4263
  N  N371  1  0.953700  0.482630  0.882360  1.0  -0.3934
  N  N372  1  0.972100  0.618130  0.957660  1.0  -0.3875
  N  N373  1  0.545600  0.179620  0.441940  1.0  -0.3747
  N  N374  1  0.687900  0.091000  0.422300  1.0  -0.4267
  N  N375  1  0.546300  0.117640  0.517370  1.0  -0.3913
  N  N376  1  0.527900  0.042340  0.381870  1.0  -0.3875
  N  N377  1  0.545600  0.558060  0.737680  1.0  -0.3744
  N  N378  1  0.687900  0.577700  0.668700  1.0  -0.4268
  N  N379  1  0.546300  0.482630  0.600270  1.0  -0.3899
  N  N380  1  0.527900  0.618130  0.660470  1.0  -0.3855
  N  N381  1  0.545600  0.262320  0.820380  1.0  -0.378
  N  N382  1  0.687900  0.331300  0.909000  1.0  -0.4253
  N  N383  1  0.546300  0.399730  0.882360  1.0  -0.3924
  N  N384  1  0.527900  0.339530  0.957660  1.0  -0.387
  N  N385  1  0.045600  0.820380  0.558060  1.0  -0.3742
  N  N386  1  0.187900  0.909000  0.577700  1.0  -0.4266
  N  N387  1  0.046300  0.882360  0.482630  1.0  -0.388
  N  N388  1  0.027900  0.957660  0.618130  1.0  -0.3871
  N  N389  1  0.045600  0.441940  0.262320  1.0  -0.3773
  N  N390  1  0.187900  0.422300  0.331300  1.0  -0.4271
  N  N391  1  0.046300  0.517370  0.399730  1.0  -0.3932
  N  N392  1  0.027900  0.381870  0.339530  1.0  -0.3858
  N  N393  1  0.045600  0.737680  0.179620  1.0  -0.3768
  N  N394  1  0.187900  0.668700  0.091000  1.0  -0.4264
  N  N395  1  0.046300  0.600270  0.117640  1.0  -0.3933
  N  N396  1  0.027900  0.660470  0.042340  1.0  -0.3859
  N  N397  1  0.750000  0.331800  0.501200  1.0  0.5944
  N  N398  1  0.750000  0.169400  0.668200  1.0  0.59
  N  N399  1  0.750000  0.498800  0.830600  1.0  0.5881
  N  N400  1  0.250000  0.668200  0.498800  1.0  0.5968
  N  N401  1  0.250000  0.830600  0.331800  1.0  0.589
  N  N402  1  0.250000  0.501200  0.169400  1.0  0.5894
  N  N403  1  0.250000  0.830600  0.498800  1.0  0.5887
  N  N404  1  0.250000  0.501200  0.331800  1.0  0.5906
  N  N405  1  0.250000  0.668200  0.169400  1.0  0.5945
  N  N406  1  0.750000  0.169400  0.501200  1.0  0.5884
  N  N407  1  0.750000  0.498800  0.668200  1.0  0.589
  N  N408  1  0.750000  0.331800  0.830600  1.0  0.5967
  O  O409  1  0.690300  0.332100  0.522500  1.0  -0.3881
  O  O410  1  0.690300  0.190400  0.667900  1.0  -0.3884
  O  O411  1  0.690300  0.477500  0.809600  1.0  -0.3873
  O  O412  1  0.190300  0.667900  0.477500  1.0  -0.3891
  O  O413  1  0.190300  0.809600  0.332100  1.0  -0.3867
  O  O414  1  0.190300  0.522500  0.190400  1.0  -0.3852
  O  O415  1  0.309700  0.809600  0.477500  1.0  -0.3866
  O  O416  1  0.309700  0.522500  0.332100  1.0  -0.3854
  O  O417  1  0.309700  0.667900  0.190400  1.0  -0.3874
  O  O418  1  0.809700  0.190400  0.522500  1.0  -0.3863
  O  O419  1  0.809700  0.477500  0.667900  1.0  -0.3842
  O  O420  1  0.809700  0.332100  0.809600  1.0  -0.3884
  O  O421  1  0.309700  0.667900  0.477500  1.0  -0.3882
  O  O422  1  0.309700  0.809600  0.332100  1.0  -0.3854
  O  O423  1  0.309700  0.522500  0.190400  1.0  -0.384
  O  O424  1  0.809700  0.332100  0.522500  1.0  -0.3875
  O  O425  1  0.809700  0.190400  0.667900  1.0  -0.3875
  O  O426  1  0.809700  0.477500  0.809600  1.0  -0.3859
  O  O427  1  0.690300  0.190400  0.522500  1.0  -0.3876
  O  O428  1  0.690300  0.477500  0.667900  1.0  -0.3857
  O  O429  1  0.690300  0.332100  0.809600  1.0  -0.3893
  O  O430  1  0.190300  0.809600  0.477500  1.0  -0.388
  O  O431  1  0.190300  0.522500  0.332100  1.0  -0.3862
  O  O432  1  0.190300  0.667900  0.190400  1.0  -0.3881
