# generated using pymatgen
data_ZnH4C6(N3O2)2
_symmetry_space_group_name_H-M   'P 1'
_cell_length_a   11.12480000
_cell_length_b   17.63230000
_cell_length_c   17.63230000
_cell_angle_alpha   78.64630000
_cell_angle_beta   71.61100000
_cell_angle_gamma   71.61110000
_symmetry_Int_Tables_number   1
_chemical_formula_structural   ZnH4C6(N3O2)2
_chemical_formula_sum   'Zn10 H40 C60 N60 O40'
_cell_volume   3096.22219403
_cell_formula_units_Z   10
loop_
 _symmetry_equiv_pos_site_id
 _symmetry_equiv_pos_as_xyz
  1  'x, y, z'
loop_
 _atom_site_type_symbol
 _atom_site_label
 _atom_site_symmetry_multiplicity
 _atom_site_fract_x
 _atom_site_fract_y
 _atom_site_fract_z
 _atom_site_occupancy
 _atom_site_charge
  Zn  Zn1  1  0.655150  0.322870  0.928190  1.0  0.7866
  Zn  Zn2  1  0.093790  0.928190  0.322870  1.0  0.7854
  Zn  Zn3  1  0.844850  0.571810  0.177130  1.0  0.7867
  Zn  Zn4  1  0.406210  0.177130  0.571810  1.0  0.7863
  Zn  Zn5  1  0.344850  0.677130  0.071810  1.0  0.7858
  Zn  Zn6  1  0.906210  0.071810  0.677130  1.0  0.7855
  Zn  Zn7  1  0.155150  0.428190  0.822870  1.0  0.7862
  Zn  Zn8  1  0.593790  0.822870  0.428190  1.0  0.786
  Zn  Zn9  1  0.750000  0.250000  0.250000  1.0  0.7518
  Zn  Zn10  1  0.250000  0.750000  0.750000  1.0  0.7516
  H  H11  1  0.742200  0.111600  0.155000  1.0  0.1127
  H  H12  1  0.688700  0.140800  0.024800  1.0  0.112
  H  H13  1  0.883800  0.333400  0.766200  1.0  0.1075
  H  H14  1  0.870300  0.547700  0.838500  1.0  0.1093
  H  H15  1  0.666300  0.505400  0.880200  1.0  0.1021
  H  H16  1  0.991200  0.155000  0.111600  1.0  0.1113
  H  H17  1  0.145700  0.024800  0.140800  1.0  0.1093
  H  H18  1  0.016600  0.766200  0.333400  1.0  0.1085
  H  H19  1  0.743500  0.838500  0.547700  1.0  0.1097
  H  H20  1  0.948100  0.880200  0.505400  1.0  0.1027
  H  H21  1  0.757800  0.345000  0.388400  1.0  0.112
  H  H22  1  0.811300  0.475200  0.359200  1.0  0.1121
  H  H23  1  0.616200  0.733800  0.166600  1.0  0.1106
  H  H24  1  0.629700  0.661500  0.952300  1.0  0.1094
  H  H25  1  0.833700  0.619800  0.994600  1.0  0.1018
  H  H26  1  0.508800  0.388400  0.345000  1.0  0.1113
  H  H27  1  0.354300  0.359200  0.475200  1.0  0.1105
  H  H28  1  0.483400  0.166600  0.733800  1.0  0.1098
  H  H29  1  0.756500  0.952300  0.661500  1.0  0.1091
  H  H30  1  0.551900  0.994600  0.619800  1.0  0.102
  H  H31  1  0.257800  0.888400  0.845000  1.0  0.113
  H  H32  1  0.311300  0.859200  0.975200  1.0  0.1116
  H  H33  1  0.116200  0.666667  0.233800  1.0  0.1108
  H  H34  1  0.129700  0.452300  0.161500  1.0  0.1093
  H  H35  1  0.333700  0.494600  0.119800  1.0  0.1021
  H  H36  1  0.008800  0.845000  0.888400  1.0  0.1118
  H  H37  1  0.854300  0.975200  0.859200  1.0  0.1097
  H  H38  1  0.983400  0.233800  0.666667  1.0  0.1107
  H  H39  1  0.256500  0.161500  0.452300  1.0  0.1095
  H  H40  1  0.051900  0.119800  0.494600  1.0  0.1018
  H  H41  1  0.242200  0.655000  0.611600  1.0  0.1124
  H  H42  1  0.188700  0.524800  0.640800  1.0  0.1134
  H  H43  1  0.383800  0.266200  0.833400  1.0  0.1104
  H  H44  1  0.370300  0.338500  0.047700  1.0  0.1091
  H  H45  1  0.166300  0.380200  0.005400  1.0  0.1016
  H  H46  1  0.491200  0.611600  0.655000  1.0  0.1106
  H  H47  1  0.645700  0.640800  0.524800  1.0  0.1118
  H  H48  1  0.516600  0.833400  0.266200  1.0  0.1103
  H  H49  1  0.243500  0.047700  0.338500  1.0  0.1093
  H  H50  1  0.448100  0.005400  0.380200  1.0  0.1018
  C  C51  1  0.711300  0.163700  0.129500  1.0  0.0247
  C  C52  1  0.682100  0.179800  0.057200  1.0  0.0517
  C  C53  1  0.647210  0.289090  0.102690  1.0  0.2819
  C  C54  1  0.857500  0.286600  0.768200  1.0  0.0222
  C  C55  1  0.907730  0.372170  0.902370  1.0  0.2784
  C  C56  1  0.863400  0.494900  0.859900  1.0  0.0195
  C  C57  1  0.750600  0.471500  0.882900  1.0  0.0554
  C  C58  1  0.995500  0.129500  0.163700  1.0  0.0239
  C  C59  1  0.080900  0.057200  0.179800  1.0  0.0452
  C  C60  1  0.961010  0.102690  0.289090  1.0  0.2837
  C  C61  1  0.087700  0.768200  0.286600  1.0  0.0232
  C  C62  1  0.817730  0.902370  0.372170  1.0  0.2785
  C  C63  1  0.781800  0.859900  0.494900  1.0  0.0199
  C  C64  1  0.895000  0.882900  0.471500  1.0  0.0548
  C  C65  1  0.788700  0.370500  0.336300  1.0  0.0236
  C  C66  1  0.817900  0.442800  0.320200  1.0  0.0527
  C  C67  1  0.852790  0.397310  0.210910  1.0  0.2833
  C  C68  1  0.642500  0.731800  0.213400  1.0  0.0205
  C  C69  1  0.592270  0.597630  0.127830  1.0  0.2784
  C  C70  1  0.636600  0.640100  0.005100  1.0  0.0201
  C  C71  1  0.749400  0.617100  0.028500  1.0  0.0541
  C  C72  1  0.504500  0.336300  0.370500  1.0  0.0251
  C  C73  1  0.419100  0.320200  0.442800  1.0  0.0521
  C  C74  1  0.538990  0.210910  0.397310  1.0  0.2816
  C  C75  1  0.412300  0.213400  0.731800  1.0  0.0237
  C  C76  1  0.682270  0.127830  0.597630  1.0  0.2781
  C  C77  1  0.718200  0.005100  0.640100  1.0  0.0195
  C  C78  1  0.605000  0.028500  0.617100  1.0  0.0558
  C  C79  1  0.288700  0.836300  0.870500  1.0  0.0247
  C  C80  1  0.317900  0.820200  0.942800  1.0  0.0518
  C  C81  1  0.352790  0.710910  0.897310  1.0  0.2816
  C  C82  1  0.142500  0.713400  0.231800  1.0  0.0169
  C  C83  1  0.092270  0.627830  0.097630  1.0  0.2786
  C  C84  1  0.136600  0.505100  0.140100  1.0  0.0185
  C  C85  1  0.249400  0.528500  0.117100  1.0  0.056
  C  C86  1  0.004500  0.870500  0.836300  1.0  0.0219
  C  C87  1  0.919100  0.942800  0.820200  1.0  0.0486
  C  C88  1  0.038990  0.897310  0.710910  1.0  0.2826
  C  C89  1  0.912300  0.231800  0.713400  1.0  0.022
  C  C90  1  0.182270  0.097630  0.627830  1.0  0.2787
  C  C91  1  0.218200  0.140100  0.505100  1.0  0.0205
  C  C92  1  0.105000  0.117100  0.528500  1.0  0.0541
  C  C93  1  0.211300  0.629500  0.663700  1.0  0.0246
  C  C94  1  0.182100  0.557200  0.679800  1.0  0.0543
  C  C95  1  0.147210  0.602690  0.789090  1.0  0.2812
  C  C96  1  0.357500  0.268200  0.786600  1.0  0.0226
  C  C97  1  0.407730  0.402370  0.872170  1.0  0.2782
  C  C98  1  0.363400  0.359900  0.994900  1.0  0.0207
  C  C99  1  0.250600  0.382900  0.971500  1.0  0.0542
  C  C100  1  0.495500  0.663700  0.629500  1.0  0.0262
  C  C101  1  0.580900  0.679800  0.557200  1.0  0.0498
  C  C102  1  0.461010  0.789090  0.602690  1.0  0.2838
  C  C103  1  0.587700  0.786600  0.268200  1.0  0.0242
  C  C104  1  0.317730  0.872170  0.402370  1.0  0.2773
  C  C105  1  0.281800  0.994900  0.359900  1.0  0.019
  C  C106  1  0.395000  0.971500  0.382900  1.0  0.0564
  C  C107  1  0.758700  0.195200  0.804800  1.0  0.3593
  C  C108  1  0.241300  0.804800  0.195200  1.0  0.3609
  C  C109  1  0.741300  0.695200  0.304800  1.0  0.3603
  C  C110  1  0.258700  0.304800  0.695200  1.0  0.3624
  N  N111  1  0.689410  0.233920  0.158860  1.0  -0.3638
  N  N112  1  0.641870  0.260780  0.039480  1.0  -0.3933
  N  N113  1  0.604380  0.372780  0.112460  1.0  0.519
  N  N114  1  0.752450  0.260850  0.829850  1.0  -0.4215
  N  N115  1  0.777520  0.392420  0.910340  1.0  -0.3767
  N  N116  1  0.964640  0.431040  0.871880  1.0  -0.3777
  N  N117  1  0.978490  0.293610  0.928010  1.0  0.5287
  N  N118  1  0.917810  0.158860  0.233920  1.0  -0.3641
  N  N119  1  0.057870  0.039480  0.260780  1.0  -0.3934
  N  N120  1  0.910380  0.112460  0.372780  1.0  0.5212
  N  N121  1  0.156850  0.829850  0.260850  1.0  -0.4213
  N  N122  1  0.919720  0.910340  0.392420  1.0  -0.376
  N  N123  1  0.732440  0.871880  0.431040  1.0  -0.3774
  N  N124  1  0.799890  0.928010  0.293610  1.0  0.5302
  N  N125  1  0.810590  0.341140  0.266080  1.0  -0.3652
  N  N126  1  0.858130  0.460520  0.239220  1.0  -0.3944
  N  N127  1  0.895620  0.387540  0.127220  1.0  0.5209
  N  N128  1  0.747550  0.670150  0.239150  1.0  -0.4212
  N  N129  1  0.722480  0.589660  0.107580  1.0  -0.3758
  N  N130  1  0.535360  0.628120  0.068960  1.0  -0.3771
  N  N131  1  0.521510  0.571990  0.206390  1.0  0.5274
  N  N132  1  0.582190  0.266080  0.341140  1.0  -0.366
  N  N133  1  0.442130  0.239220  0.460520  1.0  -0.3951
  N  N134  1  0.589620  0.127220  0.387540  1.0  0.5185
  N  N135  1  0.343150  0.239150  0.670150  1.0  -0.4201
  N  N136  1  0.580280  0.107580  0.589660  1.0  -0.3782
  N  N137  1  0.767560  0.068960  0.628120  1.0  -0.3769
  N  N138  1  0.700110  0.206390  0.571990  1.0  0.5286
  N  N139  1  0.310590  0.766080  0.841140  1.0  -0.3642
  N  N140  1  0.358130  0.739220  0.960520  1.0  -0.3935
  N  N141  1  0.395620  0.627220  0.887540  1.0  0.5189
  N  N142  1  0.247550  0.739150  0.170150  1.0  -0.4198
  N  N143  1  0.222480  0.607580  0.089660  1.0  -0.3761
  N  N144  1  0.035360  0.568960  0.128120  1.0  -0.3778
  N  N145  1  0.021510  0.706390  0.071990  1.0  0.5293
  N  N146  1  0.082190  0.841140  0.766080  1.0  -0.3651
  N  N147  1  0.942130  0.960520  0.739220  1.0  -0.3935
  N  N148  1  0.089620  0.887540  0.627220  1.0  0.5205
  N  N149  1  0.843150  0.170150  0.739150  1.0  -0.4208
  N  N150  1  0.080280  0.089660  0.607580  1.0  -0.3771
  N  N151  1  0.267560  0.128120  0.568960  1.0  -0.3782
  N  N152  1  0.200110  0.071990  0.706390  1.0  0.5319
  N  N153  1  0.189410  0.658860  0.733920  1.0  -0.3665
  N  N154  1  0.141870  0.539480  0.760780  1.0  -0.3946
  N  N155  1  0.104380  0.612460  0.872780  1.0  0.5227
  N  N156  1  0.252450  0.329850  0.760850  1.0  -0.4219
  N  N157  1  0.277520  0.410340  0.892420  1.0  -0.3775
  N  N158  1  0.464640  0.371880  0.931040  1.0  -0.3766
  N  N159  1  0.478490  0.428010  0.793610  1.0  0.5266
  N  N160  1  0.417810  0.733920  0.658860  1.0  -0.3641
  N  N161  1  0.557870  0.760780  0.539480  1.0  -0.3934
  N  N162  1  0.410380  0.872780  0.612460  1.0  0.5181
  N  N163  1  0.656850  0.760850  0.329850  1.0  -0.4209
  N  N164  1  0.419720  0.892420  0.410340  1.0  -0.3755
  N  N165  1  0.232440  0.931040  0.371880  1.0  -0.3769
  N  N166  1  0.299890  0.793610  0.428010  1.0  0.5271
  N  N167  1  0.660700  0.151900  0.848100  1.0  0.5356
  N  N168  1  0.339300  0.848100  0.151900  1.0  0.5364
  N  N169  1  0.839300  0.651900  0.348100  1.0  0.5352
  N  N170  1  0.160700  0.348100  0.651900  1.0  0.534
  O  O171  1  0.607770  0.393180  0.174480  1.0  -0.3649
  O  O172  1  0.563500  0.420320  0.058880  1.0  -0.3383
  O  O173  1  0.920570  0.240870  0.952990  1.0  -0.3711
  O  O174  1  0.577730  0.179310  0.907630  1.0  -0.3708
  O  O175  1  0.095440  0.283090  0.924430  1.0  -0.3703
  O  O176  1  0.824570  0.174480  0.393180  1.0  -0.3637
  O  O177  1  0.957300  0.058880  0.420320  1.0  -0.3375
  O  O178  1  0.885570  0.952990  0.240870  1.0  -0.37
  O  O179  1  0.335330  0.907630  0.179310  1.0  -0.3739
  O  O180  1  0.697040  0.924430  0.283090  1.0  -0.369
  O  O181  1  0.892230  0.325520  0.106820  1.0  -0.3638
  O  O182  1  0.936500  0.441120  0.079680  1.0  -0.3389
  O  O183  1  0.579430  0.547010  0.259130  1.0  -0.3685
  O  O184  1  0.922270  0.592370  0.320690  1.0  -0.3765
  O  O185  1  0.404560  0.575570  0.216910  1.0  -0.3647
  O  O186  1  0.675430  0.106820  0.325520  1.0  -0.3652
  O  O187  1  0.542700  0.079680  0.441120  1.0  -0.3382
  O  O188  1  0.614430  0.259130  0.547010  1.0  -0.3641
  O  O189  1  0.164670  0.320690  0.592370  1.0  -0.3805
  O  O190  1  0.802960  0.216910  0.575570  1.0  -0.3731
  O  O191  1  0.392230  0.606820  0.825520  1.0  -0.3647
  O  O192  1  0.436500  0.579680  0.941120  1.0  -0.3382
  O  O193  1  0.079430  0.759130  0.047010  1.0  -0.3713
  O  O194  1  0.422270  0.820690  0.092370  1.0  -0.3704
  O  O195  1  0.904560  0.716910  0.075570  1.0  -0.3711
  O  O196  1  0.175430  0.825520  0.606820  1.0  -0.364
  O  O197  1  0.042700  0.941120  0.579680  1.0  -0.3378
  O  O198  1  0.114430  0.047010  0.759130  1.0  -0.37
  O  O199  1  0.664670  0.092370  0.820690  1.0  -0.3757
  O  O200  1  0.302960  0.075570  0.716910  1.0  -0.3678
  O  O201  1  0.107770  0.674480  0.893180  1.0  -0.364
  O  O202  1  0.063500  0.558880  0.920320  1.0  -0.3378
  O  O203  1  0.420570  0.452990  0.740870  1.0  -0.3691
  O  O204  1  0.077730  0.407630  0.679310  1.0  -0.3901
  O  O205  1  0.595440  0.424430  0.783090  1.0  -0.3694
  O  O206  1  0.324570  0.893180  0.674480  1.0  -0.3657
  O  O207  1  0.457300  0.920320  0.558880  1.0  -0.3384
  O  O208  1  0.385570  0.740870  0.452990  1.0  -0.3634
  O  O209  1  0.835330  0.679310  0.407630  1.0  -0.355
  O  O210  1  0.197040  0.783090  0.424430  1.0  -0.3644
