# generated using pymatgen
data_CdH28C29(NO)4
_symmetry_space_group_name_H-M   'P 1'
_cell_length_a   11.01060000
_cell_length_b   11.01060000
_cell_length_c   24.06200000
_cell_angle_alpha   92.36460000
_cell_angle_beta   92.36460000
_cell_angle_gamma   101.20400000
_symmetry_Int_Tables_number   1
_chemical_formula_structural   CdH28C29(NO)4
_chemical_formula_sum   'Cd4 H112 C116 N16 O16'
_cell_volume   2855.46825113
_cell_formula_units_Z   4
loop_
 _symmetry_equiv_pos_site_id
 _symmetry_equiv_pos_as_xyz
  1  'x, y, z'
loop_
 _atom_site_type_symbol
 _atom_site_label
 _atom_site_symmetry_multiplicity
 _atom_site_fract_x
 _atom_site_fract_y
 _atom_site_fract_z
 _atom_site_occupancy
 _atom_site_charge
  Cd  Cd1  1  0.944290  0.055710  0.750000  1.0  0.9391
  Cd  Cd2  1  0.500000  0.500000  0.000000  1.0  1.0265
  Cd  Cd3  1  0.500000  0.500000  0.500000  1.0  1.0265
  Cd  Cd4  1  0.055710  0.944290  0.250000  1.0  0.9386
  H  H5  1  0.309700  0.701500  0.552700  1.0  0.1172
  H  H6  1  0.171600  0.036200  0.437100  1.0  0.1011
  H  H7  1  0.983600  0.909400  0.408800  1.0  0.1143
  H  H8  1  0.725300  0.841900  0.870500  1.0  0.1161
  H  H9  1  0.112200  0.705400  0.322400  1.0  0.1063
  H  H10  1  0.788100  0.425900  0.958400  1.0  0.1087
  H  H11  1  0.792800  0.350400  0.406400  1.0  0.1135
  H  H12  1  0.703100  0.627900  0.282900  1.0  0.0799
  H  H13  1  0.273300  0.369700  0.813200  1.0  0.0856
  H  H14  1  0.692600  0.292600  0.882600  1.0  0.1194
  H  H15  1  0.307400  0.707400  0.117400  1.0  0.1187
  H  H16  1  0.562100  0.632700  0.274400  1.0  0.0686
  H  H17  1  0.630300  0.726700  0.686800  1.0  0.0829
  H  H18  1  0.036200  0.171600  0.937100  1.0  0.1007
  H  H19  1  0.057000  0.539200  0.853500  1.0  0.1252
  H  H20  1  0.016400  0.090600  0.591200  1.0  0.1142
  H  H21  1  0.943000  0.460800  0.146500  1.0  0.1249
  H  H22  1  0.322200  0.035200  0.333600  1.0  0.0934
  H  H23  1  0.472500  0.638500  0.177500  1.0  0.0818
  H  H24  1  0.472200  0.165000  0.857200  1.0  0.08
  H  H25  1  0.035200  0.322200  0.833600  1.0  0.0919
  H  H26  1  0.792100  0.103100  0.148200  1.0  0.1192
  H  H27  1  0.361500  0.527500  0.322500  1.0  0.0846
  H  H28  1  0.660800  0.283400  0.382800  1.0  0.1138
  H  H29  1  0.594300  0.640300  0.878200  1.0  0.0949
  H  H30  1  0.649600  0.207200  0.093600  1.0  0.1139
  H  H31  1  0.283400  0.660800  0.882800  1.0  0.1161
  H  H32  1  0.425900  0.788100  0.458400  1.0  0.1088
  H  H33  1  0.296900  0.372100  0.717100  1.0  0.0774
  H  H34  1  0.705300  0.003900  0.042800  1.0  0.1272
  H  H35  1  0.829200  0.668800  0.650000  1.0  0.095
  H  H36  1  0.619700  0.944300  0.225800  1.0  0.0879
  H  H37  1  0.786600  0.663600  0.528900  1.0  0.095
  H  H38  1  0.213400  0.336400  0.471100  1.0  0.0934
  H  H39  1  0.935600  0.137400  0.141600  1.0  0.1271
  H  H40  1  0.677800  0.964800  0.666400  1.0  0.0945
  H  H41  1  0.380500  0.480500  0.801000  1.0  0.0857
  H  H42  1  0.508200  0.838600  0.238300  1.0  0.0889
  H  H43  1  0.828400  0.963800  0.562900  1.0  0.1009
  H  H44  1  0.841900  0.725300  0.370500  1.0  0.1161
  H  H45  1  0.480500  0.380500  0.301000  1.0  0.0829
  H  H46  1  0.868600  0.228600  0.174700  1.0  0.113
  H  H47  1  0.274700  0.158100  0.129500  1.0  0.1155
  H  H48  1  0.165000  0.472200  0.357200  1.0  0.0816
  H  H49  1  0.369700  0.273300  0.313200  1.0  0.0858
  H  H50  1  0.527500  0.361500  0.822500  1.0  0.0833
  H  H51  1  0.170800  0.331200  0.350000  1.0  0.094
  H  H52  1  0.336400  0.213400  0.971100  1.0  0.098
  H  H53  1  0.103100  0.792100  0.648200  1.0  0.1185
  H  H54  1  0.658800  0.826800  0.302300  1.0  0.0822
  H  H55  1  0.055700  0.380300  0.274200  1.0  0.0859
  H  H56  1  0.380300  0.055700  0.774200  1.0  0.0879
  H  H57  1  0.663600  0.786600  0.028900  1.0  0.0928
  H  H58  1  0.690300  0.298500  0.447300  1.0  0.1167
  H  H59  1  0.607300  0.848900  0.512900  1.0  0.109
  H  H60  1  0.944300  0.619700  0.725800  1.0  0.0841
  H  H61  1  0.211900  0.574100  0.041600  1.0  0.1088
  H  H62  1  0.826800  0.658800  0.802300  1.0  0.0825
  H  H63  1  0.619500  0.519500  0.199000  1.0  0.0854
  H  H64  1  0.090600  0.016400  0.091200  1.0  0.1138
  H  H65  1  0.627900  0.703100  0.782900  1.0  0.0778
  H  H66  1  0.151100  0.392700  0.987100  1.0  0.1091
  H  H67  1  0.131400  0.771400  0.825300  1.0  0.114
  H  H68  1  0.726700  0.630300  0.186800  1.0  0.0843
  H  H69  1  0.848900  0.607300  0.012900  1.0  0.1085
  H  H70  1  0.835000  0.527800  0.642800  1.0  0.0806
  H  H71  1  0.064400  0.862600  0.858400  1.0  0.1266
  H  H72  1  0.437900  0.367300  0.725600  1.0  0.069
  H  H73  1  0.638500  0.472500  0.677500  1.0  0.0853
  H  H74  1  0.896900  0.207900  0.351800  1.0  0.1181
  H  H75  1  0.137400  0.935600  0.641600  1.0  0.1254
  H  H76  1  0.173200  0.341200  0.197700  1.0  0.0821
  H  H77  1  0.003900  0.705300  0.542800  1.0  0.1264
  H  H78  1  0.668800  0.829200  0.150000  1.0  0.093
  H  H79  1  0.539200  0.057000  0.353500  1.0  0.1253
  H  H80  1  0.367300  0.437900  0.225600  1.0  0.0717
  H  H81  1  0.632700  0.562100  0.774400  1.0  0.072
  H  H82  1  0.705400  0.112200  0.822400  1.0  0.1076
  H  H83  1  0.298500  0.690300  0.947300  1.0  0.1184
  H  H84  1  0.207900  0.896900  0.851800  1.0  0.1188
  H  H85  1  0.294700  0.996100  0.957200  1.0  0.1265
  H  H86  1  0.491800  0.161400  0.761700  1.0  0.0885
  H  H87  1  0.771400  0.131400  0.325300  1.0  0.1123
  H  H88  1  0.350400  0.792800  0.906400  1.0  0.1154
  H  H89  1  0.405700  0.359700  0.121800  1.0  0.0947
  H  H90  1  0.331200  0.170800  0.850000  1.0  0.0914
  H  H91  1  0.392700  0.151100  0.487100  1.0  0.1093
  H  H92  1  0.372100  0.296900  0.217100  1.0  0.0795
  H  H93  1  0.887800  0.294600  0.677600  1.0  0.106
  H  H94  1  0.963800  0.828400  0.062900  1.0  0.1004
  H  H95  1  0.862600  0.064400  0.358400  1.0  0.1244
  H  H96  1  0.909400  0.983600  0.908800  1.0  0.1143
  H  H97  1  0.527800  0.835000  0.142800  1.0  0.0811
  H  H98  1  0.519500  0.619500  0.699000  1.0  0.0838
  H  H99  1  0.161400  0.491800  0.261700  1.0  0.0905
  H  H100  1  0.838600  0.508200  0.738300  1.0  0.0921
  H  H101  1  0.701500  0.309700  0.052700  1.0  0.117
  H  H102  1  0.996100  0.294700  0.457200  1.0  0.1271
  H  H103  1  0.339200  0.716600  0.617200  1.0  0.1136
  H  H104  1  0.460800  0.943000  0.646500  1.0  0.125
  H  H105  1  0.294600  0.887800  0.177600  1.0  0.1078
  H  H106  1  0.228600  0.868600  0.674700  1.0  0.1112
  H  H107  1  0.716600  0.339200  0.117200  1.0  0.1157
  H  H108  1  0.640300  0.594300  0.378200  1.0  0.0927
  H  H109  1  0.292600  0.692600  0.382600  1.0  0.1188
  H  H110  1  0.158100  0.274700  0.629500  1.0  0.1157
  H  H111  1  0.359700  0.405700  0.621800  1.0  0.093
  H  H112  1  0.207200  0.649600  0.593600  1.0  0.1118
  H  H113  1  0.341200  0.173200  0.697700  1.0  0.0816
  H  H114  1  0.707400  0.307400  0.617400  1.0  0.1191
  H  H115  1  0.964800  0.677800  0.166400  1.0  0.0924
  H  H116  1  0.574100  0.211900  0.541600  1.0  0.1093
  C  C117  1  0.625100  0.695700  0.908010  1.0  0.0547
  C  C118  1  0.659910  0.054290  0.418810  1.0  -0.0166
  C  C119  1  0.643600  0.609000  0.200130  1.0  -0.1433
  C  C120  1  0.848200  0.813800  0.756860  1.0  0.6869
  C  C121  1  0.962700  0.228100  0.478050  1.0  -0.1843
  C  C122  1  0.339600  0.356600  0.239940  1.0  -0.1276
  C  C123  1  0.447410  0.983190  0.614260  1.0  -0.1954
  C  C124  1  0.588400  0.802800  0.165280  1.0  -0.1379
  C  C125  1  0.008880  0.320320  0.033390  1.0  -0.0261
  C  C126  1  0.337500  0.225100  0.009680  1.0  0.1446
  C  C127  1  0.390410  0.455010  0.396940  1.0  0.7127
  C  C128  1  0.082040  0.534560  0.098290  1.0  0.138
  C  C129  1  0.391000  0.356400  0.299870  1.0  -0.1444
  C  C130  1  0.320320  0.008880  0.533390  1.0  -0.027
  C  C131  1  0.774900  0.662500  0.490320  1.0  0.1451
  C  C132  1  0.302700  0.193300  0.096800  1.0  -0.1557
  C  C133  1  0.356400  0.391000  0.799870  1.0  -0.1434
  C  C134  1  0.591700  0.855100  0.225120  1.0  -0.1369
  C  C135  1  0.276400  0.715200  0.588150  1.0  -0.3323
  C  C136  1  0.822200  0.229200  0.667840  1.0  0.0583
  C  C137  1  0.722900  0.237300  0.634450  1.0  -0.1611
  C  C138  1  0.661500  0.554900  0.662650  1.0  -0.1777
  C  C139  1  0.974320  0.105080  0.558580  1.0  -0.1316
  C  C140  1  0.138020  0.970180  0.458190  1.0  -0.0479
  C  C141  1  0.643400  0.660400  0.260060  1.0  -0.1282
  C  C142  1  0.455010  0.390410  0.896940  1.0  0.7136
  C  C143  1  0.675500  0.800900  0.264340  1.0  -0.1764
  C  C144  1  0.552590  0.016810  0.385740  1.0  -0.196
  C  C145  1  0.139100  0.830300  0.856400  1.0  -0.3327
  C  C146  1  0.806700  0.697300  0.403200  1.0  -0.1566
  C  C147  1  0.199100  0.324500  0.235660  1.0  -0.1769
  C  C148  1  0.660400  0.643400  0.760060  1.0  -0.1281
  C  C149  1  0.228100  0.962700  0.978050  1.0  -0.1827
  C  C150  1  0.830300  0.139100  0.356400  1.0  -0.3321
  C  C151  1  0.016810  0.552590  0.885740  1.0  -0.1947
  C  C152  1  0.237300  0.722900  0.134450  1.0  -0.1599
  C  C153  1  0.411600  0.197200  0.834720  1.0  -0.1388
  C  C154  1  0.800900  0.675500  0.764340  1.0  -0.1759
  C  C155  1  0.406830  0.108770  0.518640  1.0  -0.0739
  C  C156  1  0.802800  0.588400  0.665280  1.0  -0.1386
  C  C157  1  0.225100  0.337500  0.509680  1.0  0.1449
  C  C158  1  0.970180  0.138020  0.958190  1.0  -0.0469
  C  C159  1  0.991120  0.679680  0.966610  1.0  -0.0269
  C  C160  1  0.891230  0.593170  0.981360  1.0  -0.0736
  C  C161  1  0.894920  0.025680  0.941420  1.0  -0.1338
  C  C162  1  0.838730  0.233870  0.089580  1.0  0.0081
  C  C163  1  0.161270  0.766130  0.910420  1.0  0.006
  C  C164  1  0.144900  0.408300  0.274880  1.0  -0.1366
  C  C165  1  0.048570  0.707830  0.161950  1.0  0.1674
  C  C166  1  0.983190  0.447410  0.114260  1.0  -0.1967
  C  C167  1  0.514580  0.145020  0.551210  1.0  -0.1095
  C  C168  1  0.304300  0.374900  0.591990  1.0  0.055
  C  C169  1  0.054290  0.659910  0.918810  1.0  -0.0176
  C  C170  1  0.197200  0.411600  0.334720  1.0  -0.1386
  C  C171  1  0.855100  0.591700  0.725120  1.0  -0.1388
  C  C172  1  0.715200  0.276400  0.088150  1.0  -0.3324
  C  C173  1  0.108770  0.406830  0.018640  1.0  -0.071
  C  C174  1  0.679680  0.991120  0.466610  1.0  -0.0274
  C  C175  1  0.200100  0.946900  0.506430  1.0  -0.0702
  C  C176  1  0.813800  0.848200  0.256860  1.0  0.6866
  C  C177  1  0.485420  0.854980  0.448790  1.0  -0.1093
  C  C178  1  0.025680  0.894920  0.441420  1.0  -0.1326
  C  C179  1  0.233870  0.838730  0.589580  1.0  0.0084
  C  C180  1  0.193300  0.302700  0.596800  1.0  -0.1574
  C  C181  1  0.277100  0.762700  0.365550  1.0  -0.159
  C  C182  1  0.951430  0.292170  0.838050  1.0  0.1674
  C  C183  1  0.762700  0.277100  0.865550  1.0  -0.1612
  C  C184  1  0.202230  0.023770  0.026410  1.0  0.1352
  C  C185  1  0.766130  0.161270  0.410420  1.0  0.0055
  C  C186  1  0.374900  0.304300  0.091990  1.0  0.0553
  C  C187  1  0.976230  0.797770  0.473590  1.0  0.1349
  C  C188  1  0.534560  0.082040  0.598290  1.0  0.1367
  C  C189  1  0.145020  0.514580  0.051210  1.0  -0.1091
  C  C190  1  0.850580  0.151820  0.461730  1.0  -0.0055
  C  C191  1  0.799900  0.053100  0.493570  1.0  -0.0715
  C  C192  1  0.609590  0.544990  0.603060  1.0  0.7113
  C  C193  1  0.771900  0.037300  0.021950  1.0  -0.1851
  C  C194  1  0.151800  0.186200  0.243140  1.0  0.6858
  C  C195  1  0.229200  0.822200  0.167840  1.0  0.0558
  C  C196  1  0.723600  0.284800  0.411850  1.0  -0.3322
  C  C197  1  0.917960  0.465440  0.901710  1.0  0.1393
  C  C198  1  0.854980  0.485420  0.948790  1.0  -0.1097
  C  C199  1  0.029820  0.861980  0.041810  1.0  -0.0496
  C  C200  1  0.105080  0.974320  0.058580  1.0  -0.1385
  C  C201  1  0.593170  0.891230  0.481360  1.0  -0.072
  C  C202  1  0.945710  0.340090  0.081190  1.0  -0.0173
  C  C203  1  0.408300  0.144900  0.774880  1.0  -0.1364
  C  C204  1  0.848180  0.149420  0.038270  1.0  -0.0192
  C  C205  1  0.177800  0.770800  0.332160  1.0  0.0576
  C  C206  1  0.284800  0.723600  0.911850  1.0  -0.3322
  C  C207  1  0.946900  0.200100  0.006430  1.0  -0.0709
  C  C208  1  0.338500  0.445100  0.337350  1.0  -0.1785
  C  C209  1  0.554900  0.661500  0.162650  1.0  -0.1804
  C  C210  1  0.609000  0.643600  0.700130  1.0  -0.1425
  C  C211  1  0.861980  0.029820  0.541810  1.0  -0.0479
  C  C212  1  0.697300  0.806700  0.903200  1.0  -0.1538
  C  C213  1  0.695700  0.625100  0.408010  1.0  0.0541
  C  C214  1  0.149420  0.848180  0.538270  1.0  -0.0176
  C  C215  1  0.662500  0.774900  0.990320  1.0  0.1451
  C  C216  1  0.445100  0.338500  0.837350  1.0  -0.1785
  C  C217  1  0.053100  0.799900  0.993570  1.0  -0.0718
  C  C218  1  0.023770  0.202230  0.526410  1.0  0.1346
  C  C219  1  0.860900  0.169700  0.143600  1.0  -0.3319
  C  C220  1  0.707830  0.048570  0.661950  1.0  0.1689
  C  C221  1  0.340090  0.945710  0.581190  1.0  -0.0174
  C  C222  1  0.186200  0.151800  0.743140  1.0  0.6849
  C  C223  1  0.169700  0.860900  0.643600  1.0  -0.3305
  C  C224  1  0.465440  0.917960  0.401710  1.0  0.1362
  C  C225  1  0.770800  0.177800  0.832160  1.0  0.0555
  C  C226  1  0.544990  0.609590  0.103060  1.0  0.7122
  C  C227  1  0.292170  0.951430  0.338050  1.0  0.17
  C  C228  1  0.037300  0.771900  0.521950  1.0  -0.1855
  C  C229  1  0.797770  0.976230  0.973590  1.0  0.1359
  C  C230  1  0.324500  0.199100  0.735660  1.0  -0.1764
  C  C231  1  0.151820  0.850580  0.961730  1.0  -0.0181
  C  C232  1  0.356600  0.339600  0.739940  1.0  -0.1293
  N  N233  1  0.812750  0.111230  0.685390  1.0  -0.4093
  N  N234  1  0.674160  0.602420  0.462370  1.0  -0.3977
  N  N235  1  0.879520  0.350680  0.869350  1.0  0.0399
  N  N236  1  0.187250  0.888770  0.314610  1.0  -0.4113
  N  N237  1  0.325840  0.397580  0.537630  1.0  -0.3981
  N  N238  1  0.278120  0.141440  0.043310  1.0  0.0316
  N  N239  1  0.397580  0.325840  0.037630  1.0  -0.3983
  N  N240  1  0.888770  0.187250  0.814610  1.0  -0.4102
  N  N241  1  0.120480  0.649320  0.130650  1.0  0.0392
  N  N242  1  0.649320  0.120480  0.630650  1.0  0.0384
  N  N243  1  0.141440  0.278120  0.543310  1.0  0.0329
  N  N244  1  0.858560  0.721880  0.456690  1.0  0.0326
  N  N245  1  0.602420  0.674160  0.962370  1.0  -0.4
  N  N246  1  0.111230  0.812750  0.185390  1.0  -0.4093
  N  N247  1  0.721880  0.858560  0.956690  1.0  0.0331
  N  N248  1  0.350680  0.879520  0.369350  1.0  0.0391
  O  O249  1  0.808500  0.890100  0.787430  1.0  -0.6348
  O  O250  1  0.620600  0.450720  0.573400  1.0  -0.6204
  O  O251  1  0.549280  0.379400  0.926600  1.0  -0.6184
  O  O252  1  0.077130  0.150970  0.277640  1.0  -0.585
  O  O253  1  0.890100  0.808500  0.287430  1.0  -0.633
  O  O254  1  0.379400  0.549280  0.426600  1.0  -0.6201
  O  O255  1  0.627350  0.558350  0.084550  1.0  -0.5997
  O  O256  1  0.150970  0.077130  0.777640  1.0  -0.5833
  O  O257  1  0.849030  0.922870  0.222360  1.0  -0.5836
  O  O258  1  0.441650  0.372650  0.415450  1.0  -0.5998
  O  O259  1  0.558350  0.627350  0.584550  1.0  -0.5992
  O  O260  1  0.450720  0.620600  0.073400  1.0  -0.6186
  O  O261  1  0.109900  0.191500  0.712570  1.0  -0.6328
  O  O262  1  0.191500  0.109900  0.212570  1.0  -0.635
  O  O263  1  0.372650  0.441650  0.915450  1.0  -0.5997
  O  O264  1  0.922870  0.849030  0.722360  1.0  -0.5846
