# generated using pymatgen
data_NiH36C36(SN)6
_symmetry_space_group_name_H-M   'P 1'
_cell_length_a   15.91400000
_cell_length_b   15.91400000
_cell_length_c   35.96600000
_cell_angle_alpha   90.00000000
_cell_angle_beta   90.00000000
_cell_angle_gamma   120.00000000
_symmetry_Int_Tables_number   1
_chemical_formula_structural   NiH36C36(SN)6
_chemical_formula_sum   'Ni6 H216 C216 S36 N36'
_cell_volume   7888.26476631
_cell_formula_units_Z   6
loop_
 _symmetry_equiv_pos_site_id
 _symmetry_equiv_pos_as_xyz
  1  'x, y, z'
loop_
 _atom_site_type_symbol
 _atom_site_label
 _atom_site_symmetry_multiplicity
 _atom_site_fract_x
 _atom_site_fract_y
 _atom_site_fract_z
 _atom_site_occupancy
 _atom_site_charge
  Ni  Ni1  1  0.333333  0.666667  0.916670  1.0  0.3867
  Ni  Ni2  1  0.000000  0.000000  0.250000  1.0  0.3869
  Ni  Ni3  1  0.666667  0.333333  0.583330  1.0  0.3873
  Ni  Ni4  1  0.666667  0.333333  0.083330  1.0  0.3873
  Ni  Ni5  1  0.000000  0.000000  0.750000  1.0  0.3864
  Ni  Ni6  1  0.333333  0.666667  0.416670  1.0  0.3867
  H  H7  1  0.766300  0.200100  0.051600  1.0  0.0932
  H  H8  1  0.860900  0.130400  0.048300  1.0  0.1064
  H  H9  1  0.024700  0.223100  0.031800  1.0  0.1116
  H  H10  1  0.087100  0.386400  0.019600  1.0  0.1111
  H  H11  1  0.080500  0.524100  0.023900  1.0  0.0871
  H  H12  1  0.985900  0.523500  0.036900  1.0  0.0937
  H  H13  1  0.432970  0.533430  0.384930  1.0  0.0932
  H  H14  1  0.527570  0.463730  0.381630  1.0  0.1064
  H  H15  1  0.691370  0.556430  0.365130  1.0  0.1116
  H  H16  1  0.753770  0.719730  0.352930  1.0  0.1111
  H  H17  1  0.747170  0.857430  0.357230  1.0  0.0871
  H  H18  1  0.652570  0.856830  0.370230  1.0  0.0937
  H  H19  1  0.099630  0.866770  0.718270  1.0  0.0932
  H  H20  1  0.194230  0.797070  0.714970  1.0  0.1065
  H  H21  1  0.358030  0.889770  0.698470  1.0  0.1137
  H  H22  1  0.420430  0.053070  0.686270  1.0  0.1111
  H  H23  1  0.413830  0.190770  0.690570  1.0  0.0839
  H  H24  1  0.319230  0.190170  0.703570  1.0  0.0937
  H  H25  1  0.799900  0.566200  0.051600  1.0  0.0948
  H  H26  1  0.869600  0.730500  0.048300  1.0  0.1082
  H  H27  1  0.776900  0.801600  0.031800  1.0  0.1108
  H  H28  1  0.613600  0.700700  0.019600  1.0  0.1101
  H  H29  1  0.475900  0.556400  0.023900  1.0  0.0854
  H  H30  1  0.476500  0.462400  0.036900  1.0  0.0947
  H  H31  1  0.466570  0.899530  0.384930  1.0  0.0948
  H  H32  1  0.536270  0.063830  0.381630  1.0  0.1082
  H  H33  1  0.443570  0.134930  0.365130  1.0  0.1108
  H  H34  1  0.280270  0.034030  0.352930  1.0  0.1101
  H  H35  1  0.142570  0.889730  0.357230  1.0  0.0854
  H  H36  1  0.143170  0.795730  0.370230  1.0  0.0947
  H  H37  1  0.133230  0.232870  0.718270  1.0  0.0948
  H  H38  1  0.202930  0.397170  0.714970  1.0  0.1081
  H  H39  1  0.110230  0.468270  0.698470  1.0  0.1133
  H  H40  1  0.946930  0.367370  0.686270  1.0  0.1101
  H  H41  1  0.809230  0.223070  0.690570  1.0  0.087
  H  H42  1  0.809830  0.129070  0.703570  1.0  0.0947
  H  H43  1  0.433800  0.233700  0.051600  1.0  0.0943
  H  H44  1  0.269500  0.139100  0.048300  1.0  0.1081
  H  H45  1  0.198400  0.975300  0.031800  1.0  0.1137
  H  H46  1  0.299300  0.912900  0.019600  1.0  0.1102
  H  H47  1  0.443600  0.919500  0.023900  1.0  0.0877
  H  H48  1  0.537600  0.014100  0.036900  1.0  0.093
  H  H49  1  0.100470  0.567030  0.384930  1.0  0.0943
  H  H50  1  0.936170  0.472430  0.381630  1.0  0.1081
  H  H51  1  0.865070  0.308630  0.365130  1.0  0.1137
  H  H52  1  0.965970  0.246230  0.352930  1.0  0.1102
  H  H53  1  0.110270  0.252830  0.357230  1.0  0.0877
  H  H54  1  0.204270  0.347430  0.370230  1.0  0.093
  H  H55  1  0.767130  0.900370  0.718270  1.0  0.0943
  H  H56  1  0.602830  0.805770  0.714970  1.0  0.1083
  H  H57  1  0.531730  0.641970  0.698470  1.0  0.1124
  H  H58  1  0.632630  0.579570  0.686270  1.0  0.1102
  H  H59  1  0.776930  0.586170  0.690570  1.0  0.0862
  H  H60  1  0.870930  0.680770  0.703570  1.0  0.093
  H  H61  1  0.200100  0.766300  0.448400  1.0  0.0944
  H  H62  1  0.130400  0.860900  0.451700  1.0  0.1081
  H  H63  1  0.223100  0.024700  0.468200  1.0  0.1117
  H  H64  1  0.386400  0.087100  0.480400  1.0  0.1104
  H  H65  1  0.524100  0.080500  0.476100  1.0  0.0872
  H  H66  1  0.523500  0.985900  0.463100  1.0  0.0944
  H  H67  1  0.866770  0.099630  0.781730  1.0  0.0944
  H  H68  1  0.797070  0.194230  0.785030  1.0  0.1081
  H  H69  1  0.889770  0.358030  0.801530  1.0  0.1139
  H  H70  1  0.053070  0.420430  0.813730  1.0  0.1104
  H  H71  1  0.190770  0.413830  0.809430  1.0  0.0847
  H  H72  1  0.190170  0.319230  0.796430  1.0  0.0944
  H  H73  1  0.533430  0.432970  0.115070  1.0  0.0944
  H  H74  1  0.463730  0.527570  0.118370  1.0  0.1081
  H  H75  1  0.556430  0.691370  0.134870  1.0  0.1117
  H  H76  1  0.719730  0.753770  0.147070  1.0  0.1104
  H  H77  1  0.857430  0.747170  0.142770  1.0  0.0872
  H  H78  1  0.856830  0.652570  0.129770  1.0  0.0944
  H  H79  1  0.566200  0.799900  0.448400  1.0  0.0934
  H  H80  1  0.730500  0.869600  0.451700  1.0  0.1072
  H  H81  1  0.801600  0.776900  0.468200  1.0  0.1117
  H  H82  1  0.700700  0.613600  0.480400  1.0  0.1108
  H  H83  1  0.556400  0.475900  0.476100  1.0  0.0858
  H  H84  1  0.462400  0.476500  0.463100  1.0  0.095
  H  H85  1  0.232870  0.133230  0.781730  1.0  0.0934
  H  H86  1  0.397170  0.202930  0.785030  1.0  0.1072
  H  H87  1  0.468270  0.110230  0.801530  1.0  0.1139
  H  H88  1  0.367370  0.946930  0.813730  1.0  0.1108
  H  H89  1  0.223070  0.809230  0.809430  1.0  0.0881
  H  H90  1  0.129070  0.809830  0.796430  1.0  0.095
  H  H91  1  0.899530  0.466570  0.115070  1.0  0.0934
  H  H92  1  0.063830  0.536270  0.118370  1.0  0.1072
  H  H93  1  0.134930  0.443570  0.134870  1.0  0.1117
  H  H94  1  0.034030  0.280270  0.147070  1.0  0.1108
  H  H95  1  0.889730  0.142570  0.142770  1.0  0.0858
  H  H96  1  0.795730  0.143170  0.129770  1.0  0.095
  H  H97  1  0.233700  0.433800  0.448400  1.0  0.0948
  H  H98  1  0.139100  0.269500  0.451700  1.0  0.1072
  H  H99  1  0.975300  0.198400  0.468200  1.0  0.1137
  H  H100  1  0.912900  0.299300  0.480400  1.0  0.1101
  H  H101  1  0.919500  0.443600  0.476100  1.0  0.0886
  H  H102  1  0.014100  0.537600  0.463100  1.0  0.0951
  H  H103  1  0.900370  0.767130  0.781730  1.0  0.0948
  H  H104  1  0.805770  0.602830  0.785030  1.0  0.1074
  H  H105  1  0.641970  0.531730  0.801530  1.0  0.1122
  H  H106  1  0.579570  0.632630  0.813730  1.0  0.1101
  H  H107  1  0.586170  0.776930  0.809430  1.0  0.0858
  H  H108  1  0.680770  0.870930  0.796430  1.0  0.0951
  H  H109  1  0.567030  0.100470  0.115070  1.0  0.0948
  H  H110  1  0.472430  0.936170  0.118370  1.0  0.1072
  H  H111  1  0.308630  0.865070  0.134870  1.0  0.1137
  H  H112  1  0.246230  0.965970  0.147070  1.0  0.1101
  H  H113  1  0.252830  0.110270  0.142770  1.0  0.0886
  H  H114  1  0.347430  0.204270  0.129770  1.0  0.0951
  H  H115  1  0.233700  0.799900  0.948400  1.0  0.0939
  H  H116  1  0.139100  0.869600  0.951700  1.0  0.1078
  H  H117  1  0.975300  0.776900  0.968200  1.0  0.111
  H  H118  1  0.912900  0.613600  0.980400  1.0  0.1101
  H  H119  1  0.919500  0.475900  0.976100  1.0  0.0885
  H  H120  1  0.014100  0.476500  0.963100  1.0  0.0946
  H  H121  1  0.900370  0.133230  0.281730  1.0  0.0939
  H  H122  1  0.805770  0.202930  0.285030  1.0  0.1078
  H  H123  1  0.641970  0.110230  0.301530  1.0  0.1129
  H  H124  1  0.579570  0.946930  0.313730  1.0  0.1101
  H  H125  1  0.586170  0.809230  0.309430  1.0  0.0854
  H  H126  1  0.680770  0.809830  0.296430  1.0  0.0946
  H  H127  1  0.567030  0.466570  0.615070  1.0  0.0939
  H  H128  1  0.472430  0.536270  0.618370  1.0  0.1078
  H  H129  1  0.308630  0.443570  0.634870  1.0  0.111
  H  H130  1  0.246230  0.280270  0.647070  1.0  0.1101
  H  H131  1  0.252830  0.142570  0.642770  1.0  0.0885
  H  H132  1  0.347430  0.143170  0.629770  1.0  0.0946
  H  H133  1  0.200100  0.433800  0.948400  1.0  0.0941
  H  H134  1  0.130400  0.269500  0.951700  1.0  0.1071
  H  H135  1  0.223100  0.198400  0.968200  1.0  0.1116
  H  H136  1  0.386400  0.299300  0.980400  1.0  0.1106
  H  H137  1  0.524100  0.443600  0.976100  1.0  0.0857
  H  H138  1  0.523500  0.537600  0.963100  1.0  0.0953
  H  H139  1  0.866770  0.767130  0.281730  1.0  0.0941
  H  H140  1  0.797070  0.602830  0.285030  1.0  0.107
  H  H141  1  0.889770  0.531730  0.301530  1.0  0.1137
  H  H142  1  0.053070  0.632630  0.313730  1.0  0.1106
  H  H143  1  0.190770  0.776930  0.309430  1.0  0.0877
  H  H144  1  0.190170  0.870930  0.296430  1.0  0.0954
  H  H145  1  0.533430  0.100470  0.615070  1.0  0.0941
  H  H146  1  0.463730  0.936170  0.618370  1.0  0.1071
  H  H147  1  0.556430  0.865070  0.634870  1.0  0.1116
  H  H148  1  0.719730  0.965970  0.647070  1.0  0.1106
  H  H149  1  0.857430  0.110270  0.642770  1.0  0.0857
  H  H150  1  0.856830  0.204270  0.629770  1.0  0.0953
  H  H151  1  0.566200  0.766300  0.948400  1.0  0.0948
  H  H152  1  0.730500  0.860900  0.951700  1.0  0.1079
  H  H153  1  0.801600  0.024700  0.968200  1.0  0.1141
  H  H154  1  0.700700  0.087100  0.980400  1.0  0.1103
  H  H155  1  0.556400  0.080500  0.976100  1.0  0.0876
  H  H156  1  0.462400  0.985900  0.963100  1.0  0.0949
  H  H157  1  0.232870  0.099630  0.281730  1.0  0.0948
  H  H158  1  0.397170  0.194230  0.285030  1.0  0.1081
  H  H159  1  0.468270  0.358030  0.301530  1.0  0.1127
  H  H160  1  0.367370  0.420430  0.313730  1.0  0.1103
  H  H161  1  0.223070  0.413830  0.309430  1.0  0.0864
  H  H162  1  0.129070  0.319230  0.296430  1.0  0.095
  H  H163  1  0.899530  0.432970  0.615070  1.0  0.0948
  H  H164  1  0.063830  0.527570  0.618370  1.0  0.1079
  H  H165  1  0.134930  0.691370  0.634870  1.0  0.1141
  H  H166  1  0.034030  0.753770  0.647070  1.0  0.1103
  H  H167  1  0.889730  0.747170  0.642770  1.0  0.0876
  H  H168  1  0.795730  0.652570  0.629770  1.0  0.0949
  H  H169  1  0.799900  0.233700  0.551600  1.0  0.0948
  H  H170  1  0.869600  0.139100  0.548300  1.0  0.1076
  H  H171  1  0.776900  0.975300  0.531800  1.0  0.112
  H  H172  1  0.613600  0.912900  0.519600  1.0  0.1108
  H  H173  1  0.475900  0.919500  0.523900  1.0  0.087
  H  H174  1  0.476500  0.014100  0.536900  1.0  0.0937
  H  H175  1  0.466570  0.567030  0.884930  1.0  0.0948
  H  H176  1  0.536270  0.472430  0.881630  1.0  0.1076
  H  H177  1  0.443570  0.308630  0.865130  1.0  0.112
  H  H178  1  0.280270  0.246230  0.852930  1.0  0.1108
  H  H179  1  0.142570  0.252830  0.857230  1.0  0.087
  H  H180  1  0.143170  0.347430  0.870230  1.0  0.0937
  H  H181  1  0.133230  0.900370  0.218270  1.0  0.0948
  H  H182  1  0.202930  0.805770  0.214970  1.0  0.1077
  H  H183  1  0.110230  0.641970  0.198470  1.0  0.1141
  H  H184  1  0.946930  0.579570  0.186270  1.0  0.1108
  H  H185  1  0.809230  0.586170  0.190570  1.0  0.0843
  H  H186  1  0.809830  0.680770  0.203570  1.0  0.0937
  H  H187  1  0.433800  0.200100  0.551600  1.0  0.0936
  H  H188  1  0.269500  0.130400  0.548300  1.0  0.107
  H  H189  1  0.198400  0.223100  0.531800  1.0  0.1113
  H  H190  1  0.299300  0.386400  0.519600  1.0  0.1105
  H  H191  1  0.443600  0.524100  0.523900  1.0  0.0858
  H  H192  1  0.537600  0.523500  0.536900  1.0  0.0942
  H  H193  1  0.100470  0.533430  0.884930  1.0  0.0936
  H  H194  1  0.936170  0.463730  0.881630  1.0  0.107
  H  H195  1  0.865070  0.556430  0.865130  1.0  0.1113
  H  H196  1  0.965970  0.719730  0.852930  1.0  0.1105
  H  H197  1  0.110270  0.857430  0.857230  1.0  0.0858
  H  H198  1  0.204270  0.856830  0.870230  1.0  0.0942
  H  H199  1  0.767130  0.866770  0.218270  1.0  0.0936
  H  H200  1  0.602830  0.797070  0.214970  1.0  0.1069
  H  H201  1  0.531730  0.889770  0.198470  1.0  0.1136
  H  H202  1  0.632630  0.053070  0.186270  1.0  0.1105
  H  H203  1  0.776930  0.190770  0.190570  1.0  0.0875
  H  H204  1  0.870930  0.190170  0.203570  1.0  0.0942
  H  H205  1  0.766300  0.566200  0.551600  1.0  0.0942
  H  H206  1  0.860900  0.730500  0.548300  1.0  0.1082
  H  H207  1  0.024700  0.801600  0.531800  1.0  0.1128
  H  H208  1  0.087100  0.700700  0.519600  1.0  0.1111
  H  H209  1  0.080500  0.556400  0.523900  1.0  0.0877
  H  H210  1  0.985900  0.462400  0.536900  1.0  0.0945
  H  H211  1  0.432970  0.899530  0.884930  1.0  0.0942
  H  H212  1  0.527570  0.063830  0.881630  1.0  0.1082
  H  H213  1  0.691370  0.134930  0.865130  1.0  0.1128
  H  H214  1  0.753770  0.034030  0.852930  1.0  0.1111
  H  H215  1  0.747170  0.889730  0.857230  1.0  0.0877
  H  H216  1  0.652570  0.795730  0.870230  1.0  0.0945
  H  H217  1  0.099630  0.232870  0.218270  1.0  0.0942
  H  H218  1  0.194230  0.397170  0.214970  1.0  0.1083
  H  H219  1  0.358030  0.468270  0.198470  1.0  0.1106
  H  H220  1  0.420430  0.367370  0.186270  1.0  0.1111
  H  H221  1  0.413830  0.223070  0.190570  1.0  0.0855
  H  H222  1  0.319230  0.129070  0.203570  1.0  0.0945
  C  C223  1  0.869100  0.336700  0.038000  1.0  -0.0904
  C  C224  1  0.831400  0.238100  0.045200  1.0  -0.055
  C  C225  1  0.887800  0.196200  0.043200  1.0  -0.1394
  C  C226  1  0.985600  0.251200  0.033400  1.0  -0.1144
  C  C227  1  0.022200  0.348200  0.026200  1.0  -0.0012
  C  C228  1  0.010900  0.493300  0.020200  1.0  0.0132
  C  C229  1  0.535770  0.670030  0.371330  1.0  -0.0904
  C  C230  1  0.498070  0.571430  0.378530  1.0  -0.055
  C  C231  1  0.554470  0.529530  0.376530  1.0  -0.1394
  C  C232  1  0.652270  0.584530  0.366730  1.0  -0.1144
  C  C233  1  0.688870  0.681530  0.359530  1.0  -0.0012
  C  C234  1  0.677570  0.826630  0.353530  1.0  0.0132
  C  C235  1  0.202430  0.003370  0.704670  1.0  -0.0904
  C  C236  1  0.164730  0.904770  0.711870  1.0  -0.055
  C  C237  1  0.221130  0.862870  0.709870  1.0  -0.1394
  C  C238  1  0.318930  0.917870  0.700070  1.0  -0.1144
  C  C239  1  0.355530  0.014870  0.692870  1.0  -0.0011
  C  C240  1  0.344230  0.159970  0.686870  1.0  0.0132
  C  C241  1  0.663300  0.532400  0.038000  1.0  -0.0837
  C  C242  1  0.761900  0.593300  0.045200  1.0  -0.056
  C  C243  1  0.803800  0.691600  0.043200  1.0  -0.1389
  C  C244  1  0.748800  0.734400  0.033400  1.0  -0.1093
  C  C245  1  0.651800  0.674000  0.026200  1.0  -0.0032
  C  C246  1  0.506700  0.517600  0.020200  1.0  0.0153
  C  C247  1  0.329970  0.865730  0.371330  1.0  -0.0837
  C  C248  1  0.428570  0.926630  0.378530  1.0  -0.056
  C  C249  1  0.470470  0.024930  0.376530  1.0  -0.1389
  C  C250  1  0.415470  0.067730  0.366730  1.0  -0.1093
  C  C251  1  0.318470  0.007330  0.359530  1.0  -0.0032
  C  C252  1  0.173370  0.850930  0.353530  1.0  0.0153
  C  C253  1  0.996630  0.199070  0.704670  1.0  -0.0838
  C  C254  1  0.095230  0.259970  0.711870  1.0  -0.056
  C  C255  1  0.137130  0.358270  0.709870  1.0  -0.139
  C  C256  1  0.082130  0.401070  0.700070  1.0  -0.1093
  C  C257  1  0.985130  0.340670  0.692870  1.0  -0.0032
  C  C258  1  0.840030  0.184270  0.686870  1.0  0.0153
  C  C259  1  0.467600  0.130900  0.038000  1.0  -0.0875
  C  C260  1  0.406700  0.168600  0.045200  1.0  -0.057
  C  C261  1  0.308400  0.112200  0.043200  1.0  -0.1365
  C  C262  1  0.265600  0.014400  0.033400  1.0  -0.1128
  C  C263  1  0.326000  0.977800  0.026200  1.0  -0.0053
  C  C264  1  0.482400  0.989100  0.020200  1.0  0.0123
  C  C265  1  0.134270  0.464230  0.371330  1.0  -0.0875
  C  C266  1  0.073370  0.501930  0.378530  1.0  -0.057
  C  C267  1  0.975070  0.445530  0.376530  1.0  -0.1365
  C  C268  1  0.932270  0.347730  0.366730  1.0  -0.1128
  C  C269  1  0.992670  0.311130  0.359530  1.0  -0.0053
  C  C270  1  0.149070  0.322430  0.353530  1.0  0.0123
  C  C271  1  0.800930  0.797570  0.704670  1.0  -0.0876
  C  C272  1  0.740030  0.835270  0.711870  1.0  -0.057
  C  C273  1  0.641730  0.778870  0.709870  1.0  -0.1365
  C  C274  1  0.598930  0.681070  0.700070  1.0  -0.1128
  C  C275  1  0.659330  0.644470  0.692870  1.0  -0.0054
  C  C276  1  0.815730  0.655770  0.686870  1.0  0.0123
  C  C277  1  0.336700  0.869100  0.462000  1.0  -0.0859
  C  C278  1  0.238100  0.831400  0.454800  1.0  -0.0571
  C  C279  1  0.196200  0.887800  0.456800  1.0  -0.1349
  C  C280  1  0.251200  0.985600  0.466600  1.0  -0.1124
  C  C281  1  0.348200  0.022200  0.473800  1.0  -0.0038
  C  C282  1  0.493300  0.010900  0.479800  1.0  0.0119
  C  C283  1  0.003370  0.202430  0.795330  1.0  -0.086
  C  C284  1  0.904770  0.164730  0.788130  1.0  -0.0571
  C  C285  1  0.862870  0.221130  0.790130  1.0  -0.1349
  C  C286  1  0.917870  0.318930  0.799930  1.0  -0.1123
  C  C287  1  0.014870  0.355530  0.807130  1.0  -0.0038
  C  C288  1  0.159970  0.344230  0.813130  1.0  0.0119
  C  C289  1  0.670030  0.535770  0.128670  1.0  -0.0859
  C  C290  1  0.571430  0.498070  0.121470  1.0  -0.0571
  C  C291  1  0.529530  0.554470  0.123470  1.0  -0.1349
  C  C292  1  0.584530  0.652270  0.133270  1.0  -0.1124
  C  C293  1  0.681530  0.688870  0.140470  1.0  -0.0038
  C  C294  1  0.826630  0.677570  0.146470  1.0  0.0119
  C  C295  1  0.532400  0.663300  0.462000  1.0  -0.0902
  C  C296  1  0.593300  0.761900  0.454800  1.0  -0.0546
  C  C297  1  0.691600  0.803800  0.456800  1.0  -0.1371
  C  C298  1  0.734400  0.748800  0.466600  1.0  -0.1132
  C  C299  1  0.674000  0.651800  0.473800  1.0  -0.0012
  C  C300  1  0.517600  0.506700  0.479800  1.0  0.0116
  C  C301  1  0.199070  0.996630  0.795330  1.0  -0.0903
  C  C302  1  0.259970  0.095230  0.788130  1.0  -0.0546
  C  C303  1  0.358270  0.137130  0.790130  1.0  -0.1372
  C  C304  1  0.401070  0.082130  0.799930  1.0  -0.1131
  C  C305  1  0.340670  0.985130  0.807130  1.0  -0.0012
  C  C306  1  0.184270  0.840030  0.813130  1.0  0.0116
  C  C307  1  0.865730  0.329970  0.128670  1.0  -0.0902
  C  C308  1  0.926630  0.428570  0.121470  1.0  -0.0546
  C  C309  1  0.024930  0.470470  0.123470  1.0  -0.1371
  C  C310  1  0.067730  0.415470  0.133270  1.0  -0.1132
  C  C311  1  0.007330  0.318470  0.140470  1.0  -0.0012
  C  C312  1  0.850930  0.173370  0.146470  1.0  0.0116
  C  C313  1  0.130900  0.467600  0.462000  1.0  -0.0814
  C  C314  1  0.168600  0.406700  0.454800  1.0  -0.056
  C  C315  1  0.112200  0.308400  0.456800  1.0  -0.139
  C  C316  1  0.014400  0.265600  0.466600  1.0  -0.1118
  C  C317  1  0.977800  0.326000  0.473800  1.0  -0.0033
  C  C318  1  0.989100  0.482400  0.479800  1.0  0.0159
  C  C319  1  0.797570  0.800930  0.795330  1.0  -0.0815
  C  C320  1  0.835270  0.740030  0.788130  1.0  -0.056
  C  C321  1  0.778870  0.641730  0.790130  1.0  -0.139
  C  C322  1  0.681070  0.598930  0.799930  1.0  -0.1117
  C  C323  1  0.644470  0.659330  0.807130  1.0  -0.0033
  C  C324  1  0.655770  0.815730  0.813130  1.0  0.0159
  C  C325  1  0.464230  0.134270  0.128670  1.0  -0.0814
  C  C326  1  0.501930  0.073370  0.121470  1.0  -0.056
  C  C327  1  0.445530  0.975070  0.123470  1.0  -0.139
  C  C328  1  0.347730  0.932270  0.133270  1.0  -0.1118
  C  C329  1  0.311130  0.992670  0.140470  1.0  -0.0033
  C  C330  1  0.322430  0.149070  0.146470  1.0  0.0159
  C  C331  1  0.130900  0.663300  0.962000  1.0  -0.0883
  C  C332  1  0.168600  0.761900  0.954800  1.0  -0.0547
  C  C333  1  0.112200  0.803800  0.956800  1.0  -0.1365
  C  C334  1  0.014400  0.748800  0.966600  1.0  -0.1115
  C  C335  1  0.977800  0.651800  0.973800  1.0  -0.0008
  C  C336  1  0.989100  0.506700  0.979800  1.0  0.0113
  C  C337  1  0.797570  0.996630  0.295330  1.0  -0.0884
  C  C338  1  0.835270  0.095230  0.288130  1.0  -0.0547
  C  C339  1  0.778870  0.137130  0.290130  1.0  -0.1365
  C  C340  1  0.681070  0.082130  0.299930  1.0  -0.1114
  C  C341  1  0.644470  0.985130  0.307130  1.0  -0.0008
  C  C342  1  0.655770  0.840030  0.313130  1.0  0.0113
  C  C343  1  0.464230  0.329970  0.628670  1.0  -0.0883
  C  C344  1  0.501930  0.428570  0.621470  1.0  -0.0547
  C  C345  1  0.445530  0.470470  0.623470  1.0  -0.1365
  C  C346  1  0.347730  0.415470  0.633270  1.0  -0.1115
  C  C347  1  0.311130  0.318470  0.640470  1.0  -0.0008
  C  C348  1  0.322430  0.173370  0.646470  1.0  0.0113
  C  C349  1  0.336700  0.467600  0.962000  1.0  -0.0826
  C  C350  1  0.238100  0.406700  0.954800  1.0  -0.054
  C  C351  1  0.196200  0.308400  0.956800  1.0  -0.1378
  C  C352  1  0.251200  0.265600  0.966600  1.0  -0.1123
  C  C353  1  0.348200  0.326000  0.973800  1.0  -0.0038
  C  C354  1  0.493300  0.482400  0.979800  1.0  0.0142
  C  C355  1  0.003370  0.800930  0.295330  1.0  -0.0827
  C  C356  1  0.904770  0.740030  0.288130  1.0  -0.054
  C  C357  1  0.862870  0.641730  0.290130  1.0  -0.1378
  C  C358  1  0.917870  0.598930  0.299930  1.0  -0.1123
  C  C359  1  0.014870  0.659330  0.307130  1.0  -0.0038
  C  C360  1  0.159970  0.815730  0.313130  1.0  0.0142
  C  C361  1  0.670030  0.134270  0.628670  1.0  -0.0826
  C  C362  1  0.571430  0.073370  0.621470  1.0  -0.054
  C  C363  1  0.529530  0.975070  0.623470  1.0  -0.1378
  C  C364  1  0.584530  0.932270  0.633270  1.0  -0.1123
  C  C365  1  0.681530  0.992670  0.640470  1.0  -0.0038
  C  C366  1  0.826630  0.149070  0.646470  1.0  0.0142
  C  C367  1  0.532400  0.869100  0.962000  1.0  -0.0876
  C  C368  1  0.593300  0.831400  0.954800  1.0  -0.0584
  C  C369  1  0.691600  0.887800  0.956800  1.0  -0.1359
  C  C370  1  0.734400  0.985600  0.966600  1.0  -0.1102
  C  C371  1  0.674000  0.022200  0.973800  1.0  -0.0039
  C  C372  1  0.517600  0.010900  0.979800  1.0  0.0129
  C  C373  1  0.199070  0.202430  0.295330  1.0  -0.0877
  C  C374  1  0.259970  0.164730  0.288130  1.0  -0.0584
  C  C375  1  0.358270  0.221130  0.290130  1.0  -0.1359
  C  C376  1  0.401070  0.318930  0.299930  1.0  -0.1101
  C  C377  1  0.340670  0.355530  0.307130  1.0  -0.0039
  C  C378  1  0.184270  0.344230  0.313130  1.0  0.0129
  C  C379  1  0.865730  0.535770  0.628670  1.0  -0.0876
  C  C380  1  0.926630  0.498070  0.621470  1.0  -0.0584
  C  C381  1  0.024930  0.554470  0.623470  1.0  -0.1359
  C  C382  1  0.067730  0.652270  0.633270  1.0  -0.1102
  C  C383  1  0.007330  0.688870  0.640470  1.0  -0.0039
  C  C384  1  0.850930  0.677570  0.646470  1.0  0.0129
  C  C385  1  0.663300  0.130900  0.538000  1.0  -0.0887
  C  C386  1  0.761900  0.168600  0.545200  1.0  -0.0583
  C  C387  1  0.803800  0.112200  0.543200  1.0  -0.135
  C  C388  1  0.748800  0.014400  0.533400  1.0  -0.1118
  C  C389  1  0.651800  0.977800  0.526200  1.0  -0.0047
  C  C390  1  0.506700  0.989100  0.520200  1.0  0.0123
  C  C391  1  0.329970  0.464230  0.871330  1.0  -0.0887
  C  C392  1  0.428570  0.501930  0.878530  1.0  -0.0583
  C  C393  1  0.470470  0.445530  0.876530  1.0  -0.135
  C  C394  1  0.415470  0.347730  0.866730  1.0  -0.1118
  C  C395  1  0.318470  0.311130  0.859530  1.0  -0.0047
  C  C396  1  0.173370  0.322430  0.853530  1.0  0.0123
  C  C397  1  0.996630  0.797570  0.204670  1.0  -0.0888
  C  C398  1  0.095230  0.835270  0.211870  1.0  -0.0583
  C  C399  1  0.137130  0.778870  0.209870  1.0  -0.1351
  C  C400  1  0.082130  0.681070  0.200070  1.0  -0.1117
  C  C401  1  0.985130  0.644470  0.192870  1.0  -0.0048
  C  C402  1  0.840030  0.655770  0.186870  1.0  0.0123
  C  C403  1  0.467600  0.336700  0.538000  1.0  -0.0884
  C  C404  1  0.406700  0.238100  0.545200  1.0  -0.0543
  C  C405  1  0.308400  0.196200  0.543200  1.0  -0.1389
  C  C406  1  0.265600  0.251200  0.533400  1.0  -0.1121
  C  C407  1  0.326000  0.348200  0.526200  1.0  -0.0012
  C  C408  1  0.482400  0.493300  0.520200  1.0  0.0124
  C  C409  1  0.134270  0.670030  0.871330  1.0  -0.0884
  C  C410  1  0.073370  0.571430  0.878530  1.0  -0.0543
  C  C411  1  0.975070  0.529530  0.876530  1.0  -0.1389
  C  C412  1  0.932270  0.584530  0.866730  1.0  -0.1121
  C  C413  1  0.992670  0.681530  0.859530  1.0  -0.0012
  C  C414  1  0.149070  0.826630  0.853530  1.0  0.0124
  C  C415  1  0.800930  0.003370  0.204670  1.0  -0.0884
  C  C416  1  0.740030  0.904770  0.211870  1.0  -0.0543
  C  C417  1  0.641730  0.862870  0.209870  1.0  -0.1389
  C  C418  1  0.598930  0.917870  0.200070  1.0  -0.112
  C  C419  1  0.659330  0.014870  0.192870  1.0  -0.0012
  C  C420  1  0.815730  0.159970  0.186870  1.0  0.0124
  C  C421  1  0.869100  0.532400  0.538000  1.0  -0.0857
  C  C422  1  0.831400  0.593300  0.545200  1.0  -0.0542
  C  C423  1  0.887800  0.691600  0.543200  1.0  -0.1384
  C  C424  1  0.985600  0.734400  0.533400  1.0  -0.1094
  C  C425  1  0.022200  0.674000  0.526200  1.0  -0.0015
  C  C426  1  0.010900  0.517600  0.520200  1.0  0.0147
  C  C427  1  0.535770  0.865730  0.871330  1.0  -0.0857
  C  C428  1  0.498070  0.926630  0.878530  1.0  -0.0542
  C  C429  1  0.554470  0.024930  0.876530  1.0  -0.1384
  C  C430  1  0.652270  0.067730  0.866730  1.0  -0.1094
  C  C431  1  0.688870  0.007330  0.859530  1.0  -0.0015
  C  C432  1  0.677570  0.850930  0.853530  1.0  0.0147
  C  C433  1  0.202430  0.199070  0.204670  1.0  -0.0858
  C  C434  1  0.164730  0.259970  0.211870  1.0  -0.0542
  C  C435  1  0.221130  0.358270  0.209870  1.0  -0.1384
  C  C436  1  0.318930  0.401070  0.200070  1.0  -0.1093
  C  C437  1  0.355530  0.340670  0.192870  1.0  -0.0015
  C  C438  1  0.344230  0.184270  0.186870  1.0  0.0147
  S  S439  1  0.802800  0.395200  0.039200  1.0  -0.1268
  S  S440  1  0.469470  0.728530  0.372530  1.0  -0.1279
  S  S441  1  0.136130  0.061870  0.705870  1.0  -0.1268
  S  S442  1  0.604800  0.407600  0.039200  1.0  -0.1273
  S  S443  1  0.271470  0.740930  0.372530  1.0  -0.1284
  S  S444  1  0.938130  0.074270  0.705870  1.0  -0.1284
  S  S445  1  0.592400  0.197200  0.039200  1.0  -0.1283
  S  S446  1  0.259070  0.530530  0.372530  1.0  -0.1294
  S  S447  1  0.925730  0.863870  0.705870  1.0  -0.1284
  S  S448  1  0.395200  0.802800  0.460800  1.0  -0.1275
  S  S449  1  0.061870  0.136130  0.794130  1.0  -0.1276
  S  S450  1  0.728530  0.469470  0.127470  1.0  -0.1286
  S  S451  1  0.407600  0.604800  0.460800  1.0  -0.127
  S  S452  1  0.074270  0.938130  0.794130  1.0  -0.1282
  S  S453  1  0.740930  0.271470  0.127470  1.0  -0.1281
  S  S454  1  0.197200  0.592400  0.460800  1.0  -0.1283
  S  S455  1  0.863870  0.925730  0.794130  1.0  -0.1284
  S  S456  1  0.530530  0.259070  0.127470  1.0  -0.1294
  S  S457  1  0.197200  0.604800  0.960800  1.0  -0.1278
  S  S458  1  0.863870  0.938130  0.294130  1.0  -0.1278
  S  S459  1  0.530530  0.271470  0.627470  1.0  -0.1289
  S  S460  1  0.395200  0.592400  0.960800  1.0  -0.1281
  S  S461  1  0.061870  0.925730  0.294130  1.0  -0.1293
  S  S462  1  0.728530  0.259070  0.627470  1.0  -0.1292
  S  S463  1  0.407600  0.802800  0.960800  1.0  -0.1275
  S  S464  1  0.074270  0.136130  0.294130  1.0  -0.1276
  S  S465  1  0.740930  0.469470  0.627470  1.0  -0.1286
  S  S466  1  0.604800  0.197200  0.539200  1.0  -0.128
  S  S467  1  0.271470  0.530530  0.872530  1.0  -0.1291
  S  S468  1  0.938130  0.863870  0.205870  1.0  -0.1281
  S  S469  1  0.592400  0.395200  0.539200  1.0  -0.1278
  S  S470  1  0.259070  0.728530  0.872530  1.0  -0.1289
  S  S471  1  0.925730  0.061870  0.205870  1.0  -0.129
  S  S472  1  0.802800  0.407600  0.539200  1.0  -0.1267
  S  S473  1  0.469470  0.740930  0.872530  1.0  -0.1278
  S  S474  1  0.136130  0.074270  0.205870  1.0  -0.1267
  N  N475  1  0.965400  0.389500  0.028600  1.0  -0.161
  N  N476  1  0.632070  0.722830  0.361930  1.0  -0.161
  N  N477  1  0.298730  0.056170  0.695270  1.0  -0.1609
  N  N478  1  0.610500  0.575900  0.028600  1.0  -0.1596
  N  N479  1  0.277170  0.909230  0.361930  1.0  -0.1596
  N  N480  1  0.943830  0.242570  0.695270  1.0  -0.1595
  N  N481  1  0.424100  0.034600  0.028600  1.0  -0.1612
  N  N482  1  0.090770  0.367930  0.361930  1.0  -0.1612
  N  N483  1  0.757430  0.701270  0.695270  1.0  -0.1611
  N  N484  1  0.389500  0.965400  0.471400  1.0  -0.1613
  N  N485  1  0.056170  0.298730  0.804730  1.0  -0.1613
  N  N486  1  0.722830  0.632070  0.138070  1.0  -0.1613
  N  N487  1  0.575900  0.610500  0.471400  1.0  -0.1607
  N  N488  1  0.242570  0.943830  0.804730  1.0  -0.1607
  N  N489  1  0.909230  0.277170  0.138070  1.0  -0.1607
  N  N490  1  0.034600  0.424100  0.471400  1.0  -0.1597
  N  N491  1  0.701270  0.757430  0.804730  1.0  -0.1596
  N  N492  1  0.367930  0.090770  0.138070  1.0  -0.1597
  N  N493  1  0.034600  0.610500  0.971400  1.0  -0.1619
  N  N494  1  0.701270  0.943830  0.304730  1.0  -0.1619
  N  N495  1  0.367930  0.277170  0.638070  1.0  -0.1619
  N  N496  1  0.389500  0.424100  0.971400  1.0  -0.1618
  N  N497  1  0.056170  0.757430  0.304730  1.0  -0.1618
  N  N498  1  0.722830  0.090770  0.638070  1.0  -0.1618
  N  N499  1  0.575900  0.965400  0.971400  1.0  -0.1603
  N  N500  1  0.242570  0.298730  0.304730  1.0  -0.1603
  N  N501  1  0.909230  0.632070  0.638070  1.0  -0.1603
  N  N502  1  0.610500  0.034600  0.528600  1.0  -0.1602
  N  N503  1  0.277170  0.367930  0.861930  1.0  -0.1602
  N  N504  1  0.943830  0.701270  0.195270  1.0  -0.1602
  N  N505  1  0.424100  0.389500  0.528600  1.0  -0.1621
  N  N506  1  0.090770  0.722830  0.861930  1.0  -0.1621
  N  N507  1  0.757430  0.056170  0.195270  1.0  -0.1621
  N  N508  1  0.965400  0.575900  0.528600  1.0  -0.1614
  N  N509  1  0.632070  0.909230  0.861930  1.0  -0.1614
  N  N510  1  0.298730  0.242570  0.195270  1.0  -0.1614
