# generated using pymatgen
data_ZnAgH14(C16N3)2
_symmetry_space_group_name_H-M   'P 1'
_cell_length_a   34.60700000
_cell_length_b   12.86310000
_cell_length_c   23.87510000
_cell_angle_alpha   90.00000000
_cell_angle_beta   114.02600000
_cell_angle_gamma   90.00000000
_symmetry_Int_Tables_number   1
_chemical_formula_structural   ZnAgH14(C16N3)2
_chemical_formula_sum   'Zn8 Ag8 H112 C256 N48'
_cell_volume   9707.27119866
_cell_formula_units_Z   8
loop_
 _symmetry_equiv_pos_site_id
 _symmetry_equiv_pos_as_xyz
  1  'x, y, z'
loop_
 _atom_site_type_symbol
 _atom_site_label
 _atom_site_symmetry_multiplicity
 _atom_site_fract_x
 _atom_site_fract_y
 _atom_site_fract_z
 _atom_site_occupancy
 _atom_site_charge
  Zn  Zn1  1  0.000000  0.066860  0.750000  1.0  0.7892
  Zn  Zn2  1  0.000000  0.314250  0.750000  1.0  0.788
  Zn  Zn3  1  0.500000  0.566860  0.750000  1.0  0.7892
  Zn  Zn4  1  0.500000  0.814250  0.750000  1.0  0.788
  Zn  Zn5  1  0.000000  0.933140  0.250000  1.0  0.7905
  Zn  Zn6  1  0.000000  0.685750  0.250000  1.0  0.7887
  Zn  Zn7  1  0.500000  0.433140  0.250000  1.0  0.7905
  Zn  Zn8  1  0.500000  0.185750  0.250000  1.0  0.7887
  Ag  Ag9  1  0.847000  0.913850  0.195660  1.0  0.4849
  Ag  Ag10  1  0.347000  0.413850  0.195660  1.0  0.4849
  Ag  Ag11  1  0.153000  0.913850  0.304340  1.0  0.4831
  Ag  Ag12  1  0.653000  0.413850  0.304340  1.0  0.4831
  Ag  Ag13  1  0.153000  0.086150  0.804340  1.0  0.4832
  Ag  Ag14  1  0.653000  0.586150  0.804340  1.0  0.4832
  Ag  Ag15  1  0.847000  0.086150  0.695660  1.0  0.4853
  Ag  Ag16  1  0.347000  0.586150  0.695660  1.0  0.4853
  H  H17  1  0.075200  0.933500  0.739000  1.0  0.1121
  H  H18  1  0.145100  0.904600  0.828400  1.0  0.1038
  H  H19  1  0.137900  0.961600  0.920000  1.0  0.1037
  H  H20  1  0.005200  0.110400  0.962600  1.0  0.1066
  H  H21  1  0.939000  0.195200  0.895700  1.0  0.1127
  H  H22  1  0.869500  0.225500  0.774200  1.0  0.1174
  H  H23  1  0.842900  0.307400  0.671300  1.0  0.1212
  H  H24  1  0.925400  0.412500  0.526900  1.0  0.1117
  H  H25  1  0.001700  0.446700  0.551300  1.0  0.1309
  H  H26  1  0.038600  0.432300  0.666900  1.0  0.1047
  H  H27  1  0.850900  0.198000  0.564400  1.0  0.0989
  H  H28  1  0.783100  0.217000  0.483900  1.0  0.1236
  H  H29  1  0.803800  0.523500  0.478200  1.0  0.1282
  H  H30  1  0.869800  0.503300  0.563100  1.0  0.1039
  H  H31  1  0.575200  0.433500  0.739000  1.0  0.1121
  H  H32  1  0.645100  0.404600  0.828400  1.0  0.1038
  H  H33  1  0.637900  0.461600  0.920000  1.0  0.1037
  H  H34  1  0.505200  0.610400  0.962600  1.0  0.1066
  H  H35  1  0.439000  0.695200  0.895700  1.0  0.1127
  H  H36  1  0.369500  0.725500  0.774200  1.0  0.1174
  H  H37  1  0.342900  0.807400  0.671300  1.0  0.1212
  H  H38  1  0.425400  0.912500  0.526900  1.0  0.1117
  H  H39  1  0.501700  0.946700  0.551300  1.0  0.1309
  H  H40  1  0.538600  0.932300  0.666900  1.0  0.1047
  H  H41  1  0.350900  0.698000  0.564400  1.0  0.0989
  H  H42  1  0.283100  0.717000  0.483900  1.0  0.1236
  H  H43  1  0.303800  0.023500  0.478200  1.0  0.1282
  H  H44  1  0.369800  0.003300  0.563100  1.0  0.1039
  H  H45  1  0.924800  0.933500  0.761000  1.0  0.1131
  H  H46  1  0.854900  0.904600  0.671600  1.0  0.1042
  H  H47  1  0.862100  0.961600  0.580000  1.0  0.1029
  H  H48  1  0.994800  0.110400  0.537400  1.0  0.1062
  H  H49  1  0.061000  0.195200  0.604300  1.0  0.1132
  H  H50  1  0.130500  0.225500  0.725800  1.0  0.1197
  H  H51  1  0.157100  0.307400  0.828700  1.0  0.1224
  H  H52  1  0.074600  0.412500  0.973100  1.0  0.1118
  H  H53  1  0.998300  0.446700  0.948700  1.0  0.1308
  H  H54  1  0.961400  0.432300  0.833100  1.0  0.1049
  H  H55  1  0.149100  0.198000  0.935600  1.0  0.0995
  H  H56  1  0.216900  0.217000  0.016100  1.0  0.1236
  H  H57  1  0.196200  0.523500  0.021800  1.0  0.1281
  H  H58  1  0.130200  0.503300  0.936900  1.0  0.1041
  H  H59  1  0.424800  0.433500  0.761000  1.0  0.1131
  H  H60  1  0.354900  0.404600  0.671600  1.0  0.1042
  H  H61  1  0.362100  0.461600  0.580000  1.0  0.1029
  H  H62  1  0.494800  0.610400  0.537400  1.0  0.1062
  H  H63  1  0.561000  0.695200  0.604300  1.0  0.1132
  H  H64  1  0.630500  0.725500  0.725800  1.0  0.1197
  H  H65  1  0.657100  0.807400  0.828700  1.0  0.1224
  H  H66  1  0.574600  0.912500  0.973100  1.0  0.1118
  H  H67  1  0.498300  0.946700  0.948700  1.0  0.1308
  H  H68  1  0.461400  0.932300  0.833100  1.0  0.1049
  H  H69  1  0.649100  0.698000  0.935600  1.0  0.0995
  H  H70  1  0.716900  0.717000  0.016100  1.0  0.1236
  H  H71  1  0.696200  0.023500  0.021800  1.0  0.1281
  H  H72  1  0.630200  0.003300  0.936900  1.0  0.1041
  H  H73  1  0.924800  0.066500  0.261000  1.0  0.1107
  H  H74  1  0.854900  0.095400  0.171600  1.0  0.1044
  H  H75  1  0.862100  0.038400  0.080000  1.0  0.1026
  H  H76  1  0.994800  0.889600  0.037400  1.0  0.1063
  H  H77  1  0.061000  0.804800  0.104300  1.0  0.1126
  H  H78  1  0.130500  0.774500  0.225800  1.0  0.1193
  H  H79  1  0.157100  0.692600  0.328700  1.0  0.1216
  H  H80  1  0.074600  0.587500  0.473100  1.0  0.1124
  H  H81  1  0.998300  0.553300  0.448700  1.0  0.1308
  H  H82  1  0.961400  0.567700  0.333100  1.0  0.1044
  H  H83  1  0.149100  0.802000  0.435600  1.0  0.0992
  H  H84  1  0.216900  0.783000  0.516100  1.0  0.1238
  H  H85  1  0.196200  0.476500  0.521800  1.0  0.1278
  H  H86  1  0.130200  0.496700  0.436900  1.0  0.104
  H  H87  1  0.424800  0.566500  0.261000  1.0  0.1107
  H  H88  1  0.354900  0.595400  0.171600  1.0  0.1044
  H  H89  1  0.362100  0.538400  0.080000  1.0  0.1026
  H  H90  1  0.494800  0.389600  0.037400  1.0  0.1063
  H  H91  1  0.561000  0.304800  0.104300  1.0  0.1126
  H  H92  1  0.630500  0.274500  0.225800  1.0  0.1193
  H  H93  1  0.657100  0.192600  0.328700  1.0  0.1216
  H  H94  1  0.574600  0.087500  0.473100  1.0  0.1124
  H  H95  1  0.498300  0.053300  0.448700  1.0  0.1308
  H  H96  1  0.461400  0.067700  0.333100  1.0  0.1044
  H  H97  1  0.649100  0.302000  0.435600  1.0  0.0992
  H  H98  1  0.716900  0.283000  0.516100  1.0  0.1238
  H  H99  1  0.696200  0.976500  0.521800  1.0  0.1278
  H  H100  1  0.630200  0.996700  0.436900  1.0  0.104
  H  H101  1  0.075200  0.066500  0.239000  1.0  0.113
  H  H102  1  0.145100  0.095400  0.328400  1.0  0.1047
  H  H103  1  0.137900  0.038400  0.420000  1.0  0.1032
  H  H104  1  0.005200  0.889600  0.462600  1.0  0.1063
  H  H105  1  0.939000  0.804800  0.395700  1.0  0.1126
  H  H106  1  0.869500  0.774500  0.274200  1.0  0.1176
  H  H107  1  0.842900  0.692600  0.171300  1.0  0.121
  H  H108  1  0.925400  0.587500  0.026900  1.0  0.112
  H  H109  1  0.001700  0.553300  0.051300  1.0  0.1305
  H  H110  1  0.038600  0.567700  0.166900  1.0  0.1039
  H  H111  1  0.850900  0.802000  0.064400  1.0  0.099
  H  H112  1  0.783100  0.783000  0.983900  1.0  0.1241
  H  H113  1  0.803800  0.476500  0.978200  1.0  0.1278
  H  H114  1  0.869800  0.496700  0.063100  1.0  0.1047
  H  H115  1  0.575200  0.566500  0.239000  1.0  0.113
  H  H116  1  0.645100  0.595400  0.328400  1.0  0.1047
  H  H117  1  0.637900  0.538400  0.420000  1.0  0.1032
  H  H118  1  0.505200  0.389600  0.462600  1.0  0.1063
  H  H119  1  0.439000  0.304800  0.395700  1.0  0.1126
  H  H120  1  0.369500  0.274500  0.274200  1.0  0.1176
  H  H121  1  0.342900  0.192600  0.171300  1.0  0.121
  H  H122  1  0.425400  0.087500  0.026900  1.0  0.112
  H  H123  1  0.501700  0.053300  0.051300  1.0  0.1305
  H  H124  1  0.538600  0.067700  0.166900  1.0  0.1039
  H  H125  1  0.350900  0.302000  0.064400  1.0  0.099
  H  H126  1  0.283100  0.283000  0.983900  1.0  0.1241
  H  H127  1  0.303800  0.976500  0.978200  1.0  0.1278
  H  H128  1  0.369800  0.996700  0.063100  1.0  0.1047
  C  C129  1  0.081600  0.950500  0.779700  1.0  -0.0472
  C  C130  1  0.121000  0.933200  0.830300  1.0  -0.2047
  C  C131  1  0.117040  0.965000  0.880300  1.0  -0.1959
  C  C132  1  0.076390  0.004600  0.863500  1.0  0.1656
  C  C133  1  0.058520  0.048800  0.902600  1.0  -0.049
  C  C134  1  0.019670  0.096400  0.883700  1.0  0.1912
  C  C135  1  0.996400  0.123200  0.920900  1.0  -0.1724
  C  C136  1  0.959820  0.169900  0.884000  1.0  -0.1274
  C  C137  1  0.959140  0.173100  0.824500  1.0  0.051
  C  C138  1  0.082990  0.032600  0.969800  1.0  -0.1014
  C  C139  1  0.094900  0.934200  0.993400  1.0  -0.0282
  C  C140  1  0.114300  0.923900  0.056600  1.0  0.0693
  C  C141  1  0.123040  0.005500  0.095500  1.0  0.0915
  C  C142  1  0.112600  0.107600  0.071600  1.0  -0.0495
  C  C143  1  0.090800  0.118900  0.007800  1.0  0.0414
  C  C144  1  0.140900  0.990000  0.161000  1.0  0.2743
  C  C145  1  0.928040  0.220700  0.768900  1.0  0.1187
  C  C146  1  0.885200  0.240500  0.751600  1.0  -0.1943
  C  C147  1  0.870550  0.286300  0.694800  1.0  -0.2078
  C  C148  1  0.906280  0.295300  0.678800  1.0  0.1219
  C  C149  1  0.908350  0.337500  0.626100  1.0  0.0612
  C  C150  1  0.942720  0.373200  0.619900  1.0  0.1246
  C  C151  1  0.947480  0.406500  0.565500  1.0  -0.0841
  C  C152  1  0.989700  0.428600  0.578400  1.0  -0.1235
  C  C153  1  0.010300  0.416800  0.643800  1.0  0.0325
  C  C154  1  0.866270  0.352000  0.573600  1.0  0.0418
  C  C155  1  0.841080  0.263500  0.548400  1.0  -0.0968
  C  C156  1  0.800890  0.273900  0.498800  1.0  -0.1527
  C  C157  1  0.789540  0.368400  0.474400  1.0  0.0364
  C  C158  1  0.813200  0.458900  0.496000  1.0  -0.1475
  C  C159  1  0.852700  0.445400  0.547200  1.0  -0.1072
  C  C160  1  0.748200  0.382600  0.422400  1.0  0.3087
  C  C161  1  0.581600  0.450500  0.779700  1.0  -0.0472
  C  C162  1  0.621000  0.433200  0.830300  1.0  -0.2047
  C  C163  1  0.617040  0.465000  0.880300  1.0  -0.1959
  C  C164  1  0.576390  0.504600  0.863500  1.0  0.1656
  C  C165  1  0.558520  0.548800  0.902600  1.0  -0.049
  C  C166  1  0.519670  0.596400  0.883700  1.0  0.1912
  C  C167  1  0.496400  0.623200  0.920900  1.0  -0.1724
  C  C168  1  0.459820  0.669900  0.884000  1.0  -0.1274
  C  C169  1  0.459140  0.673100  0.824500  1.0  0.051
  C  C170  1  0.582990  0.532600  0.969800  1.0  -0.1014
  C  C171  1  0.594900  0.434200  0.993400  1.0  -0.0282
  C  C172  1  0.614300  0.423900  0.056600  1.0  0.0693
  C  C173  1  0.623040  0.505500  0.095500  1.0  0.0915
  C  C174  1  0.612600  0.607600  0.071600  1.0  -0.0495
  C  C175  1  0.590800  0.618900  0.007800  1.0  0.0414
  C  C176  1  0.640900  0.490000  0.161000  1.0  0.2743
  C  C177  1  0.428040  0.720700  0.768900  1.0  0.1187
  C  C178  1  0.385200  0.740500  0.751600  1.0  -0.1943
  C  C179  1  0.370550  0.786300  0.694800  1.0  -0.2078
  C  C180  1  0.406280  0.795300  0.678800  1.0  0.1219
  C  C181  1  0.408350  0.837500  0.626100  1.0  0.0612
  C  C182  1  0.442720  0.873200  0.619900  1.0  0.1246
  C  C183  1  0.447480  0.906500  0.565500  1.0  -0.0841
  C  C184  1  0.489700  0.928600  0.578400  1.0  -0.1235
  C  C185  1  0.510300  0.916800  0.643800  1.0  0.0325
  C  C186  1  0.366270  0.852000  0.573600  1.0  0.0418
  C  C187  1  0.341080  0.763500  0.548400  1.0  -0.0968
  C  C188  1  0.300890  0.773900  0.498800  1.0  -0.1527
  C  C189  1  0.289540  0.868400  0.474400  1.0  0.0364
  C  C190  1  0.313200  0.958900  0.496000  1.0  -0.1475
  C  C191  1  0.352700  0.945400  0.547200  1.0  -0.1072
  C  C192  1  0.248200  0.882600  0.422400  1.0  0.3087
  C  C193  1  0.918400  0.950500  0.720300  1.0  -0.0459
  C  C194  1  0.879000  0.933200  0.669700  1.0  -0.204
  C  C195  1  0.882960  0.965000  0.619700  1.0  -0.1967
  C  C196  1  0.923610  0.004600  0.636500  1.0  0.1671
  C  C197  1  0.941480  0.048800  0.597400  1.0  -0.0496
  C  C198  1  0.980330  0.096400  0.616300  1.0  0.1904
  C  C199  1  0.003600  0.123200  0.579100  1.0  -0.1704
  C  C200  1  0.040180  0.169900  0.616000  1.0  -0.1273
  C  C201  1  0.040860  0.173100  0.675500  1.0  0.0521
  C  C202  1  0.917010  0.032600  0.530200  1.0  -0.1017
  C  C203  1  0.905100  0.934200  0.506600  1.0  -0.0282
  C  C204  1  0.885700  0.923900  0.443400  1.0  0.0698
  C  C205  1  0.876960  0.005500  0.404500  1.0  0.0947
  C  C206  1  0.887400  0.107600  0.428400  1.0  -0.0514
  C  C207  1  0.909200  0.118900  0.492200  1.0  0.0435
  C  C208  1  0.859100  0.990000  0.339000  1.0  0.2711
  C  C209  1  0.071960  0.220700  0.731100  1.0  0.1183
  C  C210  1  0.114800  0.240500  0.748400  1.0  -0.1911
  C  C211  1  0.129450  0.286300  0.805200  1.0  -0.2068
  C  C212  1  0.093720  0.295300  0.821200  1.0  0.1224
  C  C213  1  0.091650  0.337500  0.873900  1.0  0.0612
  C  C214  1  0.057280  0.373200  0.880100  1.0  0.1252
  C  C215  1  0.052520  0.406500  0.934500  1.0  -0.0855
  C  C216  1  0.010300  0.428600  0.921600  1.0  -0.125
  C  C217  1  0.989700  0.416800  0.856200  1.0  0.0347
  C  C218  1  0.133730  0.352000  0.926400  1.0  0.0422
  C  C219  1  0.158920  0.263500  0.951600  1.0  -0.0969
  C  C220  1  0.199110  0.273900  0.001200  1.0  -0.1544
  C  C221  1  0.210460  0.368400  0.025600  1.0  0.0326
  C  C222  1  0.186800  0.458900  0.004000  1.0  -0.1459
  C  C223  1  0.147300  0.445400  0.952800  1.0  -0.108
  C  C224  1  0.251800  0.382600  0.077600  1.0  0.3137
  C  C225  1  0.418400  0.450500  0.720300  1.0  -0.0459
  C  C226  1  0.379000  0.433200  0.669700  1.0  -0.204
  C  C227  1  0.382960  0.465000  0.619700  1.0  -0.1967
  C  C228  1  0.423610  0.504600  0.636500  1.0  0.1671
  C  C229  1  0.441480  0.548800  0.597400  1.0  -0.0496
  C  C230  1  0.480330  0.596400  0.616300  1.0  0.1904
  C  C231  1  0.503600  0.623200  0.579100  1.0  -0.1704
  C  C232  1  0.540180  0.669900  0.616000  1.0  -0.1273
  C  C233  1  0.540860  0.673100  0.675500  1.0  0.0521
  C  C234  1  0.417010  0.532600  0.530200  1.0  -0.1017
  C  C235  1  0.405100  0.434200  0.506600  1.0  -0.0282
  C  C236  1  0.385700  0.423900  0.443400  1.0  0.0698
  C  C237  1  0.376960  0.505500  0.404500  1.0  0.0947
  C  C238  1  0.387400  0.607600  0.428400  1.0  -0.0514
  C  C239  1  0.409200  0.618900  0.492200  1.0  0.0435
  C  C240  1  0.359100  0.490000  0.339000  1.0  0.2711
  C  C241  1  0.571960  0.720700  0.731100  1.0  0.1183
  C  C242  1  0.614800  0.740500  0.748400  1.0  -0.1911
  C  C243  1  0.629450  0.786300  0.805200  1.0  -0.2068
  C  C244  1  0.593720  0.795300  0.821200  1.0  0.1224
  C  C245  1  0.591650  0.837500  0.873900  1.0  0.0612
  C  C246  1  0.557280  0.873200  0.880100  1.0  0.1252
  C  C247  1  0.552520  0.906500  0.934500  1.0  -0.0855
  C  C248  1  0.510300  0.928600  0.921600  1.0  -0.125
  C  C249  1  0.489700  0.916800  0.856200  1.0  0.0347
  C  C250  1  0.633730  0.852000  0.926400  1.0  0.0422
  C  C251  1  0.658920  0.763500  0.951600  1.0  -0.0969
  C  C252  1  0.699110  0.773900  0.001200  1.0  -0.1544
  C  C253  1  0.710460  0.868400  0.025600  1.0  0.0326
  C  C254  1  0.686800  0.958900  0.004000  1.0  -0.1459
  C  C255  1  0.647300  0.945400  0.952800  1.0  -0.108
  C  C256  1  0.751800  0.882600  0.077600  1.0  0.3137
  C  C257  1  0.918400  0.049500  0.220300  1.0  -0.0446
  C  C258  1  0.879000  0.066800  0.169700  1.0  -0.2026
  C  C259  1  0.882960  0.035000  0.119700  1.0  -0.1983
  C  C260  1  0.923610  0.995400  0.136500  1.0  0.1668
  C  C261  1  0.941480  0.951200  0.097400  1.0  -0.0489
  C  C262  1  0.980330  0.903600  0.116300  1.0  0.1905
  C  C263  1  0.003600  0.876800  0.079100  1.0  -0.1709
  C  C264  1  0.040180  0.830100  0.116000  1.0  -0.1271
  C  C265  1  0.040860  0.826900  0.175500  1.0  0.0519
  C  C266  1  0.917010  0.967400  0.030200  1.0  -0.1006
  C  C267  1  0.905100  0.065800  0.006600  1.0  -0.0282
  C  C268  1  0.885700  0.076100  0.943400  1.0  0.068
  C  C269  1  0.876960  0.994500  0.904500  1.0  0.0942
  C  C270  1  0.887400  0.892400  0.928400  1.0  -0.0514
  C  C271  1  0.909200  0.881100  0.992200  1.0  0.042
  C  C272  1  0.859100  0.010000  0.839000  1.0  0.2712
  C  C273  1  0.071960  0.779300  0.231100  1.0  0.1184
  C  C274  1  0.114800  0.759500  0.248400  1.0  -0.1909
  C  C275  1  0.129450  0.713700  0.305200  1.0  -0.2092
  C  C276  1  0.093720  0.704700  0.321200  1.0  0.1202
  C  C277  1  0.091650  0.662500  0.373900  1.0  0.0606
  C  C278  1  0.057280  0.626800  0.380100  1.0  0.1257
  C  C279  1  0.052520  0.593500  0.434500  1.0  -0.0871
  C  C280  1  0.010300  0.571400  0.421600  1.0  -0.124
  C  C281  1  0.989700  0.583200  0.356200  1.0  0.0345
  C  C282  1  0.133730  0.648000  0.426400  1.0  0.0425
  C  C283  1  0.158920  0.736500  0.451600  1.0  -0.0972
  C  C284  1  0.199110  0.726100  0.501200  1.0  -0.1552
  C  C285  1  0.210460  0.631600  0.525600  1.0  0.0324
  C  C286  1  0.186800  0.541100  0.504000  1.0  -0.1444
  C  C287  1  0.147300  0.554600  0.452800  1.0  -0.1095
  C  C288  1  0.251800  0.617400  0.577600  1.0  0.3138
  C  C289  1  0.418400  0.549500  0.220300  1.0  -0.0446
  C  C290  1  0.379000  0.566800  0.169700  1.0  -0.2026
  C  C291  1  0.382960  0.535000  0.119700  1.0  -0.1983
  C  C292  1  0.423610  0.495400  0.136500  1.0  0.1668
  C  C293  1  0.441480  0.451200  0.097400  1.0  -0.0489
  C  C294  1  0.480330  0.403600  0.116300  1.0  0.1905
  C  C295  1  0.503600  0.376800  0.079100  1.0  -0.1709
  C  C296  1  0.540180  0.330100  0.116000  1.0  -0.1271
  C  C297  1  0.540860  0.326900  0.175500  1.0  0.0519
  C  C298  1  0.417010  0.467400  0.030200  1.0  -0.1006
  C  C299  1  0.405100  0.565800  0.006600  1.0  -0.0282
  C  C300  1  0.385700  0.576100  0.943400  1.0  0.068
  C  C301  1  0.376960  0.494500  0.904500  1.0  0.0942
  C  C302  1  0.387400  0.392400  0.928400  1.0  -0.0514
  C  C303  1  0.409200  0.381100  0.992200  1.0  0.042
  C  C304  1  0.359100  0.510000  0.839000  1.0  0.2712
  C  C305  1  0.571960  0.279300  0.231100  1.0  0.1184
  C  C306  1  0.614800  0.259500  0.248400  1.0  -0.1909
  C  C307  1  0.629450  0.213700  0.305200  1.0  -0.2092
  C  C308  1  0.593720  0.204700  0.321200  1.0  0.1202
  C  C309  1  0.591650  0.162500  0.373900  1.0  0.0606
  C  C310  1  0.557280  0.126800  0.380100  1.0  0.1257
  C  C311  1  0.552520  0.093500  0.434500  1.0  -0.0871
  C  C312  1  0.510300  0.071400  0.421600  1.0  -0.124
  C  C313  1  0.489700  0.083200  0.356200  1.0  0.0345
  C  C314  1  0.633730  0.148000  0.426400  1.0  0.0425
  C  C315  1  0.658920  0.236500  0.451600  1.0  -0.0972
  C  C316  1  0.699110  0.226100  0.501200  1.0  -0.1552
  C  C317  1  0.710460  0.131600  0.525600  1.0  0.0324
  C  C318  1  0.686800  0.041100  0.504000  1.0  -0.1444
  C  C319  1  0.647300  0.054600  0.452800  1.0  -0.1095
  C  C320  1  0.751800  0.117400  0.577600  1.0  0.3138
  C  C321  1  0.081600  0.049500  0.279700  1.0  -0.0453
  C  C322  1  0.121000  0.066800  0.330300  1.0  -0.2039
  C  C323  1  0.117040  0.035000  0.380300  1.0  -0.197
  C  C324  1  0.076390  0.995400  0.363500  1.0  0.1663
  C  C325  1  0.058520  0.951200  0.402600  1.0  -0.0484
  C  C326  1  0.019670  0.903600  0.383700  1.0  0.1913
  C  C327  1  0.996400  0.876800  0.420900  1.0  -0.172
  C  C328  1  0.959820  0.830100  0.384000  1.0  -0.1274
  C  C329  1  0.959140  0.826900  0.324500  1.0  0.0513
  C  C330  1  0.082990  0.967400  0.469800  1.0  -0.1004
  C  C331  1  0.094900  0.065800  0.493400  1.0  -0.0287
  C  C332  1  0.114300  0.076100  0.556600  1.0  0.0687
  C  C333  1  0.123040  0.994500  0.595500  1.0  0.0916
  C  C334  1  0.112600  0.892400  0.571600  1.0  -0.0499
  C  C335  1  0.090800  0.881100  0.507800  1.0  0.0393
  C  C336  1  0.140900  0.010000  0.661000  1.0  0.2748
  C  C337  1  0.928040  0.779300  0.268900  1.0  0.1191
  C  C338  1  0.885200  0.759500  0.251600  1.0  -0.1933
  C  C339  1  0.870550  0.713700  0.194800  1.0  -0.2074
  C  C340  1  0.906280  0.704700  0.178800  1.0  0.121
  C  C341  1  0.908350  0.662500  0.126100  1.0  0.0611
  C  C342  1  0.942720  0.626800  0.119900  1.0  0.1249
  C  C343  1  0.947480  0.593500  0.065500  1.0  -0.0834
  C  C344  1  0.989700  0.571400  0.078400  1.0  -0.1221
  C  C345  1  0.010300  0.583200  0.143800  1.0  0.0317
  C  C346  1  0.866270  0.648000  0.073600  1.0  0.042
  C  C347  1  0.841080  0.736500  0.048400  1.0  -0.0972
  C  C348  1  0.800890  0.726100  0.998800  1.0  -0.153
  C  C349  1  0.789540  0.631600  0.974400  1.0  0.0356
  C  C350  1  0.813200  0.541100  0.996000  1.0  -0.1467
  C  C351  1  0.852700  0.554600  0.047200  1.0  -0.1096
  C  C352  1  0.748200  0.617400  0.922400  1.0  0.3096
  C  C353  1  0.581600  0.549500  0.279700  1.0  -0.0453
  C  C354  1  0.621000  0.566800  0.330300  1.0  -0.2039
  C  C355  1  0.617040  0.535000  0.380300  1.0  -0.197
  C  C356  1  0.576390  0.495400  0.363500  1.0  0.1663
  C  C357  1  0.558520  0.451200  0.402600  1.0  -0.0484
  C  C358  1  0.519670  0.403600  0.383700  1.0  0.1913
  C  C359  1  0.496400  0.376800  0.420900  1.0  -0.172
  C  C360  1  0.459820  0.330100  0.384000  1.0  -0.1274
  C  C361  1  0.459140  0.326900  0.324500  1.0  0.0513
  C  C362  1  0.582990  0.467400  0.469800  1.0  -0.1004
  C  C363  1  0.594900  0.565800  0.493400  1.0  -0.0287
  C  C364  1  0.614300  0.576100  0.556600  1.0  0.0687
  C  C365  1  0.623040  0.494500  0.595500  1.0  0.0916
  C  C366  1  0.612600  0.392400  0.571600  1.0  -0.0499
  C  C367  1  0.590800  0.381100  0.507800  1.0  0.0393
  C  C368  1  0.640900  0.510000  0.661000  1.0  0.2748
  C  C369  1  0.428040  0.279300  0.268900  1.0  0.1191
  C  C370  1  0.385200  0.259500  0.251600  1.0  -0.1933
  C  C371  1  0.370550  0.213700  0.194800  1.0  -0.2074
  C  C372  1  0.406280  0.204700  0.178800  1.0  0.121
  C  C373  1  0.408350  0.162500  0.126100  1.0  0.0611
  C  C374  1  0.442720  0.126800  0.119900  1.0  0.1249
  C  C375  1  0.447480  0.093500  0.065500  1.0  -0.0834
  C  C376  1  0.489700  0.071400  0.078400  1.0  -0.1221
  C  C377  1  0.510300  0.083200  0.143800  1.0  0.0317
  C  C378  1  0.366270  0.148000  0.073600  1.0  0.042
  C  C379  1  0.341080  0.236500  0.048400  1.0  -0.0972
  C  C380  1  0.300890  0.226100  0.998800  1.0  -0.153
  C  C381  1  0.289540  0.131600  0.974400  1.0  0.0356
  C  C382  1  0.313200  0.041100  0.996000  1.0  -0.1467
  C  C383  1  0.352700  0.054600  0.047200  1.0  -0.1096
  C  C384  1  0.248200  0.117400  0.922400  1.0  0.3096
  N  N385  1  0.055120  0.996100  0.801100  1.0  -0.3675
  N  N386  1  0.994260  0.124900  0.823870  1.0  -0.365
  N  N387  1  0.154400  0.980400  0.212200  1.0  -0.5218
  N  N388  1  0.942440  0.254700  0.726810  1.0  -0.4415
  N  N389  1  0.983770  0.380500  0.667500  1.0  -0.354
  N  N390  1  0.715720  0.396100  0.384800  1.0  -0.4454
  N  N391  1  0.555120  0.496100  0.801100  1.0  -0.3675
  N  N392  1  0.494260  0.624900  0.823870  1.0  -0.365
  N  N393  1  0.654400  0.480400  0.212200  1.0  -0.5218
  N  N394  1  0.442440  0.754700  0.726810  1.0  -0.4415
  N  N395  1  0.483770  0.880500  0.667500  1.0  -0.354
  N  N396  1  0.215720  0.896100  0.384800  1.0  -0.4454
  N  N397  1  0.944880  0.996100  0.698900  1.0  -0.3701
  N  N398  1  0.005740  0.124900  0.676130  1.0  -0.3645
  N  N399  1  0.845600  0.980400  0.287800  1.0  -0.5237
  N  N400  1  0.057560  0.254700  0.773190  1.0  -0.4413
  N  N401  1  0.016230  0.380500  0.832500  1.0  -0.3543
  N  N402  1  0.284280  0.396100  0.115200  1.0  -0.446
  N  N403  1  0.444880  0.496100  0.698900  1.0  -0.3701
  N  N404  1  0.505740  0.624900  0.676130  1.0  -0.3645
  N  N405  1  0.345600  0.480400  0.287800  1.0  -0.5237
  N  N406  1  0.557560  0.754700  0.773190  1.0  -0.4413
  N  N407  1  0.516230  0.880500  0.832500  1.0  -0.3543
  N  N408  1  0.784280  0.896100  0.115200  1.0  -0.446
  N  N409  1  0.944880  0.003900  0.198900  1.0  -0.3711
  N  N410  1  0.005740  0.875100  0.176130  1.0  -0.3638
  N  N411  1  0.845600  0.019600  0.787800  1.0  -0.5233
  N  N412  1  0.057560  0.745300  0.273190  1.0  -0.4408
  N  N413  1  0.016230  0.619500  0.332500  1.0  -0.3555
  N  N414  1  0.284280  0.603900  0.615200  1.0  -0.4454
  N  N415  1  0.444880  0.503900  0.198900  1.0  -0.3711
  N  N416  1  0.505740  0.375100  0.176130  1.0  -0.3638
  N  N417  1  0.345600  0.519600  0.787800  1.0  -0.5233
  N  N418  1  0.557560  0.245300  0.273190  1.0  -0.4408
  N  N419  1  0.516230  0.119500  0.332500  1.0  -0.3555
  N  N420  1  0.784280  0.103900  0.615200  1.0  -0.4454
  N  N421  1  0.055120  0.003900  0.301100  1.0  -0.3689
  N  N422  1  0.994260  0.875100  0.323870  1.0  -0.3637
  N  N423  1  0.154400  0.019600  0.712200  1.0  -0.5216
  N  N424  1  0.942440  0.745300  0.226810  1.0  -0.4413
  N  N425  1  0.983770  0.619500  0.167500  1.0  -0.356
  N  N426  1  0.715720  0.603900  0.884800  1.0  -0.4465
  N  N427  1  0.555120  0.503900  0.301100  1.0  -0.3689
  N  N428  1  0.494260  0.375100  0.323870  1.0  -0.3637
  N  N429  1  0.654400  0.519600  0.712200  1.0  -0.5216
  N  N430  1  0.442440  0.245300  0.226810  1.0  -0.4413
  N  N431  1  0.483770  0.119500  0.167500  1.0  -0.356
  N  N432  1  0.215720  0.103900  0.884800  1.0  -0.4465
