# generated using pymatgen
data_ZnAgH18(C16N3)2
_symmetry_space_group_name_H-M   'P 1'
_cell_length_a   33.64740000
_cell_length_b   13.92370000
_cell_length_c   23.34370000
_cell_angle_alpha   90.00000000
_cell_angle_beta   112.49500000
_cell_angle_gamma   90.00000000
_symmetry_Int_Tables_number   1
_chemical_formula_structural   ZnAgH18(C16N3)2
_chemical_formula_sum   'Zn8 Ag8 H144 C256 N48'
_cell_volume   10104.31563669
_cell_formula_units_Z   8
loop_
 _symmetry_equiv_pos_site_id
 _symmetry_equiv_pos_as_xyz
  1  'x, y, z'
loop_
 _atom_site_type_symbol
 _atom_site_label
 _atom_site_symmetry_multiplicity
 _atom_site_fract_x
 _atom_site_fract_y
 _atom_site_fract_z
 _atom_site_occupancy
 _atom_site_charge
  Zn  Zn1  1  0.500000  0.144120  0.750000  1.0  0.8223
  Zn  Zn2  1  0.500000  0.370860  0.750000  1.0  0.8074
  Zn  Zn3  1  0.000000  0.644120  0.750000  1.0  0.8223
  Zn  Zn4  1  0.000000  0.870860  0.750000  1.0  0.8074
  Zn  Zn5  1  0.500000  0.855880  0.250000  1.0  0.8226
  Zn  Zn6  1  0.500000  0.629140  0.250000  1.0  0.807
  Zn  Zn7  1  0.000000  0.355880  0.250000  1.0  0.8226
  Zn  Zn8  1  0.000000  0.129140  0.250000  1.0  0.807
  Ag  Ag9  1  0.154000  0.136110  0.291290  1.0  0.4043
  Ag  Ag10  1  0.654000  0.636110  0.291290  1.0  0.4043
  Ag  Ag11  1  0.846000  0.136110  0.208710  1.0  0.4094
  Ag  Ag12  1  0.346000  0.636110  0.208710  1.0  0.4094
  Ag  Ag13  1  0.846000  0.863890  0.708710  1.0  0.4078
  Ag  Ag14  1  0.346000  0.363890  0.708710  1.0  0.4078
  Ag  Ag15  1  0.154000  0.863890  0.791290  1.0  0.4023
  Ag  Ag16  1  0.654000  0.363890  0.791290  1.0  0.4023
  H  H17  1  0.296200  0.003800  0.464000  1.0  0.1236
  H  H18  1  0.291000  0.287700  0.490900  1.0  0.125
  H  H19  1  0.359700  0.992500  0.551900  1.0  0.1225
  H  H20  1  0.352800  0.277800  0.579500  1.0  0.1026
  H  H21  1  0.419900  0.052100  0.525300  1.0  0.1304
  H  H22  1  0.341100  0.168300  0.678800  1.0  0.1247
  H  H23  1  0.494600  0.995800  0.550600  1.0  0.1223
  H  H24  1  0.534400  0.021800  0.663900  1.0  0.1097
  H  H25  1  0.369900  0.231400  0.786900  1.0  0.1197
  H  H26  1  0.356000  0.536500  0.687600  1.0  0.1267
  H  H27  1  0.360200  0.489700  0.586500  1.0  0.132
  H  H28  1  0.425200  0.486700  0.771400  1.0  0.1107
  H  H29  1  0.443100  0.260100  0.909500  1.0  0.1346
  H  H30  1  0.511600  0.339600  0.971700  1.0  0.1178
  H  H31  1  0.420600  0.574800  0.549400  1.0  0.1173
  H  H32  1  0.403200  0.300700  0.493300  1.0  0.1162
  H  H33  1  0.389300  0.628700  0.448400  1.0  0.1349
  H  H34  1  0.368300  0.352900  0.391500  1.0  0.1231
  H  H35  1  0.796200  0.503800  0.464000  1.0  0.1236
  H  H36  1  0.791000  0.787700  0.490900  1.0  0.125
  H  H37  1  0.859700  0.492500  0.551900  1.0  0.1225
  H  H38  1  0.852800  0.777800  0.579500  1.0  0.1026
  H  H39  1  0.919900  0.552100  0.525300  1.0  0.1304
  H  H40  1  0.841100  0.668300  0.678800  1.0  0.1247
  H  H41  1  0.994600  0.495800  0.550600  1.0  0.1223
  H  H42  1  0.034400  0.521800  0.663900  1.0  0.1097
  H  H43  1  0.869900  0.731400  0.786900  1.0  0.1197
  H  H44  1  0.856000  0.036500  0.687600  1.0  0.1267
  H  H45  1  0.860200  0.989700  0.586500  1.0  0.132
  H  H46  1  0.925200  0.986700  0.771400  1.0  0.1107
  H  H47  1  0.943100  0.760100  0.909500  1.0  0.1346
  H  H48  1  0.011600  0.839600  0.971700  1.0  0.1178
  H  H49  1  0.920600  0.074800  0.549400  1.0  0.1173
  H  H50  1  0.903200  0.800700  0.493300  1.0  0.1162
  H  H51  1  0.889300  0.128700  0.448400  1.0  0.1349
  H  H52  1  0.868300  0.852900  0.391500  1.0  0.1231
  H  H53  1  0.703800  0.003800  0.036000  1.0  0.1241
  H  H54  1  0.709000  0.287700  0.009100  1.0  0.1247
  H  H55  1  0.640300  0.992500  0.948100  1.0  0.122
  H  H56  1  0.647200  0.277800  0.920500  1.0  0.1024
  H  H57  1  0.580100  0.052100  0.974700  1.0  0.1302
  H  H58  1  0.658900  0.168300  0.821200  1.0  0.1238
  H  H59  1  0.505400  0.995800  0.949400  1.0  0.1225
  H  H60  1  0.465600  0.021800  0.836100  1.0  0.1091
  H  H61  1  0.630100  0.231400  0.713100  1.0  0.1226
  H  H62  1  0.644000  0.536500  0.812400  1.0  0.127
  H  H63  1  0.639800  0.489700  0.913500  1.0  0.1314
  H  H64  1  0.574800  0.486700  0.728600  1.0  0.11
  H  H65  1  0.556900  0.260100  0.590500  1.0  0.1355
  H  H66  1  0.488400  0.339600  0.528300  1.0  0.1184
  H  H67  1  0.579400  0.574800  0.950600  1.0  0.1182
  H  H68  1  0.596800  0.300700  0.006700  1.0  0.1158
  H  H69  1  0.610700  0.628700  0.051600  1.0  0.1346
  H  H70  1  0.631700  0.352900  0.108500  1.0  0.1244
  H  H71  1  0.203800  0.503800  0.036000  1.0  0.1241
  H  H72  1  0.209000  0.787700  0.009100  1.0  0.1247
  H  H73  1  0.140300  0.492500  0.948100  1.0  0.122
  H  H74  1  0.147200  0.777800  0.920500  1.0  0.1024
  H  H75  1  0.080100  0.552100  0.974700  1.0  0.1302
  H  H76  1  0.158900  0.668300  0.821200  1.0  0.1238
  H  H77  1  0.005400  0.495800  0.949400  1.0  0.1225
  H  H78  1  0.965600  0.521800  0.836100  1.0  0.1091
  H  H79  1  0.130100  0.731400  0.713100  1.0  0.1226
  H  H80  1  0.144000  0.036500  0.812400  1.0  0.127
  H  H81  1  0.139800  0.989700  0.913500  1.0  0.1314
  H  H82  1  0.074800  0.986700  0.728600  1.0  0.11
  H  H83  1  0.056900  0.760100  0.590500  1.0  0.1355
  H  H84  1  0.988400  0.839600  0.528300  1.0  0.1184
  H  H85  1  0.079400  0.074800  0.950600  1.0  0.1182
  H  H86  1  0.096800  0.800700  0.006700  1.0  0.1158
  H  H87  1  0.110700  0.128700  0.051600  1.0  0.1346
  H  H88  1  0.131700  0.852900  0.108500  1.0  0.1244
  H  H89  1  0.703800  0.996200  0.536000  1.0  0.1242
  H  H90  1  0.709000  0.712300  0.509100  1.0  0.125
  H  H91  1  0.640300  0.007500  0.448100  1.0  0.1227
  H  H92  1  0.647200  0.722200  0.420500  1.0  0.1018
  H  H93  1  0.580100  0.947900  0.474700  1.0  0.1305
  H  H94  1  0.658900  0.831700  0.321200  1.0  0.1245
  H  H95  1  0.505400  0.004200  0.449400  1.0  0.1224
  H  H96  1  0.465600  0.978200  0.336100  1.0  0.1129
  H  H97  1  0.630100  0.768600  0.213100  1.0  0.1225
  H  H98  1  0.644000  0.463500  0.312400  1.0  0.1256
  H  H99  1  0.639800  0.510300  0.413500  1.0  0.1317
  H  H100  1  0.574800  0.513300  0.228600  1.0  0.1081
  H  H101  1  0.556900  0.739900  0.090500  1.0  0.1358
  H  H102  1  0.488400  0.660400  0.028300  1.0  0.1184
  H  H103  1  0.579400  0.425200  0.450600  1.0  0.1164
  H  H104  1  0.596800  0.699300  0.506700  1.0  0.1152
  H  H105  1  0.610700  0.371300  0.551600  1.0  0.1346
  H  H106  1  0.631700  0.647100  0.608500  1.0  0.1243
  H  H107  1  0.203800  0.496200  0.536000  1.0  0.1242
  H  H108  1  0.209000  0.212300  0.509100  1.0  0.125
  H  H109  1  0.140300  0.507500  0.448100  1.0  0.1227
  H  H110  1  0.147200  0.222200  0.420500  1.0  0.1018
  H  H111  1  0.080100  0.447900  0.474700  1.0  0.1305
  H  H112  1  0.158900  0.331700  0.321200  1.0  0.1245
  H  H113  1  0.005400  0.504200  0.449400  1.0  0.1224
  H  H114  1  0.965600  0.478200  0.336100  1.0  0.1129
  H  H115  1  0.130100  0.268600  0.213100  1.0  0.1225
  H  H116  1  0.144000  0.963500  0.312400  1.0  0.1256
  H  H117  1  0.139800  0.010300  0.413500  1.0  0.1317
  H  H118  1  0.074800  0.013300  0.228600  1.0  0.1081
  H  H119  1  0.056900  0.239900  0.090500  1.0  0.1358
  H  H120  1  0.988400  0.160400  0.028300  1.0  0.1184
  H  H121  1  0.079400  0.925200  0.450600  1.0  0.1164
  H  H122  1  0.096800  0.199300  0.506700  1.0  0.1152
  H  H123  1  0.110700  0.871300  0.551600  1.0  0.1346
  H  H124  1  0.131700  0.147100  0.608500  1.0  0.1243
  H  H125  1  0.296200  0.996200  0.964000  1.0  0.1244
  H  H126  1  0.291000  0.712300  0.990900  1.0  0.1248
  H  H127  1  0.359700  0.007500  0.051900  1.0  0.1223
  H  H128  1  0.352800  0.722200  0.079500  1.0  0.1023
  H  H129  1  0.419900  0.947900  0.025300  1.0  0.1307
  H  H130  1  0.341100  0.831700  0.178800  1.0  0.125
  H  H131  1  0.494600  0.004200  0.050600  1.0  0.1218
  H  H132  1  0.534400  0.978200  0.163900  1.0  0.111
  H  H133  1  0.369900  0.768600  0.286900  1.0  0.1199
  H  H134  1  0.356000  0.463500  0.187600  1.0  0.126
  H  H135  1  0.360200  0.510300  0.086500  1.0  0.1312
  H  H136  1  0.425200  0.513300  0.271400  1.0  0.109
  H  H137  1  0.443100  0.739900  0.409500  1.0  0.1344
  H  H138  1  0.511600  0.660400  0.471700  1.0  0.118
  H  H139  1  0.420600  0.425200  0.049400  1.0  0.1168
  H  H140  1  0.403200  0.699300  0.993300  1.0  0.116
  H  H141  1  0.389300  0.371300  0.948400  1.0  0.1352
  H  H142  1  0.368300  0.647100  0.891500  1.0  0.1238
  H  H143  1  0.796200  0.496200  0.964000  1.0  0.1244
  H  H144  1  0.791000  0.212300  0.990900  1.0  0.1248
  H  H145  1  0.859700  0.507500  0.051900  1.0  0.1223
  H  H146  1  0.852800  0.222200  0.079500  1.0  0.1023
  H  H147  1  0.919900  0.447900  0.025300  1.0  0.1307
  H  H148  1  0.841100  0.331700  0.178800  1.0  0.125
  H  H149  1  0.994600  0.504200  0.050600  1.0  0.1218
  H  H150  1  0.034400  0.478200  0.163900  1.0  0.111
  H  H151  1  0.869900  0.268600  0.286900  1.0  0.1199
  H  H152  1  0.856000  0.963500  0.187600  1.0  0.126
  H  H153  1  0.860200  0.010300  0.086500  1.0  0.1312
  H  H154  1  0.925200  0.013300  0.271400  1.0  0.109
  H  H155  1  0.943100  0.239900  0.409500  1.0  0.1344
  H  H156  1  0.011600  0.160400  0.471700  1.0  0.118
  H  H157  1  0.920600  0.925200  0.049400  1.0  0.1168
  H  H158  1  0.903200  0.199300  0.993300  1.0  0.116
  H  H159  1  0.889300  0.871300  0.948400  1.0  0.1352
  H  H160  1  0.868300  0.147100  0.891500  1.0  0.1238
  C  C161  1  0.248610  0.150200  0.415030  1.0  0.3436
  C  C162  1  0.287190  0.144800  0.469330  1.0  0.0301
  C  C163  1  0.307770  0.058500  0.487190  1.0  -0.0991
  C  C164  1  0.304540  0.228800  0.503590  1.0  -0.146
  C  C165  1  0.346030  0.051400  0.539930  1.0  -0.1481
  C  C166  1  0.341880  0.222900  0.556110  1.0  -0.1066
  C  C167  1  0.363460  0.135100  0.574560  1.0  0.0124
  C  C168  1  0.405290  0.132600  0.628370  1.0  -0.0567
  C  C169  1  0.440300  0.093000  0.619870  1.0  0.0966
  C  C170  1  0.405490  0.171500  0.684770  1.0  0.1393
  C  C171  1  0.442350  0.054600  0.563900  1.0  -0.1656
  C  C172  1  0.369660  0.182500  0.702760  1.0  -0.1526
  C  C173  1  0.483500  0.022600  0.577830  1.0  -0.1541
  C  C174  1  0.505720  0.038400  0.642260  1.0  0.0464
  C  C175  1  0.385580  0.218200  0.762580  1.0  -0.1342
  C  C176  1  0.430290  0.230900  0.779690  1.0  0.0518
  C  C177  1  0.378930  0.506400  0.682070  1.0  -0.1741
  C  C178  1  0.462240  0.276300  0.833700  1.0  0.1478
  C  C179  1  0.381250  0.480500  0.625820  1.0  -0.1277
  C  C180  1  0.418250  0.477900  0.729120  1.0  0.022
  C  C181  1  0.463700  0.282500  0.895280  1.0  -0.1472
  C  C182  1  0.422350  0.437000  0.640470  1.0  0.1121
  C  C183  1  0.501210  0.327700  0.929340  1.0  -0.157
  C  C184  1  0.521850  0.353600  0.888260  1.0  0.1236
  C  C185  1  0.439650  0.404600  0.597460  1.0  -0.0374
  C  C186  1  0.416170  0.432900  0.531870  1.0  0.0152
  C  C187  1  0.410850  0.530200  0.517310  1.0  -0.0985
  C  C188  1  0.400220  0.366000  0.484460  1.0  -0.0881
  C  C189  1  0.391730  0.563300  0.457160  1.0  -0.1742
  C  C190  1  0.379660  0.397400  0.423370  1.0  -0.1125
  C  C191  1  0.376190  0.495300  0.410050  1.0  -0.0105
  C  C192  1  0.358230  0.528400  0.347290  1.0  0.2071
  C  C193  1  0.748610  0.650200  0.415030  1.0  0.3436
  C  C194  1  0.787190  0.644800  0.469330  1.0  0.0301
  C  C195  1  0.807770  0.558500  0.487190  1.0  -0.0991
  C  C196  1  0.804540  0.728800  0.503590  1.0  -0.146
  C  C197  1  0.846030  0.551400  0.539930  1.0  -0.1481
  C  C198  1  0.841880  0.722900  0.556110  1.0  -0.1066
  C  C199  1  0.863460  0.635100  0.574560  1.0  0.0124
  C  C200  1  0.905290  0.632600  0.628370  1.0  -0.0567
  C  C201  1  0.940300  0.593000  0.619870  1.0  0.0966
  C  C202  1  0.905490  0.671500  0.684770  1.0  0.1393
  C  C203  1  0.942350  0.554600  0.563900  1.0  -0.1656
  C  C204  1  0.869660  0.682500  0.702760  1.0  -0.1526
  C  C205  1  0.983500  0.522600  0.577830  1.0  -0.1541
  C  C206  1  0.005720  0.538400  0.642260  1.0  0.0464
  C  C207  1  0.885580  0.718200  0.762580  1.0  -0.1342
  C  C208  1  0.930290  0.730900  0.779690  1.0  0.0518
  C  C209  1  0.878930  0.006400  0.682070  1.0  -0.1741
  C  C210  1  0.962240  0.776300  0.833700  1.0  0.1478
  C  C211  1  0.881250  0.980500  0.625820  1.0  -0.1277
  C  C212  1  0.918250  0.977900  0.729120  1.0  0.022
  C  C213  1  0.963700  0.782500  0.895280  1.0  -0.1472
  C  C214  1  0.922350  0.937000  0.640470  1.0  0.1121
  C  C215  1  0.001210  0.827700  0.929340  1.0  -0.157
  C  C216  1  0.021850  0.853600  0.888260  1.0  0.1236
  C  C217  1  0.939650  0.904600  0.597460  1.0  -0.0374
  C  C218  1  0.916170  0.932900  0.531870  1.0  0.0152
  C  C219  1  0.910850  0.030200  0.517310  1.0  -0.0985
  C  C220  1  0.900220  0.866000  0.484460  1.0  -0.0881
  C  C221  1  0.891730  0.063300  0.457160  1.0  -0.1742
  C  C222  1  0.879660  0.897400  0.423370  1.0  -0.1125
  C  C223  1  0.876190  0.995300  0.410050  1.0  -0.0105
  C  C224  1  0.858230  0.028400  0.347290  1.0  0.2071
  C  C225  1  0.751390  0.150200  0.084970  1.0  0.3404
  C  C226  1  0.712810  0.144800  0.030670  1.0  0.0292
  C  C227  1  0.692230  0.058500  0.012810  1.0  -0.0992
  C  C228  1  0.695460  0.228800  0.996410  1.0  -0.1465
  C  C229  1  0.653970  0.051400  0.960070  1.0  -0.147
  C  C230  1  0.658120  0.222900  0.943890  1.0  -0.1053
  C  C231  1  0.636540  0.135100  0.925440  1.0  0.0138
  C  C232  1  0.594710  0.132600  0.871630  1.0  -0.0561
  C  C233  1  0.559700  0.093000  0.880130  1.0  0.0965
  C  C234  1  0.594510  0.171500  0.815230  1.0  0.1376
  C  C235  1  0.557650  0.054600  0.936100  1.0  -0.1682
  C  C236  1  0.630340  0.182500  0.797240  1.0  -0.1521
  C  C237  1  0.516500  0.022600  0.922170  1.0  -0.1546
  C  C238  1  0.494280  0.038400  0.857740  1.0  0.0485
  C  C239  1  0.614420  0.218200  0.737420  1.0  -0.135
  C  C240  1  0.569710  0.230900  0.720310  1.0  0.0521
  C  C241  1  0.621070  0.506400  0.817930  1.0  -0.1734
  C  C242  1  0.537760  0.276300  0.666300  1.0  0.1474
  C  C243  1  0.618750  0.480500  0.874180  1.0  -0.1276
  C  C244  1  0.581750  0.477900  0.770880  1.0  0.0192
  C  C245  1  0.536300  0.282500  0.604720  1.0  -0.1454
  C  C246  1  0.577650  0.437000  0.859530  1.0  0.1135
  C  C247  1  0.498790  0.327700  0.570660  1.0  -0.1572
  C  C248  1  0.478150  0.353600  0.611740  1.0  0.1239
  C  C249  1  0.560350  0.404600  0.902540  1.0  -0.0375
  C  C250  1  0.583830  0.432900  0.968130  1.0  0.0159
  C  C251  1  0.589150  0.530200  0.982690  1.0  -0.0986
  C  C252  1  0.599780  0.366000  0.015540  1.0  -0.0871
  C  C253  1  0.608270  0.563300  0.042840  1.0  -0.1747
  C  C254  1  0.620340  0.397400  0.076630  1.0  -0.1147
  C  C255  1  0.623810  0.495300  0.089950  1.0  -0.0129
  C  C256  1  0.641770  0.528400  0.152710  1.0  0.2089
  C  C257  1  0.251390  0.650200  0.084970  1.0  0.3404
  C  C258  1  0.212810  0.644800  0.030670  1.0  0.0292
  C  C259  1  0.192230  0.558500  0.012810  1.0  -0.0992
  C  C260  1  0.195460  0.728800  0.996410  1.0  -0.1465
  C  C261  1  0.153970  0.551400  0.960070  1.0  -0.147
  C  C262  1  0.158120  0.722900  0.943890  1.0  -0.1053
  C  C263  1  0.136540  0.635100  0.925440  1.0  0.0138
  C  C264  1  0.094710  0.632600  0.871630  1.0  -0.0561
  C  C265  1  0.059700  0.593000  0.880130  1.0  0.0965
  C  C266  1  0.094510  0.671500  0.815230  1.0  0.1376
  C  C267  1  0.057650  0.554600  0.936100  1.0  -0.1682
  C  C268  1  0.130340  0.682500  0.797240  1.0  -0.1521
  C  C269  1  0.016500  0.522600  0.922170  1.0  -0.1546
  C  C270  1  0.994280  0.538400  0.857740  1.0  0.0485
  C  C271  1  0.114420  0.718200  0.737420  1.0  -0.135
  C  C272  1  0.069710  0.730900  0.720310  1.0  0.0521
  C  C273  1  0.121070  0.006400  0.817930  1.0  -0.1734
  C  C274  1  0.037760  0.776300  0.666300  1.0  0.1474
  C  C275  1  0.118750  0.980500  0.874180  1.0  -0.1276
  C  C276  1  0.081750  0.977900  0.770880  1.0  0.0192
  C  C277  1  0.036300  0.782500  0.604720  1.0  -0.1454
  C  C278  1  0.077650  0.937000  0.859530  1.0  0.1135
  C  C279  1  0.998790  0.827700  0.570660  1.0  -0.1572
  C  C280  1  0.978150  0.853600  0.611740  1.0  0.1239
  C  C281  1  0.060350  0.904600  0.902540  1.0  -0.0375
  C  C282  1  0.083830  0.932900  0.968130  1.0  0.0159
  C  C283  1  0.089150  0.030200  0.982690  1.0  -0.0986
  C  C284  1  0.099780  0.866000  0.015540  1.0  -0.0871
  C  C285  1  0.108270  0.063300  0.042840  1.0  -0.1747
  C  C286  1  0.120340  0.897400  0.076630  1.0  -0.1147
  C  C287  1  0.123810  0.995300  0.089950  1.0  -0.0129
  C  C288  1  0.141770  0.028400  0.152710  1.0  0.2089
  C  C289  1  0.751390  0.849800  0.584970  1.0  0.3408
  C  C290  1  0.712810  0.855200  0.530670  1.0  0.0295
  C  C291  1  0.692230  0.941500  0.512810  1.0  -0.0967
  C  C292  1  0.695460  0.771200  0.496410  1.0  -0.1449
  C  C293  1  0.653970  0.948600  0.460070  1.0  -0.148
  C  C294  1  0.658120  0.777100  0.443890  1.0  -0.1049
  C  C295  1  0.636540  0.864900  0.425440  1.0  0.0138
  C  C296  1  0.594710  0.867400  0.371630  1.0  -0.056
  C  C297  1  0.559700  0.907000  0.380130  1.0  0.0967
  C  C298  1  0.594510  0.828500  0.315230  1.0  0.1371
  C  C299  1  0.557650  0.945400  0.436100  1.0  -0.1679
  C  C300  1  0.630340  0.817500  0.297240  1.0  -0.1502
  C  C301  1  0.516500  0.977400  0.422170  1.0  -0.1575
  C  C302  1  0.494280  0.961600  0.357740  1.0  0.0495
  C  C303  1  0.614420  0.781800  0.237420  1.0  -0.1345
  C  C304  1  0.569710  0.769100  0.220310  1.0  0.0527
  C  C305  1  0.621070  0.493600  0.317930  1.0  -0.1754
  C  C306  1  0.537760  0.723700  0.166300  1.0  0.1473
  C  C307  1  0.618750  0.519500  0.374180  1.0  -0.1263
  C  C308  1  0.581750  0.522100  0.270880  1.0  0.016
  C  C309  1  0.536300  0.717500  0.104720  1.0  -0.1452
  C  C310  1  0.577650  0.563000  0.359530  1.0  0.1123
  C  C311  1  0.498790  0.672300  0.070660  1.0  -0.1575
  C  C312  1  0.478150  0.646400  0.111740  1.0  0.1235
  C  C313  1  0.560350  0.595400  0.402540  1.0  -0.0393
  C  C314  1  0.583830  0.567100  0.468130  1.0  0.0158
  C  C315  1  0.589150  0.469800  0.482690  1.0  -0.0987
  C  C316  1  0.599780  0.634000  0.515540  1.0  -0.088
  C  C317  1  0.608270  0.436700  0.542840  1.0  -0.1738
  C  C318  1  0.620340  0.602600  0.576630  1.0  -0.1171
  C  C319  1  0.623810  0.504700  0.589950  1.0  -0.0129
  C  C320  1  0.641770  0.471600  0.652710  1.0  0.2086
  C  C321  1  0.251390  0.349800  0.584970  1.0  0.3408
  C  C322  1  0.212810  0.355200  0.530670  1.0  0.0295
  C  C323  1  0.192230  0.441500  0.512810  1.0  -0.0967
  C  C324  1  0.195460  0.271200  0.496410  1.0  -0.1449
  C  C325  1  0.153970  0.448600  0.460070  1.0  -0.148
  C  C326  1  0.158120  0.277100  0.443890  1.0  -0.1049
  C  C327  1  0.136540  0.364900  0.425440  1.0  0.0138
  C  C328  1  0.094710  0.367400  0.371630  1.0  -0.056
  C  C329  1  0.059700  0.407000  0.380130  1.0  0.0967
  C  C330  1  0.094510  0.328500  0.315230  1.0  0.1371
  C  C331  1  0.057650  0.445400  0.436100  1.0  -0.1679
  C  C332  1  0.130340  0.317500  0.297240  1.0  -0.1502
  C  C333  1  0.016500  0.477400  0.422170  1.0  -0.1575
  C  C334  1  0.994280  0.461600  0.357740  1.0  0.0495
  C  C335  1  0.114420  0.281800  0.237420  1.0  -0.1345
  C  C336  1  0.069710  0.269100  0.220310  1.0  0.0527
  C  C337  1  0.121070  0.993600  0.317930  1.0  -0.1754
  C  C338  1  0.037760  0.223700  0.166300  1.0  0.1473
  C  C339  1  0.118750  0.019500  0.374180  1.0  -0.1263
  C  C340  1  0.081750  0.022100  0.270880  1.0  0.016
  C  C341  1  0.036300  0.217500  0.104720  1.0  -0.1452
  C  C342  1  0.077650  0.063000  0.359530  1.0  0.1123
  C  C343  1  0.998790  0.172300  0.070660  1.0  -0.1575
  C  C344  1  0.978150  0.146400  0.111740  1.0  0.1235
  C  C345  1  0.060350  0.095400  0.402540  1.0  -0.0393
  C  C346  1  0.083830  0.067100  0.468130  1.0  0.0158
  C  C347  1  0.089150  0.969800  0.482690  1.0  -0.0987
  C  C348  1  0.099780  0.134000  0.515540  1.0  -0.088
  C  C349  1  0.108270  0.936700  0.542840  1.0  -0.1738
  C  C350  1  0.120340  0.102600  0.576630  1.0  -0.1171
  C  C351  1  0.123810  0.004700  0.589950  1.0  -0.0129
  C  C352  1  0.141770  0.971600  0.652710  1.0  0.2086
  C  C353  1  0.248610  0.849800  0.915030  1.0  0.3429
  C  C354  1  0.287190  0.855200  0.969330  1.0  0.0301
  C  C355  1  0.307770  0.941500  0.987190  1.0  -0.0986
  C  C356  1  0.304540  0.771200  0.003590  1.0  -0.1454
  C  C357  1  0.346030  0.948600  0.039930  1.0  -0.1461
  C  C358  1  0.341880  0.777100  0.056110  1.0  -0.1059
  C  C359  1  0.363460  0.864900  0.074560  1.0  0.0128
  C  C360  1  0.405290  0.867400  0.128370  1.0  -0.0565
  C  C361  1  0.440300  0.907000  0.119870  1.0  0.0962
  C  C362  1  0.405490  0.828500  0.184770  1.0  0.1383
  C  C363  1  0.442350  0.945400  0.063900  1.0  -0.1677
  C  C364  1  0.369660  0.817500  0.202760  1.0  -0.1535
  C  C365  1  0.483500  0.977400  0.077830  1.0  -0.156
  C  C366  1  0.505720  0.961600  0.142260  1.0  0.0481
  C  C367  1  0.385580  0.781800  0.262580  1.0  -0.135
  C  C368  1  0.430290  0.769100  0.279690  1.0  0.0524
  C  C369  1  0.378930  0.493600  0.182070  1.0  -0.1754
  C  C370  1  0.462240  0.723700  0.333700  1.0  0.1476
  C  C371  1  0.381250  0.519500  0.125820  1.0  -0.1264
  C  C372  1  0.418250  0.522100  0.229120  1.0  0.0182
  C  C373  1  0.463700  0.717500  0.395280  1.0  -0.1475
  C  C374  1  0.422350  0.563000  0.140470  1.0  0.1137
  C  C375  1  0.501210  0.672300  0.429340  1.0  -0.1573
  C  C376  1  0.521850  0.646400  0.388260  1.0  0.1232
  C  C377  1  0.439650  0.595400  0.097460  1.0  -0.0387
  C  C378  1  0.416170  0.567100  0.031870  1.0  0.0153
  C  C379  1  0.410850  0.469800  0.017310  1.0  -0.0982
  C  C380  1  0.400220  0.634000  0.984460  1.0  -0.0864
  C  C381  1  0.391730  0.436700  0.957160  1.0  -0.1735
  C  C382  1  0.379660  0.602600  0.923370  1.0  -0.1132
  C  C383  1  0.376190  0.504700  0.910050  1.0  -0.0113
  C  C384  1  0.358230  0.471600  0.847290  1.0  0.2066
  C  C385  1  0.748610  0.349800  0.915030  1.0  0.3429
  C  C386  1  0.787190  0.355200  0.969330  1.0  0.0301
  C  C387  1  0.807770  0.441500  0.987190  1.0  -0.0986
  C  C388  1  0.804540  0.271200  0.003590  1.0  -0.1454
  C  C389  1  0.846030  0.448600  0.039930  1.0  -0.1461
  C  C390  1  0.841880  0.277100  0.056110  1.0  -0.1059
  C  C391  1  0.863460  0.364900  0.074560  1.0  0.0128
  C  C392  1  0.905290  0.367400  0.128370  1.0  -0.0565
  C  C393  1  0.940300  0.407000  0.119870  1.0  0.0962
  C  C394  1  0.905490  0.328500  0.184770  1.0  0.1383
  C  C395  1  0.942350  0.445400  0.063900  1.0  -0.1677
  C  C396  1  0.869660  0.317500  0.202760  1.0  -0.1535
  C  C397  1  0.983500  0.477400  0.077830  1.0  -0.156
  C  C398  1  0.005720  0.461600  0.142260  1.0  0.0481
  C  C399  1  0.885580  0.281800  0.262580  1.0  -0.135
  C  C400  1  0.930290  0.269100  0.279690  1.0  0.0524
  C  C401  1  0.878930  0.993600  0.182070  1.0  -0.1754
  C  C402  1  0.962240  0.223700  0.333700  1.0  0.1476
  C  C403  1  0.881250  0.019500  0.125820  1.0  -0.1264
  C  C404  1  0.918250  0.022100  0.229120  1.0  0.0182
  C  C405  1  0.963700  0.217500  0.395280  1.0  -0.1475
  C  C406  1  0.922350  0.063000  0.140470  1.0  0.1137
  C  C407  1  0.001210  0.172300  0.429340  1.0  -0.1573
  C  C408  1  0.021850  0.146400  0.388260  1.0  0.1232
  C  C409  1  0.939650  0.095400  0.097460  1.0  -0.0387
  C  C410  1  0.916170  0.067100  0.031870  1.0  0.0153
  C  C411  1  0.910850  0.969800  0.017310  1.0  -0.0982
  C  C412  1  0.900220  0.134000  0.984460  1.0  -0.0864
  C  C413  1  0.891730  0.936700  0.957160  1.0  -0.1735
  C  C414  1  0.879660  0.102600  0.923370  1.0  -0.1132
  C  C415  1  0.876190  0.004700  0.910050  1.0  -0.0113
  C  C416  1  0.858230  0.971600  0.847290  1.0  0.2066
  N  N417  1  0.217810  0.151600  0.372180  1.0  -0.4471
  N  N418  1  0.481200  0.079500  0.668320  1.0  -0.4119
  N  N419  1  0.442170  0.201340  0.733190  1.0  -0.3553
  N  N420  1  0.496730  0.318640  0.828570  1.0  -0.4034
  N  N421  1  0.444080  0.436700  0.704620  1.0  -0.3896
  N  N422  1  0.717810  0.651600  0.372180  1.0  -0.4471
  N  N423  1  0.981200  0.579500  0.668320  1.0  -0.4119
  N  N424  1  0.942170  0.701340  0.733190  1.0  -0.3553
  N  N425  1  0.996730  0.818640  0.828570  1.0  -0.4034
  N  N426  1  0.944080  0.936700  0.704620  1.0  -0.3896
  N  N427  1  0.782190  0.151600  0.127820  1.0  -0.4444
  N  N428  1  0.518800  0.079500  0.831680  1.0  -0.4105
  N  N429  1  0.557830  0.201340  0.766810  1.0  -0.3555
  N  N430  1  0.503270  0.318640  0.671430  1.0  -0.3982
  N  N431  1  0.555920  0.436700  0.795380  1.0  -0.3892
  N  N432  1  0.282190  0.651600  0.127820  1.0  -0.4444
  N  N433  1  0.018800  0.579500  0.831680  1.0  -0.4105
  N  N434  1  0.057830  0.701340  0.766810  1.0  -0.3555
  N  N435  1  0.003270  0.818640  0.671430  1.0  -0.3982
  N  N436  1  0.055920  0.936700  0.795380  1.0  -0.3892
  N  N437  1  0.654650  0.559700  0.202520  1.0  -0.465
  N  N438  1  0.154650  0.059700  0.202520  1.0  -0.465
  N  N439  1  0.345350  0.559700  0.297480  1.0  -0.4677
  N  N440  1  0.845350  0.059700  0.297480  1.0  -0.4677
  N  N441  1  0.345350  0.440300  0.797480  1.0  -0.4677
  N  N442  1  0.845350  0.940300  0.797480  1.0  -0.4677
  N  N443  1  0.654650  0.440300  0.702520  1.0  -0.4655
  N  N444  1  0.154650  0.940300  0.702520  1.0  -0.4655
  N  N445  1  0.782190  0.848400  0.627820  1.0  -0.4448
  N  N446  1  0.518800  0.920500  0.331680  1.0  -0.4118
  N  N447  1  0.557830  0.798660  0.266810  1.0  -0.3564
  N  N448  1  0.503270  0.681360  0.171430  1.0  -0.4022
  N  N449  1  0.555920  0.563300  0.295380  1.0  -0.3882
  N  N450  1  0.282190  0.348400  0.627820  1.0  -0.4448
  N  N451  1  0.018800  0.420500  0.331680  1.0  -0.4118
  N  N452  1  0.057830  0.298660  0.266810  1.0  -0.3564
  N  N453  1  0.003270  0.181360  0.171430  1.0  -0.4022
  N  N454  1  0.055920  0.063300  0.295380  1.0  -0.3882
  N  N455  1  0.217810  0.848400  0.872180  1.0  -0.4469
  N  N456  1  0.481200  0.920500  0.168320  1.0  -0.4111
  N  N457  1  0.442170  0.798660  0.233190  1.0  -0.3551
  N  N458  1  0.496730  0.681360  0.328570  1.0  -0.3986
  N  N459  1  0.444080  0.563300  0.204620  1.0  -0.3895
  N  N460  1  0.717810  0.348400  0.872180  1.0  -0.4469
  N  N461  1  0.981200  0.420500  0.168320  1.0  -0.4111
  N  N462  1  0.942170  0.298660  0.233190  1.0  -0.3551
  N  N463  1  0.996730  0.181360  0.328570  1.0  -0.3986
  N  N464  1  0.944080  0.063300  0.204620  1.0  -0.3895
