# generated using pymatgen
data_GaAgH30C43SN9(OF)3
_symmetry_space_group_name_H-M   'P 1'
_cell_length_a   13.08200000
_cell_length_b   16.61660000
_cell_length_c   31.25050000
_cell_angle_alpha   83.23160000
_cell_angle_beta   77.91810000
_cell_angle_gamma   66.81860000
_symmetry_Int_Tables_number   1
_chemical_formula_structural   GaAgH30C43SN9(OF)3
_chemical_formula_sum   'Ga4 Ag4 H120 C172 S4 N36 O12 F12'
_cell_volume   6101.64430663
_cell_formula_units_Z   4
loop_
 _symmetry_equiv_pos_site_id
 _symmetry_equiv_pos_as_xyz
  1  'x, y, z'
loop_
 _atom_site_type_symbol
 _atom_site_label
 _atom_site_symmetry_multiplicity
 _atom_site_fract_x
 _atom_site_fract_y
 _atom_site_fract_z
 _atom_site_occupancy
 _atom_site_charge
  Ga  Ga1  1  0.895540  0.712020  0.413420  1.0  1.2174
  Ga  Ga2  1  0.979020  0.212020  0.913420  1.0  1.2174
  Ga  Ga3  1  0.020980  0.787980  0.086580  1.0  1.2182
  Ga  Ga4  1  0.104460  0.287980  0.586580  1.0  1.2183
  Ag  Ag5  1  0.986040  0.230980  0.231820  1.0  0.4127
  Ag  Ag6  1  0.551160  0.730980  0.731820  1.0  0.413
  Ag  Ag7  1  0.448840  0.269020  0.268180  1.0  0.4127
  Ag  Ag8  1  0.013960  0.769020  0.768180  1.0  0.4127
  H  H9  1  0.153200  0.683300  0.373300  1.0  0.1029
  H  H10  1  0.277200  0.587800  0.312400  1.0  0.1241
  H  H11  1  0.182600  0.491100  0.300500  1.0  0.1227
  H  H12  1  0.774900  0.476400  0.369000  1.0  0.1216
  H  H13  1  0.618800  0.555400  0.428600  1.0  0.1166
  H  H14  1  0.670700  0.673500  0.451700  1.0  0.1011
  H  H15  1  0.108100  0.365900  0.344300  1.0  0.1039
  H  H16  1  0.136800  0.265600  0.294600  1.0  0.0863
  H  H17  1  0.893900  0.434200  0.236400  1.0  0.0906
  H  H18  1  0.861900  0.539500  0.284500  1.0  0.1107
  H  H19  1  0.036000  0.759900  0.470500  1.0  0.0898
  H  H20  1  0.118000  0.873900  0.454500  1.0  0.1178
  H  H21  1  0.040500  0.965800  0.391000  1.0  0.1318
  H  H22  1  0.793000  0.927500  0.280500  1.0  0.1123
  H  H23  1  0.700500  0.823000  0.278800  1.0  0.1166
  H  H24  1  0.745700  0.716500  0.343300  1.0  0.0951
  H  H25  1  0.762100  0.055900  0.335900  1.0  0.1333
  H  H26  1  0.794500  0.173900  0.292300  1.0  0.0598
  H  H27  1  0.115800  0.031600  0.260400  1.0  0.0883
  H  H28  1  0.098500  0.913100  0.299900  1.0  0.1273
  H  H29  1  0.871900  0.063900  0.943900  1.0  0.1105
  H  H30  1  0.822400  0.013800  0.021200  1.0  0.1048
  H  H31  1  0.872600  0.092700  0.070100  1.0  0.1269
  H  H32  1  0.042000  0.347300  0.041700  1.0  0.12
  H  H33  1  0.089100  0.436300  0.973100  1.0  0.1303
  H  H34  1  0.047500  0.374500  0.910500  1.0  0.095
  H  H35  1  0.815400  0.320800  0.088200  1.0  0.1392
  H  H36  1  0.826200  0.321200  0.161600  1.0  0.0937
  H  H37  1  0.109900  0.118200  0.149400  1.0  0.0801
  H  H38  1  0.110900  0.110500  0.075100  1.0  0.134
  H  H39  1  0.790200  0.183300  0.873300  1.0  0.1042
  H  H40  1  0.822600  0.087800  0.812400  1.0  0.1219
  H  H41  1  0.025800  0.991100  0.800500  1.0  0.1219
  H  H42  1  0.379700  0.976400  0.869000  1.0  0.1219
  H  H43  1  0.397200  0.055400  0.928600  1.0  0.1153
  H  H44  1  0.204100  0.173500  0.951700  1.0  0.1018
  H  H45  1  0.181700  0.865900  0.844300  1.0  0.1027
  H  H46  1  0.303000  0.765600  0.794600  1.0  0.0864
  H  H47  1  0.435500  0.934200  0.736400  1.0  0.0905
  H  H48  1  0.314100  0.039500  0.784500  1.0  0.1119
  H  H49  1  0.733600  0.259900  0.970500  1.0  0.0904
  H  H50  1  0.553600  0.373900  0.954500  1.0  0.1178
  H  H51  1  0.602700  0.465800  0.891000  1.0  0.1312
  H  H52  1  0.999000  0.427500  0.780500  1.0  0.1127
  H  H53  1  0.197700  0.323000  0.778800  1.0  0.1166
  H  H54  1  0.194500  0.216500  0.843300  1.0  0.0949
  H  H55  1  0.846100  0.555900  0.835900  1.0  0.1332
  H  H56  1  0.739300  0.673900  0.792300  1.0  0.0594
  H  H57  1  0.592200  0.531600  0.760400  1.0  0.0883
  H  H58  1  0.688500  0.413100  0.799900  1.0  0.1259
  H  H59  1  0.120300  0.563900  0.443900  1.0  0.1094
  H  H60  1  0.142600  0.513800  0.521200  1.0  0.104
  H  H61  1  0.964600  0.592700  0.570100  1.0  0.1265
  H  H62  1  0.569000  0.847300  0.541700  1.0  0.1228
  H  H63  1  0.501500  0.936300  0.473100  1.0  0.1298
  H  H64  1  0.667500  0.874500  0.410500  1.0  0.0948
  H  H65  1  0.775600  0.820800  0.588200  1.0  0.1383
  H  H66  1  0.691000  0.821200  0.661600  1.0  0.0931
  H  H67  1  0.622500  0.618200  0.649400  1.0  0.08
  H  H68  1  0.703500  0.610500  0.575100  1.0  0.1347
  H  H69  1  0.209800  0.816700  0.126700  1.0  0.1028
  H  H70  1  0.177400  0.912200  0.187600  1.0  0.1225
  H  H71  1  0.974200  0.008900  0.199500  1.0  0.1215
  H  H72  1  0.620300  0.023600  0.131000  1.0  0.1229
  H  H73  1  0.602800  0.944600  0.071400  1.0  0.1166
  H  H74  1  0.795900  0.826500  0.048300  1.0  0.1013
  H  H75  1  0.818300  0.134100  0.155700  1.0  0.1026
  H  H76  1  0.697000  0.234400  0.205400  1.0  0.086
  H  H77  1  0.564500  0.065800  0.263600  1.0  0.0912
  H  H78  1  0.685900  0.960500  0.215500  1.0  0.1108
  H  H79  1  0.266400  0.740100  0.029500  1.0  0.0898
  H  H80  1  0.446400  0.626100  0.045500  1.0  0.1176
  H  H81  1  0.397300  0.534200  0.109000  1.0  0.13
  H  H82  1  0.001000  0.572500  0.219500  1.0  0.1122
  H  H83  1  0.802300  0.677000  0.221200  1.0  0.1163
  H  H84  1  0.805500  0.783500  0.156700  1.0  0.0945
  H  H85  1  0.153900  0.444100  0.164100  1.0  0.1323
  H  H86  1  0.260700  0.326100  0.207700  1.0  0.0585
  H  H87  1  0.407800  0.468400  0.239600  1.0  0.0877
  H  H88  1  0.311500  0.586900  0.200100  1.0  0.1262
  H  H89  1  0.879700  0.436100  0.556100  1.0  0.1086
  H  H90  1  0.857400  0.486200  0.478800  1.0  0.1032
  H  H91  1  0.035400  0.407300  0.429900  1.0  0.1257
  H  H92  1  0.431000  0.152700  0.458300  1.0  0.1222
  H  H93  1  0.498500  0.063700  0.526900  1.0  0.1291
  H  H94  1  0.332500  0.125500  0.589500  1.0  0.0942
  H  H95  1  0.224400  0.179200  0.411800  1.0  0.1367
  H  H96  1  0.309000  0.178800  0.338400  1.0  0.0925
  H  H97  1  0.377500  0.381800  0.350600  1.0  0.0792
  H  H98  1  0.296500  0.389500  0.424900  1.0  0.1338
  H  H99  1  0.846800  0.316700  0.626700  1.0  0.1028
  H  H100  1  0.722800  0.412200  0.687600  1.0  0.1218
  H  H101  1  0.817400  0.508900  0.699500  1.0  0.1226
  H  H102  1  0.225100  0.523600  0.631000  1.0  0.1219
  H  H103  1  0.381200  0.444600  0.571400  1.0  0.1173
  H  H104  1  0.329300  0.326500  0.548300  1.0  0.1002
  H  H105  1  0.891900  0.634100  0.655700  1.0  0.1041
  H  H106  1  0.863200  0.734400  0.705400  1.0  0.0859
  H  H107  1  0.106100  0.565800  0.763600  1.0  0.0907
  H  H108  1  0.138100  0.460500  0.715500  1.0  0.1107
  H  H109  1  0.964000  0.240100  0.529500  1.0  0.0914
  H  H110  1  0.882000  0.126100  0.545500  1.0  0.1176
  H  H111  1  0.959500  0.034200  0.609000  1.0  0.1311
  H  H112  1  0.207000  0.072500  0.719500  1.0  0.1126
  H  H113  1  0.299500  0.177000  0.721200  1.0  0.1158
  H  H114  1  0.254300  0.283500  0.656700  1.0  0.0948
  H  H115  1  0.237900  0.944100  0.664100  1.0  0.1321
  H  H116  1  0.205500  0.826100  0.707700  1.0  0.059
  H  H117  1  0.884200  0.968400  0.739600  1.0  0.0881
  H  H118  1  0.901500  0.086900  0.700100  1.0  0.1273
  H  H119  1  0.128100  0.936100  0.056100  1.0  0.1098
  H  H120  1  0.177600  0.986200  0.978800  1.0  0.1031
  H  H121  1  0.127400  0.907300  0.929900  1.0  0.1254
  H  H122  1  0.958000  0.652700  0.958300  1.0  0.1206
  H  H123  1  0.910900  0.563700  0.026900  1.0  0.1306
  H  H124  1  0.952500  0.625500  0.089500  1.0  0.0951
  H  H125  1  0.184600  0.679200  0.911800  1.0  0.1374
  H  H126  1  0.173800  0.678800  0.838400  1.0  0.0926
  H  H127  1  0.890100  0.881800  0.850600  1.0  0.0806
  H  H128  1  0.889100  0.889500  0.924900  1.0  0.1345
  C  C129  1  0.133800  0.643830  0.360170  1.0  0.071
  C  C130  1  0.205300  0.589000  0.327200  1.0  -0.1135
  C  C131  1  0.153100  0.537700  0.320100  1.0  -0.171
  C  C132  1  0.042600  0.567060  0.348340  1.0  0.1945
  C  C133  1  0.960340  0.534700  0.351420  1.0  -0.0594
  C  C134  1  0.853960  0.561430  0.379850  1.0  0.1354
  C  C135  1  0.770800  0.523100  0.385100  1.0  -0.174
  C  C136  1  0.685700  0.566200  0.417200  1.0  -0.1342
  C  C137  1  0.717300  0.631590  0.430410  1.0  0.042
  C  C138  1  0.978780  0.464110  0.320930  1.0  0.1068
  C  C139  1  0.061300  0.381100  0.322700  1.0  -0.1823
  C  C140  1  0.076000  0.320800  0.293800  1.0  0.1749
  C  C141  1  0.935000  0.418840  0.259760  1.0  0.1594
  C  C142  1  0.917300  0.482290  0.287910  1.0  -0.168
  C  C143  1  0.026000  0.799900  0.445900  1.0  0.0835
  C  C144  1  0.069900  0.865000  0.438200  1.0  -0.1243
  C  C145  1  0.030600  0.913400  0.402800  1.0  -0.169
  C  C146  1  0.970700  0.870020  0.386380  1.0  0.1283
  C  C147  1  0.917000  0.892880  0.350920  1.0  -0.0279
  C  C148  1  0.851270  0.854860  0.337400  1.0  0.1581
  C  C149  1  0.794700  0.879800  0.300600  1.0  -0.1652
  C  C150  1  0.744200  0.823090  0.299510  1.0  -0.1567
  C  C151  1  0.770400  0.763770  0.336030  1.0  0.071
  C  C152  1  0.927600  0.971760  0.323040  1.0  0.089
  C  C153  1  0.835700  0.049300  0.320700  1.0  -0.1619
  C  C154  1  0.857100  0.120000  0.293800  1.0  0.1679
  C  C155  1  0.042900  0.036300  0.275700  1.0  0.1701
  C  C156  1  0.034100  0.965930  0.299270  1.0  -0.1968
  C  C157  1  0.883300  0.084160  0.969040  1.0  0.0059
  C  C158  1  0.855400  0.056190  0.012210  1.0  -0.0792
  C  C159  1  0.882900  0.098930  0.039070  1.0  -0.1731
  C  C160  1  0.930390  0.155660  0.011960  1.0  0.1413
  C  C161  1  0.962900  0.217850  0.024950  1.0  -0.0588
  C  C162  1  0.997400  0.279220  0.999180  1.0  0.1687
  C  C163  1  0.035700  0.340900  0.012700  1.0  -0.0726
  C  C164  1  0.062500  0.390200  0.975000  1.0  -0.0974
  C  C165  1  0.039500  0.353600  0.940200  1.0  0.0997
  C  C166  1  0.964700  0.216530  0.073270  1.0  0.1005
  C  C167  1  0.878300  0.278890  0.099710  1.0  -0.2165
  C  C168  1  0.885800  0.278770  0.143430  1.0  0.1551
  C  C169  1  0.050500  0.161100  0.136500  1.0  0.1732
  C  C170  1  0.051600  0.155420  0.091980  1.0  -0.2058
  C  C171  1  0.862200  0.143830  0.860170  1.0  0.0689
  C  C172  1  0.878500  0.089000  0.827200  1.0  -0.1139
  C  C173  1  0.989100  0.037700  0.820100  1.0  -0.1703
  C  C174  1  0.042000  0.067060  0.848340  1.0  0.194
  C  C175  1  0.153540  0.034700  0.851420  1.0  -0.059
  C  C176  1  0.204760  0.061430  0.879850  1.0  0.1368
  C  C177  1  0.321000  0.023100  0.885100  1.0  -0.1745
  C  C178  1  0.330900  0.066200  0.917200  1.0  -0.1361
  C  C179  1  0.220700  0.131590  0.930410  1.0  0.0426
  C  C180  1  0.236180  0.964110  0.820930  1.0  0.1077
  C  C181  1  0.234900  0.881100  0.822700  1.0  -0.1819
  C  C182  1  0.309400  0.820800  0.793800  1.0  0.176
  C  C183  1  0.386400  0.918840  0.759760  1.0  0.1582
  C  C184  1  0.312500  0.982290  0.787910  1.0  -0.168
  C  C185  1  0.728200  0.299900  0.945900  1.0  0.0791
  C  C186  1  0.626900  0.365000  0.938200  1.0  -0.1235
  C  C187  1  0.653200  0.413400  0.902800  1.0  -0.1673
  C  C188  1  0.772900  0.370020  0.886380  1.0  0.1262
  C  C189  1  0.839200  0.392880  0.850920  1.0  -0.0275
  C  C190  1  0.956470  0.354860  0.837400  1.0  0.157
  C  C191  1  0.024900  0.379800  0.800600  1.0  -0.1638
  C  C192  1  0.133200  0.323090  0.799510  1.0  -0.1571
  C  C193  1  0.129800  0.263770  0.836030  1.0  0.072
  C  C194  1  0.777600  0.471760  0.823040  1.0  0.0866
  C  C195  1  0.794300  0.549300  0.820700  1.0  -0.1597
  C  C196  1  0.729100  0.620000  0.793800  1.0  0.1678
  C  C197  1  0.645100  0.536300  0.775700  1.0  0.17
  C  C198  1  0.700700  0.465930  0.799270  1.0  -0.1953
  C  C199  1  0.063500  0.584160  0.469040  1.0  0.0043
  C  C200  1  0.076200  0.556190  0.512210  1.0  -0.0789
  C  C201  1  0.979100  0.598930  0.539070  1.0  -0.171
  C  C202  1  0.901990  0.655660  0.511960  1.0  0.1418
  C  C203  1  0.794300  0.717850  0.524950  1.0  -0.0591
  C  C204  1  0.724200  0.779220  0.499180  1.0  0.1696
  C  C205  1  0.610700  0.840900  0.512700  1.0  -0.0762
  C  C206  1  0.572300  0.890200  0.475000  1.0  -0.0987
  C  C207  1  0.666667  0.853600  0.440200  1.0  0.1005
  C  C208  1  0.745500  0.716530  0.573270  1.0  0.0991
  C  C209  1  0.743100  0.778890  0.599710  1.0  -0.2176
  C  C210  1  0.692000  0.778770  0.643430  1.0  0.1544
  C  C211  1  0.651900  0.661100  0.636500  1.0  0.1707
  C  C212  1  0.701000  0.655420  0.591980  1.0  -0.2077
  C  C213  1  0.137800  0.856170  0.139830  1.0  0.0712
  C  C214  1  0.121500  0.911000  0.172800  1.0  -0.1142
  C  C215  1  0.010900  0.962300  0.179900  1.0  -0.1701
  C  C216  1  0.958000  0.932940  0.151660  1.0  0.193
  C  C217  1  0.846460  0.965300  0.148580  1.0  -0.0597
  C  C218  1  0.795240  0.938570  0.120150  1.0  0.1357
  C  C219  1  0.679000  0.976900  0.114900  1.0  -0.1746
  C  C220  1  0.669100  0.933800  0.082800  1.0  -0.1344
  C  C221  1  0.779300  0.868410  0.069590  1.0  0.0419
  C  C222  1  0.763820  0.035890  0.179070  1.0  0.106
  C  C223  1  0.765100  0.118900  0.177300  1.0  -0.1822
  C  C224  1  0.690600  0.179200  0.206200  1.0  0.1763
  C  C225  1  0.613600  0.081160  0.240240  1.0  0.1587
  C  C226  1  0.687500  0.017710  0.212090  1.0  -0.1697
  C  C227  1  0.271800  0.700100  0.054100  1.0  0.0803
  C  C228  1  0.373100  0.635000  0.061800  1.0  -0.1245
  C  C229  1  0.346800  0.586600  0.097200  1.0  -0.1682
  C  C230  1  0.227100  0.629980  0.113620  1.0  0.1268
  C  C231  1  0.160800  0.607120  0.149080  1.0  -0.0284
  C  C232  1  0.043530  0.645140  0.162600  1.0  0.1575
  C  C233  1  0.975100  0.620200  0.199400  1.0  -0.1636
  C  C234  1  0.866800  0.676910  0.200490  1.0  -0.1559
  C  C235  1  0.870200  0.736230  0.163970  1.0  0.0708
  C  C236  1  0.222400  0.528240  0.176960  1.0  0.089
  C  C237  1  0.205700  0.450700  0.179300  1.0  -0.1566
  C  C238  1  0.270900  0.380000  0.206200  1.0  0.1662
  C  C239  1  0.354900  0.463700  0.224300  1.0  0.1717
  C  C240  1  0.299300  0.534070  0.200730  1.0  -0.1948
  C  C241  1  0.936500  0.415840  0.530960  1.0  0.0076
  C  C242  1  0.923800  0.443810  0.487790  1.0  -0.0795
  C  C243  1  0.020900  0.401070  0.460930  1.0  -0.171
  C  C244  1  0.098010  0.344340  0.488040  1.0  0.1426
  C  C245  1  0.205700  0.282150  0.475050  1.0  -0.059
  C  C246  1  0.275800  0.220780  0.500820  1.0  0.1694
  C  C247  1  0.389300  0.159100  0.487300  1.0  -0.0739
  C  C248  1  0.427700  0.109800  0.525000  1.0  -0.0987
  C  C249  1  0.333333  0.146400  0.559800  1.0  0.1013
  C  C250  1  0.254500  0.283470  0.426730  1.0  0.0992
  C  C251  1  0.256900  0.221110  0.400290  1.0  -0.2149
  C  C252  1  0.308000  0.221230  0.356570  1.0  0.1541
  C  C253  1  0.348100  0.338900  0.363500  1.0  0.1727
  C  C254  1  0.299000  0.344580  0.408020  1.0  -0.2061
  C  C255  1  0.866200  0.356170  0.639830  1.0  0.0715
  C  C256  1  0.794700  0.411000  0.672800  1.0  -0.1148
  C  C257  1  0.846900  0.462300  0.679900  1.0  -0.1711
  C  C258  1  0.957400  0.432940  0.651660  1.0  0.1946
  C  C259  1  0.039660  0.465300  0.648580  1.0  -0.0598
  C  C260  1  0.146040  0.438570  0.620150  1.0  0.1366
  C  C261  1  0.229200  0.476900  0.614900  1.0  -0.171
  C  C262  1  0.314300  0.433800  0.582800  1.0  -0.1387
  C  C263  1  0.282700  0.368410  0.569590  1.0  0.0385
  C  C264  1  0.021220  0.535890  0.679070  1.0  0.1071
  C  C265  1  0.938700  0.618900  0.677300  1.0  -0.182
  C  C266  1  0.924000  0.679200  0.706200  1.0  0.1759
  C  C267  1  0.065000  0.581160  0.740240  1.0  0.1591
  C  C268  1  0.082700  0.517710  0.712090  1.0  -0.1683
  C  C269  1  0.974000  0.200100  0.554100  1.0  0.0822
  C  C270  1  0.930100  0.135000  0.561800  1.0  -0.1219
  C  C271  1  0.969400  0.086600  0.597200  1.0  -0.1693
  C  C272  1  0.029300  0.129980  0.613620  1.0  0.128
  C  C273  1  0.083000  0.107120  0.649080  1.0  -0.0281
  C  C274  1  0.148730  0.145140  0.662600  1.0  0.1568
  C  C275  1  0.205300  0.120200  0.699400  1.0  -0.1661
  C  C276  1  0.255800  0.176910  0.700490  1.0  -0.1553
  C  C277  1  0.229600  0.236230  0.663970  1.0  0.0719
  C  C278  1  0.072400  0.028240  0.676960  1.0  0.0879
  C  C279  1  0.164300  0.950700  0.679300  1.0  -0.1598
  C  C280  1  0.142900  0.880000  0.706200  1.0  0.1658
  C  C281  1  0.957100  0.963700  0.724300  1.0  0.1703
  C  C282  1  0.965900  0.034070  0.700730  1.0  -0.1976
  C  C283  1  0.116700  0.915840  0.030960  1.0  0.0038
  C  C284  1  0.144600  0.943810  0.987790  1.0  -0.0784
  C  C285  1  0.117100  0.901070  0.960930  1.0  -0.1727
  C  C286  1  0.069610  0.844340  0.988040  1.0  0.141
  C  C287  1  0.037100  0.782150  0.975050  1.0  -0.0588
  C  C288  1  0.002600  0.720780  0.000820  1.0  0.1713
  C  C289  1  0.964300  0.659100  0.987300  1.0  -0.0739
  C  C290  1  0.937500  0.609800  0.025000  1.0  -0.1
  C  C291  1  0.960500  0.646400  0.059800  1.0  0.1028
  C  C292  1  0.035300  0.783470  0.926730  1.0  0.0992
  C  C293  1  0.121700  0.721110  0.900290  1.0  -0.2167
  C  C294  1  0.114200  0.721230  0.856570  1.0  0.1557
  C  C295  1  0.949500  0.838900  0.863500  1.0  0.1734
  C  C296  1  0.948400  0.844580  0.908020  1.0  -0.2079
  C  C297  1  0.392700  0.994800  0.228200  1.0  0.4765
  C  C298  1  0.615700  0.505200  0.271800  1.0  0.4766
  C  C299  1  0.607300  0.005200  0.771800  1.0  0.4751
  C  C300  1  0.384300  0.494800  0.728200  1.0  0.4762
  S  S301  1  0.308550  0.108300  0.234960  1.0  0.747
  S  S302  1  0.651810  0.391700  0.265040  1.0  0.7458
  S  S303  1  0.691450  0.891700  0.765040  1.0  0.7465
  S  S304  1  0.348190  0.608300  0.734960  1.0  0.7472
  N  N305  1  0.034430  0.634580  0.371560  1.0  -0.3747
  N  N306  1  0.819510  0.627220  0.409560  1.0  -0.4011
  N  N307  1  0.008520  0.335290  0.263870  1.0  -0.3178
  N  N308  1  0.969850  0.798620  0.416280  1.0  -0.3806
  N  N309  1  0.832570  0.782060  0.358600  1.0  -0.3753
  N  N310  1  0.953080  0.116200  0.271840  1.0  -0.3283
  N  N311  1  0.928990  0.144640  0.968380  1.0  -0.3683
  N  N312  1  0.006050  0.287140  0.953960  1.0  -0.3672
  N  N313  1  0.972230  0.222280  0.161260  1.0  -0.3049
  N  N314  1  0.959430  0.134580  0.871560  1.0  -0.3737
  N  N315  1  0.143710  0.127220  0.909560  1.0  -0.4014
  N  N316  1  0.392320  0.835290  0.763870  1.0  -0.3138
  N  N317  1  0.815250  0.298620  0.916280  1.0  -0.3778
  N  N318  1  0.026770  0.282060  0.858600  1.0  -0.3758
  N  N319  1  0.658880  0.616200  0.771840  1.0  -0.3283
  N  N320  1  0.957990  0.644640  0.468380  1.0  -0.3674
  N  N321  1  0.752850  0.787140  0.453960  1.0  -0.3671
  N  N322  1  0.644230  0.722280  0.661260  1.0  -0.303
  N  N323  1  0.040570  0.865420  0.128440  1.0  -0.3723
  N  N324  1  0.856290  0.872780  0.090440  1.0  -0.4013
  N  N325  1  0.607680  0.164710  0.236130  1.0  -0.3146
  N  N326  1  0.184750  0.701380  0.083720  1.0  -0.3803
  N  N327  1  0.973230  0.717940  0.141400  1.0  -0.3762
  N  N328  1  0.341120  0.383800  0.228160  1.0  -0.3291
  N  N329  1  0.042010  0.355360  0.531620  1.0  -0.3683
  N  N330  1  0.247150  0.212860  0.546040  1.0  -0.3666
  N  N331  1  0.355770  0.277720  0.338740  1.0  -0.3028
  N  N332  1  0.965570  0.365420  0.628440  1.0  -0.3736
  N  N333  1  0.180490  0.372780  0.590440  1.0  -0.4007
  N  N334  1  0.991480  0.664710  0.736130  1.0  -0.3171
  N  N335  1  0.030150  0.201380  0.583720  1.0  -0.3777
  N  N336  1  0.167430  0.217940  0.641400  1.0  -0.3741
  N  N337  1  0.046920  0.883800  0.728160  1.0  -0.3299
  N  N338  1  0.071010  0.855360  0.031620  1.0  -0.3676
  N  N339  1  0.993950  0.712860  0.046040  1.0  -0.3663
  N  N340  1  0.027770  0.777720  0.838740  1.0  -0.306
  O  O341  1  0.215000  0.127710  0.216290  1.0  -0.6338
  O  O342  1  0.326200  0.143600  0.267200  1.0  -0.5532
  O  O343  1  0.405900  0.118200  0.193000  1.0  -0.7545
  O  O344  1  0.559000  0.372290  0.283710  1.0  -0.6311
  O  O345  1  0.737000  0.356400  0.232800  1.0  -0.5515
  O  O346  1  0.717100  0.381800  0.307000  1.0  -0.7566
  O  O347  1  0.785000  0.872290  0.783710  1.0  -0.6355
  O  O348  1  0.673800  0.856400  0.732800  1.0  -0.5524
  O  O349  1  0.594100  0.881800  0.807000  1.0  -0.7521
  O  O350  1  0.441000  0.627710  0.716290  1.0  -0.6327
  O  O351  1  0.263000  0.643600  0.767200  1.0  -0.5544
  O  O352  1  0.282900  0.618200  0.693000  1.0  -0.7556
  F  F353  1  0.466200  0.957500  0.256500  1.0  -0.1745
  F  F354  1  0.336700  0.943700  0.229300  1.0  -0.1718
  F  F355  1  0.457700  0.990800  0.188200  1.0  -0.3188
  F  F356  1  0.680200  0.542500  0.243500  1.0  -0.1688
  F  F357  1  0.509700  0.556300  0.270700  1.0  -0.1721
  F  F358  1  0.636700  0.509200  0.311800  1.0  -0.3196
  F  F359  1  0.533800  0.042500  0.743500  1.0  -0.173
  F  F360  1  0.663300  0.056300  0.770700  1.0  -0.1723
  F  F361  1  0.542300  0.009200  0.811800  1.0  -0.3183
  F  F362  1  0.319800  0.457500  0.756500  1.0  -0.1699
  F  F363  1  0.490300  0.443700  0.729300  1.0  -0.1714
  F  F364  1  0.363300  0.490800  0.688200  1.0  -0.3206
