# generated using pymatgen
data_InAgH30C43SN9(OF)3
_symmetry_space_group_name_H-M   'P 1'
_cell_length_a   13.20800000
_cell_length_b   16.92190000
_cell_length_c   31.71200000
_cell_angle_alpha   82.88100000
_cell_angle_beta   77.98020000
_cell_angle_gamma   67.02900000
_symmetry_Int_Tables_number   1
_chemical_formula_structural   InAgH30C43SN9(OF)3
_chemical_formula_sum   'In4 Ag4 H120 C172 S4 N36 O12 F12'
_cell_volume   6375.49322538
_cell_formula_units_Z   4
loop_
 _symmetry_equiv_pos_site_id
 _symmetry_equiv_pos_as_xyz
  1  'x, y, z'
loop_
 _atom_site_type_symbol
 _atom_site_label
 _atom_site_symmetry_multiplicity
 _atom_site_fract_x
 _atom_site_fract_y
 _atom_site_fract_z
 _atom_site_occupancy
 _atom_site_charge
  In  In1  1  0.899360  0.206650  0.912170  1.0  1.4162
  In  In2  1  0.981820  0.706650  0.412170  1.0  1.4182
  In  In3  1  0.018180  0.293350  0.587830  1.0  1.4176
  In  In4  1  0.100640  0.793350  0.087830  1.0  1.4178
  Ag  Ag5  1  0.975310  0.732180  0.730880  1.0  0.3999
  Ag  Ag6  1  0.561630  0.232180  0.230880  1.0  0.4008
  Ag  Ag7  1  0.438370  0.767820  0.769120  1.0  0.4006
  Ag  Ag8  1  0.024690  0.267820  0.269120  1.0  0.4007
  H  H9  1  0.165200  0.163800  0.869200  1.0  0.0957
  H  H10  1  0.277900  0.071800  0.807000  1.0  0.1136
  H  H11  1  0.170800  0.983500  0.795100  1.0  0.1204
  H  H12  1  0.769900  0.975000  0.863000  1.0  0.1214
  H  H13  1  0.614800  0.056000  0.920800  1.0  0.1003
  H  H14  1  0.669100  0.163000  0.947600  1.0  0.0849
  H  H15  1  0.855200  0.034900  0.780900  1.0  0.1022
  H  H16  1  0.884400  0.927800  0.734400  1.0  0.0691
  H  H17  1  0.121100  0.761800  0.792600  1.0  0.0843
  H  H18  1  0.100800  0.863300  0.840300  1.0  0.0874
  H  H19  1  0.869500  0.559600  0.448200  1.0  0.0965
  H  H20  1  0.820300  0.509700  0.524500  1.0  0.095
  H  H21  1  0.869300  0.589500  0.571700  1.0  0.0995
  H  H22  1  0.040100  0.833800  0.546200  1.0  0.1131
  H  H23  1  0.086400  0.924700  0.481300  1.0  0.1076
  H  H24  1  0.063700  0.865200  0.417000  1.0  0.0832
  H  H25  1  0.809700  0.806900  0.588900  1.0  0.121
  H  H26  1  0.814700  0.810200  0.661200  1.0  0.0876
  H  H27  1  0.106700  0.618500  0.650900  1.0  0.0688
  H  H28  1  0.109100  0.610200  0.577400  1.0  0.1213
  H  H29  1  0.049900  0.260800  0.965200  1.0  0.087
  H  H30  1  0.118200  0.380700  0.949300  1.0  0.102
  H  H31  1  0.041400  0.466700  0.885500  1.0  0.1113
  H  H32  1  0.800300  0.429400  0.778000  1.0  0.0988
  H  H33  1  0.703900  0.329800  0.775600  1.0  0.1159
  H  H34  1  0.741700  0.226000  0.838800  1.0  0.0936
  H  H35  1  0.097600  0.421900  0.800100  1.0  0.1104
  H  H36  1  0.110800  0.542200  0.759200  1.0  0.0701
  H  H37  1  0.789000  0.672800  0.793400  1.0  0.0821
  H  H38  1  0.765700  0.548100  0.830300  1.0  0.1046
  H  H39  1  0.801800  0.663800  0.369200  1.0  0.0968
  H  H40  1  0.843300  0.571800  0.307000  1.0  0.1112
  H  H41  1  0.050600  0.483500  0.295100  1.0  0.1201
  H  H42  1  0.392100  0.475000  0.363000  1.0  0.1223
  H  H43  1  0.408400  0.556000  0.420800  1.0  0.1021
  H  H44  1  0.220300  0.663000  0.447600  1.0  0.0857
  H  H45  1  0.329000  0.534900  0.280900  1.0  0.1023
  H  H46  1  0.453400  0.427800  0.234400  1.0  0.0684
  H  H47  1  0.324500  0.261800  0.292600  1.0  0.0848
  H  H48  1  0.195600  0.363300  0.340300  1.0  0.086
  H  H49  1  0.122700  0.059600  0.948200  1.0  0.0939
  H  H50  1  0.145500  0.009700  0.024500  1.0  0.0948
  H  H51  1  0.969500  0.089500  0.071700  1.0  0.0979
  H  H52  1  0.579900  0.333800  0.046200  1.0  0.1154
  H  H53  1  0.507600  0.424700  0.981300  1.0  0.1065
  H  H54  1  0.654100  0.365200  0.917000  1.0  0.0838
  H  H55  1  0.794500  0.306900  0.088900  1.0  0.1207
  H  H56  1  0.713900  0.310200  0.161200  1.0  0.0873
  H  H57  1  0.623900  0.118500  0.150900  1.0  0.0691
  H  H58  1  0.703300  0.110200  0.077400  1.0  0.1218
  H  H59  1  0.724100  0.760800  0.465200  1.0  0.0888
  H  H60  1  0.551800  0.880700  0.449300  1.0  0.1016
  H  H61  1  0.606400  0.966700  0.385500  1.0  0.1112
  H  H62  1  0.992300  0.929400  0.278000  1.0  0.0993
  H  H63  1  0.190700  0.829800  0.275600  1.0  0.1164
  H  H64  1  0.193500  0.726000  0.338800  1.0  0.095
  H  H65  1  0.680400  0.921900  0.300100  1.0  0.1102
  H  H66  1  0.587800  0.042200  0.259200  1.0  0.0704
  H  H67  1  0.744800  0.172800  0.293400  1.0  0.0826
  H  H68  1  0.855900  0.048100  0.330300  1.0  0.1063
  H  H69  1  0.198200  0.336200  0.630800  1.0  0.0963
  H  H70  1  0.156700  0.428200  0.693000  1.0  0.1124
  H  H71  1  0.949400  0.516500  0.704900  1.0  0.1195
  H  H72  1  0.607900  0.525000  0.637000  1.0  0.1224
  H  H73  1  0.591600  0.444000  0.579200  1.0  0.1016
  H  H74  1  0.779700  0.337000  0.552400  1.0  0.0854
  H  H75  1  0.671000  0.465100  0.719100  1.0  0.1016
  H  H76  1  0.546600  0.572200  0.765600  1.0  0.0692
  H  H77  1  0.675500  0.738200  0.707400  1.0  0.0848
  H  H78  1  0.804400  0.636700  0.659700  1.0  0.0856
  H  H79  1  0.877300  0.940400  0.051800  1.0  0.0955
  H  H80  1  0.854500  0.990300  0.975500  1.0  0.0946
  H  H81  1  0.030500  0.910500  0.928300  1.0  0.0988
  H  H82  1  0.420100  0.666200  0.953800  1.0  0.1159
  H  H83  1  0.492400  0.575300  0.018700  1.0  0.1082
  H  H84  1  0.345900  0.634800  0.083000  1.0  0.0819
  H  H85  1  0.205500  0.693100  0.911100  1.0  0.119
  H  H86  1  0.286100  0.689800  0.838800  1.0  0.0871
  H  H87  1  0.376100  0.881500  0.849100  1.0  0.0682
  H  H88  1  0.296700  0.889800  0.922600  1.0  0.1218
  H  H89  1  0.275900  0.239200  0.534800  1.0  0.0897
  H  H90  1  0.448200  0.119300  0.550700  1.0  0.1022
  H  H91  1  0.393600  0.033300  0.614500  1.0  0.111
  H  H92  1  0.007700  0.070600  0.722000  1.0  0.0992
  H  H93  1  0.809300  0.170200  0.724400  1.0  0.1156
  H  H94  1  0.806500  0.274000  0.661200  1.0  0.0943
  H  H95  1  0.319600  0.078100  0.699900  1.0  0.1099
  H  H96  1  0.412200  0.957800  0.740800  1.0  0.0706
  H  H97  1  0.255200  0.827200  0.706600  1.0  0.0821
  H  H98  1  0.144100  0.951900  0.669700  1.0  0.1064
  H  H99  1  0.834800  0.836200  0.130800  1.0  0.0957
  H  H100  1  0.722100  0.928200  0.193000  1.0  0.1114
  H  H101  1  0.829200  0.016500  0.204900  1.0  0.1202
  H  H102  1  0.230100  0.025000  0.137000  1.0  0.1213
  H  H103  1  0.385200  0.944000  0.079200  1.0  0.102
  H  H104  1  0.330900  0.837000  0.052400  1.0  0.0848
  H  H105  1  0.144800  0.965100  0.219100  1.0  0.1013
  H  H106  1  0.115600  0.072200  0.265600  1.0  0.0696
  H  H107  1  0.878900  0.238200  0.207400  1.0  0.0844
  H  H108  1  0.899200  0.136700  0.159700  1.0  0.0874
  H  H109  1  0.130500  0.440400  0.551800  1.0  0.0963
  H  H110  1  0.179700  0.490300  0.475500  1.0  0.0937
  H  H111  1  0.130700  0.410500  0.428300  1.0  0.0993
  H  H112  1  0.959900  0.166200  0.453800  1.0  0.1144
  H  H113  1  0.913600  0.075300  0.518700  1.0  0.1081
  H  H114  1  0.936300  0.134800  0.583000  1.0  0.0831
  H  H115  1  0.190300  0.193100  0.411100  1.0  0.1189
  H  H116  1  0.185300  0.189800  0.338800  1.0  0.0875
  H  H117  1  0.893300  0.381500  0.349100  1.0  0.0693
  H  H118  1  0.890900  0.389800  0.422600  1.0  0.1209
  H  H119  1  0.950100  0.739200  0.034800  1.0  0.0873
  H  H120  1  0.881800  0.619300  0.050700  1.0  0.1012
  H  H121  1  0.958600  0.533300  0.114500  1.0  0.1108
  H  H122  1  0.199700  0.570600  0.222000  1.0  0.0993
  H  H123  1  0.296100  0.670200  0.224400  1.0  0.1165
  H  H124  1  0.258300  0.774000  0.161200  1.0  0.0946
  H  H125  1  0.902400  0.578100  0.199900  1.0  0.1108
  H  H126  1  0.889200  0.457800  0.240800  1.0  0.07
  H  H127  1  0.211000  0.327200  0.206600  1.0  0.0819
  H  H128  1  0.234300  0.451900  0.169700  1.0  0.1049
  C  C129  1  0.142100  0.127100  0.856500  1.0  0.033
  C  C130  1  0.206800  0.074600  0.822400  1.0  -0.1252
  C  C131  1  0.147100  0.026900  0.815300  1.0  -0.1092
  C  C132  1  0.044500  0.055500  0.844100  1.0  0.1688
  C  C133  1  0.955800  0.028600  0.847000  1.0  -0.0524
  C  C134  1  0.850500  0.055000  0.874600  1.0  0.1457
  C  C135  1  0.767800  0.020000  0.878800  1.0  -0.1115
  C  C136  1  0.682900  0.064600  0.910800  1.0  -0.0997
  C  C137  1  0.713600  0.123800  0.925800  1.0  -0.0014
  C  C138  1  0.973300  0.961200  0.816600  1.0  0.0909
  C  C139  1  0.910200  0.979100  0.784300  1.0  -0.1832
  C  C140  1  0.927900  0.914000  0.756600  1.0  0.1597
  C  C141  1  0.065800  0.817800  0.790600  1.0  0.1485
  C  C142  1  0.054100  0.878300  0.819100  1.0  -0.1868
  C  C143  1  0.880300  0.579900  0.472900  1.0  0.0385
  C  C144  1  0.852400  0.551800  0.515400  1.0  -0.1035
  C  C145  1  0.879500  0.595100  0.541100  1.0  -0.1728
  C  C146  1  0.926600  0.651800  0.514200  1.0  0.1062
  C  C147  1  0.962700  0.709870  0.527130  1.0  -0.0618
  C  C148  1  0.002600  0.769000  0.502600  1.0  0.1397
  C  C149  1  0.036200  0.828400  0.517200  1.0  -0.0947
  C  C150  1  0.063100  0.878200  0.481400  1.0  -0.1232
  C  C151  1  0.048200  0.844900  0.445900  1.0  0.0639
  C  C152  1  0.960000  0.710500  0.575300  1.0  0.0689
  C  C153  1  0.872600  0.768300  0.600700  1.0  -0.1933
  C  C154  1  0.876400  0.770200  0.643800  1.0  0.1475
  C  C155  1  0.046700  0.658300  0.637900  1.0  0.1535
  C  C156  1  0.048600  0.652600  0.594000  1.0  -0.1971
  C  C157  1  0.037000  0.300900  0.941300  1.0  0.0095
  C  C158  1  0.073300  0.368700  0.933100  1.0  -0.1166
  C  C159  1  0.032900  0.415000  0.897800  1.0  -0.1885
  C  C160  1  0.976100  0.371300  0.882900  1.0  0.1649
  C  C161  1  0.920600  0.396100  0.847500  1.0  -0.0484
  C  C162  1  0.854700  0.358600  0.834200  1.0  0.0906
  C  C163  1  0.800100  0.382800  0.798000  1.0  -0.1574
  C  C164  1  0.746800  0.328500  0.796500  1.0  -0.1371
  C  C165  1  0.768800  0.271200  0.831800  1.0  0.0672
  C  C166  1  0.931200  0.472800  0.820400  1.0  0.0567
  C  C167  1  0.032200  0.472100  0.798700  1.0  -0.1604
  C  C168  1  0.039800  0.544500  0.774500  1.0  0.1477
  C  C169  1  0.851900  0.620400  0.793600  1.0  0.1597
  C  C170  1  0.838000  0.546500  0.817100  1.0  -0.1303
  C  C171  1  0.874300  0.627100  0.356500  1.0  0.0318
  C  C172  1  0.896200  0.574600  0.322400  1.0  -0.1217
  C  C173  1  0.010700  0.526900  0.315300  1.0  -0.1116
  C  C174  1  0.055900  0.555500  0.344100  1.0  0.1687
  C  C175  1  0.168600  0.528600  0.347000  1.0  -0.0533
  C  C176  1  0.219900  0.555000  0.374600  1.0  0.1454
  C  C177  1  0.333400  0.520000  0.378800  1.0  -0.1127
  C  C178  1  0.341700  0.564600  0.410800  1.0  -0.1
  C  C179  1  0.236800  0.623800  0.425800  1.0  0.0
  C  C180  1  0.248900  0.461200  0.316600  1.0  0.0915
  C  C181  1  0.326400  0.479100  0.284300  1.0  -0.1836
  C  C182  1  0.401500  0.414000  0.256600  1.0  0.1577
  C  C183  1  0.325800  0.317800  0.290600  1.0  0.1481
  C  C184  1  0.248500  0.378300  0.319100  1.0  -0.1874
  C  C185  1  0.066900  0.079900  0.972900  1.0  0.0408
  C  C186  1  0.080400  0.051800  0.015400  1.0  -0.1027
  C  C187  1  0.984300  0.095100  0.041100  1.0  -0.1728
  C  C188  1  0.907400  0.151800  0.014200  1.0  0.1061
  C  C189  1  0.800300  0.209870  0.027130  1.0  -0.0631
  C  C190  1  0.725800  0.269000  0.002600  1.0  0.1383
  C  C191  1  0.618200  0.328400  0.017200  1.0  -0.0979
  C  C192  1  0.577300  0.378200  0.981400  1.0  -0.1245
  C  C193  1  0.661000  0.344900  0.945900  1.0  0.0623
  C  C194  1  0.754200  0.210500  0.075300  1.0  0.0659
  C  C195  1  0.758400  0.268300  0.100700  1.0  -0.1959
  C  C196  1  0.709600  0.270200  0.143800  1.0  0.1457
  C  C197  1  0.657100  0.158300  0.137900  1.0  0.1514
  C  C198  1  0.704800  0.152600  0.094000  1.0  -0.1997
  C  C199  1  0.720800  0.800900  0.441300  1.0  0.0055
  C  C200  1  0.624900  0.868700  0.433100  1.0  -0.1191
  C  C201  1  0.654300  0.915000  0.397800  1.0  -0.1864
  C  C202  1  0.769700  0.871300  0.382900  1.0  0.1646
  C  C203  1  0.835800  0.896100  0.347500  1.0  -0.0486
  C  C204  1  0.952500  0.858600  0.334200  1.0  0.0897
  C  C205  1  0.019100  0.882800  0.298000  1.0  -0.1569
  C  C206  1  0.128200  0.828500  0.296500  1.0  -0.1378
  C  C207  1  0.128200  0.771200  0.331800  1.0  0.0618
  C  C208  1  0.775600  0.972800  0.320400  1.0  0.0537
  C  C209  1  0.697000  0.972100  0.298700  1.0  -0.1606
  C  C210  1  0.641200  0.044500  0.274500  1.0  0.147
  C  C211  1  0.734100  0.120400  0.293600  1.0  0.1604
  C  C212  1  0.798400  0.046500  0.317100  1.0  -0.1268
  C  C213  1  0.125700  0.372900  0.643500  1.0  0.0322
  C  C214  1  0.103800  0.425400  0.677600  1.0  -0.1239
  C  C215  1  0.989300  0.473100  0.684700  1.0  -0.1112
  C  C216  1  0.944100  0.444500  0.655900  1.0  0.1694
  C  C217  1  0.831400  0.471400  0.653000  1.0  -0.0527
  C  C218  1  0.780100  0.445000  0.625400  1.0  0.1468
  C  C219  1  0.666667  0.480000  0.621200  1.0  -0.1114
  C  C220  1  0.658300  0.435400  0.589200  1.0  -0.1
  C  C221  1  0.763200  0.376200  0.574200  1.0  -0.0002
  C  C222  1  0.751100  0.538800  0.683400  1.0  0.0906
  C  C223  1  0.673600  0.520900  0.715700  1.0  -0.1844
  C  C224  1  0.598500  0.586000  0.743400  1.0  0.1588
  C  C225  1  0.674200  0.682200  0.709400  1.0  0.1503
  C  C226  1  0.751500  0.621700  0.680900  1.0  -0.187
  C  C227  1  0.933100  0.920100  0.027100  1.0  0.0398
  C  C228  1  0.919600  0.948200  0.984600  1.0  -0.1033
  C  C229  1  0.015700  0.904900  0.958900  1.0  -0.1734
  C  C230  1  0.092600  0.848200  0.985800  1.0  0.1064
  C  C231  1  0.199700  0.790130  0.972870  1.0  -0.0633
  C  C232  1  0.274200  0.731000  0.997400  1.0  0.1397
  C  C233  1  0.381800  0.671600  0.982800  1.0  -0.0964
  C  C234  1  0.422700  0.621800  0.018600  1.0  -0.1227
  C  C235  1  0.339000  0.655100  0.054100  1.0  0.0625
  C  C236  1  0.245800  0.789500  0.924700  1.0  0.0662
  C  C237  1  0.241600  0.731700  0.899300  1.0  -0.1925
  C  C238  1  0.290400  0.729800  0.856200  1.0  0.1463
  C  C239  1  0.342900  0.841700  0.862100  1.0  0.1539
  C  C240  1  0.295200  0.847400  0.906000  1.0  -0.1976
  C  C241  1  0.279200  0.199100  0.558700  1.0  0.006
  C  C242  1  0.375100  0.131300  0.566900  1.0  -0.1158
  C  C243  1  0.345700  0.085000  0.602200  1.0  -0.1879
  C  C244  1  0.230300  0.128700  0.617100  1.0  0.164
  C  C245  1  0.164200  0.103900  0.652500  1.0  -0.0484
  C  C246  1  0.047500  0.141400  0.665800  1.0  0.0904
  C  C247  1  0.980900  0.117200  0.702000  1.0  -0.1558
  C  C248  1  0.871800  0.171500  0.703500  1.0  -0.1376
  C  C249  1  0.871800  0.228800  0.668200  1.0  0.0687
  C  C250  1  0.224400  0.027200  0.679600  1.0  0.0551
  C  C251  1  0.303000  0.027900  0.701300  1.0  -0.1604
  C  C252  1  0.358800  0.955500  0.725500  1.0  0.147
  C  C253  1  0.265900  0.879600  0.706400  1.0  0.1607
  C  C254  1  0.201600  0.953500  0.682900  1.0  -0.1262
  C  C255  1  0.857900  0.872900  0.143500  1.0  0.0333
  C  C256  1  0.793200  0.925400  0.177600  1.0  -0.1232
  C  C257  1  0.852900  0.973100  0.184700  1.0  -0.11
  C  C258  1  0.955500  0.944500  0.155900  1.0  0.1687
  C  C259  1  0.044200  0.971400  0.153000  1.0  -0.0539
  C  C260  1  0.149500  0.945000  0.125400  1.0  0.1458
  C  C261  1  0.232200  0.980000  0.121200  1.0  -0.1101
  C  C262  1  0.317100  0.935400  0.089200  1.0  -0.1014
  C  C263  1  0.286400  0.876200  0.074200  1.0  0.0005
  C  C264  1  0.026700  0.038800  0.183400  1.0  0.0916
  C  C265  1  0.089800  0.020900  0.215700  1.0  -0.1821
  C  C266  1  0.072100  0.086000  0.243400  1.0  0.1584
  C  C267  1  0.934200  0.182200  0.209400  1.0  0.1494
  C  C268  1  0.945900  0.121700  0.180900  1.0  -0.187
  C  C269  1  0.119700  0.420100  0.527100  1.0  0.0407
  C  C270  1  0.147600  0.448200  0.484600  1.0  -0.1026
  C  C271  1  0.120500  0.404900  0.458900  1.0  -0.1726
  C  C272  1  0.073400  0.348200  0.485800  1.0  0.1061
  C  C273  1  0.037300  0.290130  0.472870  1.0  -0.0617
  C  C274  1  0.997400  0.231000  0.497400  1.0  0.1392
  C  C275  1  0.963800  0.171600  0.482800  1.0  -0.0953
  C  C276  1  0.936900  0.121800  0.518600  1.0  -0.1239
  C  C277  1  0.951800  0.155100  0.554100  1.0  0.0637
  C  C278  1  0.040000  0.289500  0.424700  1.0  0.0658
  C  C279  1  0.127400  0.231700  0.399300  1.0  -0.1947
  C  C280  1  0.123600  0.229800  0.356200  1.0  0.1472
  C  C281  1  0.953300  0.341700  0.362100  1.0  0.1532
  C  C282  1  0.951400  0.347400  0.406000  1.0  -0.2019
  C  C283  1  0.963000  0.699100  0.058700  1.0  0.0097
  C  C284  1  0.926700  0.631300  0.066900  1.0  -0.1146
  C  C285  1  0.967100  0.585000  0.102200  1.0  -0.1878
  C  C286  1  0.023900  0.628700  0.117100  1.0  0.1644
  C  C287  1  0.079400  0.603900  0.152500  1.0  -0.049
  C  C288  1  0.145300  0.641400  0.165800  1.0  0.0905
  C  C289  1  0.199900  0.617200  0.202000  1.0  -0.1591
  C  C290  1  0.253200  0.671500  0.203500  1.0  -0.1374
  C  C291  1  0.231200  0.728800  0.168200  1.0  0.0615
  C  C292  1  0.068800  0.527200  0.179600  1.0  0.057
  C  C293  1  0.967800  0.527900  0.201300  1.0  -0.1609
  C  C294  1  0.960200  0.455500  0.225500  1.0  0.1469
  C  C295  1  0.148100  0.379600  0.206400  1.0  0.1598
  C  C296  1  0.162000  0.453500  0.182900  1.0  -0.1295
  C  C297  1  0.354300  0.504100  0.745700  1.0  0.4632
  C  C298  1  0.604100  0.995900  0.754300  1.0  0.4615
  C  C299  1  0.645700  0.495900  0.254300  1.0  0.4612
  C  C300  1  0.395900  0.004100  0.245700  1.0  0.4631
  S  S301  1  0.313040  0.613800  0.729880  1.0  1.3192
  S  S302  1  0.656720  0.886200  0.770120  1.0  1.3196
  S  S303  1  0.686960  0.386200  0.270120  1.0  1.3195
  S  S304  1  0.343280  0.113800  0.229880  1.0  1.3192
  N  N305  1  0.043800  0.118810  0.868790  1.0  -0.3973
  N  N306  1  0.817520  0.117440  0.904520  1.0  -0.382
  N  N307  1  0.000600  0.836320  0.759880  1.0  -0.3374
  N  N308  1  0.924500  0.639920  0.471480  1.0  -0.4076
  N  N309  1  0.009900  0.781770  0.457030  1.0  -0.4184
  N  N310  1  0.964000  0.717600  0.662000  1.0  -0.3514
  N  N311  1  0.980600  0.299870  0.910530  1.0  -0.3924
  N  N312  1  0.832900  0.287110  0.855090  1.0  -0.4083
  N  N313  1  0.951000  0.617000  0.772000  1.0  -0.3039
  N  N314  1  0.968600  0.618810  0.368790  1.0  -0.3953
  N  N315  1  0.160520  0.617440  0.404520  1.0  -0.3844
  N  N316  1  0.403200  0.336320  0.259880  1.0  -0.3369
  N  N317  1  0.964100  0.139920  0.971480  1.0  -0.407
  N  N318  1  0.751300  0.281770  0.957030  1.0  -0.4195
  N  N319  1  0.656400  0.217600  0.162000  1.0  -0.3484
  N  N320  1  0.809000  0.799870  0.410530  1.0  -0.3953
  N  N321  1  0.024900  0.787110  0.355090  1.0  -0.4115
  N  N322  1  0.660000  0.117000  0.272000  1.0  -0.3056
  N  N323  1  0.031400  0.381190  0.631210  1.0  -0.3968
  N  N324  1  0.839480  0.382560  0.595480  1.0  -0.3823
  N  N325  1  0.596800  0.663680  0.740120  1.0  -0.3346
  N  N326  1  0.035900  0.860080  0.028520  1.0  -0.4055
  N  N327  1  0.248700  0.718230  0.042970  1.0  -0.4205
  N  N328  1  0.343600  0.782400  0.838000  1.0  -0.3468
  N  N329  1  0.191000  0.200130  0.589470  1.0  -0.3941
  N  N330  1  0.975100  0.212890  0.644910  1.0  -0.4113
  N  N331  1  0.340000  0.883000  0.728000  1.0  -0.3074
  N  N332  1  0.956200  0.881190  0.131210  1.0  -0.3978
  N  N333  1  0.182480  0.882560  0.095480  1.0  -0.3839
  N  N334  1  0.999400  0.163680  0.240120  1.0  -0.3376
  N  N335  1  0.075500  0.360080  0.528520  1.0  -0.4058
  N  N336  1  0.990100  0.218230  0.542970  1.0  -0.4185
  N  N337  1  0.036000  0.282400  0.338000  1.0  -0.35
  N  N338  1  0.019400  0.700130  0.089470  1.0  -0.3921
  N  N339  1  0.167100  0.712890  0.144910  1.0  -0.4093
  N  N340  1  0.049000  0.383000  0.228000  1.0  -0.3077
  O  O341  1  0.201700  0.639600  0.722200  1.0  -0.6408
  O  O342  1  0.398800  0.618000  0.692200  1.0  -0.6579
  O  O343  1  0.321600  0.651500  0.767100  1.0  -0.6681
  O  O344  1  0.563500  0.860400  0.777800  1.0  -0.6383
  O  O345  1  0.709000  0.882000  0.807800  1.0  -0.6641
  O  O346  1  0.740200  0.848500  0.732900  1.0  -0.6692
  O  O347  1  0.798300  0.360400  0.277800  1.0  -0.6382
  O  O348  1  0.601200  0.382000  0.307800  1.0  -0.6581
  O  O349  1  0.678400  0.348500  0.232900  1.0  -0.669
  O  O350  1  0.436500  0.139600  0.222200  1.0  -0.6387
  O  O351  1  0.291000  0.118000  0.192200  1.0  -0.6606
  O  O352  1  0.259800  0.151500  0.267100  1.0  -0.6671
  F  F353  1  0.296400  0.486000  0.780000  1.0  -0.1719
  F  F354  1  0.342300  0.459000  0.713800  1.0  -0.2209
  F  F355  1  0.467300  0.462400  0.745000  1.0  -0.1852
  F  F356  1  0.562400  0.014000  0.720000  1.0  -0.1707
  F  F357  1  0.515100  0.041000  0.786200  1.0  -0.2176
  F  F358  1  0.674700  0.037600  0.755000  1.0  -0.1836
  F  F359  1  0.703600  0.514000  0.220000  1.0  -0.1715
  F  F360  1  0.657700  0.541000  0.286200  1.0  -0.2197
  F  F361  1  0.532700  0.537600  0.255000  1.0  -0.1861
  F  F362  1  0.437600  0.986000  0.280000  1.0  -0.1706
  F  F363  1  0.484900  0.959000  0.213800  1.0  -0.2179
  F  F364  1  0.325300  0.962400  0.245000  1.0  -0.1854
