# generated using pymatgen
data_GaAgPH30C42N9F4
_symmetry_space_group_name_H-M   'P 1'
_cell_length_a   16.64410000
_cell_length_b   16.64410000
_cell_length_c   33.14600000
_cell_angle_alpha   114.26480000
_cell_angle_beta   114.26480000
_cell_angle_gamma   45.44070000
_symmetry_Int_Tables_number   1
_chemical_formula_structural   GaAgPH30C42N9F4
_chemical_formula_sum   'Ga4 Ag4 P4 H120 C168 N36 F16'
_cell_volume   5857.40156778
_cell_formula_units_Z   4
loop_
 _symmetry_equiv_pos_site_id
 _symmetry_equiv_pos_as_xyz
  1  'x, y, z'
loop_
 _atom_site_type_symbol
 _atom_site_label
 _atom_site_symmetry_multiplicity
 _atom_site_fract_x
 _atom_site_fract_y
 _atom_site_fract_z
 _atom_site_occupancy
 _atom_site_charge
  Ga  Ga1  1  0.548000  0.582180  0.412390  1.0  1.1983
  Ga  Ga2  1  0.417820  0.452000  0.087610  1.0  1.1991
  Ga  Ga3  1  0.452000  0.417820  0.587610  1.0  1.1989
  Ga  Ga4  1  0.582180  0.548000  0.912390  1.0  1.1989
  Ag  Ag5  1  0.011860  0.422140  0.226450  1.0  0.3338
  Ag  Ag6  1  0.577860  0.988140  0.273550  1.0  0.3348
  Ag  Ag7  1  0.988140  0.577860  0.773550  1.0  0.3352
  Ag  Ag8  1  0.422140  0.011860  0.726450  1.0  0.335
  P  P9  1  0.196730  0.129510  0.214170  1.0  1.7622
  P  P10  1  0.870490  0.803270  0.285830  1.0  1.7647
  P  P11  1  0.803270  0.870490  0.785830  1.0  1.7658
  P  P12  1  0.129510  0.196730  0.714170  1.0  1.7649
  H  H13  1  0.745300  0.320700  0.373200  1.0  0.0782
  H  H14  1  0.718300  0.182300  0.314100  1.0  0.109
  H  H15  1  0.508500  0.284300  0.296100  1.0  0.0953
  H  H16  1  0.146400  0.696000  0.364600  1.0  0.1016
  H  H17  1  0.121200  0.867600  0.420600  1.0  0.1028
  H  H18  1  0.312500  0.818100  0.444900  1.0  0.0764
  H  H19  1  0.365000  0.351400  0.344000  1.0  0.094
  H  H20  1  0.243800  0.314200  0.295400  1.0  0.063
  H  H21  1  0.083500  0.560100  0.233100  1.0  0.0557
  H  H22  1  0.200900  0.605700  0.279300  1.0  0.1077
  H  H23  1  0.368600  0.647400  0.947400  1.0  0.0843
  H  H24  1  0.361700  0.677500  0.027300  1.0  0.095
  H  H25  1  0.553200  0.611400  0.073700  1.0  0.0958
  H  H26  1  0.937400  0.448600  0.036200  1.0  0.0926
  H  H27  1  0.985500  0.421900  0.967300  1.0  0.0976
  H  H28  1  0.810600  0.480200  0.906100  1.0  0.0791
  H  H29  1  0.775600  0.645200  0.092300  1.0  0.0966
  H  H30  1  0.874400  0.611200  0.165800  1.0  0.0689
  H  H31  1  0.892000  0.348600  0.140300  1.0  0.0604
  H  H32  1  0.788800  0.378600  0.067900  1.0  0.1106
  H  H33  1  0.342800  0.720400  0.334800  1.0  0.0925
  H  H34  1  0.359500  0.742500  0.268200  1.0  0.1123
  H  H35  1  0.567700  0.632700  0.274100  1.0  0.1023
  H  H36  1  0.943900  0.409900  0.398600  1.0  0.1076
  H  H37  1  0.976400  0.372800  0.471500  1.0  0.097
  H  H38  1  0.789600  0.449000  0.479400  1.0  0.0793
  H  H39  1  0.870900  0.336300  0.305400  1.0  0.1129
  H  H40  1  0.976600  0.302400  0.263500  1.0  0.0655
  H  H41  1  0.829500  0.625700  0.289500  1.0  0.0576
  H  H42  1  0.715400  0.672800  0.333700  1.0  0.1168
  H  H43  1  0.679300  0.254700  0.126800  1.0  0.0782
  H  H44  1  0.817700  0.281700  0.185900  1.0  0.1102
  H  H45  1  0.715700  0.491500  0.203900  1.0  0.0957
  H  H46  1  0.304000  0.853600  0.135400  1.0  0.1022
  H  H47  1  0.132400  0.878800  0.079400  1.0  0.1032
  H  H48  1  0.181900  0.687500  0.055100  1.0  0.0759
  H  H49  1  0.648600  0.635000  0.156000  1.0  0.0945
  H  H50  1  0.685800  0.756200  0.204600  1.0  0.0627
  H  H51  1  0.439900  0.916500  0.266900  1.0  0.055
  H  H52  1  0.394300  0.799100  0.220700  1.0  0.1082
  H  H53  1  0.352600  0.631400  0.552600  1.0  0.0849
  H  H54  1  0.322500  0.638300  0.472700  1.0  0.0936
  H  H55  1  0.388600  0.446800  0.426300  1.0  0.0969
  H  H56  1  0.551400  0.062600  0.463800  1.0  0.0949
  H  H57  1  0.578100  0.014500  0.532700  1.0  0.1014
  H  H58  1  0.519800  0.189400  0.593900  1.0  0.0786
  H  H59  1  0.354800  0.224400  0.407700  1.0  0.0982
  H  H60  1  0.388800  0.125600  0.334200  1.0  0.0681
  H  H61  1  0.651400  0.108000  0.359700  1.0  0.0588
  H  H62  1  0.621400  0.211200  0.432100  1.0  0.1125
  H  H63  1  0.279600  0.657200  0.165200  1.0  0.0933
  H  H64  1  0.257500  0.640500  0.231800  1.0  0.1119
  H  H65  1  0.367300  0.432300  0.225900  1.0  0.1018
  H  H66  1  0.590100  0.056100  0.101400  1.0  0.1095
  H  H67  1  0.627200  0.023600  0.028500  1.0  0.0985
  H  H68  1  0.551000  0.210400  0.020600  1.0  0.0837
  H  H69  1  0.663700  0.129100  0.194600  1.0  0.1116
  H  H70  1  0.697600  0.023400  0.236500  1.0  0.0625
  H  H71  1  0.374300  0.170500  0.210500  1.0  0.0578
  H  H72  1  0.327200  0.284600  0.166300  1.0  0.1166
  H  H73  1  0.254700  0.679300  0.626800  1.0  0.0787
  H  H74  1  0.281700  0.817700  0.685900  1.0  0.1097
  H  H75  1  0.491500  0.715700  0.703900  1.0  0.0948
  H  H76  1  0.853600  0.304000  0.635400  1.0  0.1021
  H  H77  1  0.878800  0.132400  0.579400  1.0  0.1009
  H  H78  1  0.687500  0.181900  0.555100  1.0  0.0743
  H  H79  1  0.635000  0.648600  0.656000  1.0  0.094
  H  H80  1  0.756200  0.685800  0.704600  1.0  0.0632
  H  H81  1  0.916500  0.439900  0.766900  1.0  0.0559
  H  H82  1  0.799100  0.394300  0.720700  1.0  0.1086
  H  H83  1  0.631400  0.352600  0.052600  1.0  0.0841
  H  H84  1  0.638300  0.322500  0.972700  1.0  0.0935
  H  H85  1  0.446800  0.388600  0.926300  1.0  0.0966
  H  H86  1  0.062600  0.551400  0.963800  1.0  0.0931
  H  H87  1  0.014500  0.578100  0.032700  1.0  0.0978
  H  H88  1  0.189400  0.519800  0.093900  1.0  0.0779
  H  H89  1  0.224400  0.354800  0.907700  1.0  0.0974
  H  H90  1  0.125600  0.388800  0.834200  1.0  0.0677
  H  H91  1  0.108000  0.651400  0.859700  1.0  0.0597
  H  H92  1  0.211200  0.621400  0.932100  1.0  0.1099
  H  H93  1  0.657200  0.279600  0.665200  1.0  0.0924
  H  H94  1  0.640500  0.257500  0.731800  1.0  0.1119
  H  H95  1  0.432300  0.367300  0.725900  1.0  0.1018
  H  H96  1  0.056100  0.590100  0.601400  1.0  0.1078
  H  H97  1  0.023600  0.627200  0.528500  1.0  0.0966
  H  H98  1  0.210400  0.551000  0.520600  1.0  0.0797
  H  H99  1  0.129100  0.663700  0.694600  1.0  0.1147
  H  H100  1  0.023400  0.697600  0.736500  1.0  0.0651
  H  H101  1  0.170500  0.374300  0.710500  1.0  0.0578
  H  H102  1  0.284600  0.327200  0.666300  1.0  0.1172
  H  H103  1  0.320700  0.745300  0.873200  1.0  0.0788
  H  H104  1  0.182300  0.718300  0.814100  1.0  0.1116
  H  H105  1  0.284300  0.508500  0.796100  1.0  0.0965
  H  H106  1  0.696000  0.146400  0.864600  1.0  0.1032
  H  H107  1  0.867600  0.121200  0.920600  1.0  0.1004
  H  H108  1  0.818100  0.312500  0.944900  1.0  0.0743
  H  H109  1  0.351400  0.365000  0.844000  1.0  0.094
  H  H110  1  0.314200  0.243800  0.795400  1.0  0.0631
  H  H111  1  0.560100  0.083500  0.733100  1.0  0.0551
  H  H112  1  0.605700  0.200900  0.779300  1.0  0.1085
  H  H113  1  0.647400  0.368600  0.447400  1.0  0.0838
  H  H114  1  0.677500  0.361700  0.527300  1.0  0.0927
  H  H115  1  0.611400  0.553200  0.573700  1.0  0.0961
  H  H116  1  0.448600  0.937400  0.536200  1.0  0.0944
  H  H117  1  0.421900  0.985500  0.467300  1.0  0.1008
  H  H118  1  0.480200  0.810600  0.406100  1.0  0.0797
  H  H119  1  0.645200  0.775600  0.592300  1.0  0.0994
  H  H120  1  0.611200  0.874400  0.665800  1.0  0.0686
  H  H121  1  0.348600  0.892000  0.640300  1.0  0.0588
  H  H122  1  0.378600  0.788800  0.567900  1.0  0.1131
  H  H123  1  0.720400  0.342800  0.834800  1.0  0.0922
  H  H124  1  0.742500  0.359500  0.768200  1.0  0.1114
  H  H125  1  0.632700  0.567700  0.774100  1.0  0.1017
  H  H126  1  0.409900  0.943900  0.898600  1.0  0.1089
  H  H127  1  0.372800  0.976400  0.971500  1.0  0.0971
  H  H128  1  0.449000  0.789600  0.979400  1.0  0.0851
  H  H129  1  0.336300  0.870900  0.805400  1.0  0.1102
  H  H130  1  0.302400  0.976600  0.763500  1.0  0.064
  H  H131  1  0.625700  0.829500  0.789500  1.0  0.0587
  H  H132  1  0.672800  0.715400  0.833700  1.0  0.116
  C  C133  1  0.673720  0.336720  0.360530  1.0  0.0188
  C  C134  1  0.659830  0.258230  0.327150  1.0  -0.1586
  C  C135  1  0.545220  0.314020  0.317680  1.0  -0.1917
  C  C136  1  0.490510  0.424310  0.345730  1.0  0.1263
  C  C137  1  0.374020  0.510020  0.347960  1.0  -0.0945
  C  C138  1  0.320330  0.619330  0.375560  1.0  0.1524
  C  C139  1  0.204250  0.702850  0.379880  1.0  -0.1306
  C  C140  1  0.190040  0.797440  0.410670  1.0  -0.122
  C  C141  1  0.297540  0.768340  0.423960  1.0  0.0422
  C  C142  1  0.297030  0.483430  0.317500  1.0  0.0737
  C  C143  1  0.307420  0.396220  0.321350  1.0  -0.2258
  C  C144  1  0.234250  0.375050  0.292440  1.0  0.1494
  C  C145  1  0.141670  0.517670  0.256290  1.0  0.1498
  C  C146  1  0.211410  0.545610  0.283630  1.0  -0.2257
  C  C147  1  0.430630  0.629430  0.972230  1.0  0.0182
  C  C148  1  0.425660  0.646660  0.017020  1.0  -0.1521
  C  C149  1  0.530190  0.610590  0.042190  1.0  -0.1841
  C  C150  1  0.599460  0.571260  0.013000  1.0  0.1191
  C  C151  1  0.711290  0.531290  0.024160  1.0  -0.0585
  C  C152  1  0.774070  0.505470  0.996380  1.0  0.1375
  C  C153  1  0.888240  0.463640  0.007540  1.0  -0.1981
  C  C154  1  0.915020  0.448820  0.970020  1.0  -0.1773
  C  C155  1  0.816220  0.481820  0.936080  1.0  0.0307
  C  C156  1  0.772830  0.514030  0.072370  1.0  0.0709
  C  C157  1  0.798120  0.583920  0.101580  1.0  -0.2089
  C  C158  1  0.857970  0.562370  0.145320  1.0  0.1365
  C  C159  1  0.867240  0.410440  0.130540  1.0  0.158
  C  C160  1  0.806670  0.427070  0.087220  1.0  -0.2149
  C  C161  1  0.412280  0.689480  0.329110  1.0  0.011
  C  C162  1  0.420720  0.701520  0.291300  1.0  -0.1583
  C  C163  1  0.534420  0.642420  0.294920  1.0  -0.1024
  C  C164  1  0.593440  0.598640  0.334990  1.0  0.1766
  C  C165  1  0.710980  0.534380  0.351950  1.0  -0.0697
  C  C166  1  0.769690  0.490490  0.391740  1.0  0.1407
  C  C167  1  0.887810  0.431010  0.411080  1.0  -0.1882
  C  C168  1  0.905820  0.410020  0.450720  1.0  -0.1286
  C  C169  1  0.800580  0.453780  0.454820  1.0  0.0343
  C  C170  1  0.783210  0.508410  0.325010  1.0  0.0879
  C  C171  1  0.860720  0.398120  0.303070  1.0  -0.2378
  C  C172  1  0.922800  0.378800  0.277970  1.0  0.1349
  C  C173  1  0.837850  0.566050  0.292890  1.0  0.1377
  C  C174  1  0.769110  0.595510  0.319820  1.0  -0.1736
  C  C175  1  0.663280  0.326280  0.139470  1.0  0.0157
  C  C176  1  0.741770  0.340170  0.172850  1.0  -0.1616
  C  C177  1  0.685980  0.454780  0.182320  1.0  -0.1919
  C  C178  1  0.575690  0.509490  0.154270  1.0  0.1273
  C  C179  1  0.489980  0.625980  0.152040  1.0  -0.0953
  C  C180  1  0.380670  0.679670  0.124440  1.0  0.1519
  C  C181  1  0.297150  0.795750  0.120120  1.0  -0.1273
  C  C182  1  0.202560  0.809960  0.089330  1.0  -0.1223
  C  C183  1  0.231660  0.702460  0.076040  1.0  0.0436
  C  C184  1  0.516570  0.702970  0.182500  1.0  0.0759
  C  C185  1  0.603780  0.692580  0.178650  1.0  -0.2264
  C  C186  1  0.624950  0.765750  0.207560  1.0  0.1499
  C  C187  1  0.482330  0.858330  0.243710  1.0  0.1491
  C  C188  1  0.454390  0.788590  0.216370  1.0  -0.226
  C  C189  1  0.370570  0.569370  0.527770  1.0  0.0163
  C  C190  1  0.353340  0.574340  0.482980  1.0  -0.1506
  C  C191  1  0.389410  0.469810  0.457810  1.0  -0.1849
  C  C192  1  0.428740  0.400540  0.487000  1.0  0.1182
  C  C193  1  0.468710  0.288710  0.475840  1.0  -0.0588
  C  C194  1  0.494530  0.225930  0.503620  1.0  0.1356
  C  C195  1  0.536360  0.111760  0.492460  1.0  -0.2005
  C  C196  1  0.551180  0.084980  0.529980  1.0  -0.1793
  C  C197  1  0.518180  0.183780  0.563920  1.0  0.0317
  C  C198  1  0.485970  0.227170  0.427630  1.0  0.0718
  C  C199  1  0.416080  0.201880  0.398420  1.0  -0.2089
  C  C200  1  0.437630  0.142030  0.354680  1.0  0.1331
  C  C201  1  0.589560  0.132760  0.369460  1.0  0.1572
  C  C202  1  0.572930  0.193330  0.412780  1.0  -0.215
  C  C203  1  0.310520  0.587720  0.170890  1.0  0.0066
  C  C204  1  0.298480  0.579280  0.208700  1.0  -0.1568
  C  C205  1  0.357580  0.465580  0.205080  1.0  -0.1003
  C  C206  1  0.401360  0.406560  0.165010  1.0  0.1741
  C  C207  1  0.465620  0.289020  0.148050  1.0  -0.0709
  C  C208  1  0.509510  0.230310  0.108260  1.0  0.1397
  C  C209  1  0.568990  0.112190  0.088920  1.0  -0.1869
  C  C210  1  0.589980  0.094180  0.049280  1.0  -0.1259
  C  C211  1  0.546220  0.199420  0.045180  1.0  0.034
  C  C212  1  0.491590  0.216790  0.174990  1.0  0.0868
  C  C213  1  0.601880  0.139280  0.196930  1.0  -0.2359
  C  C214  1  0.621200  0.077200  0.222030  1.0  0.1334
  C  C215  1  0.433950  0.162150  0.207110  1.0  0.1363
  C  C216  1  0.404490  0.230890  0.180180  1.0  -0.1726
  C  C217  1  0.326280  0.663280  0.639470  1.0  0.0208
  C  C218  1  0.340170  0.741770  0.672850  1.0  -0.1582
  C  C219  1  0.454780  0.685980  0.682320  1.0  -0.1919
  C  C220  1  0.509490  0.575690  0.654270  1.0  0.1256
  C  C221  1  0.625980  0.489980  0.652040  1.0  -0.0951
  C  C222  1  0.679670  0.380670  0.624440  1.0  0.1509
  C  C223  1  0.795750  0.297150  0.620120  1.0  -0.1274
  C  C224  1  0.809960  0.202560  0.589330  1.0  -0.1241
  C  C225  1  0.702460  0.231660  0.576040  1.0  0.044
  C  C226  1  0.702970  0.516570  0.682500  1.0  0.0732
  C  C227  1  0.692580  0.603780  0.678650  1.0  -0.2246
  C  C228  1  0.765750  0.624950  0.707560  1.0  0.1509
  C  C229  1  0.858330  0.482330  0.743710  1.0  0.1511
  C  C230  1  0.788590  0.454390  0.716370  1.0  -0.2251
  C  C231  1  0.569370  0.370570  0.027770  1.0  0.0207
  C  C232  1  0.574340  0.353340  0.982980  1.0  -0.1524
  C  C233  1  0.469810  0.389410  0.957810  1.0  -0.186
  C  C234  1  0.400540  0.428740  0.987000  1.0  0.1172
  C  C235  1  0.288710  0.468710  0.975840  1.0  -0.0582
  C  C236  1  0.225930  0.494530  0.003620  1.0  0.1361
  C  C237  1  0.111760  0.536360  0.992460  1.0  -0.2023
  C  C238  1  0.084980  0.551180  0.029980  1.0  -0.1788
  C  C239  1  0.183780  0.518180  0.063920  1.0  0.0319
  C  C240  1  0.227170  0.485970  0.927630  1.0  0.0709
  C  C241  1  0.201880  0.416080  0.898420  1.0  -0.2113
  C  C242  1  0.142030  0.437630  0.854680  1.0  0.1349
  C  C243  1  0.132760  0.589560  0.869460  1.0  0.1572
  C  C244  1  0.193330  0.572930  0.912780  1.0  -0.2145
  C  C245  1  0.587720  0.310520  0.670890  1.0  0.0075
  C  C246  1  0.579280  0.298480  0.708700  1.0  -0.1566
  C  C247  1  0.465580  0.357580  0.705080  1.0  -0.1022
  C  C248  1  0.406560  0.401360  0.665010  1.0  0.1738
  C  C249  1  0.289020  0.465620  0.648050  1.0  -0.0709
  C  C250  1  0.230310  0.509510  0.608260  1.0  0.1395
  C  C251  1  0.112190  0.568990  0.588920  1.0  -0.189
  C  C252  1  0.094180  0.589980  0.549280  1.0  -0.1299
  C  C253  1  0.199420  0.546220  0.545180  1.0  0.0325
  C  C254  1  0.216790  0.491590  0.674990  1.0  0.0863
  C  C255  1  0.139280  0.601880  0.696930  1.0  -0.237
  C  C256  1  0.077200  0.621200  0.722030  1.0  0.1347
  C  C257  1  0.162150  0.433950  0.707110  1.0  0.1376
  C  C258  1  0.230890  0.404490  0.680180  1.0  -0.1744
  C  C259  1  0.336720  0.673720  0.860530  1.0  0.0143
  C  C260  1  0.258230  0.659830  0.827150  1.0  -0.1607
  C  C261  1  0.314020  0.545220  0.817680  1.0  -0.1906
  C  C262  1  0.424310  0.490510  0.845730  1.0  0.1277
  C  C263  1  0.510020  0.374020  0.847960  1.0  -0.0941
  C  C264  1  0.619330  0.320330  0.875560  1.0  0.151
  C  C265  1  0.702850  0.204250  0.879880  1.0  -0.1279
  C  C266  1  0.797440  0.190040  0.910670  1.0  -0.1251
  C  C267  1  0.768340  0.297540  0.923960  1.0  0.0461
  C  C268  1  0.483430  0.297030  0.817500  1.0  0.0762
  C  C269  1  0.396220  0.307420  0.821350  1.0  -0.226
  C  C270  1  0.375050  0.234250  0.792440  1.0  0.1503
  C  C271  1  0.517670  0.141670  0.756290  1.0  0.1486
  C  C272  1  0.545610  0.211410  0.783630  1.0  -0.226
  C  C273  1  0.629430  0.430630  0.472230  1.0  0.0176
  C  C274  1  0.646660  0.425660  0.517020  1.0  -0.1492
  C  C275  1  0.610590  0.530190  0.542190  1.0  -0.1847
  C  C276  1  0.571260  0.599460  0.513000  1.0  0.1185
  C  C277  1  0.531290  0.711290  0.524160  1.0  -0.0588
  C  C278  1  0.505470  0.774070  0.496380  1.0  0.1353
  C  C279  1  0.463640  0.888240  0.507540  1.0  -0.2019
  C  C280  1  0.448820  0.915020  0.470020  1.0  -0.177
  C  C281  1  0.481820  0.816220  0.436080  1.0  0.0301
  C  C282  1  0.514030  0.772830  0.572370  1.0  0.0712
  C  C283  1  0.583920  0.798120  0.601580  1.0  -0.2064
  C  C284  1  0.562370  0.857970  0.645320  1.0  0.1331
  C  C285  1  0.410440  0.867240  0.630540  1.0  0.1591
  C  C286  1  0.427070  0.806670  0.587220  1.0  -0.2158
  C  C287  1  0.689480  0.412280  0.829110  1.0  0.0068
  C  C288  1  0.701520  0.420720  0.791300  1.0  -0.1569
  C  C289  1  0.642420  0.534420  0.794920  1.0  -0.1016
  C  C290  1  0.598640  0.593440  0.834990  1.0  0.1766
  C  C291  1  0.534380  0.710980  0.851950  1.0  -0.0701
  C  C292  1  0.490490  0.769690  0.891740  1.0  0.1396
  C  C293  1  0.431010  0.887810  0.911080  1.0  -0.1863
  C  C294  1  0.410020  0.905820  0.950720  1.0  -0.1241
  C  C295  1  0.453780  0.800580  0.954820  1.0  0.0306
  C  C296  1  0.508410  0.783210  0.825010  1.0  0.088
  C  C297  1  0.398120  0.860720  0.803070  1.0  -0.2362
  C  C298  1  0.378800  0.922800  0.777970  1.0  0.1348
  C  C299  1  0.566050  0.837850  0.792890  1.0  0.137
  C  C300  1  0.595510  0.769110  0.819820  1.0  -0.1705
  N  N301  1  0.574160  0.435560  0.371910  1.0  -0.3958
  N  N302  1  0.377450  0.662450  0.403900  1.0  -0.3884
  N  N303  1  0.151450  0.435050  0.260700  1.0  -0.318
  N  N304  1  0.533430  0.584830  0.969220  1.0  -0.4019
  N  N305  1  0.731230  0.515830  0.951140  1.0  -0.4217
  N  N306  1  0.892530  0.476530  0.159330  1.0  -0.3402
  N  N307  1  0.514710  0.629110  0.355420  1.0  -0.3991
  N  N308  1  0.717440  0.503040  0.420550  1.0  -0.4053
  N  N309  1  0.911210  0.462010  0.272850  1.0  -0.3323
  N  N310  1  0.564440  0.425840  0.128090  1.0  -0.3957
  N  N311  1  0.337550  0.622550  0.096100  1.0  -0.3888
  N  N312  1  0.564950  0.848550  0.239300  1.0  -0.3176
  N  N313  1  0.415170  0.466570  0.530780  1.0  -0.4005
  N  N314  1  0.484170  0.268770  0.548860  1.0  -0.4214
  N  N315  1  0.523470  0.107470  0.340670  1.0  -0.3414
  N  N316  1  0.370890  0.485290  0.144580  1.0  -0.3993
  N  N317  1  0.496960  0.282560  0.079450  1.0  -0.4073
  N  N318  1  0.537990  0.088790  0.227150  1.0  -0.3385
  N  N319  1  0.425840  0.564440  0.628090  1.0  -0.3957
  N  N320  1  0.622550  0.337550  0.596100  1.0  -0.39
  N  N321  1  0.848550  0.564950  0.739300  1.0  -0.319
  N  N322  1  0.466570  0.415170  0.030780  1.0  -0.4021
  N  N323  1  0.268770  0.484170  0.048860  1.0  -0.4205
  N  N324  1  0.107470  0.523470  0.840670  1.0  -0.3411
  N  N325  1  0.485290  0.370890  0.644580  1.0  -0.3987
  N  N326  1  0.282560  0.496960  0.579450  1.0  -0.4061
  N  N327  1  0.088790  0.537990  0.727150  1.0  -0.333
  N  N328  1  0.435560  0.574160  0.871910  1.0  -0.3966
  N  N329  1  0.662450  0.377450  0.903900  1.0  -0.3878
  N  N330  1  0.435050  0.151450  0.760700  1.0  -0.3175
  N  N331  1  0.584830  0.533430  0.469220  1.0  -0.3994
  N  N332  1  0.515830  0.731230  0.451140  1.0  -0.423
  N  N333  1  0.476530  0.892530  0.659330  1.0  -0.3415
  N  N334  1  0.629110  0.514710  0.855420  1.0  -0.3991
  N  N335  1  0.503040  0.717440  0.920550  1.0  -0.4095
  N  N336  1  0.462010  0.911210  0.772850  1.0  -0.3368
  F  F337  1  0.200150  0.033750  0.211760  1.0  -0.3863
  F  F338  1  0.279010  0.052010  0.180310  1.0  -0.3703
  F  F339  1  0.084200  0.222600  0.197160  1.0  -0.3128
  F  F340  1  0.261950  0.141550  0.256540  1.0  -0.2269
  F  F341  1  0.966250  0.799850  0.288240  1.0  -0.3852
  F  F342  1  0.947990  0.720990  0.319690  1.0  -0.3695
  F  F343  1  0.777400  0.915800  0.302840  1.0  -0.3175
  F  F344  1  0.858450  0.738050  0.243460  1.0  -0.2278
  F  F345  1  0.799850  0.966250  0.788240  1.0  -0.3877
  F  F346  1  0.720990  0.947990  0.819690  1.0  -0.3714
  F  F347  1  0.915800  0.777400  0.802840  1.0  -0.3124
  F  F348  1  0.738050  0.858450  0.743460  1.0  -0.2282
  F  F349  1  0.033750  0.200150  0.711760  1.0  -0.3856
  F  F350  1  0.052010  0.279010  0.680310  1.0  -0.3705
  F  F351  1  0.222600  0.084200  0.697160  1.0  -0.3188
  F  F352  1  0.141550  0.261950  0.756540  1.0  -0.2273
