# generated using pymatgen
data_InAgPH30C42(N3F2)3
_symmetry_space_group_name_H-M   'P 1'
_cell_length_a   17.16790000
_cell_length_b   17.16790000
_cell_length_c   33.71500000
_cell_angle_alpha   113.38210000
_cell_angle_beta   113.38210000
_cell_angle_gamma   44.00470000
_symmetry_Int_Tables_number   1
_chemical_formula_structural   InAgPH30C42(N3F2)3
_chemical_formula_sum   'In4 Ag4 P4 H120 C168 N36 F24'
_cell_volume   6239.06749490
_cell_formula_units_Z   4
loop_
 _symmetry_equiv_pos_site_id
 _symmetry_equiv_pos_as_xyz
  1  'x, y, z'
loop_
 _atom_site_type_symbol
 _atom_site_label
 _atom_site_symmetry_multiplicity
 _atom_site_fract_x
 _atom_site_fract_y
 _atom_site_fract_z
 _atom_site_occupancy
 _atom_site_charge
  In  In1  1  0.973260  0.911420  0.590170  1.0  1.3048
  In  In2  1  0.088580  0.026740  0.909830  1.0  1.3032
  In  In3  1  0.026740  0.088580  0.409830  1.0  1.3025
  In  In4  1  0.911420  0.973260  0.090170  1.0  1.3047
  Ag  Ag5  1  0.532480  0.017280  0.769510  1.0  0.3562
  Ag  Ag6  1  0.982720  0.467520  0.730490  1.0  0.3568
  Ag  Ag7  1  0.467520  0.982720  0.230490  1.0  0.3555
  Ag  Ag8  1  0.017280  0.532480  0.269510  1.0  0.3567
  P  P9  1  0.682110  0.665850  0.724860  1.0  1.5359
  P  P10  1  0.334150  0.317890  0.775140  1.0  1.5407
  P  P11  1  0.317890  0.334150  0.275140  1.0  1.5442
  P  P12  1  0.665850  0.682110  0.224860  1.0  1.5479
  H  H13  1  0.790900  0.180900  0.635800  1.0  0.0978
  H  H14  1  0.831800  0.300400  0.694700  1.0  0.1224
  H  H15  1  0.042600  0.180400  0.708400  1.0  0.105
  H  H16  1  0.390000  0.768200  0.636000  1.0  0.1132
  H  H17  1  0.406500  0.614500  0.578300  1.0  0.1154
  H  H18  1  0.216000  0.674200  0.554600  1.0  0.094
  H  H19  1  0.336500  0.854900  0.720300  1.0  0.1276
  H  H20  1  0.455600  0.888400  0.765400  1.0  0.0742
  H  H21  1  0.307600  0.130600  0.704800  1.0  0.0854
  H  H22  1  0.179800  0.111600  0.659900  1.0  0.1011
  H  H23  1  0.709700  0.085100  0.538000  1.0  0.0956
  H  H24  1  0.529200  0.157400  0.550000  1.0  0.1183
  H  H25  1  0.586400  0.072800  0.612800  1.0  0.1102
  H  H26  1  0.972500  0.819700  0.724000  1.0  0.1001
  H  H27  1  0.172900  0.719700  0.729000  1.0  0.1172
  H  H28  1  0.180500  0.763300  0.668300  1.0  0.0899
  H  H29  1  0.655500  0.122900  0.698800  1.0  0.1275
  H  H30  1  0.562600  0.137000  0.739100  1.0  0.0683
  H  H31  1  0.730500  0.810500  0.704200  1.0  0.078
  H  H32  1  0.832300  0.786900  0.664300  1.0  0.1161
  H  H33  1  0.127500  0.866700  0.051800  1.0  0.1013
  H  H34  1  0.148300  0.818100  0.973700  1.0  0.1113
  H  H35  1  0.963700  0.875700  0.927200  1.0  0.1129
  H  H36  1  0.580800  0.040800  0.956900  1.0  0.1259
  H  H37  1  0.514000  0.090800  0.023400  1.0  0.1025
  H  H38  1  0.666500  0.055500  0.087700  1.0  0.0932
  H  H39  1  0.710300  0.106900  0.923900  1.0  0.1207
  H  H40  1  0.620100  0.114500  0.850100  1.0  0.0815
  H  H41  1  0.695400  0.831400  0.838100  1.0  0.0762
  H  H42  1  0.783600  0.817800  0.910900  1.0  0.1229
  H  H43  1  0.819100  0.209100  0.864200  1.0  0.0993
  H  H44  1  0.699600  0.168200  0.805300  1.0  0.1239
  H  H45  1  0.819600  0.957400  0.791600  1.0  0.1071
  H  H46  1  0.231800  0.610000  0.864000  1.0  0.1132
  H  H47  1  0.385500  0.593500  0.921700  1.0  0.1147
  H  H48  1  0.325800  0.784000  0.945400  1.0  0.091
  H  H49  1  0.145100  0.663500  0.779700  1.0  0.1268
  H  H50  1  0.111600  0.544400  0.734600  1.0  0.0739
  H  H51  1  0.869400  0.692400  0.795200  1.0  0.0857
  H  H52  1  0.888400  0.820200  0.840100  1.0  0.1009
  H  H53  1  0.914900  0.290300  0.962000  1.0  0.099
  H  H54  1  0.842600  0.470800  0.950000  1.0  0.1193
  H  H55  1  0.927200  0.413600  0.887200  1.0  0.11
  H  H56  1  0.180300  0.027500  0.776000  1.0  0.1005
  H  H57  1  0.280300  0.827100  0.771000  1.0  0.1176
  H  H58  1  0.236700  0.819500  0.831700  1.0  0.0904
  H  H59  1  0.877100  0.344500  0.801200  1.0  0.1288
  H  H60  1  0.863000  0.437400  0.760900  1.0  0.0695
  H  H61  1  0.189500  0.269500  0.795800  1.0  0.0787
  H  H62  1  0.213100  0.167700  0.835700  1.0  0.1185
  H  H63  1  0.133300  0.872500  0.448200  1.0  0.1016
  H  H64  1  0.181900  0.851700  0.526300  1.0  0.1076
  H  H65  1  0.124300  0.036300  0.572800  1.0  0.1103
  H  H66  1  0.959200  0.419200  0.543100  1.0  0.1265
  H  H67  1  0.909200  0.486000  0.476600  1.0  0.1086
  H  H68  1  0.944500  0.333500  0.412300  1.0  0.0944
  H  H69  1  0.893100  0.289700  0.576100  1.0  0.1186
  H  H70  1  0.885500  0.379900  0.649900  1.0  0.0807
  H  H71  1  0.168600  0.304600  0.661900  1.0  0.0769
  H  H72  1  0.182200  0.216400  0.589100  1.0  0.1235
  H  H73  1  0.209100  0.819100  0.364200  1.0  0.0973
  H  H74  1  0.168200  0.699600  0.305300  1.0  0.1218
  H  H75  1  0.957400  0.819600  0.291600  1.0  0.1065
  H  H76  1  0.610000  0.231800  0.364000  1.0  0.1133
  H  H77  1  0.593500  0.385500  0.421700  1.0  0.1154
  H  H78  1  0.784000  0.325800  0.445400  1.0  0.0944
  H  H79  1  0.663500  0.145100  0.279700  1.0  0.1253
  H  H80  1  0.544400  0.111600  0.234600  1.0  0.0732
  H  H81  1  0.692400  0.869400  0.295200  1.0  0.0855
  H  H82  1  0.820200  0.888400  0.340100  1.0  0.101
  H  H83  1  0.290300  0.914900  0.462000  1.0  0.0949
  H  H84  1  0.470800  0.842600  0.450000  1.0  0.1178
  H  H85  1  0.413600  0.927200  0.387200  1.0  0.1119
  H  H86  1  0.027500  0.180300  0.276000  1.0  0.1026
  H  H87  1  0.827100  0.280300  0.271000  1.0  0.1182
  H  H88  1  0.819500  0.236700  0.331700  1.0  0.0898
  H  H89  1  0.344500  0.877100  0.301200  1.0  0.1293
  H  H90  1  0.437400  0.863000  0.260900  1.0  0.0683
  H  H91  1  0.269500  0.189500  0.295800  1.0  0.0765
  H  H92  1  0.167700  0.213100  0.335700  1.0  0.1187
  H  H93  1  0.872500  0.133300  0.948200  1.0  0.1007
  H  H94  1  0.851700  0.181900  0.026300  1.0  0.111
  H  H95  1  0.036300  0.124300  0.072800  1.0  0.1103
  H  H96  1  0.419200  0.959200  0.043100  1.0  0.1255
  H  H97  1  0.486000  0.909200  0.976600  1.0  0.1073
  H  H98  1  0.333500  0.944500  0.912300  1.0  0.0932
  H  H99  1  0.289700  0.893100  0.076100  1.0  0.1189
  H  H100  1  0.379900  0.885500  0.149900  1.0  0.0814
  H  H101  1  0.304600  0.168600  0.161900  1.0  0.0763
  H  H102  1  0.216400  0.182200  0.089100  1.0  0.123
  H  H103  1  0.180900  0.790900  0.135800  1.0  0.098
  H  H104  1  0.300400  0.831800  0.194700  1.0  0.1228
  H  H105  1  0.180400  0.042600  0.208400  1.0  0.105
  H  H106  1  0.768200  0.390000  0.136000  1.0  0.1131
  H  H107  1  0.614500  0.406500  0.078300  1.0  0.1151
  H  H108  1  0.674200  0.216000  0.054600  1.0  0.0914
  H  H109  1  0.854900  0.336500  0.220300  1.0  0.1272
  H  H110  1  0.888400  0.455600  0.265400  1.0  0.0735
  H  H111  1  0.130600  0.307600  0.204800  1.0  0.0854
  H  H112  1  0.111600  0.179800  0.159900  1.0  0.1013
  H  H113  1  0.085100  0.709700  0.038000  1.0  0.098
  H  H114  1  0.157400  0.529200  0.050000  1.0  0.1202
  H  H115  1  0.072800  0.586400  0.112800  1.0  0.1118
  H  H116  1  0.819700  0.972500  0.224000  1.0  0.1024
  H  H117  1  0.719700  0.172900  0.229000  1.0  0.1183
  H  H118  1  0.763300  0.180500  0.168300  1.0  0.0914
  H  H119  1  0.122900  0.655500  0.198800  1.0  0.1264
  H  H120  1  0.137000  0.562600  0.239100  1.0  0.0674
  H  H121  1  0.810500  0.730500  0.204200  1.0  0.0785
  H  H122  1  0.786900  0.832300  0.164300  1.0  0.1212
  H  H123  1  0.866700  0.127500  0.551800  1.0  0.1019
  H  H124  1  0.818100  0.148300  0.473700  1.0  0.1101
  H  H125  1  0.875700  0.963700  0.427200  1.0  0.1111
  H  H126  1  0.040800  0.580800  0.456900  1.0  0.1272
  H  H127  1  0.090800  0.514000  0.523400  1.0  0.1062
  H  H128  1  0.055500  0.666500  0.587700  1.0  0.0939
  H  H129  1  0.106900  0.710300  0.423900  1.0  0.1201
  H  H130  1  0.114500  0.620100  0.350100  1.0  0.081
  H  H131  1  0.831400  0.695400  0.338100  1.0  0.0762
  H  H132  1  0.817800  0.783600  0.410900  1.0  0.1232
  C  C133  1  0.864330  0.157130  0.647040  1.0  0.0414
  C  C134  1  0.885900  0.225100  0.680330  1.0  -0.1641
  C  C135  1  0.001520  0.158920  0.687430  1.0  -0.091
  C  C136  1  0.049220  0.054220  0.658540  1.0  0.11
  C  C137  1  0.164730  0.961930  0.654940  1.0  -0.0646
  C  C138  1  0.213260  0.857060  0.626650  1.0  0.1051
  C  C139  1  0.330340  0.767940  0.620680  1.0  -0.1824
  C  C140  1  0.339400  0.684200  0.589420  1.0  -0.1029
  C  C141  1  0.232290  0.718690  0.576410  1.0  0.0762
  C  C142  1  0.243250  0.979050  0.684240  1.0  0.0674
  C  C143  1  0.327850  0.912850  0.716510  1.0  -0.207
  C  C144  1  0.399490  0.933090  0.743050  1.0  0.1564
  C  C145  1  0.312700  0.074500  0.708030  1.0  0.166
  C  C146  1  0.237010  0.063010  0.681030  1.0  -0.1774
  C  C147  1  0.705200  0.068600  0.560400  1.0  0.064
  C  C148  1  0.603500  0.109300  0.566400  1.0  -0.1702
  C  C149  1  0.635600  0.063600  0.601400  1.0  -0.1057
  C  C150  1  0.751670  0.001870  0.617390  1.0  0.1688
  C  C151  1  0.818090  0.941290  0.651740  1.0  -0.0574
  C  C152  1  0.935240  0.873040  0.666667  1.0  0.1098
  C  C153  1  0.001200  0.818200  0.704510  1.0  -0.1622
  C  C154  1  0.110300  0.764700  0.707640  1.0  -0.1522
  C  C155  1  0.114000  0.788000  0.672940  1.0  0.0297
  C  C156  1  0.755680  0.951080  0.676800  1.0  0.0735
  C  C157  1  0.673170  0.056770  0.699640  1.0  -0.218
  C  C158  1  0.617600  0.064600  0.723400  1.0  0.1698
  C  C159  1  0.715700  0.874900  0.703300  1.0  0.1492
  C  C160  1  0.776400  0.860400  0.679130  1.0  -0.1191
  C  C161  1  0.070670  0.877670  0.026970  1.0  0.0805
  C  C162  1  0.083530  0.850730  0.983420  1.0  -0.0894
  C  C163  1  0.982860  0.881460  0.958160  1.0  -0.1708
  C  C164  1  0.911780  0.923580  0.986340  1.0  0.135
  C  C165  1  0.803100  0.960900  0.973540  1.0  -0.0495
  C  C166  1  0.730440  0.998240  0.999950  1.0  0.1577
  C  C167  1  0.621700  0.035500  0.986100  1.0  -0.1018
  C  C168  1  0.585300  0.062900  0.022600  1.0  -0.1207
  C  C169  1  0.670600  0.043200  0.058300  1.0  0.0213
  C  C170  1  0.752050  0.963850  0.925870  1.0  0.0624
  C  C171  1  0.706300  0.050100  0.907130  1.0  -0.1504
  C  C172  1  0.653160  0.053560  0.862650  1.0  0.1597
  C  C173  1  0.696550  0.889550  0.855850  1.0  0.1678
  C  C174  1  0.749540  0.880740  0.899500  1.0  -0.216
  C  C175  1  0.842870  0.135670  0.852960  1.0  0.0358
  C  C176  1  0.774900  0.114100  0.819670  1.0  -0.1681
  C  C177  1  0.841080  0.998480  0.812570  1.0  -0.0902
  C  C178  1  0.945780  0.950780  0.841460  1.0  0.1122
  C  C179  1  0.038070  0.835270  0.845060  1.0  -0.0642
  C  C180  1  0.142940  0.786740  0.873350  1.0  0.1042
  C  C181  1  0.232060  0.669660  0.879320  1.0  -0.1814
  C  C182  1  0.315800  0.660600  0.910580  1.0  -0.0998
  C  C183  1  0.281310  0.767710  0.923590  1.0  0.0776
  C  C184  1  0.020950  0.756750  0.815760  1.0  0.068
  C  C185  1  0.087150  0.672150  0.783490  1.0  -0.2032
  C  C186  1  0.066910  0.600510  0.756950  1.0  0.1554
  C  C187  1  0.925500  0.687300  0.791970  1.0  0.1651
  C  C188  1  0.936990  0.762990  0.818970  1.0  -0.1789
  C  C189  1  0.931400  0.294800  0.939600  1.0  0.0624
  C  C190  1  0.890700  0.396500  0.933600  1.0  -0.1646
  C  C191  1  0.936400  0.364400  0.898600  1.0  -0.1085
  C  C192  1  0.998130  0.248330  0.882610  1.0  0.1689
  C  C193  1  0.058710  0.181910  0.848260  1.0  -0.0581
  C  C194  1  0.126960  0.064760  0.833400  1.0  0.1093
  C  C195  1  0.181800  0.998800  0.795490  1.0  -0.1639
  C  C196  1  0.235300  0.889700  0.792360  1.0  -0.1515
  C  C197  1  0.212000  0.886000  0.827060  1.0  0.0276
  C  C198  1  0.048920  0.244320  0.823200  1.0  0.0746
  C  C199  1  0.943230  0.326830  0.800360  1.0  -0.2161
  C  C200  1  0.935400  0.382400  0.776600  1.0  0.1687
  C  C201  1  0.125100  0.284300  0.796700  1.0  0.1519
  C  C202  1  0.139600  0.223600  0.820870  1.0  -0.1148
  C  C203  1  0.122330  0.929330  0.473030  1.0  0.0763
  C  C204  1  0.149270  0.916470  0.516580  1.0  -0.088
  C  C205  1  0.118540  0.017140  0.541840  1.0  -0.1704
  C  C206  1  0.076420  0.088220  0.513660  1.0  0.1367
  C  C207  1  0.039100  0.196900  0.526460  1.0  -0.0502
  C  C208  1  0.001760  0.269560  0.500050  1.0  0.156
  C  C209  1  0.964500  0.378300  0.513900  1.0  -0.0993
  C  C210  1  0.937100  0.414700  0.477400  1.0  -0.121
  C  C211  1  0.956800  0.329400  0.441700  1.0  0.0182
  C  C212  1  0.036150  0.247950  0.574130  1.0  0.062
  C  C213  1  0.949900  0.293700  0.592870  1.0  -0.152
  C  C214  1  0.946440  0.346840  0.637350  1.0  0.1625
  C  C215  1  0.110450  0.303450  0.644150  1.0  0.167
  C  C216  1  0.119260  0.250460  0.600500  1.0  -0.2195
  C  C217  1  0.135670  0.842870  0.352960  1.0  0.0429
  C  C218  1  0.114100  0.774900  0.319670  1.0  -0.1632
  C  C219  1  0.998480  0.841080  0.312570  1.0  -0.0902
  C  C220  1  0.950780  0.945780  0.341460  1.0  0.1111
  C  C221  1  0.835270  0.038070  0.345060  1.0  -0.0638
  C  C222  1  0.786740  0.142940  0.373350  1.0  0.1051
  C  C223  1  0.669660  0.232060  0.379320  1.0  -0.1832
  C  C224  1  0.660600  0.315800  0.410580  1.0  -0.1003
  C  C225  1  0.767710  0.281310  0.423590  1.0  0.0781
  C  C226  1  0.756750  0.020950  0.315760  1.0  0.0675
  C  C227  1  0.672150  0.087150  0.283490  1.0  -0.2022
  C  C228  1  0.600510  0.066910  0.256950  1.0  0.1554
  C  C229  1  0.687300  0.925500  0.291970  1.0  0.1653
  C  C230  1  0.762990  0.936990  0.318970  1.0  -0.1782
  C  C231  1  0.294800  0.931400  0.439600  1.0  0.0666
  C  C232  1  0.396500  0.890700  0.433600  1.0  -0.1688
  C  C233  1  0.364400  0.936400  0.398600  1.0  -0.1041
  C  C234  1  0.248330  0.998130  0.382610  1.0  0.1666
  C  C235  1  0.181910  0.058710  0.348260  1.0  -0.0574
  C  C236  1  0.064760  0.126960  0.333400  1.0  0.1076
  C  C237  1  0.998800  0.181800  0.295490  1.0  -0.1645
  C  C238  1  0.889700  0.235300  0.292360  1.0  -0.1526
  C  C239  1  0.886000  0.212000  0.327060  1.0  0.0321
  C  C240  1  0.244320  0.048920  0.323200  1.0  0.0743
  C  C241  1  0.326830  0.943230  0.300360  1.0  -0.2207
  C  C242  1  0.382400  0.935400  0.276600  1.0  0.1689
  C  C243  1  0.284300  0.125100  0.296700  1.0  0.1512
  C  C244  1  0.223600  0.139600  0.320870  1.0  -0.1175
  C  C245  1  0.929330  0.122330  0.973030  1.0  0.0789
  C  C246  1  0.916470  0.149270  0.016580  1.0  -0.0897
  C  C247  1  0.017140  0.118540  0.041840  1.0  -0.1711
  C  C248  1  0.088220  0.076420  0.013660  1.0  0.138
  C  C249  1  0.196900  0.039100  0.026460  1.0  -0.05
  C  C250  1  0.269560  0.001760  0.000050  1.0  0.1566
  C  C251  1  0.378300  0.964500  0.013900  1.0  -0.0962
  C  C252  1  0.414700  0.937100  0.977400  1.0  -0.1204
  C  C253  1  0.329400  0.956800  0.941700  1.0  0.0237
  C  C254  1  0.247950  0.036150  0.074130  1.0  0.0622
  C  C255  1  0.293700  0.949900  0.092870  1.0  -0.1505
  C  C256  1  0.346840  0.946440  0.137350  1.0  0.1615
  C  C257  1  0.303450  0.110450  0.144150  1.0  0.1673
  C  C258  1  0.250460  0.119260  0.100500  1.0  -0.2185
  C  C259  1  0.157130  0.864330  0.147040  1.0  0.0353
  C  C260  1  0.225100  0.885900  0.180330  1.0  -0.1637
  C  C261  1  0.158920  0.001520  0.187430  1.0  -0.0908
  C  C262  1  0.054220  0.049220  0.158540  1.0  0.1122
  C  C263  1  0.961930  0.164730  0.154940  1.0  -0.0645
  C  C264  1  0.857060  0.213260  0.126650  1.0  0.1051
  C  C265  1  0.767940  0.330340  0.120680  1.0  -0.1823
  C  C266  1  0.684200  0.339400  0.089420  1.0  -0.1003
  C  C267  1  0.718690  0.232290  0.076410  1.0  0.0749
  C  C268  1  0.979050  0.243250  0.184240  1.0  0.0679
  C  C269  1  0.912850  0.327850  0.216510  1.0  -0.2069
  C  C270  1  0.933090  0.399490  0.243050  1.0  0.1556
  C  C271  1  0.074500  0.312700  0.208030  1.0  0.1659
  C  C272  1  0.063010  0.237010  0.181030  1.0  -0.178
  C  C273  1  0.068600  0.705200  0.060400  1.0  0.0622
  C  C274  1  0.109300  0.603500  0.066400  1.0  -0.1658
  C  C275  1  0.063600  0.635600  0.101400  1.0  -0.1026
  C  C276  1  0.001870  0.751670  0.117390  1.0  0.1677
  C  C277  1  0.941290  0.818090  0.151740  1.0  -0.057
  C  C278  1  0.873040  0.935240  0.166600  1.0  0.1084
  C  C279  1  0.818200  0.001200  0.204510  1.0  -0.1633
  C  C280  1  0.764700  0.110300  0.207640  1.0  -0.1511
  C  C281  1  0.788000  0.114000  0.172940  1.0  0.025
  C  C282  1  0.951080  0.755680  0.176800  1.0  0.0735
  C  C283  1  0.056770  0.673170  0.199640  1.0  -0.2144
  C  C284  1  0.064600  0.617600  0.223400  1.0  0.1689
  C  C285  1  0.874900  0.715700  0.203300  1.0  0.1507
  C  C286  1  0.860400  0.776400  0.179130  1.0  -0.1152
  C  C287  1  0.877670  0.070670  0.526970  1.0  0.0754
  C  C288  1  0.850730  0.083530  0.483420  1.0  -0.0879
  C  C289  1  0.881460  0.982860  0.458160  1.0  -0.1699
  C  C290  1  0.923580  0.911780  0.486340  1.0  0.1377
  C  C291  1  0.960900  0.803100  0.473540  1.0  -0.05
  C  C292  1  0.998240  0.730440  0.499950  1.0  0.1561
  C  C293  1  0.035500  0.621700  0.486100  1.0  -0.1003
  C  C294  1  0.062900  0.585300  0.522600  1.0  -0.1214
  C  C295  1  0.043200  0.670600  0.558300  1.0  0.0181
  C  C296  1  0.963850  0.752050  0.425870  1.0  0.0616
  C  C297  1  0.050100  0.706300  0.407130  1.0  -0.1508
  C  C298  1  0.053560  0.653160  0.362650  1.0  0.1607
  C  C299  1  0.889550  0.696550  0.355850  1.0  0.1677
  C  C300  1  0.880740  0.749540  0.399500  1.0  -0.2171
  N  N301  1  0.960430  0.054830  0.633270  1.0  -0.4334
  N  N302  1  0.154800  0.820800  0.597810  1.0  -0.4112
  N  N303  1  0.395090  0.009890  0.739430  1.0  -0.3366
  N  N304  1  0.794990  0.003790  0.590160  1.0  -0.4012
  N  N305  1  0.011510  0.849510  0.647540  1.0  -0.3896
  N  N306  1  0.637210  0.976810  0.725400  1.0  -0.3286
  N  N307  1  0.971530  0.919730  0.029500  1.0  -0.3869
  N  N308  1  0.759780  0.004380  0.045510  1.0  -0.4296
  N  N309  1  0.647600  0.974600  0.837670  1.0  -0.3488
  N  N310  1  0.945170  0.039570  0.866730  1.0  -0.4384
  N  N311  1  0.179200  0.845200  0.902190  1.0  -0.4073
  N  N312  1  0.990110  0.604910  0.760570  1.0  -0.3358
  N  N313  1  0.996210  0.205010  0.909840  1.0  -0.4018
  N  N314  1  0.150490  0.988490  0.852460  1.0  -0.3888
  N  N315  1  0.023190  0.362790  0.774600  1.0  -0.332
  N  N316  1  0.080270  0.028470  0.470500  1.0  -0.3872
  N  N317  1  0.995620  0.240220  0.454490  1.0  -0.4271
  N  N318  1  0.025400  0.352400  0.662330  1.0  -0.3498
  N  N319  1  0.039570  0.945170  0.366730  1.0  -0.4339
  N  N320  1  0.845200  0.179200  0.402190  1.0  -0.4087
  N  N321  1  0.604910  0.990110  0.260570  1.0  -0.3358
  N  N322  1  0.205010  0.996210  0.409840  1.0  -0.4017
  N  N323  1  0.988490  0.150490  0.352460  1.0  -0.3895
  N  N324  1  0.362790  0.023190  0.274600  1.0  -0.3293
  N  N325  1  0.028470  0.080270  0.970500  1.0  -0.3873
  N  N326  1  0.240220  0.995620  0.954490  1.0  -0.4313
  N  N327  1  0.352400  0.025400  0.162330  1.0  -0.3454
  N  N328  1  0.054830  0.960430  0.133270  1.0  -0.438
  N  N329  1  0.820800  0.154800  0.097810  1.0  -0.4061
  N  N330  1  0.009890  0.395090  0.239430  1.0  -0.3334
  N  N331  1  0.003790  0.794990  0.090160  1.0  -0.402
  N  N332  1  0.849510  0.011510  0.147540  1.0  -0.3898
  N  N333  1  0.976810  0.637210  0.225400  1.0  -0.3377
  N  N334  1  0.919730  0.971530  0.529500  1.0  -0.3871
  N  N335  1  0.004380  0.759780  0.545510  1.0  -0.4278
  N  N336  1  0.974600  0.647600  0.337670  1.0  -0.3519
  F  F337  1  0.781620  0.566520  0.706610  1.0  -0.3679
  F  F338  1  0.658810  0.599610  0.726650  1.0  -0.3333
  F  F339  1  0.668500  0.707900  0.774740  1.0  -0.4227
  F  F340  1  0.658720  0.768720  0.749940  1.0  -0.3691
  F  F341  1  0.576130  0.677930  0.702370  1.0  -0.3554
  F  F342  1  0.609450  0.748250  0.691980  1.0  -0.4024
  F  F343  1  0.433480  0.218380  0.793390  1.0  -0.3657
  F  F344  1  0.400390  0.341190  0.773350  1.0  -0.3359
  F  F345  1  0.292100  0.331500  0.725260  1.0  -0.4148
  F  F346  1  0.231280  0.341280  0.750060  1.0  -0.3735
  F  F347  1  0.322070  0.423870  0.797630  1.0  -0.3563
  F  F348  1  0.251750  0.390550  0.808020  1.0  -0.4087
  F  F349  1  0.218380  0.433480  0.293390  1.0  -0.3669
  F  F350  1  0.341190  0.400390  0.273350  1.0  -0.3374
  F  F351  1  0.331500  0.292100  0.225260  1.0  -0.4126
  F  F352  1  0.341280  0.231280  0.250060  1.0  -0.373
  F  F353  1  0.423870  0.322070  0.297630  1.0  -0.3562
  F  F354  1  0.390550  0.251750  0.308020  1.0  -0.4061
  F  F355  1  0.566520  0.781620  0.206610  1.0  -0.3654
  F  F356  1  0.599610  0.658810  0.226650  1.0  -0.3303
  F  F357  1  0.707900  0.668500  0.274740  1.0  -0.4236
  F  F358  1  0.768720  0.658720  0.249940  1.0  -0.3686
  F  F359  1  0.677930  0.576130  0.202370  1.0  -0.35
  F  F360  1  0.748250  0.609450  0.191980  1.0  -0.4052
