# generated using pymatgen
data_CuH3C4N2O
_symmetry_space_group_name_H-M   'P 1'
_cell_length_a   9.78700000
_cell_length_b   16.25460000
_cell_length_c   16.25460000
_cell_angle_alpha   63.92300000
_cell_angle_beta   78.42200000
_cell_angle_gamma   101.57800000
_symmetry_Int_Tables_number   1
_chemical_formula_structural   CuH3C4N2O
_chemical_formula_sum   'Cu12 H36 C48 N24 O12'
_cell_volume   2149.19914548
_cell_formula_units_Z   12
loop_
 _symmetry_equiv_pos_site_id
 _symmetry_equiv_pos_as_xyz
  1  'x, y, z'
loop_
 _atom_site_type_symbol
 _atom_site_label
 _atom_site_symmetry_multiplicity
 _atom_site_fract_x
 _atom_site_fract_y
 _atom_site_fract_z
 _atom_site_occupancy
 _atom_site_charge
  Cu  Cu1  1  0.667060  0.029060  0.642180  1.0  0.4688
  Cu  Cu2  1  0.380680  0.014980  0.678140  1.0  0.3982
  Cu  Cu3  1  0.309240  0.642180  0.328760  1.0  0.4704
  Cu  Cu4  1  0.058820  0.678140  0.306880  1.0  0.3959
  Cu  Cu5  1  0.638000  0.328760  0.029060  1.0  0.4678
  Cu  Cu6  1  0.365700  0.306880  0.014980  1.0  0.3987
  Cu  Cu7  1  0.332940  0.970940  0.357820  1.0  0.4664
  Cu  Cu8  1  0.619320  0.985020  0.321860  1.0  0.3985
  Cu  Cu9  1  0.690760  0.357820  0.671240  1.0  0.4691
  Cu  Cu10  1  0.941180  0.321860  0.693120  1.0  0.3958
  Cu  Cu11  1  0.362000  0.671240  0.970940  1.0  0.4706
  Cu  Cu12  1  0.634300  0.693120  0.985020  1.0  0.3981
  H  H13  1  0.288100  0.777500  0.519200  1.0  0.084
  H  H14  1  0.316100  0.717800  0.669500  1.0  0.0871
  H  H15  1  0.333900  0.812600  0.740900  1.0  0.0886
  H  H16  1  0.231800  0.162300  0.865900  1.0  0.0856
  H  H17  1  0.213200  0.034900  0.836300  1.0  0.0864
  H  H18  1  0.458300  0.278400  0.809500  1.0  0.0847
  H  H19  1  0.807300  0.519200  0.703300  1.0  0.0856
  H  H20  1  0.985600  0.669500  0.612700  1.0  0.0854
  H  H21  1  0.074800  0.740900  0.446500  1.0  0.0877
  H  H22  1  0.097700  0.865900  0.971800  1.0  0.0867
  H  H23  1  0.049500  0.836300  0.128800  1.0  0.087
  H  H24  1  0.267800  0.809500  0.912100  1.0  0.0839
  H  H25  1  0.510600  0.703300  0.777500  1.0  0.0852
  H  H26  1  0.598300  0.612700  0.717800  1.0  0.0862
  H  H27  1  0.521300  0.446500  0.812600  1.0  0.0883
  H  H28  1  0.069500  0.971800  0.162300  1.0  0.0868
  H  H29  1  0.178300  0.128800  0.034900  1.0  0.0864
  H  H30  1  0.179900  0.912100  0.278400  1.0  0.0845
  H  H31  1  0.711900  0.222500  0.480800  1.0  0.0844
  H  H32  1  0.683900  0.282200  0.330500  1.0  0.0865
  H  H33  1  0.666100  0.187400  0.259100  1.0  0.088
  H  H34  1  0.768200  0.837700  0.134100  1.0  0.0857
  H  H35  1  0.786800  0.965100  0.163700  1.0  0.0863
  H  H36  1  0.541700  0.721600  0.190500  1.0  0.0846
  H  H37  1  0.192700  0.480800  0.296700  1.0  0.0859
  H  H38  1  0.014400  0.330500  0.387300  1.0  0.0854
  H  H39  1  0.925200  0.259100  0.553500  1.0  0.0877
  H  H40  1  0.902300  0.134100  0.028200  1.0  0.0871
  H  H41  1  0.950500  0.163700  0.871200  1.0  0.0871
  H  H42  1  0.732200  0.190500  0.087900  1.0  0.0847
  H  H43  1  0.489400  0.296700  0.222500  1.0  0.0855
  H  H44  1  0.401700  0.387300  0.282200  1.0  0.0871
  H  H45  1  0.478700  0.553500  0.187400  1.0  0.088
  H  H46  1  0.930500  0.028200  0.837700  1.0  0.0869
  H  H47  1  0.821700  0.871200  0.965100  1.0  0.0868
  H  H48  1  0.820100  0.087900  0.721600  1.0  0.0848
  C  C49  1  0.301200  0.817900  0.547000  1.0  0.0783
  C  C50  1  0.330700  0.839100  0.676500  1.0  0.1016
  C  C51  1  0.318900  0.783000  0.635100  1.0  -0.1378
  C  C52  1  0.305200  0.085000  0.810200  1.0  0.1197
  C  C53  1  0.451100  0.224100  0.800200  1.0  0.1023
  C  C54  1  0.318300  0.155800  0.833600  1.0  -0.1546
  C  C55  1  0.318600  0.967100  0.538700  1.0  0.5014
  C  C56  1  0.549100  0.162600  0.705100  1.0  0.5348
  C  C57  1  0.848200  0.547000  0.635100  1.0  0.0744
  C  C58  1  0.007200  0.676500  0.484400  1.0  0.0972
  C  C59  1  0.954000  0.635100  0.581900  1.0  -0.1348
  C  C60  1  0.115400  0.810200  0.104800  1.0  0.1236
  C  C61  1  0.251300  0.800200  0.975700  1.0  0.0995
  C  C62  1  0.151900  0.833600  0.010600  1.0  -0.1603
  C  C63  1  0.857300  0.538700  0.494200  1.0  0.5067
  C  C64  1  0.254200  0.705100  0.132300  1.0  0.5336
  C  C65  1  0.483300  0.635100  0.817900  1.0  0.0742
  C  C66  1  0.491600  0.484400  0.839100  1.0  0.0987
  C  C67  1  0.535900  0.581900  0.783000  1.0  -0.1366
  C  C68  1  0.220200  0.104800  0.085000  1.0  0.1222
  C  C69  1  0.227000  0.975700  0.224100  1.0  0.0989
  C  C70  1  0.162500  0.010600  0.155800  1.0  -0.1583
  C  C71  1  0.351500  0.494200  0.967100  1.0  0.5044
  C  C72  1  0.386500  0.132300  0.162600  1.0  0.5346
  C  C73  1  0.698800  0.182100  0.453000  1.0  0.0787
  C  C74  1  0.669300  0.160900  0.323500  1.0  0.0983
  C  C75  1  0.681100  0.217000  0.364900  1.0  -0.1363
  C  C76  1  0.694800  0.915000  0.189800  1.0  0.1196
  C  C77  1  0.548900  0.775900  0.199800  1.0  0.1003
  C  C78  1  0.681700  0.844200  0.166400  1.0  -0.1539
  C  C79  1  0.681400  0.032900  0.461300  1.0  0.5014
  C  C80  1  0.450900  0.837400  0.294900  1.0  0.5345
  C  C81  1  0.151800  0.453000  0.364900  1.0  0.0747
  C  C82  1  0.992800  0.323500  0.515600  1.0  0.0966
  C  C83  1  0.046000  0.364900  0.418100  1.0  -0.1336
  C  C84  1  0.884600  0.189800  0.895200  1.0  0.1219
  C  C85  1  0.748700  0.199800  0.024300  1.0  0.0978
  C  C86  1  0.848100  0.166400  0.989400  1.0  -0.1595
  C  C87  1  0.142700  0.461300  0.505800  1.0  0.5045
  C  C88  1  0.745800  0.294900  0.867700  1.0  0.5347
  C  C89  1  0.516700  0.364900  0.182100  1.0  0.0737
  C  C90  1  0.508400  0.515600  0.160900  1.0  0.0997
  C  C91  1  0.464100  0.418100  0.217000  1.0  -0.1355
  C  C92  1  0.779800  0.895200  0.915000  1.0  0.1226
  C  C93  1  0.773000  0.024300  0.775900  1.0  0.0984
  C  C94  1  0.837500  0.989400  0.844200  1.0  -0.1553
  C  C95  1  0.648500  0.505800  0.032900  1.0  0.5032
  C  C96  1  0.613500  0.867700  0.837400  1.0  0.5346
  N  N97  1  0.329700  0.930900  0.628500  1.0  -0.3539
  N  N98  1  0.308500  0.911500  0.496900  1.0  -0.287
  N  N99  1  0.418200  0.091200  0.742000  1.0  -0.3497
  N  N100  1  0.569100  0.222600  0.741700  1.0  -0.3449
  N  N101  1  0.958200  0.628500  0.440600  1.0  -0.3541
  N  N102  1  0.805400  0.496900  0.591600  1.0  -0.2847
  N  N103  1  0.160200  0.742000  0.166800  1.0  -0.348
  N  N104  1  0.310800  0.741700  0.035700  1.0  -0.3457
  N  N105  1  0.398800  0.440600  0.930900  1.0  -0.347
  N  N106  1  0.397000  0.591600  0.911500  1.0  -0.2847
  N  N107  1  0.327000  0.166800  0.091200  1.0  -0.3481
  N  N108  1  0.346500  0.035700  0.222600  1.0  -0.3451
  N  N109  1  0.670300  0.069100  0.371500  1.0  -0.3532
  N  N110  1  0.691500  0.088500  0.503100  1.0  -0.2881
  N  N111  1  0.581800  0.908800  0.258000  1.0  -0.3497
  N  N112  1  0.430900  0.777400  0.258300  1.0  -0.3451
  N  N113  1  0.041800  0.371500  0.559400  1.0  -0.3503
  N  N114  1  0.194600  0.503100  0.408400  1.0  -0.2862
  N  N115  1  0.839800  0.258000  0.833200  1.0  -0.3504
  N  N116  1  0.689200  0.258300  0.964300  1.0  -0.3442
  N  N117  1  0.601200  0.559400  0.069100  1.0  -0.3513
  N  N118  1  0.603000  0.408400  0.088500  1.0  -0.2865
  N  N119  1  0.673000  0.833200  0.908800  1.0  -0.3466
  N  N120  1  0.653500  0.964300  0.777400  1.0  -0.3445
  O  O121  1  0.317800  0.048900  0.496000  1.0  -0.4834
  O  O122  1  0.638100  0.181600  0.631100  1.0  -0.7058
  O  O123  1  0.813800  0.496000  0.455100  1.0  -0.4887
  O  O124  1  0.269200  0.631100  0.187300  1.0  -0.7055
  O  O125  1  0.268900  0.455100  0.048900  1.0  -0.4858
  O  O126  1  0.456500  0.187300  0.181600  1.0  -0.7075
  O  O127  1  0.682200  0.951100  0.504000  1.0  -0.4847
  O  O128  1  0.361900  0.818400  0.368900  1.0  -0.706
  O  O129  1  0.186200  0.504000  0.544900  1.0  -0.4884
  O  O130  1  0.730800  0.368900  0.812700  1.0  -0.7057
  O  O131  1  0.731100  0.544900  0.951100  1.0  -0.4878
  O  O132  1  0.543500  0.812700  0.818400  1.0  -0.7072
