# generated using pymatgen
data_CdH6C10(NO)4
_symmetry_space_group_name_H-M   'P 1'
_cell_length_a   26.13150000
_cell_length_b   26.13150000
_cell_length_c   26.13150000
_cell_angle_alpha   109.47100000
_cell_angle_beta   109.47100000
_cell_angle_gamma   109.47100000
_symmetry_Int_Tables_number   1
_chemical_formula_structural   CdH6C10(NO)4
_chemical_formula_sum   'Cd24 H144 C240 N96 O96'
_cell_volume   13736.45526939
_cell_formula_units_Z   24
loop_
 _symmetry_equiv_pos_site_id
 _symmetry_equiv_pos_as_xyz
  1  'x, y, z'
loop_
 _atom_site_type_symbol
 _atom_site_label
 _atom_site_symmetry_multiplicity
 _atom_site_fract_x
 _atom_site_fract_y
 _atom_site_fract_z
 _atom_site_occupancy
 _atom_site_charge
  Cd  Cd1  1  0.354870  0.709740  0.854870  1.0  0.8764
  Cd  Cd2  1  0.854870  0.500000  0.145130  1.0  0.8765
  Cd  Cd3  1  0.145130  0.290260  0.645130  1.0  0.8768
  Cd  Cd4  1  0.645130  0.500000  0.354870  1.0  0.879
  Cd  Cd5  1  0.645130  0.145130  0.290260  1.0  0.8767
  Cd  Cd6  1  0.354870  0.645130  0.500000  1.0  0.8735
  Cd  Cd7  1  0.854870  0.354870  0.709740  1.0  0.8791
  Cd  Cd8  1  0.145130  0.854870  0.500000  1.0  0.8756
  Cd  Cd9  1  0.500000  0.145130  0.854870  1.0  0.8786
  Cd  Cd10  1  0.709740  0.854870  0.354870  1.0  0.8741
  Cd  Cd11  1  0.500000  0.354870  0.645130  1.0  0.8771
  Cd  Cd12  1  0.290260  0.645130  0.145130  1.0  0.8755
  Cd  Cd13  1  0.645130  0.290260  0.145130  1.0  0.877
  Cd  Cd14  1  0.145130  0.500000  0.854870  1.0  0.879
  Cd  Cd15  1  0.854870  0.709740  0.354870  1.0  0.8766
  Cd  Cd16  1  0.354870  0.500000  0.645130  1.0  0.8765
  Cd  Cd17  1  0.354870  0.854870  0.709740  1.0  0.8791
  Cd  Cd18  1  0.645130  0.354870  0.500000  1.0  0.8756
  Cd  Cd19  1  0.145130  0.645130  0.290260  1.0  0.8767
  Cd  Cd20  1  0.854870  0.145130  0.500000  1.0  0.8735
  Cd  Cd21  1  0.500000  0.854870  0.145130  1.0  0.8771
  Cd  Cd22  1  0.290260  0.145130  0.645130  1.0  0.8754
  Cd  Cd23  1  0.500000  0.645130  0.354870  1.0  0.8786
  Cd  Cd24  1  0.709740  0.354870  0.854870  1.0  0.8739
  H  H25  1  0.216900  0.631300  0.718200  1.0  0.0995
  H  H26  1  0.283100  0.783000  0.905700  1.0  0.1044
  H  H27  1  0.913100  0.498700  0.281800  1.0  0.0977
  H  H28  1  0.877300  0.377400  0.094300  1.0  0.1081
  H  H29  1  0.086900  0.368700  0.585600  1.0  0.099
  H  H30  1  0.122700  0.217000  0.500100  1.0  0.1063
  H  H31  1  0.783100  0.501300  0.414400  1.0  0.098
  H  H32  1  0.716900  0.622600  0.499900  1.0  0.1057
  H  H33  1  0.585600  0.086900  0.368700  1.0  0.0986
  H  H34  1  0.500100  0.122700  0.217000  1.0  0.1078
  H  H35  1  0.414400  0.783100  0.501300  1.0  0.0991
  H  H36  1  0.499900  0.716900  0.622600  1.0  0.1041
  H  H37  1  0.718200  0.216900  0.631300  1.0  0.0995
  H  H38  1  0.905700  0.283100  0.783000  1.0  0.106
  H  H39  1  0.281800  0.913100  0.498700  1.0  0.0989
  H  H40  1  0.094300  0.877300  0.377400  1.0  0.107
  H  H41  1  0.498700  0.281800  0.913100  1.0  0.0982
  H  H42  1  0.377400  0.094300  0.877300  1.0  0.1071
  H  H43  1  0.631300  0.718200  0.216900  1.0  0.1003
  H  H44  1  0.783000  0.905700  0.283100  1.0  0.1055
  H  H45  1  0.501300  0.414400  0.783100  1.0  0.1003
  H  H46  1  0.622600  0.499900  0.716900  1.0  0.1061
  H  H47  1  0.368700  0.585600  0.086900  1.0  0.0987
  H  H48  1  0.217000  0.500100  0.122700  1.0  0.1059
  H  H49  1  0.368700  0.783100  0.281800  1.0  0.0998
  H  H50  1  0.217000  0.716900  0.094300  1.0  0.1035
  H  H51  1  0.501300  0.086900  0.718200  1.0  0.098
  H  H52  1  0.622600  0.122700  0.905700  1.0  0.1069
  H  H53  1  0.631300  0.913100  0.414400  1.0  0.0998
  H  H54  1  0.783000  0.877300  0.499900  1.0  0.1073
  H  H55  1  0.498700  0.216900  0.585600  1.0  0.0985
  H  H56  1  0.377400  0.283100  0.500100  1.0  0.1057
  H  H57  1  0.913100  0.414400  0.631300  1.0  0.0998
  H  H58  1  0.877300  0.499900  0.783000  1.0  0.1074
  H  H59  1  0.216900  0.585600  0.498700  1.0  0.0991
  H  H60  1  0.283100  0.500100  0.377400  1.0  0.1039
  H  H61  1  0.783100  0.281800  0.368700  1.0  0.0988
  H  H62  1  0.716900  0.094300  0.217000  1.0  0.1056
  H  H63  1  0.086900  0.718200  0.501300  1.0  0.0995
  H  H64  1  0.122700  0.905700  0.622600  1.0  0.1064
  H  H65  1  0.718200  0.501300  0.086900  1.0  0.0972
  H  H66  1  0.905700  0.622600  0.122700  1.0  0.1085
  H  H67  1  0.281800  0.368700  0.783100  1.0  0.1
  H  H68  1  0.094300  0.217000  0.716900  1.0  0.1044
  H  H69  1  0.585600  0.498700  0.216900  1.0  0.0986
  H  H70  1  0.500100  0.377400  0.283100  1.0  0.1062
  H  H71  1  0.414400  0.631300  0.913100  1.0  0.0988
  H  H72  1  0.499900  0.783000  0.877300  1.0  0.1053
  H  H73  1  0.783100  0.368700  0.281800  1.0  0.0985
  H  H74  1  0.716900  0.217000  0.094300  1.0  0.1046
  H  H75  1  0.086900  0.501300  0.718200  1.0  0.0979
  H  H76  1  0.122700  0.622600  0.905700  1.0  0.1079
  H  H77  1  0.913100  0.631300  0.414400  1.0  0.0984
  H  H78  1  0.877300  0.783000  0.499900  1.0  0.1067
  H  H79  1  0.216900  0.498700  0.585600  1.0  0.0971
  H  H80  1  0.283100  0.377400  0.500100  1.0  0.1071
  H  H81  1  0.414400  0.913100  0.631300  1.0  0.0977
  H  H82  1  0.499900  0.877300  0.783000  1.0  0.1071
  H  H83  1  0.585600  0.216900  0.498700  1.0  0.0981
  H  H84  1  0.500100  0.283100  0.377400  1.0  0.1032
  H  H85  1  0.281800  0.783100  0.368700  1.0  0.0989
  H  H86  1  0.094300  0.716900  0.217000  1.0  0.1059
  H  H87  1  0.718200  0.086900  0.501300  1.0  0.0986
  H  H88  1  0.905700  0.122700  0.622600  1.0  0.1066
  H  H89  1  0.501300  0.718200  0.086900  1.0  0.0974
  H  H90  1  0.622600  0.905700  0.122700  1.0  0.1063
  H  H91  1  0.368700  0.281800  0.783100  1.0  0.0997
  H  H92  1  0.217000  0.094300  0.716900  1.0  0.1051
  H  H93  1  0.498700  0.585600  0.216900  1.0  0.0989
  H  H94  1  0.377400  0.500100  0.283100  1.0  0.1051
  H  H95  1  0.631300  0.414400  0.913100  1.0  0.0988
  H  H96  1  0.783000  0.499900  0.877300  1.0  0.1054
  H  H97  1  0.631300  0.216900  0.718200  1.0  0.0987
  H  H98  1  0.783000  0.283100  0.905700  1.0  0.103
  H  H99  1  0.498700  0.913100  0.281800  1.0  0.0976
  H  H100  1  0.377400  0.877300  0.094300  1.0  0.108
  H  H101  1  0.368700  0.086900  0.585600  1.0  0.0991
  H  H102  1  0.217000  0.122700  0.500100  1.0  0.1069
  H  H103  1  0.501300  0.783100  0.414400  1.0  0.0985
  H  H104  1  0.622600  0.716900  0.499900  1.0  0.106
  H  H105  1  0.086900  0.585600  0.368700  1.0  0.0983
  H  H106  1  0.122700  0.500100  0.217000  1.0  0.108
  H  H107  1  0.783100  0.414400  0.501300  1.0  0.0996
  H  H108  1  0.716900  0.499900  0.622600  1.0  0.1044
  H  H109  1  0.216900  0.718200  0.631300  1.0  0.0983
  H  H110  1  0.283100  0.905700  0.783000  1.0  0.1053
  H  H111  1  0.913100  0.281800  0.498700  1.0  0.098
  H  H112  1  0.877300  0.094300  0.377400  1.0  0.1066
  H  H113  1  0.281800  0.498700  0.913100  1.0  0.0965
  H  H114  1  0.094300  0.377400  0.877300  1.0  0.1072
  H  H115  1  0.718200  0.631300  0.216900  1.0  0.0995
  H  H116  1  0.905700  0.783000  0.283100  1.0  0.1052
  H  H117  1  0.414400  0.501300  0.783100  1.0  0.0981
  H  H118  1  0.499900  0.622600  0.716900  1.0  0.1061
  H  H119  1  0.585600  0.368700  0.086900  1.0  0.0979
  H  H120  1  0.500100  0.217000  0.122700  1.0  0.1059
  H  H121  1  0.164800  0.549200  0.615600  1.0  0.1151
  H  H122  1  0.933600  0.549200  0.384400  1.0  0.116
  H  H123  1  0.066400  0.450800  0.615600  1.0  0.1161
  H  H124  1  0.835200  0.450800  0.384400  1.0  0.1157
  H  H125  1  0.615600  0.066400  0.450800  1.0  0.1168
  H  H126  1  0.384400  0.835200  0.450800  1.0  0.1153
  H  H127  1  0.615600  0.164800  0.549200  1.0  0.1165
  H  H128  1  0.384400  0.933600  0.549200  1.0  0.1161
  H  H129  1  0.549200  0.384400  0.933600  1.0  0.1177
  H  H130  1  0.549200  0.615600  0.164800  1.0  0.1152
  H  H131  1  0.450800  0.384400  0.835200  1.0  0.1147
  H  H132  1  0.450800  0.615600  0.066400  1.0  0.1166
  H  H133  1  0.450800  0.835200  0.384400  1.0  0.1155
  H  H134  1  0.450800  0.066400  0.615600  1.0  0.1163
  H  H135  1  0.549200  0.933600  0.384400  1.0  0.1168
  H  H136  1  0.549200  0.164800  0.615600  1.0  0.1162
  H  H137  1  0.933600  0.384400  0.549200  1.0  0.1162
  H  H138  1  0.164800  0.615600  0.549200  1.0  0.1164
  H  H139  1  0.835200  0.384400  0.450800  1.0  0.1154
  H  H140  1  0.066400  0.615600  0.450800  1.0  0.1168
  H  H141  1  0.615600  0.450800  0.066400  1.0  0.1166
  H  H142  1  0.384400  0.450800  0.835200  1.0  0.1151
  H  H143  1  0.615600  0.549200  0.164800  1.0  0.1146
  H  H144  1  0.384400  0.549200  0.933600  1.0  0.1167
  H  H145  1  0.292300  0.844500  0.000000  1.0  0.1006
  H  H146  1  0.844500  0.292300  0.000000  1.0  0.1037
  H  H147  1  0.155500  0.155500  0.447800  1.0  0.1044
  H  H148  1  0.707700  0.707700  0.552200  1.0  0.1057
  H  H149  1  0.447800  0.155500  0.155500  1.0  0.105
  H  H150  1  0.552200  0.707700  0.707700  1.0  0.1046
  H  H151  1  0.000000  0.292300  0.844500  1.0  0.1043
  H  H152  1  0.000000  0.844500  0.292300  1.0  0.1022
  H  H153  1  0.292300  0.000000  0.844500  1.0  0.103
  H  H154  1  0.844500  0.000000  0.292300  1.0  0.1035
  H  H155  1  0.707700  0.552200  0.707700  1.0  0.1058
  H  H156  1  0.155500  0.447800  0.155500  1.0  0.1089
  H  H157  1  0.155500  0.707700  0.000000  1.0  0.103
  H  H158  1  0.707700  0.155500  0.000000  1.0  0.1022
  H  H159  1  0.844500  0.844500  0.552200  1.0  0.1063
  H  H160  1  0.292300  0.292300  0.447800  1.0  0.1054
  H  H161  1  0.844500  0.552200  0.844500  1.0  0.1065
  H  H162  1  0.292300  0.447800  0.292300  1.0  0.1075
  H  H163  1  0.707700  0.000000  0.155500  1.0  0.1033
  H  H164  1  0.155500  0.000000  0.707700  1.0  0.1032
  H  H165  1  0.000000  0.707700  0.155500  1.0  0.1034
  H  H166  1  0.000000  0.155500  0.707700  1.0  0.1029
  H  H167  1  0.447800  0.292300  0.292300  1.0  0.1047
  H  H168  1  0.552200  0.844500  0.844500  1.0  0.1055
  C  C169  1  0.236900  0.610600  0.705100  1.0  0.1692
  C  C170  1  0.317200  0.797000  0.943800  1.0  0.1525
  C  C171  1  0.905500  0.531800  0.294900  1.0  0.1713
  C  C172  1  0.853200  0.373400  0.056200  1.0  0.1614
  C  C173  1  0.094500  0.389400  0.626300  1.0  0.1672
  C  C174  1  0.146800  0.203000  0.520200  1.0  0.1536
  C  C175  1  0.763100  0.468200  0.373700  1.0  0.1697
  C  C176  1  0.682800  0.626600  0.479800  1.0  0.1581
  C  C177  1  0.626300  0.094500  0.389400  1.0  0.1672
  C  C178  1  0.520200  0.146800  0.203000  1.0  0.1552
  C  C179  1  0.373700  0.763100  0.468200  1.0  0.1716
  C  C180  1  0.479800  0.682800  0.626600  1.0  0.1589
  C  C181  1  0.705100  0.236900  0.610600  1.0  0.1644
  C  C182  1  0.943800  0.317200  0.797000  1.0  0.1505
  C  C183  1  0.294900  0.905500  0.531800  1.0  0.1689
  C  C184  1  0.056200  0.853200  0.373400  1.0  0.1573
  C  C185  1  0.531800  0.294900  0.905500  1.0  0.1713
  C  C186  1  0.373400  0.056200  0.853200  1.0  0.1569
  C  C187  1  0.610600  0.705100  0.236900  1.0  0.165
  C  C188  1  0.797000  0.943800  0.317200  1.0  0.1515
  C  C189  1  0.468200  0.373700  0.763100  1.0  0.1707
  C  C190  1  0.626600  0.479800  0.682800  1.0  0.1531
  C  C191  1  0.389400  0.626300  0.094500  1.0  0.1675
  C  C192  1  0.203000  0.520200  0.146800  1.0  0.1551
  C  C193  1  0.389400  0.763100  0.294900  1.0  0.1656
  C  C194  1  0.203000  0.682800  0.056200  1.0  0.1532
  C  C195  1  0.468200  0.094500  0.705100  1.0  0.1718
  C  C196  1  0.626600  0.146800  0.943800  1.0  0.1628
  C  C197  1  0.610600  0.905500  0.373700  1.0  0.1685
  C  C198  1  0.797000  0.853200  0.479800  1.0  0.151
  C  C199  1  0.531800  0.236900  0.626300  1.0  0.1694
  C  C200  1  0.373400  0.317200  0.520200  1.0  0.1552
  C  C201  1  0.905500  0.373700  0.610600  1.0  0.1686
  C  C202  1  0.853200  0.479800  0.797000  1.0  0.1528
  C  C203  1  0.236900  0.626300  0.531800  1.0  0.1695
  C  C204  1  0.317200  0.520200  0.373400  1.0  0.1568
  C  C205  1  0.763100  0.294900  0.389400  1.0  0.167
  C  C206  1  0.682800  0.056200  0.203000  1.0  0.1485
  C  C207  1  0.094500  0.705100  0.468200  1.0  0.1683
  C  C208  1  0.146800  0.943800  0.626600  1.0  0.158
  C  C209  1  0.705100  0.468200  0.094500  1.0  0.17
  C  C210  1  0.943800  0.626600  0.146800  1.0  0.1579
  C  C211  1  0.294900  0.389400  0.763100  1.0  0.1634
  C  C212  1  0.056200  0.203000  0.682800  1.0  0.1532
  C  C213  1  0.626300  0.531800  0.236900  1.0  0.1712
  C  C214  1  0.520200  0.373400  0.317200  1.0  0.157
  C  C215  1  0.373700  0.610600  0.905500  1.0  0.1729
  C  C216  1  0.479800  0.797000  0.853200  1.0  0.1558
  C  C217  1  0.763100  0.389400  0.294900  1.0  0.1657
  C  C218  1  0.682800  0.203000  0.056200  1.0  0.1549
  C  C219  1  0.094500  0.468200  0.705100  1.0  0.1684
  C  C220  1  0.146800  0.626600  0.943800  1.0  0.1596
  C  C221  1  0.905500  0.610600  0.373700  1.0  0.1643
  C  C222  1  0.853200  0.797000  0.479800  1.0  0.1543
  C  C223  1  0.236900  0.531800  0.626300  1.0  0.1664
  C  C224  1  0.317200  0.373400  0.520200  1.0  0.1562
  C  C225  1  0.373700  0.905500  0.610600  1.0  0.1664
  C  C226  1  0.479800  0.853200  0.797000  1.0  0.1567
  C  C227  1  0.626300  0.236900  0.531800  1.0  0.1668
  C  C228  1  0.520200  0.317200  0.373400  1.0  0.1594
  C  C229  1  0.294900  0.763100  0.389400  1.0  0.1629
  C  C230  1  0.056200  0.682800  0.203000  1.0  0.1501
  C  C231  1  0.705100  0.094500  0.468200  1.0  0.1685
  C  C232  1  0.943800  0.146800  0.626600  1.0  0.158
  C  C233  1  0.468200  0.705100  0.094500  1.0  0.1695
  C  C234  1  0.626600  0.943800  0.146800  1.0  0.1566
  C  C235  1  0.389400  0.294900  0.763100  1.0  0.1598
  C  C236  1  0.203000  0.056200  0.682800  1.0  0.1498
  C  C237  1  0.531800  0.626300  0.236900  1.0  0.1671
  C  C238  1  0.373400  0.520200  0.317200  1.0  0.1565
  C  C239  1  0.610600  0.373700  0.905500  1.0  0.1658
  C  C240  1  0.797000  0.479800  0.853200  1.0  0.151
  C  C241  1  0.610600  0.236900  0.705100  1.0  0.163
  C  C242  1  0.797000  0.317200  0.943800  1.0  0.1538
  C  C243  1  0.531800  0.905500  0.294900  1.0  0.1668
  C  C244  1  0.373400  0.853200  0.056200  1.0  0.1599
  C  C245  1  0.389400  0.094500  0.626300  1.0  0.1646
  C  C246  1  0.203000  0.146800  0.520200  1.0  0.1525
  C  C247  1  0.468200  0.763100  0.373700  1.0  0.167
  C  C248  1  0.626600  0.682800  0.479800  1.0  0.1552
  C  C249  1  0.094500  0.626300  0.389400  1.0  0.1647
  C  C250  1  0.146800  0.520200  0.203000  1.0  0.1524
  C  C251  1  0.763100  0.373700  0.468200  1.0  0.168
  C  C252  1  0.682800  0.479800  0.626600  1.0  0.1555
  C  C253  1  0.236900  0.705100  0.610600  1.0  0.1636
  C  C254  1  0.317200  0.943800  0.797000  1.0  0.1512
  C  C255  1  0.905500  0.294900  0.531800  1.0  0.1655
  C  C256  1  0.853200  0.056200  0.373400  1.0  0.1582
  C  C257  1  0.294900  0.531800  0.905500  1.0  0.1662
  C  C258  1  0.056200  0.373400  0.853200  1.0  0.1616
  C  C259  1  0.705100  0.610600  0.236900  1.0  0.1624
  C  C260  1  0.943800  0.797000  0.317200  1.0  0.151
  C  C261  1  0.373700  0.468200  0.763100  1.0  0.169
  C  C262  1  0.479800  0.626600  0.682800  1.0  0.1594
  C  C263  1  0.626300  0.389400  0.094500  1.0  0.1685
  C  C264  1  0.520200  0.203000  0.146800  1.0  0.155
  C  C265  1  0.388500  0.617500  0.771000  1.0  0.6139
  C  C266  1  0.321400  0.596900  0.724500  1.0  0.3792
  C  C267  1  0.205500  0.561600  0.643900  1.0  -0.1469
  C  C268  1  0.846500  0.617500  0.229000  1.0  0.6236
  C  C269  1  0.872400  0.596900  0.275500  1.0  0.3769
  C  C270  1  0.917700  0.561600  0.356100  1.0  -0.1459
  C  C271  1  0.153500  0.382500  0.771000  1.0  0.6226
  C  C272  1  0.127600  0.403100  0.724500  1.0  0.3774
  C  C273  1  0.082300  0.438400  0.643900  1.0  -0.1453
  C  C274  1  0.611500  0.382500  0.229000  1.0  0.6142
  C  C275  1  0.678600  0.403100  0.275500  1.0  0.3797
  C  C276  1  0.794500  0.438400  0.356100  1.0  -0.1503
  C  C277  1  0.771000  0.153500  0.382500  1.0  0.6241
  C  C278  1  0.724500  0.127600  0.403100  1.0  0.3776
  C  C279  1  0.643900  0.082300  0.438400  1.0  -0.1446
  C  C280  1  0.229000  0.611500  0.382500  1.0  0.6104
  C  C281  1  0.275500  0.678600  0.403100  1.0  0.3799
  C  C282  1  0.356100  0.794500  0.438400  1.0  -0.148
  C  C283  1  0.771000  0.388500  0.617500  1.0  0.6143
  C  C284  1  0.724500  0.321400  0.596900  1.0  0.3799
  C  C285  1  0.643900  0.205500  0.561600  1.0  -0.149
  C  C286  1  0.229000  0.846500  0.617500  1.0  0.6225
  C  C287  1  0.275500  0.872400  0.596900  1.0  0.3772
  C  C288  1  0.356100  0.917700  0.561600  1.0  -0.1476
  C  C289  1  0.617500  0.229000  0.846500  1.0  0.6229
  C  C290  1  0.596900  0.275500  0.872400  1.0  0.3775
  C  C291  1  0.561600  0.356100  0.917700  1.0  -0.1442
  C  C292  1  0.617500  0.771000  0.388500  1.0  0.6107
  C  C293  1  0.596900  0.724500  0.321400  1.0  0.3792
  C  C294  1  0.561600  0.643900  0.205500  1.0  -0.147
  C  C295  1  0.382500  0.229000  0.611500  1.0  0.6108
  C  C296  1  0.403100  0.275500  0.678600  1.0  0.3774
  C  C297  1  0.438400  0.356100  0.794500  1.0  -0.147
  C  C298  1  0.382500  0.771000  0.153500  1.0  0.6244
  C  C299  1  0.403100  0.724500  0.127600  1.0  0.3785
  C  C300  1  0.438400  0.643900  0.082300  1.0  -0.147
  C  C301  1  0.382500  0.611500  0.229000  1.0  0.6103
  C  C302  1  0.403100  0.678600  0.275500  1.0  0.3798
  C  C303  1  0.438400  0.794500  0.356100  1.0  -0.1479
  C  C304  1  0.382500  0.153500  0.771000  1.0  0.6229
  C  C305  1  0.403100  0.127600  0.724500  1.0  0.3779
  C  C306  1  0.438400  0.082300  0.643900  1.0  -0.147
  C  C307  1  0.617500  0.846500  0.229000  1.0  0.624
  C  C308  1  0.596900  0.872400  0.275500  1.0  0.3767
  C  C309  1  0.561600  0.917700  0.356100  1.0  -0.1451
  C  C310  1  0.617500  0.388500  0.771000  1.0  0.6145
  C  C311  1  0.596900  0.321400  0.724500  1.0  0.38
  C  C312  1  0.561600  0.205500  0.643900  1.0  -0.1493
  C  C313  1  0.846500  0.229000  0.617500  1.0  0.6202
  C  C314  1  0.872400  0.275500  0.596900  1.0  0.378
  C  C315  1  0.917700  0.356100  0.561600  1.0  -0.1448
  C  C316  1  0.388500  0.771000  0.617500  1.0  0.6143
  C  C317  1  0.321400  0.724500  0.596900  1.0  0.3784
  C  C318  1  0.205500  0.643900  0.561600  1.0  -0.1472
  C  C319  1  0.611500  0.229000  0.382500  1.0  0.6147
  C  C320  1  0.678600  0.275500  0.403100  1.0  0.3797
  C  C321  1  0.794500  0.356100  0.438400  1.0  -0.1499
  C  C322  1  0.153500  0.771000  0.382500  1.0  0.6217
  C  C323  1  0.127600  0.724500  0.403100  1.0  0.3772
  C  C324  1  0.082300  0.643900  0.438400  1.0  -0.1434
  C  C325  1  0.771000  0.382500  0.153500  1.0  0.6234
  C  C326  1  0.724500  0.403100  0.127600  1.0  0.3775
  C  C327  1  0.643900  0.438400  0.082300  1.0  -0.1441
  C  C328  1  0.229000  0.382500  0.611500  1.0  0.6129
  C  C329  1  0.275500  0.403100  0.678600  1.0  0.3771
  C  C330  1  0.356100  0.438400  0.794500  1.0  -0.1494
  C  C331  1  0.771000  0.617500  0.388500  1.0  0.6127
  C  C332  1  0.724500  0.596900  0.321400  1.0  0.3786
  C  C333  1  0.643900  0.561600  0.205500  1.0  -0.148
  C  C334  1  0.229000  0.617500  0.846500  1.0  0.6247
  C  C335  1  0.275500  0.596900  0.872400  1.0  0.3788
  C  C336  1  0.356100  0.561600  0.917700  1.0  -0.1471
  C  C337  1  0.460400  0.787600  0.000000  1.0  0.685
  C  C338  1  0.408600  0.803600  0.000000  1.0  0.3692
  C  C339  1  0.322700  0.833300  0.000000  1.0  -0.1502
  C  C340  1  0.787600  0.460400  0.000000  1.0  0.6768
  C  C341  1  0.803600  0.408600  0.000000  1.0  0.3718
  C  C342  1  0.833300  0.322700  0.000000  1.0  -0.149
  C  C343  1  0.212400  0.212400  0.672800  1.0  0.6786
  C  C344  1  0.196400  0.196400  0.605000  1.0  0.3744
  C  C345  1  0.166700  0.166700  0.489400  1.0  -0.1459
  C  C346  1  0.539600  0.539600  0.327200  1.0  0.6755
  C  C347  1  0.591400  0.591400  0.395000  1.0  0.3694
  C  C348  1  0.677300  0.677300  0.510600  1.0  -0.1429
  C  C349  1  0.672800  0.212400  0.212400  1.0  0.6804
  C  C350  1  0.605000  0.196400  0.196400  1.0  0.373
  C  C351  1  0.489400  0.166700  0.166700  1.0  -0.1499
  C  C352  1  0.327200  0.539600  0.539600  1.0  0.6723
  C  C353  1  0.395000  0.591400  0.591400  1.0  0.371
  C  C354  1  0.510600  0.677300  0.677300  1.0  -0.1462
  C  C355  1  0.000000  0.460400  0.787600  1.0  0.6806
  C  C356  1  0.000000  0.408600  0.803600  1.0  0.3691
  C  C357  1  0.000000  0.322700  0.833300  1.0  -0.1459
  C  C358  1  0.000000  0.787600  0.460400  1.0  0.6832
  C  C359  1  0.000000  0.803600  0.408600  1.0  0.3712
  C  C360  1  0.000000  0.833300  0.322700  1.0  -0.1451
  C  C361  1  0.460400  0.000000  0.787600  1.0  0.6842
  C  C362  1  0.408600  0.000000  0.803600  1.0  0.3693
  C  C363  1  0.322700  0.000000  0.833300  1.0  -0.1472
  C  C364  1  0.787600  0.000000  0.460400  1.0  0.6865
  C  C365  1  0.803600  0.000000  0.408600  1.0  0.372
  C  C366  1  0.833300  0.000000  0.322700  1.0  -0.1453
  C  C367  1  0.539600  0.327200  0.539600  1.0  0.6803
  C  C368  1  0.591400  0.395000  0.591400  1.0  0.3714
  C  C369  1  0.677300  0.510600  0.677300  1.0  -0.1428
  C  C370  1  0.212400  0.672800  0.212400  1.0  0.68
  C  C371  1  0.196400  0.605000  0.196400  1.0  0.3746
  C  C372  1  0.166700  0.489400  0.166700  1.0  -0.1484
  C  C373  1  0.212400  0.539600  0.000000  1.0  0.6783
  C  C374  1  0.196400  0.591400  0.000000  1.0  0.3724
  C  C375  1  0.166700  0.677300  0.000000  1.0  -0.1498
  C  C376  1  0.539600  0.212400  0.000000  1.0  0.6847
  C  C377  1  0.591400  0.196400  0.000000  1.0  0.37
  C  C378  1  0.677300  0.166700  0.000000  1.0  -0.148
  C  C379  1  0.787600  0.787600  0.327200  1.0  0.6786
  C  C380  1  0.803600  0.803600  0.395000  1.0  0.376
  C  C381  1  0.833300  0.833300  0.510600  1.0  -0.147
  C  C382  1  0.460400  0.460400  0.672800  1.0  0.6785
  C  C383  1  0.408600  0.408600  0.605000  1.0  0.3673
  C  C384  1  0.322700  0.322700  0.489400  1.0  -0.1468
  C  C385  1  0.787600  0.327200  0.787600  1.0  0.68
  C  C386  1  0.803600  0.395000  0.803600  1.0  0.3754
  C  C387  1  0.833300  0.510600  0.833300  1.0  -0.1467
  C  C388  1  0.460400  0.672800  0.460400  1.0  0.6788
  C  C389  1  0.408600  0.605000  0.408600  1.0  0.37
  C  C390  1  0.322700  0.489400  0.322700  1.0  -0.1449
  C  C391  1  0.539600  0.000000  0.212400  1.0  0.685
  C  C392  1  0.591400  0.000000  0.196400  1.0  0.3689
  C  C393  1  0.677300  0.000000  0.166700  1.0  -0.1479
  C  C394  1  0.212400  0.000000  0.539600  1.0  0.6835
  C  C395  1  0.196400  0.000000  0.591400  1.0  0.3733
  C  C396  1  0.166700  0.000000  0.677300  1.0  -0.145
  C  C397  1  0.000000  0.539600  0.212400  1.0  0.6822
  C  C398  1  0.000000  0.591400  0.196400  1.0  0.369
  C  C399  1  0.000000  0.677300  0.166700  1.0  -0.1474
  C  C400  1  0.000000  0.212400  0.539600  1.0  0.683
  C  C401  1  0.000000  0.196400  0.591400  1.0  0.3719
  C  C402  1  0.000000  0.166700  0.677300  1.0  -0.1462
  C  C403  1  0.672800  0.460400  0.460400  1.0  0.6725
  C  C404  1  0.605000  0.408600  0.408600  1.0  0.3717
  C  C405  1  0.489400  0.322700  0.322700  1.0  -0.1477
  C  C406  1  0.327200  0.787600  0.787600  1.0  0.6784
  C  C407  1  0.395000  0.803600  0.803600  1.0  0.3732
  C  C408  1  0.510600  0.833300  0.833300  1.0  -0.1463
  N  N409  1  0.296000  0.628700  0.745900  1.0  -0.3516
  N  N410  1  0.361000  0.782300  0.945100  1.0  -0.3442
  N  N411  1  0.882800  0.550100  0.254100  1.0  -0.349
  N  N412  1  0.837200  0.415900  0.054900  1.0  -0.3411
  N  N413  1  0.117200  0.371300  0.667300  1.0  -0.3504
  N  N414  1  0.162800  0.217700  0.578700  1.0  -0.338
  N  N415  1  0.704000  0.449900  0.332700  1.0  -0.3462
  N  N416  1  0.639000  0.584100  0.421300  1.0  -0.3381
  N  N417  1  0.667300  0.117200  0.371300  1.0  -0.3522
  N  N418  1  0.578700  0.162800  0.217700  1.0  -0.3383
  N  N419  1  0.332700  0.704000  0.449900  1.0  -0.3472
  N  N420  1  0.421300  0.639000  0.584100  1.0  -0.3424
  N  N421  1  0.745900  0.296000  0.628700  1.0  -0.3508
  N  N422  1  0.945100  0.361000  0.782300  1.0  -0.3378
  N  N423  1  0.254100  0.882800  0.550100  1.0  -0.3489
  N  N424  1  0.054900  0.837200  0.415900  1.0  -0.3402
  N  N425  1  0.550100  0.254100  0.882800  1.0  -0.3505
  N  N426  1  0.415900  0.054900  0.837200  1.0  -0.339
  N  N427  1  0.628700  0.745900  0.296000  1.0  -0.3528
  N  N428  1  0.782300  0.945100  0.361000  1.0  -0.3403
  N  N429  1  0.449900  0.332700  0.704000  1.0  -0.3481
  N  N430  1  0.584100  0.421300  0.639000  1.0  -0.3396
  N  N431  1  0.371300  0.667300  0.117200  1.0  -0.35
  N  N432  1  0.217700  0.578700  0.162800  1.0  -0.3421
  N  N433  1  0.371300  0.704000  0.254100  1.0  -0.3506
  N  N434  1  0.217700  0.639000  0.054900  1.0  -0.3416
  N  N435  1  0.449900  0.117200  0.745900  1.0  -0.3483
  N  N436  1  0.584100  0.162800  0.945100  1.0  -0.3382
  N  N437  1  0.628700  0.882800  0.332700  1.0  -0.3518
  N  N438  1  0.782300  0.837200  0.421300  1.0  -0.3388
  N  N439  1  0.550100  0.296000  0.667300  1.0  -0.3479
  N  N440  1  0.415900  0.361000  0.578700  1.0  -0.3403
  N  N441  1  0.882800  0.332700  0.628700  1.0  -0.3503
  N  N442  1  0.837200  0.421300  0.782300  1.0  -0.3386
  N  N443  1  0.296000  0.667300  0.550100  1.0  -0.3467
  N  N444  1  0.361000  0.578700  0.415900  1.0  -0.3424
  N  N445  1  0.704000  0.254100  0.371300  1.0  -0.3518
  N  N446  1  0.639000  0.054900  0.217700  1.0  -0.342
  N  N447  1  0.117200  0.745900  0.449900  1.0  -0.3509
  N  N448  1  0.162800  0.945100  0.584100  1.0  -0.3422
  N  N449  1  0.745900  0.449900  0.117200  1.0  -0.3478
  N  N450  1  0.945100  0.584100  0.162800  1.0  -0.3398
  N  N451  1  0.254100  0.371300  0.704000  1.0  -0.3495
  N  N452  1  0.054900  0.217700  0.639000  1.0  -0.3399
  N  N453  1  0.667300  0.550100  0.296000  1.0  -0.3477
  N  N454  1  0.578700  0.415900  0.361000  1.0  -0.3426
  N  N455  1  0.332700  0.628700  0.882800  1.0  -0.3524
  N  N456  1  0.421300  0.782300  0.837200  1.0  -0.341
  N  N457  1  0.704000  0.371300  0.254100  1.0  -0.3513
  N  N458  1  0.639000  0.217700  0.054900  1.0  -0.3423
  N  N459  1  0.117200  0.449900  0.745900  1.0  -0.3483
  N  N460  1  0.162800  0.584100  0.945100  1.0  -0.3402
  N  N461  1  0.882800  0.628700  0.332700  1.0  -0.3501
  N  N462  1  0.837200  0.782300  0.421300  1.0  -0.3401
  N  N463  1  0.296000  0.550100  0.667300  1.0  -0.3465
  N  N464  1  0.361000  0.415900  0.578700  1.0  -0.3422
  N  N465  1  0.332700  0.882800  0.628700  1.0  -0.3517
  N  N466  1  0.421300  0.837200  0.782300  1.0  -0.3376
  N  N467  1  0.667300  0.296000  0.550100  1.0  -0.3463
  N  N468  1  0.578700  0.361000  0.415900  1.0  -0.3418
  N  N469  1  0.254100  0.704000  0.371300  1.0  -0.351
  N  N470  1  0.054900  0.639000  0.217700  1.0  -0.3401
  N  N471  1  0.745900  0.117200  0.449900  1.0  -0.3488
  N  N472  1  0.945100  0.162800  0.584100  1.0  -0.3396
  N  N473  1  0.449900  0.745900  0.117200  1.0  -0.3506
  N  N474  1  0.584100  0.945100  0.162800  1.0  -0.3398
  N  N475  1  0.371300  0.254100  0.704000  1.0  -0.3511
  N  N476  1  0.217700  0.054900  0.639000  1.0  -0.3437
  N  N477  1  0.550100  0.667300  0.296000  1.0  -0.3468
  N  N478  1  0.415900  0.578700  0.361000  1.0  -0.3387
  N  N479  1  0.628700  0.332700  0.882800  1.0  -0.3503
  N  N480  1  0.782300  0.421300  0.837200  1.0  -0.3412
  N  N481  1  0.628700  0.296000  0.745900  1.0  -0.3504
  N  N482  1  0.782300  0.361000  0.945100  1.0  -0.3421
  N  N483  1  0.550100  0.882800  0.254100  1.0  -0.3494
  N  N484  1  0.415900  0.837200  0.054900  1.0  -0.3399
  N  N485  1  0.371300  0.117200  0.667300  1.0  -0.3515
  N  N486  1  0.217700  0.162800  0.578700  1.0  -0.338
  N  N487  1  0.449900  0.704000  0.332700  1.0  -0.3477
  N  N488  1  0.584100  0.639000  0.421300  1.0  -0.338
  N  N489  1  0.117200  0.667300  0.371300  1.0  -0.352
  N  N490  1  0.162800  0.578700  0.217700  1.0  -0.3378
  N  N491  1  0.704000  0.332700  0.449900  1.0  -0.3468
  N  N492  1  0.639000  0.421300  0.584100  1.0  -0.3454
  N  N493  1  0.296000  0.745900  0.628700  1.0  -0.353
  N  N494  1  0.361000  0.945100  0.782300  1.0  -0.3381
  N  N495  1  0.882800  0.254100  0.550100  1.0  -0.3497
  N  N496  1  0.837200  0.054900  0.415900  1.0  -0.3416
  N  N497  1  0.254100  0.550100  0.882800  1.0  -0.3479
  N  N498  1  0.054900  0.415900  0.837200  1.0  -0.3389
  N  N499  1  0.745900  0.628700  0.296000  1.0  -0.3497
  N  N500  1  0.945100  0.782300  0.361000  1.0  -0.3397
  N  N501  1  0.332700  0.449900  0.704000  1.0  -0.3483
  N  N502  1  0.421300  0.584100  0.639000  1.0  -0.3404
  N  N503  1  0.667300  0.371300  0.117200  1.0  -0.3527
  N  N504  1  0.578700  0.217700  0.162800  1.0  -0.341
  O  O505  1  0.413440  0.661880  0.825520  1.0  -0.6181
  O  O506  1  0.452730  0.755420  0.948010  1.0  -0.6337
  O  O507  1  0.836360  0.587920  0.174480  1.0  -0.6333
  O  O508  1  0.807410  0.504720  0.051990  1.0  -0.6275
  O  O509  1  0.163640  0.338120  0.751560  1.0  -0.6288
  O  O510  1  0.192590  0.244580  0.697310  1.0  -0.6324
  O  O511  1  0.586560  0.412080  0.248440  1.0  -0.6309
  O  O512  1  0.547270  0.495280  0.302690  1.0  -0.6372
  O  O513  1  0.751560  0.163640  0.338120  1.0  -0.6314
  O  O514  1  0.697310  0.192590  0.244580  1.0  -0.6355
  O  O515  1  0.248440  0.586560  0.412080  1.0  -0.6343
  O  O516  1  0.302690  0.547270  0.495280  1.0  -0.6346
  O  O517  1  0.825520  0.413440  0.661880  1.0  -0.6189
  O  O518  1  0.948010  0.452730  0.755420  1.0  -0.6349
  O  O519  1  0.174480  0.836360  0.587920  1.0  -0.634
  O  O520  1  0.051990  0.807410  0.504720  1.0  -0.6296
  O  O521  1  0.587920  0.174480  0.836360  1.0  -0.6367
  O  O522  1  0.504720  0.051990  0.807410  1.0  -0.6302
  O  O523  1  0.661880  0.825520  0.413440  1.0  -0.6191
  O  O524  1  0.755420  0.948010  0.452730  1.0  -0.6367
  O  O525  1  0.412080  0.248440  0.586560  1.0  -0.6337
  O  O526  1  0.495280  0.302690  0.547270  1.0  -0.6348
  O  O527  1  0.338120  0.751560  0.163640  1.0  -0.6287
  O  O528  1  0.244580  0.697310  0.192590  1.0  -0.6365
  O  O529  1  0.338120  0.586560  0.174480  1.0  -0.6205
  O  O530  1  0.244580  0.547270  0.051990  1.0  -0.6372
  O  O531  1  0.412080  0.163640  0.825520  1.0  -0.638
  O  O532  1  0.495280  0.192590  0.948010  1.0  -0.6287
  O  O533  1  0.661880  0.836360  0.248440  1.0  -0.6291
  O  O534  1  0.755420  0.807410  0.302690  1.0  -0.6356
  O  O535  1  0.587920  0.413440  0.751560  1.0  -0.6323
  O  O536  1  0.504720  0.452730  0.697310  1.0  -0.6349
  O  O537  1  0.836360  0.248440  0.661880  1.0  -0.632
  O  O538  1  0.807410  0.302690  0.755420  1.0  -0.635
  O  O539  1  0.413440  0.751560  0.587920  1.0  -0.6309
  O  O540  1  0.452730  0.697310  0.504720  1.0  -0.6376
  O  O541  1  0.586560  0.174480  0.338120  1.0  -0.6177
  O  O542  1  0.547270  0.051990  0.244580  1.0  -0.6347
  O  O543  1  0.163640  0.825520  0.412080  1.0  -0.6336
  O  O544  1  0.192590  0.948010  0.495280  1.0  -0.6331
  O  O545  1  0.825520  0.412080  0.163640  1.0  -0.633
  O  O546  1  0.948010  0.495280  0.192590  1.0  -0.6319
  O  O547  1  0.174480  0.338120  0.586560  1.0  -0.6189
  O  O548  1  0.051990  0.244580  0.547270  1.0  -0.6333
  O  O549  1  0.751560  0.587920  0.413440  1.0  -0.6355
  O  O550  1  0.697310  0.504720  0.452730  1.0  -0.6339
  O  O551  1  0.248440  0.661880  0.836360  1.0  -0.6282
  O  O552  1  0.302690  0.755420  0.807410  1.0  -0.6341
  O  O553  1  0.586560  0.338120  0.174480  1.0  -0.6165
  O  O554  1  0.547270  0.244580  0.051990  1.0  -0.632
  O  O555  1  0.163640  0.412080  0.825520  1.0  -0.6346
  O  O556  1  0.192590  0.495280  0.948010  1.0  -0.6296
  O  O557  1  0.836360  0.661880  0.248440  1.0  -0.6289
  O  O558  1  0.807410  0.755420  0.302690  1.0  -0.6353
  O  O559  1  0.413440  0.587920  0.751560  1.0  -0.632
  O  O560  1  0.452730  0.504720  0.697310  1.0  -0.6367
  O  O561  1  0.248440  0.836360  0.661880  1.0  -0.6333
  O  O562  1  0.302690  0.807410  0.755420  1.0  -0.6331
  O  O563  1  0.751560  0.413440  0.587920  1.0  -0.6319
  O  O564  1  0.697310  0.452730  0.504720  1.0  -0.6354
  O  O565  1  0.174480  0.586560  0.338120  1.0  -0.6199
  O  O566  1  0.051990  0.547270  0.244580  1.0  -0.636
  O  O567  1  0.825520  0.163640  0.412080  1.0  -0.6338
  O  O568  1  0.948010  0.192590  0.495280  1.0  -0.6307
  O  O569  1  0.412080  0.825520  0.163640  1.0  -0.636
  O  O570  1  0.495280  0.948010  0.192590  1.0  -0.6309
  O  O571  1  0.338120  0.174480  0.586560  1.0  -0.6194
  O  O572  1  0.244580  0.051990  0.547270  1.0  -0.6369
  O  O573  1  0.587920  0.751560  0.413440  1.0  -0.6335
  O  O574  1  0.504720  0.697310  0.452730  1.0  -0.6337
  O  O575  1  0.661880  0.248440  0.836360  1.0  -0.6293
  O  O576  1  0.755420  0.302690  0.807410  1.0  -0.6389
  O  O577  1  0.661880  0.413440  0.825520  1.0  -0.621
  O  O578  1  0.755420  0.452730  0.948010  1.0  -0.6335
  O  O579  1  0.587920  0.836360  0.174480  1.0  -0.6366
  O  O580  1  0.504720  0.807410  0.051990  1.0  -0.6284
  O  O581  1  0.338120  0.163640  0.751560  1.0  -0.6305
  O  O582  1  0.244580  0.192590  0.697310  1.0  -0.6352
  O  O583  1  0.412080  0.586560  0.248440  1.0  -0.6338
  O  O584  1  0.495280  0.547270  0.302690  1.0  -0.6356
  O  O585  1  0.163640  0.751560  0.338120  1.0  -0.6287
  O  O586  1  0.192590  0.697310  0.244580  1.0  -0.6336
  O  O587  1  0.586560  0.248440  0.412080  1.0  -0.6322
  O  O588  1  0.547270  0.302690  0.495280  1.0  -0.638
  O  O589  1  0.413440  0.825520  0.661880  1.0  -0.619
  O  O590  1  0.452730  0.948010  0.755420  1.0  -0.6364
  O  O591  1  0.836360  0.174480  0.587920  1.0  -0.6322
  O  O592  1  0.807410  0.051990  0.504720  1.0  -0.6309
  O  O593  1  0.174480  0.587920  0.836360  1.0  -0.6326
  O  O594  1  0.051990  0.504720  0.807410  1.0  -0.6319
  O  O595  1  0.825520  0.661880  0.413440  1.0  -0.6192
  O  O596  1  0.948010  0.755420  0.452730  1.0  -0.6325
  O  O597  1  0.248440  0.412080  0.586560  1.0  -0.6329
  O  O598  1  0.302690  0.495280  0.547270  1.0  -0.6335
  O  O599  1  0.751560  0.338120  0.163640  1.0  -0.6292
  O  O600  1  0.697310  0.244580  0.192590  1.0  -0.6344
