# generated using pymatgen
data_CuH14C16N2O5
_symmetry_space_group_name_H-M   'P 1'
_cell_length_a   8.59110000
_cell_length_b   8.58720000
_cell_length_c   52.72950000
_cell_angle_alpha   90.00000000
_cell_angle_beta   90.00000000
_cell_angle_gamma   90.00000000
_symmetry_Int_Tables_number   1
_chemical_formula_structural   CuH14C16N2O5
_chemical_formula_sum   'Cu8 H112 C128 N16 O40'
_cell_volume   3890.03944765
_cell_formula_units_Z   8
loop_
 _symmetry_equiv_pos_site_id
 _symmetry_equiv_pos_as_xyz
  1  'x, y, z'
loop_
 _atom_site_type_symbol
 _atom_site_label
 _atom_site_symmetry_multiplicity
 _atom_site_fract_x
 _atom_site_fract_y
 _atom_site_fract_z
 _atom_site_occupancy
 _atom_site_charge
  Cu  Cu1  1  0.405190  0.897840  0.734820  1.0  0.8606
  Cu  Cu2  1  0.183840  0.154710  0.487590  1.0  0.8609
  Cu  Cu3  1  0.094810  0.102160  0.234820  1.0  0.8605
  Cu  Cu4  1  0.316160  0.845290  0.987590  1.0  0.8626
  Cu  Cu5  1  0.594810  0.397840  0.765180  1.0  0.8608
  Cu  Cu6  1  0.816160  0.654710  0.012410  1.0  0.8628
  Cu  Cu7  1  0.905190  0.602160  0.265180  1.0  0.8605
  Cu  Cu8  1  0.683840  0.345290  0.512410  1.0  0.8617
  H  H9  1  0.900200  0.825300  0.709600  1.0  0.1245
  H  H10  1  0.908400  0.643200  0.716100  1.0  0.1299
  H  H11  1  0.899300  0.890600  0.752800  1.0  0.103
  H  H12  1  0.900200  0.702400  0.780900  1.0  0.422
  H  H13  1  0.260400  0.652900  0.461100  1.0  0.1269
  H  H14  1  0.441200  0.663000  0.468300  1.0  0.1232
  H  H15  1  0.191700  0.651500  0.504000  1.0  0.0932
  H  H16  1  0.450300  0.611600  0.525400  1.0  0.3393
  H  H17  1  0.571900  0.774300  0.688500  1.0  0.0858
  H  H18  1  0.554300  0.796000  0.645100  1.0  0.1138
  H  H19  1  0.255800  0.153900  0.654400  1.0  0.1268
  H  H20  1  0.272200  0.113100  0.697900  1.0  0.1063
  H  H21  1  0.449700  0.916100  0.606700  1.0  0.1012
  H  H22  1  0.237700  0.160100  0.614800  1.0  0.1109
  H  H23  1  0.452500  0.958900  0.565000  1.0  0.1235
  H  H24  1  0.407500  0.989200  0.522400  1.0  0.0753
  H  H25  1  0.067500  0.283100  0.535200  1.0  0.076
  H  H26  1  0.104600  0.265100  0.578700  1.0  0.1289
  H  H27  1  0.557600  0.012900  0.781100  1.0  0.0845
  H  H28  1  0.539700  0.987200  0.824900  1.0  0.1202
  H  H29  1  0.207700  0.662800  0.814900  1.0  0.1023
  H  H30  1  0.230400  0.692600  0.771300  1.0  0.0993
  H  H31  1  0.267500  0.722600  0.856800  1.0  0.0896
  H  H32  1  0.505000  0.931900  0.864700  1.0  0.0904
  H  H33  1  0.216100  0.686700  0.897700  1.0  0.1205
  H  H34  1  0.191000  0.674400  0.942000  1.0  0.0951
  H  H35  1  0.528700  0.983400  0.949800  1.0  0.1922
  H  H36  1  0.568800  0.992000  0.906200  1.0  0.1284
  H  H37  1  0.599800  0.174700  0.209600  1.0  0.125
  H  H38  1  0.591600  0.356800  0.216100  1.0  0.1292
  H  H39  1  0.600700  0.109400  0.252800  1.0  0.1024
  H  H40  1  0.599800  0.297600  0.280900  1.0  0.4218
  H  H41  1  0.239600  0.347100  0.961100  1.0  0.1262
  H  H42  1  0.058800  0.337000  0.968300  1.0  0.1236
  H  H43  1  0.308300  0.348500  0.004000  1.0  0.0943
  H  H44  1  0.049700  0.388400  0.025400  1.0  0.3383
  H  H45  1  0.928100  0.225700  0.188500  1.0  0.0856
  H  H46  1  0.945700  0.204000  0.145100  1.0  0.1142
  H  H47  1  0.244200  0.846100  0.154400  1.0  0.1269
  H  H48  1  0.227800  0.886900  0.197900  1.0  0.1058
  H  H49  1  0.050300  0.083900  0.106700  1.0  0.1022
  H  H50  1  0.262300  0.839900  0.114800  1.0  0.1106
  H  H51  1  0.047500  0.041100  0.065000  1.0  0.1236
  H  H52  1  0.092500  0.010800  0.022400  1.0  0.0757
  H  H53  1  0.432500  0.716900  0.035200  1.0  0.0759
  H  H54  1  0.395400  0.734900  0.078700  1.0  0.1289
  H  H55  1  0.942400  0.987100  0.281100  1.0  0.0844
  H  H56  1  0.960300  0.012800  0.324900  1.0  0.1203
  H  H57  1  0.292300  0.337200  0.314900  1.0  0.1018
  H  H58  1  0.269600  0.307400  0.271300  1.0  0.0988
  H  H59  1  0.232500  0.277400  0.356800  1.0  0.0904
  H  H60  1  0.995000  0.068100  0.364700  1.0  0.0895
  H  H61  1  0.283900  0.313300  0.397700  1.0  0.1213
  H  H62  1  0.309000  0.325600  0.442000  1.0  0.0951
  H  H63  1  0.971300  0.016600  0.449800  1.0  0.191
  H  H64  1  0.931200  0.008000  0.406200  1.0  0.1283
  H  H65  1  0.099800  0.325300  0.790400  1.0  0.1252
  H  H66  1  0.091600  0.143200  0.783900  1.0  0.1306
  H  H67  1  0.100700  0.390600  0.747200  1.0  0.103
  H  H68  1  0.099800  0.202400  0.719100  1.0  0.4215
  H  H69  1  0.739600  0.152900  0.038900  1.0  0.1287
  H  H70  1  0.558800  0.163000  0.031700  1.0  0.1236
  H  H71  1  0.808300  0.151500  0.996000  1.0  0.0937
  H  H72  1  0.549700  0.111600  0.974600  1.0  0.3404
  H  H73  1  0.428100  0.274300  0.811500  1.0  0.0853
  H  H74  1  0.445700  0.296000  0.854900  1.0  0.1138
  H  H75  1  0.744200  0.653900  0.845600  1.0  0.1268
  H  H76  1  0.727800  0.613100  0.802100  1.0  0.1062
  H  H77  1  0.550300  0.416100  0.893300  1.0  0.1011
  H  H78  1  0.762300  0.660100  0.885200  1.0  0.1111
  H  H79  1  0.547500  0.458900  0.935000  1.0  0.1231
  H  H80  1  0.592500  0.489200  0.977600  1.0  0.0759
  H  H81  1  0.932500  0.783100  0.964800  1.0  0.0753
  H  H82  1  0.895400  0.765100  0.921300  1.0  0.1293
  H  H83  1  0.442400  0.512900  0.718900  1.0  0.0845
  H  H84  1  0.460300  0.487200  0.675100  1.0  0.1206
  H  H85  1  0.792300  0.162800  0.685100  1.0  0.1022
  H  H86  1  0.769600  0.192600  0.728700  1.0  0.0997
  H  H87  1  0.732500  0.222600  0.643200  1.0  0.0906
  H  H88  1  0.495000  0.431900  0.635300  1.0  0.0902
  H  H89  1  0.783900  0.186700  0.602300  1.0  0.1209
  H  H90  1  0.809000  0.174400  0.558000  1.0  0.0944
  H  H91  1  0.471300  0.483400  0.550200  1.0  0.1932
  H  H92  1  0.431200  0.492000  0.593800  1.0  0.1287
  H  H93  1  0.400200  0.674700  0.290400  1.0  0.1259
  H  H94  1  0.408400  0.856800  0.283900  1.0  0.1294
  H  H95  1  0.399300  0.609400  0.247200  1.0  0.102
  H  H96  1  0.400200  0.797600  0.219100  1.0  0.4227
  H  H97  1  0.760400  0.847100  0.538900  1.0  0.128
  H  H98  1  0.941200  0.837000  0.531700  1.0  0.1242
  H  H99  1  0.691700  0.848500  0.496000  1.0  0.0933
  H  H100  1  0.950300  0.888400  0.474600  1.0  0.3398
  H  H101  1  0.071900  0.725700  0.311500  1.0  0.0854
  H  H102  1  0.054300  0.704000  0.354900  1.0  0.1138
  H  H103  1  0.755800  0.346100  0.345600  1.0  0.1263
  H  H104  1  0.772200  0.386900  0.302100  1.0  0.1061
  H  H105  1  0.949700  0.583900  0.393300  1.0  0.1016
  H  H106  1  0.737700  0.339900  0.385200  1.0  0.1101
  H  H107  1  0.952500  0.541100  0.435000  1.0  0.1236
  H  H108  1  0.907500  0.510800  0.477600  1.0  0.0754
  H  H109  1  0.567500  0.216900  0.464800  1.0  0.0755
  H  H110  1  0.604600  0.234900  0.421300  1.0  0.129
  H  H111  1  0.057600  0.487100  0.218900  1.0  0.0849
  H  H112  1  0.039700  0.512800  0.175100  1.0  0.1209
  H  H113  1  0.707700  0.837200  0.185100  1.0  0.1022
  H  H114  1  0.730400  0.807400  0.228700  1.0  0.0996
  H  H115  1  0.767500  0.777400  0.143200  1.0  0.09
  H  H116  1  0.005000  0.568100  0.135300  1.0  0.0901
  H  H117  1  0.716100  0.813300  0.102300  1.0  0.1202
  H  H118  1  0.691000  0.825600  0.058000  1.0  0.0951
  H  H119  1  0.028700  0.516600  0.050200  1.0  0.1918
  H  H120  1  0.068800  0.508000  0.093800  1.0  0.1277
  C  C121  1  0.120100  0.757000  0.722410  1.0  0.7294
  C  C122  1  0.941000  0.748100  0.721800  1.0  -0.3587
  C  C123  1  0.873300  0.780700  0.748180  1.0  0.0966
  C  C124  1  0.695300  0.766800  0.746770  1.0  0.6478
  C  C125  1  0.324500  0.871800  0.474290  1.0  0.7333
  C  C126  1  0.335200  0.694000  0.473730  1.0  -0.3398
  C  C127  1  0.300800  0.623400  0.499290  1.0  0.1013
  C  C128  1  0.310700  0.447900  0.497620  1.0  0.654
  C  C129  1  0.503000  0.849200  0.681510  1.0  0.1582
  C  C130  1  0.494800  0.863900  0.655540  1.0  -0.1631
  C  C131  1  0.402000  0.975300  0.644320  1.0  0.1029
  C  C132  1  0.319000  0.072200  0.660850  1.0  -0.2233
  C  C133  1  0.330100  0.047300  0.686960  1.0  0.1677
  C  C134  1  0.389600  0.985700  0.616730  1.0  -0.1753
  C  C135  1  0.296300  0.090200  0.604650  1.0  -0.1364
  C  C136  1  0.279700  0.102600  0.576860  1.0  0.1023
  C  C137  1  0.370800  0.025200  0.559390  1.0  -0.1942
  C  C138  1  0.343600  0.044000  0.534100  1.0  0.1677
  C  C139  1  0.146000  0.215500  0.541510  1.0  0.1637
  C  C140  1  0.166400  0.204600  0.567470  1.0  -0.2149
  C  C141  1  0.483200  0.943000  0.788070  1.0  0.1657
  C  C142  1  0.473300  0.927900  0.814190  1.0  -0.1894
  C  C143  1  0.364100  0.824000  0.824840  1.0  0.0618
  C  C144  1  0.278600  0.737600  0.808410  1.0  -0.1285
  C  C145  1  0.291600  0.755400  0.782290  1.0  0.1263
  C  C146  1  0.344200  0.796200  0.851860  1.0  -0.1276
  C  C147  1  0.423100  0.864100  0.869690  1.0  -0.1169
  C  C148  1  0.394700  0.843500  0.897300  1.0  0.0129
  C  C149  1  0.281900  0.748000  0.908170  1.0  -0.1363
  C  C150  1  0.265700  0.742300  0.934610  1.0  0.149
  C  C151  1  0.464400  0.921800  0.939130  1.0  0.1408
  C  C152  1  0.488300  0.928700  0.913040  1.0  -0.1974
  C  C153  1  0.379900  0.243000  0.222410  1.0  0.7292
  C  C154  1  0.559000  0.251900  0.221800  1.0  -0.3569
  C  C155  1  0.626700  0.219300  0.248180  1.0  0.0966
  C  C156  1  0.804700  0.233200  0.246770  1.0  0.6505
  C  C157  1  0.175500  0.128200  0.974290  1.0  0.7341
  C  C158  1  0.164800  0.306000  0.973730  1.0  -0.3405
  C  C159  1  0.199200  0.376600  0.999290  1.0  0.1034
  C  C160  1  0.189300  0.552100  0.997620  1.0  0.6526
  C  C161  1  0.997000  0.150800  0.181510  1.0  0.1595
  C  C162  1  0.005200  0.136100  0.155540  1.0  -0.1639
  C  C163  1  0.098000  0.024700  0.144320  1.0  0.1036
  C  C164  1  0.181000  0.927800  0.160850  1.0  -0.2251
  C  C165  1  0.169900  0.952700  0.186960  1.0  0.1674
  C  C166  1  0.110400  0.014300  0.116730  1.0  -0.1751
  C  C167  1  0.203700  0.909800  0.104650  1.0  -0.1368
  C  C168  1  0.220300  0.897400  0.076860  1.0  0.1013
  C  C169  1  0.129200  0.974800  0.059390  1.0  -0.1938
  C  C170  1  0.156400  0.956000  0.034100  1.0  0.1684
  C  C171  1  0.354000  0.784500  0.041510  1.0  0.1624
  C  C172  1  0.333600  0.795400  0.067470  1.0  -0.2162
  C  C173  1  0.016800  0.057000  0.288070  1.0  0.1664
  C  C174  1  0.026700  0.072100  0.314190  1.0  -0.1896
  C  C175  1  0.135900  0.176000  0.324840  1.0  0.0624
  C  C176  1  0.221400  0.262400  0.308410  1.0  -0.1267
  C  C177  1  0.208400  0.244600  0.282290  1.0  0.1261
  C  C178  1  0.155800  0.203800  0.351860  1.0  -0.1273
  C  C179  1  0.076900  0.135900  0.369690  1.0  -0.1161
  C  C180  1  0.105300  0.156500  0.397300  1.0  0.0134
  C  C181  1  0.218100  0.252000  0.408170  1.0  -0.1368
  C  C182  1  0.234300  0.257700  0.434610  1.0  0.1481
  C  C183  1  0.035600  0.078200  0.439130  1.0  0.1421
  C  C184  1  0.011700  0.071300  0.413040  1.0  -0.2013
  C  C185  1  0.879900  0.257000  0.777590  1.0  0.7277
  C  C186  1  0.059000  0.248100  0.778200  1.0  -0.3585
  C  C187  1  0.126700  0.280700  0.751820  1.0  0.0966
  C  C188  1  0.304700  0.266800  0.753230  1.0  0.6507
  C  C189  1  0.675500  0.371800  0.025710  1.0  0.7341
  C  C190  1  0.664800  0.194000  0.026270  1.0  -0.3426
  C  C191  1  0.699200  0.123400  0.000710  1.0  0.1037
  C  C192  1  0.689300  0.947900  0.002380  1.0  0.654
  C  C193  1  0.497000  0.349200  0.818490  1.0  0.1577
  C  C194  1  0.505200  0.363900  0.844460  1.0  -0.1639
  C  C195  1  0.598000  0.475300  0.855680  1.0  0.1036
  C  C196  1  0.681000  0.572200  0.839150  1.0  -0.226
  C  C197  1  0.669900  0.547300  0.813040  1.0  0.1674
  C  C198  1  0.610400  0.485700  0.883270  1.0  -0.1757
  C  C199  1  0.703700  0.590200  0.895350  1.0  -0.1372
  C  C200  1  0.720300  0.602600  0.923140  1.0  0.1005
  C  C201  1  0.629200  0.525200  0.940610  1.0  -0.1947
  C  C202  1  0.656400  0.544000  0.965900  1.0  0.1687
  C  C203  1  0.854000  0.715500  0.958490  1.0  0.1622
  C  C204  1  0.833600  0.704600  0.932530  1.0  -0.2159
  C  C205  1  0.516800  0.443000  0.711930  1.0  0.1654
  C  C206  1  0.526700  0.427900  0.685810  1.0  -0.1894
  C  C207  1  0.635900  0.324000  0.675160  1.0  0.0633
  C  C208  1  0.721400  0.237600  0.691590  1.0  -0.1269
  C  C209  1  0.708400  0.255400  0.717710  1.0  0.1259
  C  C210  1  0.655800  0.296200  0.648140  1.0  -0.1278
  C  C211  1  0.576900  0.364100  0.630310  1.0  -0.1165
  C  C212  1  0.605300  0.343500  0.602700  1.0  0.0124
  C  C213  1  0.718100  0.248000  0.591830  1.0  -0.1366
  C  C214  1  0.734300  0.242300  0.565390  1.0  0.1471
  C  C215  1  0.535600  0.421800  0.560870  1.0  0.1399
  C  C216  1  0.511700  0.428700  0.586960  1.0  -0.2004
  C  C217  1  0.620100  0.743000  0.277590  1.0  0.7286
  C  C218  1  0.441000  0.751900  0.278200  1.0  -0.36
  C  C219  1  0.373300  0.719300  0.251820  1.0  0.0974
  C  C220  1  0.195300  0.733200  0.253230  1.0  0.6475
  C  C221  1  0.824500  0.628200  0.525710  1.0  0.7343
  C  C222  1  0.835200  0.806000  0.526270  1.0  -0.3394
  C  C223  1  0.800800  0.876600  0.500710  1.0  0.1026
  C  C224  1  0.810700  0.052100  0.502380  1.0  0.6529
  C  C225  1  0.003000  0.650800  0.318490  1.0  0.1578
  C  C226  1  0.994800  0.636100  0.344460  1.0  -0.1634
  C  C227  1  0.902000  0.524700  0.355680  1.0  0.105
  C  C228  1  0.819000  0.427800  0.339150  1.0  -0.2248
  C  C229  1  0.830100  0.452700  0.313040  1.0  0.1678
  C  C230  1  0.889600  0.514300  0.383270  1.0  -0.175
  C  C231  1  0.796300  0.409800  0.395350  1.0  -0.1373
  C  C232  1  0.779700  0.397400  0.423140  1.0  0.1013
  C  C233  1  0.870800  0.474800  0.440610  1.0  -0.1947
  C  C234  1  0.843600  0.456000  0.465900  1.0  0.1678
  C  C235  1  0.646000  0.284500  0.458490  1.0  0.1634
  C  C236  1  0.666400  0.295400  0.432530  1.0  -0.2145
  C  C237  1  0.983200  0.557000  0.211930  1.0  0.1644
  C  C238  1  0.973300  0.572100  0.185810  1.0  -0.1899
  C  C239  1  0.864100  0.676000  0.175160  1.0  0.0615
  C  C240  1  0.778600  0.762400  0.191590  1.0  -0.1278
  C  C241  1  0.791600  0.744600  0.217710  1.0  0.1262
  C  C242  1  0.844200  0.703800  0.148140  1.0  -0.1275
  C  C243  1  0.923100  0.635900  0.130310  1.0  -0.1167
  C  C244  1  0.894700  0.656500  0.102700  1.0  0.0142
  C  C245  1  0.781900  0.752000  0.091830  1.0  -0.1357
  C  C246  1  0.765700  0.757700  0.065390  1.0  0.1484
  C  C247  1  0.964400  0.578200  0.060870  1.0  0.1405
  C  C248  1  0.988300  0.571300  0.086960  1.0  -0.2011
  N  N249  1  0.417100  0.936700  0.697210  1.0  -0.3279
  N  N250  1  0.231200  0.135900  0.524990  1.0  -0.3196
  N  N251  1  0.391700  0.862600  0.772270  1.0  -0.3246
  N  N252  1  0.355600  0.832900  0.949860  1.0  -0.3397
  N  N253  1  0.082900  0.063300  0.197210  1.0  -0.3276
  N  N254  1  0.268800  0.864100  0.024990  1.0  -0.3191
  N  N255  1  0.108300  0.137400  0.272270  1.0  -0.3248
  N  N256  1  0.144400  0.167100  0.449860  1.0  -0.3384
  N  N257  1  0.582900  0.436700  0.802790  1.0  -0.3287
  N  N258  1  0.768800  0.635900  0.975010  1.0  -0.3186
  N  N259  1  0.608300  0.362600  0.727730  1.0  -0.3251
  N  N260  1  0.644400  0.332900  0.550140  1.0  -0.3393
  N  N261  1  0.917100  0.563300  0.302790  1.0  -0.3281
  N  N262  1  0.731200  0.364100  0.475010  1.0  -0.3192
  N  N263  1  0.891700  0.637400  0.227730  1.0  -0.3255
  N  N264  1  0.855600  0.667100  0.050140  1.0  -0.3391
  O  O265  1  0.175600  0.882100  0.732050  1.0  -0.593
  O  O266  1  0.201400  0.649900  0.713990  1.0  -0.586
  O  O267  1  0.939200  0.682100  0.766700  1.0  -0.5261
  O  O268  1  0.631900  0.881700  0.735210  1.0  -0.5781
  O  O269  1  0.629200  0.654500  0.756080  1.0  -0.6356
  O  O270  1  0.201000  0.926200  0.484690  1.0  -0.5823
  O  O271  1  0.431800  0.952600  0.465950  1.0  -0.5895
  O  O272  1  0.402300  0.684900  0.518320  1.0  -0.5402
  O  O273  1  0.186100  0.381300  0.488860  1.0  -0.5933
  O  O274  1  0.430400  0.377000  0.503610  1.0  -0.599
  O  O275  1  0.324400  0.117900  0.232050  1.0  -0.5921
  O  O276  1  0.298600  0.350100  0.213990  1.0  -0.5861
  O  O277  1  0.560800  0.317900  0.266700  1.0  -0.5262
  O  O278  1  0.868100  0.118300  0.235210  1.0  -0.5772
  O  O279  1  0.870800  0.345500  0.256080  1.0  -0.6361
  O  O280  1  0.299000  0.073800  0.984690  1.0  -0.5816
  O  O281  1  0.068200  0.047400  0.965950  1.0  -0.5886
  O  O282  1  0.097700  0.315100  0.018320  1.0  -0.5407
  O  O283  1  0.313900  0.618700  0.988860  1.0  -0.5937
  O  O284  1  0.069600  0.623000  0.003610  1.0  -0.5991
  O  O285  1  0.824400  0.382100  0.767950  1.0  -0.5911
  O  O286  1  0.798600  0.149900  0.786010  1.0  -0.5856
  O  O287  1  0.060800  0.182100  0.733300  1.0  -0.5262
  O  O288  1  0.368100  0.381700  0.764790  1.0  -0.5777
  O  O289  1  0.370800  0.154500  0.743920  1.0  -0.6362
  O  O290  1  0.799000  0.426200  0.015310  1.0  -0.5816
  O  O291  1  0.568200  0.452600  0.034050  1.0  -0.5882
  O  O292  1  0.597700  0.184900  0.981680  1.0  -0.5403
  O  O293  1  0.813900  0.881300  0.011140  1.0  -0.5937
  O  O294  1  0.569600  0.877000  0.996390  1.0  -0.5994
  O  O295  1  0.675600  0.617900  0.267950  1.0  -0.5921
  O  O296  1  0.701400  0.850100  0.286010  1.0  -0.5856
  O  O297  1  0.439200  0.817900  0.233300  1.0  -0.5264
  O  O298  1  0.131900  0.618300  0.264790  1.0  -0.5784
  O  O299  1  0.129200  0.845500  0.243920  1.0  -0.6361
  O  O300  1  0.701000  0.573800  0.515310  1.0  -0.5821
  O  O301  1  0.931800  0.547400  0.534050  1.0  -0.5883
  O  O302  1  0.902300  0.815100  0.481680  1.0  -0.5405
  O  O303  1  0.686100  0.118700  0.511140  1.0  -0.5928
  O  O304  1  0.930400  0.123000  0.496390  1.0  -0.6005
