# generated using pymatgen
data_NiH12C14N2O5
_symmetry_space_group_name_H-M   'P 1'
_cell_length_a   9.99160000
_cell_length_b   16.36010000
_cell_length_c   16.53440000
_cell_angle_alpha   90.00000000
_cell_angle_beta   90.00000000
_cell_angle_gamma   90.00000000
_symmetry_Int_Tables_number   1
_chemical_formula_structural   NiH12C14N2O5
_chemical_formula_sum   'Ni4 H48 C56 N8 O20'
_cell_volume   2702.77213713
_cell_formula_units_Z   4
loop_
 _symmetry_equiv_pos_site_id
 _symmetry_equiv_pos_as_xyz
  1  'x, y, z'
loop_
 _atom_site_type_symbol
 _atom_site_label
 _atom_site_symmetry_multiplicity
 _atom_site_fract_x
 _atom_site_fract_y
 _atom_site_fract_z
 _atom_site_occupancy
 _atom_site_charge
  Ni  Ni1  1  0.310890  0.213750  0.546560  1.0  0.8767
  Ni  Ni2  1  0.189110  0.786250  0.046560  1.0  0.8763
  Ni  Ni3  1  0.689110  0.713750  0.953440  1.0  0.8767
  Ni  Ni4  1  0.810890  0.286250  0.453440  1.0  0.8772
  H  H5  1  0.430900  0.261100  0.303300  1.0  0.1199
  H  H6  1  0.398300  0.344700  0.349600  1.0  0.1277
  H  H7  1  0.201700  0.265000  0.340800  1.0  0.0952
  H  H8  1  0.135000  0.295500  0.465000  1.0  0.3326
  H  H9  1  0.767200  0.620700  0.800500  1.0  0.1075
  H  H10  1  0.675700  0.529100  0.709200  1.0  0.1211
  H  H11  1  0.368100  0.493000  0.866000  1.0  0.123
  H  H12  1  0.458300  0.593300  0.946800  1.0  0.096
  H  H13  1  0.362300  0.368400  0.805200  1.0  0.1102
  H  H14  1  0.281700  0.272100  0.721700  1.0  0.0824
  H  H15  1  0.431700  0.381800  0.535900  1.0  0.0755
  H  H16  1  0.516400  0.488600  0.617000  1.0  0.1205
  H  H17  1  0.069100  0.738900  0.803300  1.0  0.1198
  H  H18  1  0.101700  0.655300  0.849600  1.0  0.1262
  H  H19  1  0.298300  0.735000  0.840800  1.0  0.0943
  H  H20  1  0.365000  0.704500  0.965000  1.0  0.3309
  H  H21  1  0.732800  0.379300  0.300500  1.0  0.1069
  H  H22  1  0.824300  0.470900  0.209200  1.0  0.1209
  H  H23  1  0.131900  0.507000  0.366000  1.0  0.1233
  H  H24  1  0.041700  0.406700  0.446800  1.0  0.096
  H  H25  1  0.137700  0.631600  0.305200  1.0  0.1102
  H  H26  1  0.218300  0.727900  0.221700  1.0  0.0818
  H  H27  1  0.068300  0.618200  0.035900  1.0  0.0759
  H  H28  1  0.983600  0.511400  0.117000  1.0  0.1199
  H  H29  1  0.569100  0.761100  0.196700  1.0  0.1211
  H  H30  1  0.601700  0.844700  0.150400  1.0  0.1271
  H  H31  1  0.798300  0.765000  0.159200  1.0  0.0928
  H  H32  1  0.865000  0.795500  0.035000  1.0  0.3331
  H  H33  1  0.232800  0.120700  0.699500  1.0  0.1064
  H  H34  1  0.324300  0.029100  0.790800  1.0  0.1214
  H  H35  1  0.631900  0.993000  0.634000  1.0  0.1235
  H  H36  1  0.541700  0.093300  0.553200  1.0  0.0958
  H  H37  1  0.637700  0.868400  0.694800  1.0  0.1092
  H  H38  1  0.718300  0.772100  0.778300  1.0  0.0843
  H  H39  1  0.568300  0.881800  0.964100  1.0  0.075
  H  H40  1  0.483600  0.988600  0.883000  1.0  0.1213
  H  H41  1  0.930900  0.238900  0.696700  1.0  0.1211
  H  H42  1  0.898300  0.155300  0.650400  1.0  0.1271
  H  H43  1  0.701700  0.235000  0.659200  1.0  0.0928
  H  H44  1  0.635000  0.204500  0.535000  1.0  0.3313
  H  H45  1  0.267200  0.879300  0.199500  1.0  0.107
  H  H46  1  0.175700  0.970900  0.290800  1.0  0.1212
  H  H47  1  0.868100  0.007000  0.134000  1.0  0.1232
  H  H48  1  0.958300  0.906700  0.053200  1.0  0.0966
  H  H49  1  0.862300  0.131600  0.194800  1.0  0.1084
  H  H50  1  0.781700  0.227900  0.278300  1.0  0.0834
  H  H51  1  0.931700  0.118200  0.464100  1.0  0.0761
  H  H52  1  0.016400  0.011400  0.383000  1.0  0.1216
  C  C53  1  0.516800  0.266200  0.417400  1.0  0.6901
  C  C54  1  0.406100  0.284700  0.356300  1.0  -0.3694
  C  C55  1  0.269700  0.250000  0.382600  1.0  0.0616
  C  C56  1  0.271200  0.159800  0.390900  1.0  0.7057
  C  C57  1  0.680800  0.598800  0.810800  1.0  0.1723
  C  C58  1  0.629700  0.541500  0.758000  1.0  -0.1634
  C  C59  1  0.506000  0.500500  0.777200  1.0  0.0797
  C  C60  1  0.446800  0.520700  0.849000  1.0  -0.195
  C  C61  1  0.501400  0.581500  0.896900  1.0  0.1496
  C  C62  1  0.451600  0.436300  0.722400  1.0  0.0759
  C  C63  1  0.381000  0.372500  0.749000  1.0  -0.1761
  C  C64  1  0.335800  0.314200  0.699400  1.0  0.1711
  C  C65  1  0.421600  0.377900  0.592900  1.0  0.1684
  C  C66  1  0.471700  0.443100  0.640300  1.0  -0.2263
  C  C67  1  0.983200  0.733800  0.917400  1.0  0.6897
  C  C68  1  0.093900  0.715300  0.856300  1.0  -0.3651
  C  C69  1  0.230300  0.750000  0.882600  1.0  0.0632
  C  C70  1  0.228800  0.840200  0.890900  1.0  0.7096
  C  C71  1  0.819200  0.401200  0.310800  1.0  0.1703
  C  C72  1  0.870300  0.458500  0.258000  1.0  -0.1633
  C  C73  1  0.994000  0.499500  0.277200  1.0  0.0803
  C  C74  1  0.053200  0.479300  0.349000  1.0  -0.1955
  C  C75  1  0.998600  0.418500  0.396900  1.0  0.1468
  C  C76  1  0.048400  0.563700  0.222400  1.0  0.0755
  C  C77  1  0.119000  0.627500  0.249000  1.0  -0.1754
  C  C78  1  0.164200  0.685800  0.199400  1.0  0.1721
  C  C79  1  0.078400  0.622100  0.092900  1.0  0.1688
  C  C80  1  0.028300  0.556900  0.140300  1.0  -0.2274
  C  C81  1  0.483200  0.766200  0.082600  1.0  0.6881
  C  C82  1  0.593900  0.784700  0.143700  1.0  -0.3689
  C  C83  1  0.730300  0.750000  0.117400  1.0  0.0636
  C  C84  1  0.728800  0.659800  0.109100  1.0  0.707
  C  C85  1  0.319200  0.098800  0.689200  1.0  0.1699
  C  C86  1  0.370300  0.041500  0.742000  1.0  -0.1649
  C  C87  1  0.494000  0.000500  0.722800  1.0  0.0804
  C  C88  1  0.553200  0.020700  0.651000  1.0  -0.1952
  C  C89  1  0.498600  0.081500  0.603100  1.0  0.1491
  C  C90  1  0.548400  0.936300  0.777600  1.0  0.0752
  C  C91  1  0.619000  0.872500  0.751000  1.0  -0.175
  C  C92  1  0.664200  0.814200  0.800600  1.0  0.1708
  C  C93  1  0.578400  0.877900  0.907100  1.0  0.1693
  C  C94  1  0.528300  0.943100  0.859700  1.0  -0.2273
  C  C95  1  0.016800  0.233800  0.582600  1.0  0.6888
  C  C96  1  0.906100  0.215300  0.643700  1.0  -0.3688
  C  C97  1  0.769700  0.250000  0.617400  1.0  0.0627
  C  C98  1  0.771200  0.340200  0.609100  1.0  0.7091
  C  C99  1  0.180800  0.901200  0.189200  1.0  0.1716
  C  C100  1  0.129700  0.958500  0.242000  1.0  -0.1646
  C  C101  1  0.006000  0.999500  0.222800  1.0  0.0806
  C  C102  1  0.946800  0.979300  0.151000  1.0  -0.196
  C  C103  1  0.001400  0.918500  0.103100  1.0  0.1462
  C  C104  1  0.951600  0.063700  0.277600  1.0  0.0752
  C  C105  1  0.881000  0.127500  0.251000  1.0  -0.1741
  C  C106  1  0.835800  0.185800  0.300600  1.0  0.173
  C  C107  1  0.921600  0.122100  0.407100  1.0  0.1683
  C  C108  1  0.971700  0.056900  0.359700  1.0  -0.2285
  N  N109  1  0.612000  0.625500  0.877700  1.0  -0.3471
  N  N110  1  0.361600  0.311900  0.621900  1.0  -0.3116
  N  N111  1  0.888000  0.374500  0.377700  1.0  -0.3481
  N  N112  1  0.138400  0.688100  0.121900  1.0  -0.3115
  N  N113  1  0.388000  0.125500  0.622300  1.0  -0.3476
  N  N114  1  0.638400  0.811900  0.878100  1.0  -0.3116
  N  N115  1  0.112000  0.874500  0.122300  1.0  -0.3482
  N  N116  1  0.861600  0.188100  0.378100  1.0  -0.3114
  O  O117  1  0.492500  0.231300  0.484100  1.0  -0.6074
  O  O118  1  0.629300  0.292000  0.394400  1.0  -0.5947
  O  O119  1  0.234800  0.291500  0.458300  1.0  -0.5559
  O  O120  1  0.285900  0.118200  0.329500  1.0  -0.5402
  O  O121  1  0.261800  0.129700  0.461200  1.0  -0.575
  O  O122  1  0.007500  0.768700  0.984100  1.0  -0.608
  O  O123  1  0.870700  0.708000  0.894400  1.0  -0.5936
  O  O124  1  0.265200  0.708500  0.958300  1.0  -0.5557
  O  O125  1  0.214100  0.881800  0.829500  1.0  -0.5396
  O  O126  1  0.238200  0.870300  0.961200  1.0  -0.5763
  O  O127  1  0.507500  0.731300  0.015900  1.0  -0.6072
  O  O128  1  0.370700  0.792000  0.105600  1.0  -0.594
  O  O129  1  0.765200  0.791500  0.041700  1.0  -0.5564
  O  O130  1  0.714100  0.618200  0.170500  1.0  -0.5378
  O  O131  1  0.738200  0.629700  0.038800  1.0  -0.5753
  O  O132  1  0.992500  0.268700  0.515900  1.0  -0.6075
  O  O133  1  0.129300  0.208000  0.605600  1.0  -0.5945
  O  O134  1  0.734800  0.208500  0.541700  1.0  -0.5538
  O  O135  1  0.785900  0.381800  0.670500  1.0  -0.5385
  O  O136  1  0.761800  0.370300  0.538800  1.0  -0.5764
