# generated using pymatgen
data_Cu4MoH28C28(S2N3)2
_symmetry_space_group_name_H-M   'P 1'
_cell_length_a   9.67010000
_cell_length_b   11.74200000
_cell_length_c   18.85200000
_cell_angle_alpha   90.00000000
_cell_angle_beta   97.91000000
_cell_angle_gamma   90.00000000
_symmetry_Int_Tables_number   1
_chemical_formula_structural   Cu4MoH28C28(S2N3)2
_chemical_formula_sum   'Cu8 Mo2 H56 C56 S8 N12'
_cell_volume   2120.20852678
_cell_formula_units_Z   2
loop_
 _symmetry_equiv_pos_site_id
 _symmetry_equiv_pos_as_xyz
  1  'x, y, z'
loop_
 _atom_site_type_symbol
 _atom_site_label
 _atom_site_symmetry_multiplicity
 _atom_site_fract_x
 _atom_site_fract_y
 _atom_site_fract_z
 _atom_site_occupancy
 _atom_site_charge
  Cu  Cu1  1  0.961860  0.624830  0.889660  1.0  0.2843
  Cu  Cu2  1  0.279390  0.627140  0.789590  1.0  0.3219
  Cu  Cu3  1  0.038140  0.624830  0.610340  1.0  0.286
  Cu  Cu4  1  0.720610  0.627140  0.710410  1.0  0.3235
  Cu  Cu5  1  0.038140  0.375170  0.110340  1.0  0.2857
  Cu  Cu6  1  0.720610  0.372860  0.210410  1.0  0.3234
  Cu  Cu7  1  0.961860  0.375170  0.389660  1.0  0.2844
  Cu  Cu8  1  0.279390  0.372860  0.289590  1.0  0.3217
  Mo  Mo9  1  0.000000  0.627190  0.750000  1.0  0.6994
  Mo  Mo10  1  0.000000  0.372810  0.250000  1.0  0.6996
  H  H11  1  0.571300  0.557000  0.854000  1.0  0.0767
  H  H12  1  0.687800  0.427900  0.932700  1.0  0.123
  H  H13  1  0.316700  0.305500  0.968200  1.0  0.0976
  H  H14  1  0.207600  0.442000  0.892000  1.0  0.0684
  H  H15  1  0.526400  0.240400  0.044700  1.0  0.1002
  H  H16  1  0.674400  0.294400  0.034900  1.0  0.0969
  H  H17  1  0.683200  0.176000  0.933600  1.0  0.0736
  H  H18  1  0.537600  0.120100  0.946100  1.0  0.0619
  H  H19  1  0.637900  0.043800  0.054600  1.0  0.1107
  H  H20  1  0.781400  0.107500  0.048800  1.0  0.1037
  H  H21  1  0.905100  0.926500  0.070400  1.0  0.1288
  H  H22  1  0.986100  0.765100  0.022600  1.0  0.0835
  H  H23  1  0.711700  0.801800  0.848200  1.0  0.0895
  H  H24  1  0.622800  0.959100  0.895200  1.0  0.1223
  H  H25  1  0.428700  0.557000  0.646000  1.0  0.0776
  H  H26  1  0.312200  0.427900  0.567300  1.0  0.122
  H  H27  1  0.683300  0.305500  0.531800  1.0  0.098
  H  H28  1  0.792400  0.442000  0.608000  1.0  0.0695
  H  H29  1  0.473600  0.240400  0.455300  1.0  0.1002
  H  H30  1  0.325600  0.294400  0.465100  1.0  0.0973
  H  H31  1  0.316800  0.176000  0.566400  1.0  0.0732
  H  H32  1  0.462400  0.120100  0.553900  1.0  0.063
  H  H33  1  0.362100  0.043800  0.445400  1.0  0.1106
  H  H34  1  0.218600  0.107500  0.451200  1.0  0.1043
  H  H35  1  0.094900  0.926500  0.429600  1.0  0.1301
  H  H36  1  0.013900  0.765100  0.477400  1.0  0.0829
  H  H37  1  0.288300  0.801800  0.651800  1.0  0.0895
  H  H38  1  0.377200  0.959100  0.604800  1.0  0.1214
  H  H39  1  0.428700  0.443000  0.146000  1.0  0.0779
  H  H40  1  0.312200  0.572100  0.067300  1.0  0.1219
  H  H41  1  0.683300  0.694500  0.031800  1.0  0.0978
  H  H42  1  0.792400  0.558000  0.108000  1.0  0.0692
  H  H43  1  0.473600  0.759600  0.955300  1.0  0.0999
  H  H44  1  0.325600  0.705600  0.965100  1.0  0.0971
  H  H45  1  0.316800  0.824000  0.066400  1.0  0.073
  H  H46  1  0.462400  0.879900  0.053900  1.0  0.0625
  H  H47  1  0.362100  0.956200  0.945400  1.0  0.111
  H  H48  1  0.218600  0.892500  0.951200  1.0  0.1039
  H  H49  1  0.094900  0.073500  0.929600  1.0  0.1301
  H  H50  1  0.013900  0.234900  0.977400  1.0  0.0829
  H  H51  1  0.288300  0.198200  0.151800  1.0  0.09
  H  H52  1  0.377200  0.040900  0.104800  1.0  0.1221
  H  H53  1  0.571300  0.443000  0.354000  1.0  0.0776
  H  H54  1  0.687800  0.572100  0.432700  1.0  0.1232
  H  H55  1  0.316700  0.694500  0.468200  1.0  0.0976
  H  H56  1  0.207600  0.558000  0.392000  1.0  0.0682
  H  H57  1  0.526400  0.759600  0.544700  1.0  0.1002
  H  H58  1  0.674400  0.705600  0.534900  1.0  0.0976
  H  H59  1  0.683200  0.824000  0.433600  1.0  0.0733
  H  H60  1  0.537600  0.879900  0.446100  1.0  0.0621
  H  H61  1  0.637900  0.956200  0.554600  1.0  0.1104
  H  H62  1  0.781400  0.892500  0.548800  1.0  0.1042
  H  H63  1  0.905100  0.073500  0.570400  1.0  0.129
  H  H64  1  0.986100  0.234900  0.522600  1.0  0.0833
  H  H65  1  0.711700  0.198200  0.348200  1.0  0.0895
  H  H66  1  0.622800  0.040900  0.395200  1.0  0.1218
  C  C67  1  0.445300  0.699100  0.759900  1.0  -0.4584
  C  C68  1  0.518100  0.504600  0.877500  1.0  0.1764
  C  C69  1  0.588600  0.427500  0.924500  1.0  -0.234
  C  C70  1  0.515200  0.350400  0.959300  1.0  0.1638
  C  C71  1  0.371900  0.357200  0.945400  1.0  -0.2182
  C  C72  1  0.306700  0.437600  0.898900  1.0  0.1383
  C  C73  1  0.587800  0.261300  0.008900  1.0  -0.1907
  C  C74  1  0.624400  0.155000  0.970700  1.0  -0.0762
  C  C75  1  0.701100  0.068700  0.020500  1.0  -0.195
  C  C76  1  0.754500  0.965100  0.987600  1.0  0.1563
  C  C77  1  0.863600  0.902000  0.024300  1.0  -0.2355
  C  C78  1  0.912000  0.805600  0.995400  1.0  0.1422
  C  C79  1  0.752100  0.826500  0.894400  1.0  0.1775
  C  C80  1  0.699800  0.921500  0.922000  1.0  -0.2299
  C  C81  1  0.554700  0.699100  0.740100  1.0  -0.4542
  C  C82  1  0.481900  0.504600  0.622500  1.0  0.1758
  C  C83  1  0.411400  0.427500  0.575500  1.0  -0.2353
  C  C84  1  0.484800  0.350400  0.540700  1.0  0.1643
  C  C85  1  0.628100  0.357200  0.554600  1.0  -0.2159
  C  C86  1  0.693300  0.437600  0.601100  1.0  0.1387
  C  C87  1  0.412200  0.261300  0.491100  1.0  -0.1902
  C  C88  1  0.375600  0.155000  0.529300  1.0  -0.0764
  C  C89  1  0.298900  0.068700  0.479500  1.0  -0.1957
  C  C90  1  0.245500  0.965100  0.512400  1.0  0.1552
  C  C91  1  0.136400  0.902000  0.475700  1.0  -0.2356
  C  C92  1  0.088000  0.805600  0.504600  1.0  0.1434
  C  C93  1  0.247900  0.826500  0.605600  1.0  0.1777
  C  C94  1  0.300200  0.921500  0.578000  1.0  -0.23
  C  C95  1  0.554700  0.300900  0.240100  1.0  -0.446
  C  C96  1  0.481900  0.495400  0.122500  1.0  0.1758
  C  C97  1  0.411400  0.572500  0.075500  1.0  -0.2355
  C  C98  1  0.484800  0.649600  0.040700  1.0  0.1645
  C  C99  1  0.628100  0.642800  0.054600  1.0  -0.2171
  C  C100  1  0.693300  0.562400  0.101100  1.0  0.1385
  C  C101  1  0.412200  0.738700  0.991100  1.0  -0.1902
  C  C102  1  0.375600  0.845000  0.029300  1.0  -0.0764
  C  C103  1  0.298900  0.931300  0.979500  1.0  -0.1948
  C  C104  1  0.245500  0.034900  0.012400  1.0  0.1551
  C  C105  1  0.136400  0.098000  0.975700  1.0  -0.2351
  C  C106  1  0.088000  0.194400  0.004600  1.0  0.1437
  C  C107  1  0.247900  0.173500  0.105600  1.0  0.1774
  C  C108  1  0.300200  0.078500  0.078000  1.0  -0.2292
  C  C109  1  0.445300  0.300900  0.259900  1.0  -0.4492
  C  C110  1  0.518100  0.495400  0.377500  1.0  0.1758
  C  C111  1  0.588600  0.572500  0.424500  1.0  -0.2343
  C  C112  1  0.515200  0.649600  0.459300  1.0  0.1635
  C  C113  1  0.371900  0.642800  0.445400  1.0  -0.2184
  C  C114  1  0.306700  0.562400  0.398900  1.0  0.1384
  C  C115  1  0.587800  0.738700  0.508900  1.0  -0.1904
  C  C116  1  0.624400  0.845000  0.470700  1.0  -0.0763
  C  C117  1  0.701100  0.931300  0.520500  1.0  -0.1947
  C  C118  1  0.754500  0.034900  0.487600  1.0  0.1563
  C  C119  1  0.863600  0.098000  0.524300  1.0  -0.2352
  C  C120  1  0.912000  0.194400  0.495400  1.0  0.1418
  C  C121  1  0.752100  0.173500  0.394400  1.0  0.1779
  C  C122  1  0.699800  0.078500  0.422000  1.0  -0.2295
  S  S123  1  0.118400  0.732800  0.836220  1.0  -0.4194
  S  S124  1  0.846800  0.520000  0.798390  1.0  -0.406
  S  S125  1  0.881600  0.732800  0.663780  1.0  -0.417
  S  S126  1  0.153200  0.520000  0.701610  1.0  -0.4063
  S  S127  1  0.881600  0.267200  0.163780  1.0  -0.4157
  S  S128  1  0.153200  0.480000  0.201610  1.0  -0.4048
  S  S129  1  0.118400  0.267200  0.336220  1.0  -0.4191
  S  S130  1  0.846800  0.480000  0.298390  1.0  -0.4041
  N  N131  1  0.996200  0.529600  0.974900  1.0  -0.0331
  N  N132  1  0.379200  0.509500  0.863200  1.0  -0.2715
  N  N133  1  0.859800  0.764800  0.929700  1.0  -0.2929
  N  N134  1  0.003800  0.529600  0.525100  1.0  -0.0412
  N  N135  1  0.620800  0.509500  0.636800  1.0  -0.259
  N  N136  1  0.140200  0.764800  0.570300  1.0  -0.2926
  N  N137  1  0.003800  0.470400  0.025100  1.0  -0.0447
  N  N138  1  0.620800  0.490500  0.136800  1.0  -0.259
  N  N139  1  0.140200  0.235200  0.070300  1.0  -0.2915
  N  N140  1  0.996200  0.470400  0.474900  1.0  -0.036
  N  N141  1  0.379200  0.490500  0.363200  1.0  -0.2726
  N  N142  1  0.859800  0.235200  0.429700  1.0  -0.2918
