# generated using pymatgen
data_Cu4MoH28C28(S2N3)2
_symmetry_space_group_name_H-M   'P 1'
_cell_length_a   9.62500000
_cell_length_b   11.78000000
_cell_length_c   18.71400000
_cell_angle_alpha   90.00000000
_cell_angle_beta   98.18000000
_cell_angle_gamma   90.00000000
_symmetry_Int_Tables_number   1
_chemical_formula_structural   Cu4MoH28C28(S2N3)2
_chemical_formula_sum   'Cu8 Mo2 H56 C56 S8 N12'
_cell_volume   2100.25241359
_cell_formula_units_Z   2
loop_
 _symmetry_equiv_pos_site_id
 _symmetry_equiv_pos_as_xyz
  1  'x, y, z'
loop_
 _atom_site_type_symbol
 _atom_site_label
 _atom_site_symmetry_multiplicity
 _atom_site_fract_x
 _atom_site_fract_y
 _atom_site_fract_z
 _atom_site_occupancy
 _atom_site_charge
  Cu  Cu1  1  0.719630  0.369870  0.211100  1.0  0.294
  Cu  Cu2  1  0.036120  0.372560  0.109480  1.0  0.2994
  Cu  Cu3  1  0.280370  0.369870  0.288900  1.0  0.2929
  Cu  Cu4  1  0.963880  0.372560  0.390520  1.0  0.2986
  Cu  Cu5  1  0.280370  0.630130  0.788900  1.0  0.293
  Cu  Cu6  1  0.963880  0.627440  0.890520  1.0  0.2986
  Cu  Cu7  1  0.719630  0.630130  0.711100  1.0  0.2946
  Cu  Cu8  1  0.036120  0.627440  0.609480  1.0  0.3002
  Mo  Mo9  1  0.000000  0.371490  0.250000  1.0  0.6817
  Mo  Mo10  1  0.000000  0.628510  0.750000  1.0  0.6816
  H  H11  1  0.427200  0.447100  0.149700  1.0  0.0552
  H  H12  1  0.310100  0.578300  0.072400  1.0  0.1397
  H  H13  1  0.683400  0.685700  0.027800  1.0  0.1056
  H  H14  1  0.790900  0.554400  0.109600  1.0  0.0702
  H  H15  1  0.471000  0.758500  0.955100  1.0  0.0853
  H  H16  1  0.323300  0.702000  0.964300  1.0  0.1009
  H  H17  1  0.455500  0.876600  0.056600  1.0  0.0606
  H  H18  1  0.307700  0.820300  0.065700  1.0  0.0744
  H  H19  1  0.361400  0.953400  0.946200  1.0  0.1064
  H  H20  1  0.215700  0.890700  0.949700  1.0  0.1055
  H  H21  1  0.363700  0.033200  0.108900  1.0  0.1268
  H  H22  1  0.271300  0.193600  0.153700  1.0  0.0643
  H  H23  1  0.022500  0.240900  0.973100  1.0  0.0801
  H  H24  1  0.089000  0.066900  0.927100  1.0  0.1452
  H  H25  1  0.572800  0.447100  0.350300  1.0  0.0558
  H  H26  1  0.689900  0.578300  0.427600  1.0  0.1388
  H  H27  1  0.316600  0.685700  0.472200  1.0  0.1064
  H  H28  1  0.209100  0.554400  0.390400  1.0  0.0694
  H  H29  1  0.529000  0.758500  0.544900  1.0  0.0857
  H  H30  1  0.676700  0.702000  0.535700  1.0  0.1004
  H  H31  1  0.544500  0.876600  0.443400  1.0  0.0591
  H  H32  1  0.692300  0.820300  0.434300  1.0  0.0746
  H  H33  1  0.638600  0.953400  0.553800  1.0  0.1068
  H  H34  1  0.784300  0.890700  0.550300  1.0  0.1064
  H  H35  1  0.636300  0.033200  0.391100  1.0  0.1261
  H  H36  1  0.728700  0.193600  0.346300  1.0  0.0637
  H  H37  1  0.977500  0.240900  0.526900  1.0  0.0803
  H  H38  1  0.911000  0.066900  0.572900  1.0  0.1438
  H  H39  1  0.572800  0.552900  0.850300  1.0  0.0555
  H  H40  1  0.689900  0.421700  0.927600  1.0  0.1386
  H  H41  1  0.316600  0.314300  0.972200  1.0  0.1062
  H  H42  1  0.209100  0.445600  0.890400  1.0  0.0694
  H  H43  1  0.529000  0.241500  0.044900  1.0  0.0859
  H  H44  1  0.676700  0.298000  0.035700  1.0  0.0998
  H  H45  1  0.544500  0.123400  0.943400  1.0  0.059
  H  H46  1  0.692300  0.179700  0.934300  1.0  0.0755
  H  H47  1  0.638600  0.046600  0.053800  1.0  0.1077
  H  H48  1  0.784300  0.109300  0.050300  1.0  0.1059
  H  H49  1  0.636300  0.966800  0.891100  1.0  0.1268
  H  H50  1  0.728700  0.806400  0.846300  1.0  0.0636
  H  H51  1  0.977500  0.759100  0.026900  1.0  0.0803
  H  H52  1  0.911000  0.933100  0.072900  1.0  0.1437
  H  H53  1  0.427200  0.552900  0.649700  1.0  0.055
  H  H54  1  0.310100  0.421700  0.572400  1.0  0.1395
  H  H55  1  0.683400  0.314300  0.527800  1.0  0.1054
  H  H56  1  0.790900  0.445600  0.609600  1.0  0.0706
  H  H57  1  0.471000  0.241500  0.455100  1.0  0.0855
  H  H58  1  0.323300  0.298000  0.464300  1.0  0.1008
  H  H59  1  0.455500  0.123400  0.556600  1.0  0.061
  H  H60  1  0.307700  0.179700  0.565700  1.0  0.0743
  H  H61  1  0.361400  0.046600  0.446200  1.0  0.1065
  H  H62  1  0.215700  0.109300  0.449700  1.0  0.1053
  H  H63  1  0.363700  0.966800  0.608900  1.0  0.1262
  H  H64  1  0.271300  0.806400  0.653700  1.0  0.0638
  H  H65  1  0.022500  0.759100  0.473100  1.0  0.0799
  H  H66  1  0.089000  0.933100  0.427100  1.0  0.1452
  C  C67  1  0.001700  0.468600  0.024300  1.0  -0.4258
  C  C68  1  0.480900  0.497700  0.125000  1.0  0.1609
  C  C69  1  0.409700  0.575700  0.078900  1.0  -0.2157
  C  C70  1  0.484300  0.649700  0.042400  1.0  0.1601
  C  C71  1  0.627500  0.638500  0.053500  1.0  -0.2219
  C  C72  1  0.691300  0.558700  0.101800  1.0  0.1689
  C  C73  1  0.409300  0.736600  0.990800  1.0  -0.191
  C  C74  1  0.369500  0.842300  0.030000  1.0  -0.0731
  C  C75  1  0.295700  0.928700  0.979400  1.0  -0.2089
  C  C76  1  0.240500  0.033600  0.012200  1.0  0.1603
  C  C77  1  0.290600  0.073100  0.079800  1.0  -0.2524
  C  C78  1  0.235900  0.170200  0.106000  1.0  0.1578
  C  C79  1  0.089800  0.195600  0.002400  1.0  0.158
  C  C80  1  0.132800  0.093500  0.972700  1.0  -0.2344
  C  C81  1  0.998300  0.468600  0.475700  1.0  -0.4235
  C  C82  1  0.519100  0.497700  0.375000  1.0  0.1605
  C  C83  1  0.590300  0.575700  0.421100  1.0  -0.2162
  C  C84  1  0.515700  0.649700  0.457600  1.0  0.1596
  C  C85  1  0.372500  0.638500  0.446500  1.0  -0.2209
  C  C86  1  0.308700  0.558700  0.398200  1.0  0.169
  C  C87  1  0.590700  0.736600  0.509200  1.0  -0.1909
  C  C88  1  0.630500  0.842300  0.470000  1.0  -0.0731
  C  C89  1  0.704300  0.928700  0.520600  1.0  -0.2102
  C  C90  1  0.759500  0.033600  0.487800  1.0  0.1614
  C  C91  1  0.709400  0.073100  0.420200  1.0  -0.2511
  C  C92  1  0.764100  0.170200  0.394000  1.0  0.1588
  C  C93  1  0.910200  0.195600  0.497600  1.0  0.158
  C  C94  1  0.867200  0.093500  0.527300  1.0  -0.2361
  C  C95  1  0.998300  0.531400  0.975700  1.0  -0.4226
  C  C96  1  0.519100  0.502300  0.875000  1.0  0.1617
  C  C97  1  0.590300  0.424300  0.921100  1.0  -0.216
  C  C98  1  0.515700  0.350300  0.957600  1.0  0.1599
  C  C99  1  0.372500  0.361500  0.946500  1.0  -0.2208
  C  C100  1  0.308700  0.441300  0.898200  1.0  0.1688
  C  C101  1  0.590700  0.263400  0.009200  1.0  -0.1911
  C  C102  1  0.630500  0.157700  0.970000  1.0  -0.0728
  C  C103  1  0.704300  0.071300  0.020600  1.0  -0.2107
  C  C104  1  0.759500  0.966400  0.987800  1.0  0.1617
  C  C105  1  0.709400  0.926900  0.920200  1.0  -0.2518
  C  C106  1  0.764100  0.829800  0.894000  1.0  0.1584
  C  C107  1  0.910200  0.804400  0.997600  1.0  0.1583
  C  C108  1  0.867200  0.906500  0.027300  1.0  -0.2364
  C  C109  1  0.001700  0.531400  0.524300  1.0  -0.4249
  C  C110  1  0.480900  0.502300  0.625000  1.0  0.1611
  C  C111  1  0.409700  0.424300  0.578900  1.0  -0.2156
  C  C112  1  0.484300  0.350300  0.542400  1.0  0.1604
  C  C113  1  0.627500  0.361500  0.553500  1.0  -0.2213
  C  C114  1  0.691300  0.441300  0.601800  1.0  0.169
  C  C115  1  0.409300  0.263400  0.490800  1.0  -0.1911
  C  C116  1  0.369500  0.157700  0.530000  1.0  -0.0731
  C  C117  1  0.295700  0.071300  0.479400  1.0  -0.209
  C  C118  1  0.240500  0.966400  0.512200  1.0  0.1606
  C  C119  1  0.290600  0.926900  0.579800  1.0  -0.2534
  C  C120  1  0.235900  0.829800  0.606000  1.0  0.1584
  C  C121  1  0.089800  0.804400  0.502400  1.0  0.1576
  C  C122  1  0.132800  0.906500  0.472700  1.0  -0.2348
  S  S123  1  0.880400  0.265230  0.163620  1.0  -0.4266
  S  S124  1  0.847400  0.478400  0.299010  1.0  -0.3752
  S  S125  1  0.119600  0.265230  0.336380  1.0  -0.4318
  S  S126  1  0.152600  0.478400  0.200990  1.0  -0.3768
  S  S127  1  0.119600  0.734770  0.836380  1.0  -0.4325
  S  S128  1  0.152600  0.521600  0.700990  1.0  -0.3784
  S  S129  1  0.880400  0.734770  0.663620  1.0  -0.4285
  S  S130  1  0.847400  0.521600  0.799010  1.0  -0.3767
  N  N131  1  0.619800  0.488700  0.137400  1.0  -0.2728
  N  N132  1  0.136800  0.232800  0.068400  1.0  -0.2652
  N  N133  1  0.554200  0.294200  0.240900  1.0  -0.04
  N  N134  1  0.380200  0.488700  0.362600  1.0  -0.2747
  N  N135  1  0.863200  0.232800  0.431600  1.0  -0.2633
  N  N136  1  0.445800  0.294200  0.259100  1.0  -0.0591
  N  N137  1  0.380200  0.511300  0.862600  1.0  -0.2735
  N  N138  1  0.863200  0.767200  0.931600  1.0  -0.2636
  N  N139  1  0.445800  0.705800  0.759100  1.0  -0.067
  N  N140  1  0.619800  0.511300  0.637400  1.0  -0.2734
  N  N141  1  0.136800  0.767200  0.568400  1.0  -0.2646
  N  N142  1  0.554200  0.705800  0.740900  1.0  -0.0447
