# generated using pymatgen
data_Cd3H26C28(NO6)2
_symmetry_space_group_name_H-M   'P 1'
_cell_length_a   8.96900000
_cell_length_b   9.41900000
_cell_length_c   17.29000000
_cell_angle_alpha   100.46800000
_cell_angle_beta   92.75400000
_cell_angle_gamma   117.70200000
_symmetry_Int_Tables_number   1
_chemical_formula_structural   Cd3H26C28(NO6)2
_chemical_formula_sum   'Cd3 H26 C28 N2 O12'
_cell_volume   1256.88084435
_cell_formula_units_Z   1
loop_
 _symmetry_equiv_pos_site_id
 _symmetry_equiv_pos_as_xyz
  1  'x, y, z'
loop_
 _atom_site_type_symbol
 _atom_site_label
 _atom_site_symmetry_multiplicity
 _atom_site_fract_x
 _atom_site_fract_y
 _atom_site_fract_z
 _atom_site_occupancy
 _atom_site_charge
  Cd  Cd1  1  0.457250  0.849640  0.799280  1.0  1.0207
  Cd  Cd2  1  0.542750  0.150360  0.200720  1.0  1.0162
  Cd  Cd3  1  0.500000  0.000000  0.000000  1.0  1.1846
  H  H4  1  0.251000  0.449000  0.992000  1.0  0.0978
  H  H5  1  0.447600  0.413100  0.912500  1.0  0.0854
  H  H6  1  0.313500  0.351500  0.835700  1.0  0.0825
  H  H7  1  0.297000  0.179000  0.965000  1.0  0.0904
  H  H8  1  0.015000  0.970600  0.884000  1.0  0.0843
  H  H9  1  0.039100  0.066800  0.816400  1.0  0.0862
  H  H10  1  0.975000  0.166000  0.964000  1.0  0.1143
  H  H11  1  0.990600  0.400400  0.934200  1.0  0.0858
  H  H12  1  0.028100  0.345500  0.849400  1.0  0.0855
  H  H13  1  0.233200  0.502800  0.692200  1.0  0.0841
  H  H14  1  0.051400  0.354700  0.575700  1.0  0.1314
  H  H15  1  0.113600  0.773900  0.529100  1.0  0.129
  H  H16  1  0.293200  0.911900  0.647100  1.0  0.0924
  H  H17  1  0.749000  0.551000  0.008000  1.0  0.0982
  H  H18  1  0.552400  0.586900  0.087500  1.0  0.0843
  H  H19  1  0.686500  0.648500  0.164300  1.0  0.0846
  H  H20  1  0.703000  0.821000  0.035000  1.0  0.0906
  H  H21  1  0.985000  0.029400  0.116000  1.0  0.0842
  H  H22  1  0.960900  0.933200  0.183600  1.0  0.0871
  H  H23  1  0.025000  0.834000  0.036000  1.0  0.1161
  H  H24  1  0.009400  0.599600  0.065800  1.0  0.0859
  H  H25  1  0.971900  0.654500  0.150600  1.0  0.0854
  H  H26  1  0.766800  0.497200  0.307800  1.0  0.0853
  H  H27  1  0.948600  0.645300  0.424300  1.0  0.1307
  H  H28  1  0.886400  0.226100  0.470900  1.0  0.1293
  H  H29  1  0.706800  0.088100  0.352900  1.0  0.0905
  C  C30  1  0.311200  0.616200  0.924900  1.0  0.7144
  C  C31  1  0.236300  0.440200  0.935900  1.0  -0.1702
  C  C32  1  0.326800  0.352600  0.891800  1.0  -0.1384
  C  C33  1  0.253700  0.175600  0.901900  1.0  -0.1545
  C  C34  1  0.330200  0.082100  0.852000  1.0  0.7118
  C  C35  1  0.060500  0.079700  0.873500  1.0  -0.1153
  C  C36  1  0.968500  0.167000  0.914800  1.0  -0.1131
  C  C37  1  0.781100  0.064600  0.880900  1.0  0.6864
  C  C38  1  0.046700  0.345800  0.905200  1.0  -0.1133
  C  C39  1  0.208500  0.559200  0.659100  1.0  0.1817
  C  C40  1  0.098600  0.468800  0.588700  1.0  -0.1977
  C  C41  1  0.058900  0.545800  0.538200  1.0  0.0933
  C  C42  1  0.135300  0.714900  0.561600  1.0  -0.2035
  C  C43  1  0.243700  0.797600  0.632800  1.0  0.1793
  C  C44  1  0.688800  0.383800  0.075100  1.0  0.7144
  C  C45  1  0.763700  0.559800  0.064100  1.0  -0.1684
  C  C46  1  0.673200  0.647400  0.108200  1.0  -0.1474
  C  C47  1  0.746300  0.824400  0.098100  1.0  -0.1563
  C  C48  1  0.669800  0.917900  0.148000  1.0  0.7121
  C  C49  1  0.939500  0.920300  0.126500  1.0  -0.1163
  C  C50  1  0.031500  0.833000  0.085200  1.0  -0.1109
  C  C51  1  0.218900  0.935400  0.119100  1.0  0.6854
  C  C52  1  0.953300  0.654200  0.094800  1.0  -0.1132
  C  C53  1  0.791500  0.440800  0.340900  1.0  0.1819
  C  C54  1  0.901400  0.531200  0.411300  1.0  -0.2006
  C  C55  1  0.941100  0.454200  0.461800  1.0  0.0929
  C  C56  1  0.864700  0.285100  0.438400  1.0  -0.2013
  C  C57  1  0.756300  0.202400  0.367200  1.0  0.1789
  N  N58  1  0.280600  0.721400  0.682100  1.0  -0.3382
  N  N59  1  0.719400  0.278600  0.317900  1.0  -0.3379
  O  O60  1  0.318800  0.633900  0.854800  1.0  -0.6561
  O  O61  1  0.359700  0.728000  0.986700  1.0  -0.6217
  O  O62  1  0.729200  0.072800  0.813800  1.0  -0.6094
  O  O63  1  0.684100  0.962600  0.917800  1.0  -0.6853
  O  O64  1  0.358700  0.097200  0.784300  1.0  -0.6118
  O  O65  1  0.351600  0.979200  0.883400  1.0  -0.6916
  O  O66  1  0.681200  0.366100  0.145200  1.0  -0.6565
  O  O67  1  0.640300  0.272000  0.013300  1.0  -0.623
  O  O68  1  0.270800  0.927200  0.186200  1.0  -0.6121
  O  O69  1  0.315900  0.037400  0.082200  1.0  -0.6846
  O  O70  1  0.641300  0.902800  0.215700  1.0  -0.6142
  O  O71  1  0.648400  0.020800  0.116600  1.0  -0.6926
