# generated using pymatgen
data_Cu4MoH28C28(S2N3)2
_symmetry_space_group_name_H-M   'P 1'
_cell_length_a   9.63620000
_cell_length_b   11.46200000
_cell_length_c   19.14700000
_cell_angle_alpha   90.00000000
_cell_angle_beta   97.98000000
_cell_angle_gamma   90.00000000
_symmetry_Int_Tables_number   1
_chemical_formula_structural   Cu4MoH28C28(S2N3)2
_chemical_formula_sum   'Cu8 Mo2 H56 C56 S8 N12'
_cell_volume   2094.31016533
_cell_formula_units_Z   2
loop_
 _symmetry_equiv_pos_site_id
 _symmetry_equiv_pos_as_xyz
  1  'x, y, z'
loop_
 _atom_site_type_symbol
 _atom_site_label
 _atom_site_symmetry_multiplicity
 _atom_site_fract_x
 _atom_site_fract_y
 _atom_site_fract_z
 _atom_site_occupancy
 _atom_site_charge
  Cu  Cu1  1  0.279730  0.617690  0.788410  1.0  0.3292
  Cu  Cu2  1  0.959840  0.616780  0.887060  1.0  0.2658
  Cu  Cu3  1  0.720270  0.617690  0.711590  1.0  0.3299
  Cu  Cu4  1  0.040160  0.616780  0.612940  1.0  0.2677
  Cu  Cu5  1  0.720270  0.382310  0.211590  1.0  0.3298
  Cu  Cu6  1  0.040160  0.383220  0.112940  1.0  0.2677
  Cu  Cu7  1  0.279730  0.382310  0.288410  1.0  0.3286
  Cu  Cu8  1  0.959840  0.383220  0.387060  1.0  0.2662
  Mo  Mo9  1  0.000000  0.616470  0.750000  1.0  0.6858
  Mo  Mo10  1  0.000000  0.383530  0.250000  1.0  0.6859
  H  H11  1  0.211900  0.424300  0.887600  1.0  0.0571
  H  H12  1  0.319400  0.297300  0.971100  1.0  0.1029
  H  H13  1  0.691500  0.425500  0.935500  1.0  0.1186
  H  H14  1  0.572400  0.550200  0.853500  1.0  0.0746
  H  H15  1  0.694700  0.297300  0.030900  1.0  0.0921
  H  H16  1  0.554200  0.240500  0.051500  1.0  0.0989
  H  H17  1  0.545800  0.110800  0.953100  1.0  0.0679
  H  H18  1  0.688700  0.166500  0.934200  1.0  0.0735
  H  H19  1  0.661100  0.041300  0.061300  1.0  0.1103
  H  H20  1  0.802600  0.105900  0.048800  1.0  0.1019
  H  H21  1  0.627300  0.959700  0.900500  1.0  0.1308
  H  H22  1  0.705100  0.789700  0.850400  1.0  0.1005
  H  H23  1  0.000700  0.747000  0.020900  1.0  0.0953
  H  H24  1  0.922900  0.917000  0.070900  1.0  0.1325
  H  H25  1  0.788100  0.424300  0.612400  1.0  0.0625
  H  H26  1  0.680600  0.297300  0.528900  1.0  0.1026
  H  H27  1  0.308500  0.425500  0.564500  1.0  0.1166
  H  H28  1  0.427600  0.550200  0.646500  1.0  0.0744
  H  H29  1  0.305300  0.297300  0.469100  1.0  0.0925
  H  H30  1  0.445800  0.240500  0.448500  1.0  0.0986
  H  H31  1  0.454200  0.110800  0.546900  1.0  0.068
  H  H32  1  0.311300  0.166500  0.565800  1.0  0.0746
  H  H33  1  0.338900  0.041300  0.438700  1.0  0.1102
  H  H34  1  0.197400  0.105900  0.451200  1.0  0.1012
  H  H35  1  0.372700  0.959700  0.599500  1.0  0.1284
  H  H36  1  0.294900  0.789700  0.649600  1.0  0.1002
  H  H37  1  0.999300  0.747000  0.479100  1.0  0.0949
  H  H38  1  0.077100  0.917000  0.429100  1.0  0.1335
  H  H39  1  0.788100  0.575700  0.112400  1.0  0.0621
  H  H40  1  0.680600  0.702700  0.028900  1.0  0.1029
  H  H41  1  0.308500  0.574500  0.064500  1.0  0.1167
  H  H42  1  0.427600  0.449800  0.146500  1.0  0.0753
  H  H43  1  0.305300  0.702700  0.969100  1.0  0.0918
  H  H44  1  0.445800  0.759500  0.948500  1.0  0.0986
  H  H45  1  0.454200  0.889200  0.046900  1.0  0.0674
  H  H46  1  0.311300  0.833500  0.065800  1.0  0.0744
  H  H47  1  0.338900  0.958700  0.938700  1.0  0.11
  H  H48  1  0.197400  0.894100  0.951200  1.0  0.1011
  H  H49  1  0.372700  0.040300  0.099500  1.0  0.129
  H  H50  1  0.294900  0.210300  0.149600  1.0  0.1004
  H  H51  1  0.999300  0.253000  0.979100  1.0  0.0949
  H  H52  1  0.077100  0.083000  0.929100  1.0  0.1334
  H  H53  1  0.211900  0.575700  0.387600  1.0  0.0572
  H  H54  1  0.319400  0.702700  0.471100  1.0  0.1033
  H  H55  1  0.691500  0.574500  0.435500  1.0  0.1186
  H  H56  1  0.572400  0.449800  0.353500  1.0  0.0758
  H  H57  1  0.694700  0.702700  0.530900  1.0  0.092
  H  H58  1  0.554200  0.759500  0.551500  1.0  0.0987
  H  H59  1  0.545800  0.889200  0.453100  1.0  0.0679
  H  H60  1  0.688700  0.833500  0.434200  1.0  0.0734
  H  H61  1  0.661100  0.958700  0.561300  1.0  0.11
  H  H62  1  0.802600  0.894100  0.548800  1.0  0.1022
  H  H63  1  0.627300  0.040300  0.400500  1.0  0.1305
  H  H64  1  0.705100  0.210300  0.350400  1.0  0.101
  H  H65  1  0.000700  0.253000  0.520900  1.0  0.095
  H  H66  1  0.922900  0.083000  0.570900  1.0  0.1326
  C  C67  1  0.443700  0.695000  0.759100  1.0  -0.4591
  C  C68  1  0.311200  0.425500  0.897600  1.0  0.1595
  C  C69  1  0.375000  0.348400  0.947500  1.0  -0.2296
  C  C70  1  0.518000  0.345300  0.962900  1.0  0.1573
  C  C71  1  0.592000  0.423300  0.926800  1.0  -0.248
  C  C72  1  0.519700  0.497900  0.877900  1.0  0.1751
  C  C73  1  0.605000  0.259900  0.011500  1.0  -0.1985
  C  C74  1  0.635000  0.148000  0.973300  1.0  -0.096
  C  C75  1  0.719300  0.064300  0.024800  1.0  -0.2178
  C  C76  1  0.767800  0.954300  0.990400  1.0  0.1459
  C  C77  1  0.703100  0.916500  0.924900  1.0  -0.2148
  C  C78  1  0.749300  0.815600  0.895200  1.0  0.1763
  C  C79  1  0.924900  0.790200  0.996400  1.0  0.1315
  C  C80  1  0.878700  0.891100  0.026200  1.0  -0.1994
  C  C81  1  0.556300  0.695000  0.740900  1.0  -0.4478
  C  C82  1  0.688800  0.425500  0.602400  1.0  0.1583
  C  C83  1  0.625000  0.348400  0.552500  1.0  -0.2298
  C  C84  1  0.482000  0.345300  0.537100  1.0  0.1579
  C  C85  1  0.408000  0.423300  0.573200  1.0  -0.2475
  C  C86  1  0.480300  0.497900  0.622100  1.0  0.1752
  C  C87  1  0.395000  0.259900  0.488500  1.0  -0.1985
  C  C88  1  0.365000  0.148000  0.526700  1.0  -0.0968
  C  C89  1  0.280700  0.064300  0.475200  1.0  -0.2195
  C  C90  1  0.232200  0.954300  0.509600  1.0  0.1466
  C  C91  1  0.296900  0.916500  0.575100  1.0  -0.2152
  C  C92  1  0.250700  0.815600  0.604800  1.0  0.1755
  C  C93  1  0.075100  0.790200  0.503600  1.0  0.132
  C  C94  1  0.121300  0.891100  0.473800  1.0  -0.1972
  C  C95  1  0.556300  0.305000  0.240900  1.0  -0.4428
  C  C96  1  0.688800  0.574500  0.102400  1.0  0.1577
  C  C97  1  0.625000  0.651600  0.052500  1.0  -0.2295
  C  C98  1  0.482000  0.654700  0.037100  1.0  0.1582
  C  C99  1  0.408000  0.576700  0.073200  1.0  -0.2476
  C  C100  1  0.480300  0.502100  0.122100  1.0  0.1752
  C  C101  1  0.395000  0.740100  0.988500  1.0  -0.1984
  C  C102  1  0.365000  0.852000  0.026700  1.0  -0.0968
  C  C103  1  0.280700  0.935700  0.975200  1.0  -0.2196
  C  C104  1  0.232200  0.045700  0.009600  1.0  0.1463
  C  C105  1  0.296900  0.083500  0.075100  1.0  -0.2152
  C  C106  1  0.250700  0.184400  0.104800  1.0  0.1752
  C  C107  1  0.075100  0.209800  0.003600  1.0  0.1323
  C  C108  1  0.121300  0.108900  0.973800  1.0  -0.1959
  C  C109  1  0.443700  0.305000  0.259100  1.0  -0.4448
  C  C110  1  0.311200  0.574500  0.397600  1.0  0.1592
  C  C111  1  0.375000  0.651600  0.447500  1.0  -0.2287
  C  C112  1  0.518000  0.654700  0.462900  1.0  0.1574
  C  C113  1  0.592000  0.576700  0.426800  1.0  -0.2482
  C  C114  1  0.519700  0.502100  0.377900  1.0  0.1746
  C  C115  1  0.605000  0.740100  0.511500  1.0  -0.1984
  C  C116  1  0.635000  0.852000  0.473300  1.0  -0.0963
  C  C117  1  0.719300  0.935700  0.524800  1.0  -0.2182
  C  C118  1  0.767800  0.045700  0.490400  1.0  0.1457
  C  C119  1  0.703100  0.083500  0.424900  1.0  -0.2148
  C  C120  1  0.749300  0.184400  0.395200  1.0  0.176
  C  C121  1  0.924900  0.209800  0.496400  1.0  0.1314
  C  C122  1  0.878700  0.108900  0.526200  1.0  -0.198
  S  S123  1  0.118100  0.725500  0.834390  1.0  -0.4124
  S  S124  1  0.846200  0.506600  0.797720  1.0  -0.4161
  S  S125  1  0.881900  0.725500  0.665610  1.0  -0.41
  S  S126  1  0.153800  0.506600  0.702280  1.0  -0.4168
  S  S127  1  0.881900  0.274500  0.165610  1.0  -0.4087
  S  S128  1  0.153800  0.493400  0.202280  1.0  -0.4153
  S  S129  1  0.118100  0.274500  0.334390  1.0  -0.4116
  S  S130  1  0.846200  0.493400  0.297720  1.0  -0.4137
  N  N131  1  0.379600  0.500700  0.863000  1.0  -0.2586
  N  N132  1  0.994600  0.525400  0.974200  1.0  -0.0084
  N  N133  1  0.860200  0.752400  0.930900  1.0  -0.2954
  N  N134  1  0.620400  0.500700  0.637000  1.0  -0.2578
  N  N135  1  0.005400  0.525400  0.525800  1.0  -0.0088
  N  N136  1  0.139800  0.752400  0.569100  1.0  -0.2964
  N  N137  1  0.620400  0.499300  0.137000  1.0  -0.258
  N  N138  1  0.005400  0.474600  0.025800  1.0  -0.0093
  N  N139  1  0.139800  0.247600  0.069100  1.0  -0.2964
  N  N140  1  0.379600  0.499300  0.363000  1.0  -0.261
  N  N141  1  0.994600  0.474600  0.474200  1.0  -0.0089
  N  N142  1  0.860200  0.247600  0.430900  1.0  -0.2956
