# generated using pymatgen
data_Zn3H28C30(NO6)2
_symmetry_space_group_name_H-M   'P 1'
_cell_length_a   8.95080000
_cell_length_b   9.08920000
_cell_length_c   19.80200000
_cell_angle_alpha   95.64000000
_cell_angle_beta   97.68000000
_cell_angle_gamma   118.25000000
_symmetry_Int_Tables_number   1
_chemical_formula_structural   Zn3H28C30(NO6)2
_chemical_formula_sum   'Zn3 H28 C30 N2 O12'
_cell_volume   1382.10349604
_cell_formula_units_Z   1
loop_
 _symmetry_equiv_pos_site_id
 _symmetry_equiv_pos_as_xyz
  1  'x, y, z'
loop_
 _atom_site_type_symbol
 _atom_site_label
 _atom_site_symmetry_multiplicity
 _atom_site_fract_x
 _atom_site_fract_y
 _atom_site_fract_z
 _atom_site_occupancy
 _atom_site_charge
  Zn  Zn1  1  0.313880  0.442920  0.770860  1.0  0.9185
  Zn  Zn2  1  0.440000  0.614900  0.936210  1.0  1.0379
  Zn  Zn3  1  0.566320  0.786250  0.101760  1.0  0.9029
  H  H4  1  0.384400  0.995400  0.836800  1.0  0.0919
  H  H5  1  0.490800  0.067500  0.779300  1.0  0.0958
  H  H6  1  0.775000  0.073300  0.778200  1.0  0.0888
  H  H7  1  0.853100  0.005200  0.835200  1.0  0.084
  H  H8  1  0.843600  0.450000  0.886000  1.0  0.1006
  H  H9  1  0.773800  0.348600  0.809400  1.0  0.0959
  H  H10  1  0.037700  0.779400  0.985400  1.0  0.0987
  H  H11  1  0.106200  0.874400  0.063000  1.0  0.1092
  H  H12  1  0.489800  0.238800  0.033100  1.0  0.09
  H  H13  1  0.395600  0.171300  0.093900  1.0  0.1129
  H  H14  1  0.106800  0.156100  0.092400  1.0  0.0849
  H  H15  1  0.034300  0.223500  0.033900  1.0  0.0851
  H  H16  1  0.979400  0.208600  0.673100  1.0  0.0948
  H  H17  1  0.937600  0.035400  0.565200  1.0  0.1221
  H  H18  1  0.300900  0.441900  0.518200  1.0  0.1183
  H  H19  1  0.414500  0.526300  0.634500  1.0  0.0812
  H  H20  1  0.096600  0.253200  0.425600  1.0  0.0897
  H  H21  1  0.825900  0.003900  0.452100  1.0  0.0989
  H  H22  1  0.596000  0.770400  0.353800  1.0  0.1163
  H  H23  1  0.486800  0.668200  0.238300  1.0  0.0953
  H  H24  1  0.844200  0.102000  0.196500  1.0  0.1123
  H  H25  1  0.016400  0.127000  0.309800  1.0  0.1193
  H  H26  1  0.622650  0.961990  0.904140  1.0  0.0773
  H  H27  1  0.893490  0.230600  0.930010  1.0  0.0602
  H  H28  1  0.608350  0.222770  0.930170  1.0  0.0811
  H  H29  1  0.992600  0.002710  0.944350  1.0  0.0528
  H  H30  1  0.262830  0.276340  0.973810  1.0  0.0683
  H  H31  1  0.268460  0.996860  0.944030  1.0  0.0808
  C  C32  1  0.502400  0.336800  0.859600  1.0  0.6335
  C  C33  1  0.596600  0.235800  0.873300  1.0  0.0251
  C  C34  1  0.500200  0.058700  0.828000  1.0  -0.2082
  C  C35  1  0.606000  0.966200  0.846400  1.0  -0.0336
  C  C36  1  0.511000  0.786400  0.804200  1.0  0.566
  C  C37  1  0.788400  0.064600  0.826800  1.0  -0.1767
  C  C38  1  0.885500  0.245000  0.873300  1.0  -0.0697
  C  C39  1  0.063800  0.346600  0.861500  1.0  0.6884
  C  C40  1  0.782900  0.337000  0.857800  1.0  -0.1714
  C  C41  1  0.812000  0.879000  0.011600  1.0  0.6388
  C  C42  1  0.000700  0.989600  0.001200  1.0  -0.0515
  C  C43  1  0.099500  0.890500  0.015200  1.0  -0.1576
  C  C44  1  0.280200  0.988600  0.001400  1.0  0.0097
  C  C45  1  0.376300  0.893700  0.016600  1.0  0.6923
  C  C46  1  0.377200  0.175400  0.044900  1.0  -0.1644
  C  C47  1  0.274900  0.265300  0.030900  1.0  -0.0499
  C  C48  1  0.377000  0.442800  0.073600  1.0  0.5991
  C  C49  1  0.099000  0.164400  0.043700  1.0  -0.1362
  C  C50  1  0.059000  0.238000  0.644300  1.0  0.1626
  C  C51  1  0.013000  0.152000  0.576600  1.0  -0.1669
  C  C52  1  0.082000  0.245000  0.526600  1.0  0.1955
  C  C53  1  0.237000  0.382000  0.549400  1.0  -0.2205
  C  C54  1  0.303000  0.434000  0.619500  1.0  0.1697
  C  C55  1  0.023000  0.188000  0.452700  1.0  -0.1032
  C  C56  1  0.891000  0.068000  0.422300  1.0  -0.1055
  C  C57  1  0.800000  0.993000  0.345700  1.0  0.0443
  C  C58  1  0.651000  0.835000  0.322000  1.0  -0.1766
  C  C59  1  0.586000  0.774000  0.252700  1.0  0.1456
  C  C60  1  0.806000  0.023000  0.225800  1.0  0.1203
  C  C61  1  0.897000  0.060000  0.297300  1.0  -0.1213
  N  N62  1  0.218300  0.362900  0.666300  1.0  -0.3231
  N  N63  1  0.659300  0.863000  0.203800  1.0  -0.3494
  O  O64  1  0.450300  0.337700  0.793100  1.0  -0.643
  O  O65  1  0.492200  0.419800  0.906900  1.0  -0.5949
  O  O66  1  0.455000  0.762700  0.738300  1.0  -0.604
  O  O67  1  0.430300  0.665200  0.832900  1.0  -0.6427
  O  O68  1  0.091700  0.329600  0.800500  1.0  -0.6138
  O  O69  1  0.176800  0.448900  0.912500  1.0  -0.5897
  O  O70  1  0.705100  0.774600  0.961200  1.0  -0.5822
  O  O71  1  0.786200  0.905800  0.072100  1.0  -0.6089
  O  O72  1  0.384100  0.807000  0.964900  1.0  -0.6341
  O  O73  1  0.446000  0.909100  0.075900  1.0  -0.5841
  O  O74  1  0.447900  0.563300  0.039500  1.0  -0.6948
  O  O75  1  0.348900  0.478000  0.129200  1.0  -0.5789
