# generated using pymatgen
data_Cd3H28C30(NO6)2
_symmetry_space_group_name_H-M   'P 1'
_cell_length_a   8.94360000
_cell_length_b   9.45380000
_cell_length_c   19.00500000
_cell_angle_alpha   95.16600000
_cell_angle_beta   93.05000000
_cell_angle_gamma   117.53400000
_symmetry_Int_Tables_number   1
_chemical_formula_structural   Cd3H28C30(NO6)2
_chemical_formula_sum   'Cd3 H28 C30 N2 O12'
_cell_volume   1410.89680771
_cell_formula_units_Z   1
loop_
 _symmetry_equiv_pos_site_id
 _symmetry_equiv_pos_as_xyz
  1  'x, y, z'
loop_
 _atom_site_type_symbol
 _atom_site_label
 _atom_site_symmetry_multiplicity
 _atom_site_fract_x
 _atom_site_fract_y
 _atom_site_fract_z
 _atom_site_occupancy
 _atom_site_charge
  Cd  Cd1  1  0.983620  0.898190  0.820780  1.0  0.9969
  Cd  Cd2  1  0.016380  0.101810  0.179220  1.0  0.9933
  Cd  Cd3  1  0.000000  0.000000  0.000000  1.0  1.2004
  H  H4  1  0.787000  0.190600  0.962200  1.0  0.0879
  H  H5  1  0.961300  0.431700  0.918800  1.0  0.0873
  H  H6  1  0.830900  0.385200  0.851300  1.0  0.0837
  H  H7  1  0.764200  0.450400  0.992300  1.0  0.0934
  H  H8  1  0.545700  0.377700  0.865000  1.0  0.0919
  H  H9  1  0.503200  0.419600  0.940600  1.0  0.087
  H  H10  1  0.491000  0.184500  0.976600  1.0  0.0984
  H  H11  1  0.557900  0.109400  0.837000  1.0  0.0875
  H  H12  1  0.529100  0.000800  0.897800  1.0  0.0846
  H  H13  1  0.797600  0.577700  0.721500  1.0  0.0869
  H  H14  1  0.629900  0.451000  0.617600  1.0  0.1319
  H  H15  1  0.506100  0.642800  0.487400  1.0  0.1073
  H  H16  1  0.664900  0.870500  0.577900  1.0  0.1318
  H  H17  1  0.830100  0.985900  0.682500  1.0  0.0922
  H  H18  1  0.213000  0.809400  0.037800  1.0  0.0922
  H  H19  1  0.038700  0.568300  0.081200  1.0  0.0846
  H  H20  1  0.169100  0.614800  0.148700  1.0  0.0852
  H  H21  1  0.235800  0.549600  0.007700  1.0  0.095
  H  H22  1  0.454300  0.622300  0.135000  1.0  0.0932
  H  H23  1  0.496800  0.580400  0.059400  1.0  0.0869
  H  H24  1  0.509000  0.815500  0.023400  1.0  0.0987
  H  H25  1  0.442100  0.890600  0.163000  1.0  0.088
  H  H26  1  0.470900  0.999200  0.102200  1.0  0.0863
  H  H27  1  0.202400  0.422300  0.278500  1.0  0.0874
  H  H28  1  0.370100  0.549000  0.382400  1.0  0.1329
  H  H29  1  0.493900  0.357200  0.512600  1.0  0.1069
  H  H30  1  0.335100  0.129500  0.422100  1.0  0.1307
  H  H31  1  0.169900  0.014100  0.317500  1.0  0.0928
  C  C32  1  0.846000  0.114200  0.867600  1.0  0.7249
  C  C33  1  0.767800  0.199200  0.911900  1.0  -0.1693
  C  C34  1  0.841600  0.376400  0.901600  1.0  -0.1117
  C  C35  1  0.750500  0.457900  0.941500  1.0  -0.1724
  C  C36  1  0.560800  0.369100  0.915100  1.0  -0.1143
  C  C37  1  0.481600  0.192300  0.925600  1.0  -0.1582
  C  C38  1  0.576000  0.111300  0.887900  1.0  -0.0991
  C  C39  1  0.825200  0.634300  0.931200  1.0  0.7415
  C  C40  1  0.297600  0.098500  0.896100  1.0  0.6959
  C  C41  1  0.769800  0.637700  0.692200  1.0  0.1777
  C  C42  1  0.671400  0.561300  0.629300  1.0  -0.1991
  C  C43  1  0.633800  0.647600  0.583200  1.0  0.1205
  C  C44  1  0.530300  0.576100  0.513700  1.0  -0.1123
  C  C45  1  0.691900  0.808100  0.605900  1.0  -0.2144
  C  C46  1  0.789000  0.876100  0.669500  1.0  0.1868
  C  C47  1  0.154000  0.885800  0.132400  1.0  0.7241
  C  C48  1  0.232200  0.800800  0.088100  1.0  -0.1711
  C  C49  1  0.158400  0.623600  0.098400  1.0  -0.1156
  C  C50  1  0.249500  0.542100  0.058500  1.0  -0.1742
  C  C51  1  0.439200  0.630900  0.084900  1.0  -0.1149
  C  C52  1  0.518400  0.807700  0.074400  1.0  -0.1588
  C  C53  1  0.424000  0.888700  0.112100  1.0  -0.0991
  C  C54  1  0.174800  0.365700  0.068800  1.0  0.7417
  C  C55  1  0.702400  0.901500  0.103900  1.0  0.6953
  C  C56  1  0.230200  0.362300  0.307800  1.0  0.1769
  C  C57  1  0.328600  0.438700  0.370700  1.0  -0.2011
  C  C58  1  0.366200  0.352400  0.416800  1.0  0.12
  C  C59  1  0.469700  0.423900  0.486300  1.0  -0.1117
  C  C60  1  0.308100  0.191900  0.394100  1.0  -0.2149
  C  C61  1  0.211000  0.123900  0.330500  1.0  0.19
  N  N62  1  0.828200  0.795100  0.713800  1.0  -0.3417
  N  N63  1  0.171800  0.204900  0.286200  1.0  -0.3398
  O  O64  1  0.861700  0.002400  0.895910  1.0  -0.709
  O  O65  1  0.884200  0.143600  0.807900  1.0  -0.6192
  O  O66  1  0.249900  0.122900  0.837070  1.0  -0.6083
  O  O67  1  0.197900  0.986500  0.928610  1.0  -0.691
  O  O68  1  0.843600  0.667100  0.869350  1.0  -0.6261
  O  O69  1  0.862200  0.732600  0.986270  1.0  -0.6445
  O  O70  1  0.138300  0.997600  0.104090  1.0  -0.71
  O  O71  1  0.115800  0.856400  0.192100  1.0  -0.6213
  O  O72  1  0.750100  0.877100  0.162930  1.0  -0.6127
  O  O73  1  0.802100  0.013500  0.071390  1.0  -0.6919
  O  O74  1  0.156400  0.332900  0.130650  1.0  -0.6262
  O  O75  1  0.137800  0.267400  0.013730  1.0  -0.6444
