# generated using pymatgen
data_ZnH6(C3N2)2
_symmetry_space_group_name_H-M   'P 1'
_cell_length_a   15.66200000
_cell_length_b   15.66210000
_cell_length_c   18.20730000
_cell_angle_alpha   90.00000000
_cell_angle_beta   90.00000000
_cell_angle_gamma   90.00000000
_symmetry_Int_Tables_number   1
_chemical_formula_structural   ZnH6(C3N2)2
_chemical_formula_sum   'Zn16 H96 C96 N64'
_cell_volume   4466.24723425
_cell_formula_units_Z   16
loop_
 _symmetry_equiv_pos_site_id
 _symmetry_equiv_pos_as_xyz
  1  'x, y, z'
loop_
 _atom_site_type_symbol
 _atom_site_label
 _atom_site_symmetry_multiplicity
 _atom_site_fract_x
 _atom_site_fract_y
 _atom_site_fract_z
 _atom_site_occupancy
 _atom_site_charge
  Zn  Zn1  1  0.696570  0.860790  0.403410  1.0  0.7293
  Zn  Zn2  1  0.502570  0.835010  0.683290  1.0  0.7304
  Zn  Zn3  1  0.803430  0.139210  0.903410  1.0  0.7292
  Zn  Zn4  1  0.997430  0.164990  0.183290  1.0  0.7304
  Zn  Zn5  1  0.303430  0.360790  0.096590  1.0  0.7292
  Zn  Zn6  1  0.497430  0.335010  0.816710  1.0  0.7305
  Zn  Zn7  1  0.196570  0.639210  0.596590  1.0  0.7293
  Zn  Zn8  1  0.002570  0.664990  0.316710  1.0  0.7306
  Zn  Zn9  1  0.303430  0.139210  0.596590  1.0  0.7292
  Zn  Zn10  1  0.497430  0.164990  0.316710  1.0  0.7305
  Zn  Zn11  1  0.196570  0.860790  0.096590  1.0  0.7293
  Zn  Zn12  1  0.002570  0.835010  0.816710  1.0  0.7305
  Zn  Zn13  1  0.696570  0.639210  0.903410  1.0  0.7293
  Zn  Zn14  1  0.502570  0.664990  0.183290  1.0  0.7305
  Zn  Zn15  1  0.803430  0.360790  0.403410  1.0  0.7292
  Zn  Zn16  1  0.997430  0.335010  0.683290  1.0  0.7304
  H  H17  1  0.890500  0.940000  0.420900  1.0  0.0965
  H  H18  1  0.019400  0.858500  0.388500  1.0  0.1059
  H  H19  1  0.637200  0.663700  0.431900  1.0  0.0924
  H  H20  1  0.730400  0.961300  0.252000  1.0  0.0962
  H  H21  1  0.765200  0.938900  0.558300  1.0  0.0902
  H  H22  1  0.556600  0.818100  0.517800  1.0  0.0484
  H  H23  1  0.684200  0.927100  0.671500  1.0  0.0846
  H  H24  1  0.589800  0.812400  0.268100  1.0  0.049
  H  H25  1  0.558300  0.583200  0.339600  1.0  0.0869
  H  H26  1  0.639500  0.074900  0.208000  1.0  0.097
  H  H27  1  0.567500  0.012600  0.404300  1.0  0.0515
  H  H28  1  0.817500  0.719100  0.347700  1.0  0.0522
  H  H29  1  0.609500  0.060000  0.920900  1.0  0.0964
  H  H30  1  0.480600  0.141500  0.888500  1.0  0.1063
  H  H31  1  0.862800  0.336300  0.931900  1.0  0.0923
  H  H32  1  0.769600  0.038700  0.752000  1.0  0.0964
  H  H33  1  0.734800  0.061100  0.058300  1.0  0.0901
  H  H34  1  0.943400  0.181900  0.017800  1.0  0.0487
  H  H35  1  0.815800  0.072900  0.171500  1.0  0.0851
  H  H36  1  0.910200  0.187600  0.768100  1.0  0.0487
  H  H37  1  0.941700  0.416800  0.839600  1.0  0.0869
  H  H38  1  0.860500  0.925100  0.708000  1.0  0.097
  H  H39  1  0.932500  0.987400  0.904300  1.0  0.0513
  H  H40  1  0.682500  0.280900  0.847700  1.0  0.0528
  H  H41  1  0.109500  0.440000  0.079100  1.0  0.0967
  H  H42  1  0.980600  0.358500  0.111500  1.0  0.1061
  H  H43  1  0.362800  0.163700  0.068100  1.0  0.0923
  H  H44  1  0.269600  0.461300  0.248000  1.0  0.097
  H  H45  1  0.234800  0.438900  0.941700  1.0  0.0901
  H  H46  1  0.443400  0.318100  0.982200  1.0  0.0491
  H  H47  1  0.315800  0.427100  0.828500  1.0  0.0848
  H  H48  1  0.410200  0.312400  0.231900  1.0  0.0483
  H  H49  1  0.441700  0.083200  0.160400  1.0  0.0868
  H  H50  1  0.360500  0.574900  0.292000  1.0  0.0963
  H  H51  1  0.432500  0.512600  0.095700  1.0  0.0517
  H  H52  1  0.182500  0.219100  0.152300  1.0  0.0529
  H  H53  1  0.390500  0.560000  0.579100  1.0  0.0964
  H  H54  1  0.519400  0.641500  0.611500  1.0  0.105
  H  H55  1  0.137200  0.836300  0.568100  1.0  0.0926
  H  H56  1  0.230400  0.538700  0.748000  1.0  0.0967
  H  H57  1  0.265200  0.561100  0.441700  1.0  0.09
  H  H58  1  0.056600  0.681900  0.482200  1.0  0.0481
  H  H59  1  0.184200  0.572900  0.328500  1.0  0.0851
  H  H60  1  0.089800  0.687600  0.731900  1.0  0.0488
  H  H61  1  0.058300  0.916800  0.660400  1.0  0.0868
  H  H62  1  0.139500  0.425100  0.792000  1.0  0.0965
  H  H63  1  0.067500  0.487400  0.595700  1.0  0.0514
  H  H64  1  0.317500  0.780900  0.652300  1.0  0.0527
  H  H65  1  0.109500  0.060000  0.579100  1.0  0.0956
  H  H66  1  0.980600  0.141500  0.611500  1.0  0.1055
  H  H67  1  0.362800  0.336300  0.568100  1.0  0.0924
  H  H68  1  0.269600  0.038700  0.748000  1.0  0.0968
  H  H69  1  0.234800  0.061100  0.441700  1.0  0.0902
  H  H70  1  0.443400  0.181900  0.482200  1.0  0.0483
  H  H71  1  0.315800  0.072900  0.328500  1.0  0.085
  H  H72  1  0.410200  0.187600  0.731900  1.0  0.049
  H  H73  1  0.441700  0.416800  0.660400  1.0  0.0867
  H  H74  1  0.360500  0.925100  0.792000  1.0  0.0966
  H  H75  1  0.432500  0.987400  0.595700  1.0  0.0517
  H  H76  1  0.182500  0.280900  0.652300  1.0  0.0528
  H  H77  1  0.390500  0.940000  0.079100  1.0  0.0961
  H  H78  1  0.519400  0.858500  0.111500  1.0  0.1055
  H  H79  1  0.137200  0.663700  0.068100  1.0  0.0925
  H  H80  1  0.230400  0.961300  0.248000  1.0  0.0968
  H  H81  1  0.265200  0.938900  0.941700  1.0  0.0902
  H  H82  1  0.056600  0.818100  0.982200  1.0  0.0487
  H  H83  1  0.184200  0.927100  0.828500  1.0  0.0849
  H  H84  1  0.089800  0.812400  0.231900  1.0  0.048
  H  H85  1  0.058300  0.583200  0.160400  1.0  0.0864
  H  H86  1  0.139500  0.074900  0.292000  1.0  0.0963
  H  H87  1  0.067500  0.012600  0.095700  1.0  0.0514
  H  H88  1  0.317500  0.719100  0.152300  1.0  0.0526
  H  H89  1  0.890500  0.560000  0.920900  1.0  0.0956
  H  H90  1  0.019400  0.641500  0.888500  1.0  0.1057
  H  H91  1  0.637200  0.836300  0.931900  1.0  0.0923
  H  H92  1  0.730400  0.538700  0.752000  1.0  0.0962
  H  H93  1  0.765200  0.561100  0.058300  1.0  0.0901
  H  H94  1  0.556600  0.681900  0.017800  1.0  0.0485
  H  H95  1  0.684200  0.572900  0.171500  1.0  0.0849
  H  H96  1  0.589800  0.687600  0.768100  1.0  0.0486
  H  H97  1  0.558300  0.916800  0.839600  1.0  0.0872
  H  H98  1  0.639500  0.425100  0.708000  1.0  0.0973
  H  H99  1  0.567500  0.487400  0.904300  1.0  0.0513
  H  H100  1  0.817500  0.780900  0.847700  1.0  0.0527
  H  H101  1  0.609500  0.440000  0.420900  1.0  0.0958
  H  H102  1  0.480600  0.358500  0.388500  1.0  0.1065
  H  H103  1  0.862800  0.163700  0.431900  1.0  0.0924
  H  H104  1  0.769600  0.461300  0.252000  1.0  0.0964
  H  H105  1  0.734800  0.438900  0.558300  1.0  0.0901
  H  H106  1  0.943400  0.318100  0.517800  1.0  0.0489
  H  H107  1  0.815800  0.427100  0.671500  1.0  0.0847
  H  H108  1  0.910200  0.312400  0.268100  1.0  0.0493
  H  H109  1  0.941700  0.083200  0.339600  1.0  0.087
  H  H110  1  0.860500  0.574900  0.208000  1.0  0.0966
  H  H111  1  0.932500  0.512600  0.404300  1.0  0.0515
  H  H112  1  0.682500  0.219100  0.347700  1.0  0.0526
  C  C113  1  0.890900  0.885100  0.401400  1.0  -0.0293
  C  C114  1  0.963300  0.840000  0.382800  1.0  -0.0413
  C  C115  1  0.618400  0.684600  0.387000  1.0  -0.0347
  C  C116  1  0.685700  0.985700  0.278300  1.0  -0.0138
  C  C117  1  0.712000  0.913000  0.563000  1.0  -0.0396
  C  C118  1  0.599300  0.848200  0.542200  1.0  0.2319
  C  C119  1  0.667100  0.906300  0.626000  1.0  -0.0283
  C  C120  1  0.592000  0.764200  0.297800  1.0  0.2442
  C  C121  1  0.574300  0.640200  0.335900  1.0  -0.0339
  C  C122  1  0.636300  0.049300  0.253900  1.0  -0.0408
  C  C123  1  0.597800  0.014700  0.360400  1.0  0.2347
  C  C124  1  0.851700  0.765200  0.360900  1.0  0.2335
  C  C125  1  0.609100  0.114900  0.901400  1.0  -0.0294
  C  C126  1  0.536700  0.160000  0.882800  1.0  -0.0405
  C  C127  1  0.881600  0.315400  0.887000  1.0  -0.0362
  C  C128  1  0.814300  0.014300  0.778300  1.0  -0.0144
  C  C129  1  0.788000  0.087000  0.063000  1.0  -0.0397
  C  C130  1  0.900700  0.151800  0.042200  1.0  0.2334
  C  C131  1  0.832900  0.093700  0.126000  1.0  -0.0286
  C  C132  1  0.908000  0.235800  0.797800  1.0  0.2439
  C  C133  1  0.925700  0.359800  0.835900  1.0  -0.0343
  C  C134  1  0.863700  0.950700  0.753900  1.0  -0.0405
  C  C135  1  0.902200  0.985300  0.860400  1.0  0.2347
  C  C136  1  0.648300  0.234800  0.860900  1.0  0.2332
  C  C137  1  0.109100  0.385100  0.098600  1.0  -0.0293
  C  C138  1  0.036700  0.340000  0.117200  1.0  -0.0408
  C  C139  1  0.381600  0.184600  0.113000  1.0  -0.035
  C  C140  1  0.314300  0.485700  0.221700  1.0  -0.0144
  C  C141  1  0.288000  0.413000  0.937000  1.0  -0.0402
  C  C142  1  0.400700  0.348200  0.957800  1.0  0.2331
  C  C143  1  0.332900  0.406300  0.874000  1.0  -0.0285
  C  C144  1  0.408000  0.264200  0.202200  1.0  0.244
  C  C145  1  0.425700  0.140200  0.164100  1.0  -0.0335
  C  C146  1  0.363700  0.549300  0.246100  1.0  -0.041
  C  C147  1  0.402200  0.514700  0.139600  1.0  0.2343
  C  C148  1  0.148300  0.265200  0.139100  1.0  0.2339
  C  C149  1  0.390900  0.614900  0.598600  1.0  -0.03
  C  C150  1  0.463300  0.660000  0.617200  1.0  -0.0409
  C  C151  1  0.118400  0.815400  0.613000  1.0  -0.035
  C  C152  1  0.185700  0.514300  0.721700  1.0  -0.0135
  C  C153  1  0.212000  0.587000  0.437000  1.0  -0.0399
  C  C154  1  0.099300  0.651800  0.457800  1.0  0.232
  C  C155  1  0.167100  0.593700  0.374000  1.0  -0.0289
  C  C156  1  0.092000  0.735800  0.702200  1.0  0.2448
  C  C157  1  0.074300  0.859800  0.664100  1.0  -0.035
  C  C158  1  0.136300  0.450700  0.746100  1.0  -0.0408
  C  C159  1  0.097800  0.485300  0.639600  1.0  0.2348
  C  C160  1  0.351700  0.734800  0.639100  1.0  0.2337
  C  C161  1  0.109100  0.114900  0.598600  1.0  -0.0301
  C  C162  1  0.036700  0.160000  0.617200  1.0  -0.0407
  C  C163  1  0.381600  0.315400  0.613000  1.0  -0.0354
  C  C164  1  0.314300  0.014300  0.721700  1.0  -0.0148
  C  C165  1  0.288000  0.087000  0.437000  1.0  -0.0398
  C  C166  1  0.400700  0.151800  0.457800  1.0  0.2333
  C  C167  1  0.332900  0.093700  0.374000  1.0  -0.0288
  C  C168  1  0.408000  0.235800  0.702200  1.0  0.2446
  C  C169  1  0.425700  0.359800  0.664100  1.0  -0.0344
  C  C170  1  0.363700  0.950700  0.746100  1.0  -0.0407
  C  C171  1  0.402200  0.985300  0.639600  1.0  0.2342
  C  C172  1  0.148300  0.234800  0.639100  1.0  0.2336
  C  C173  1  0.390900  0.885100  0.098600  1.0  -0.029
  C  C174  1  0.463300  0.840000  0.117200  1.0  -0.0414
  C  C175  1  0.118400  0.684600  0.113000  1.0  -0.0345
  C  C176  1  0.185700  0.985700  0.221700  1.0  -0.0133
  C  C177  1  0.212000  0.913000  0.937000  1.0  -0.0403
  C  C178  1  0.099300  0.848200  0.957800  1.0  0.2322
  C  C179  1  0.167100  0.906300  0.874000  1.0  -0.0286
  C  C180  1  0.092000  0.764200  0.202200  1.0  0.2439
  C  C181  1  0.074300  0.640200  0.164100  1.0  -0.0341
  C  C182  1  0.136300  0.049300  0.246100  1.0  -0.0411
  C  C183  1  0.097800  0.014700  0.139600  1.0  0.2348
  C  C184  1  0.351700  0.765200  0.139100  1.0  0.2339
  C  C185  1  0.890900  0.614900  0.901400  1.0  -0.0293
  C  C186  1  0.963300  0.660000  0.882800  1.0  -0.0407
  C  C187  1  0.618400  0.815400  0.887000  1.0  -0.0358
  C  C188  1  0.685700  0.514300  0.778300  1.0  -0.0134
  C  C189  1  0.712000  0.587000  0.063000  1.0  -0.0394
  C  C190  1  0.599300  0.651800  0.042200  1.0  0.2324
  C  C191  1  0.667100  0.593700  0.126000  1.0  -0.028
  C  C192  1  0.592000  0.735800  0.797800  1.0  0.2441
  C  C193  1  0.574300  0.859800  0.835900  1.0  -0.035
  C  C194  1  0.636300  0.450700  0.753900  1.0  -0.0408
  C  C195  1  0.597800  0.485300  0.860400  1.0  0.2347
  C  C196  1  0.851700  0.734800  0.860900  1.0  0.2334
  C  C197  1  0.609100  0.385100  0.401400  1.0  -0.0297
  C  C198  1  0.536700  0.340000  0.382800  1.0  -0.0406
  C  C199  1  0.881600  0.184600  0.387000  1.0  -0.0353
  C  C200  1  0.814300  0.485700  0.278300  1.0  -0.0146
  C  C201  1  0.788000  0.413000  0.563000  1.0  -0.0398
  C  C202  1  0.900700  0.348200  0.542200  1.0  0.2327
  C  C203  1  0.832900  0.406300  0.626000  1.0  -0.029
  C  C204  1  0.908000  0.264200  0.297800  1.0  0.2441
  C  C205  1  0.925700  0.140200  0.335900  1.0  -0.0335
  C  C206  1  0.863700  0.549300  0.253900  1.0  -0.0406
  C  C207  1  0.902200  0.514700  0.360400  1.0  0.2349
  C  C208  1  0.648300  0.265200  0.360900  1.0  0.2333
  N  N209  1  0.819900  0.837300  0.387000  1.0  -0.387
  N  N210  1  0.630200  0.763800  0.361800  1.0  -0.3883
  N  N211  1  0.661500  0.962000  0.345800  1.0  -0.3963
  N  N212  1  0.667700  0.876200  0.507700  1.0  -0.3847
  N  N213  1  0.594300  0.864800  0.612400  1.0  -0.3835
  N  N214  1  0.557400  0.692100  0.279100  1.0  -0.3774
  N  N215  1  0.580200  0.070100  0.308500  1.0  -0.387
  N  N216  1  0.936300  0.763600  0.354900  1.0  -0.3877
  N  N217  1  0.680100  0.162700  0.887000  1.0  -0.3868
  N  N218  1  0.869800  0.236200  0.861800  1.0  -0.3872
  N  N219  1  0.838500  0.038000  0.845800  1.0  -0.3974
  N  N220  1  0.832300  0.123800  0.007700  1.0  -0.3845
  N  N221  1  0.905700  0.135200  0.112400  1.0  -0.3836
  N  N222  1  0.942600  0.307900  0.779100  1.0  -0.378
  N  N223  1  0.919800  0.929900  0.808500  1.0  -0.3855
  N  N224  1  0.563700  0.236400  0.854900  1.0  -0.3876
  N  N225  1  0.180100  0.337300  0.113000  1.0  -0.3874
  N  N226  1  0.369800  0.263800  0.138200  1.0  -0.3882
  N  N227  1  0.338500  0.462000  0.154200  1.0  -0.3971
  N  N228  1  0.332300  0.376200  0.992300  1.0  -0.3853
  N  N229  1  0.405700  0.364800  0.887600  1.0  -0.384
  N  N230  1  0.442600  0.192100  0.220900  1.0  -0.378
  N  N231  1  0.419800  0.570100  0.191500  1.0  -0.3866
  N  N232  1  0.063700  0.263600  0.145100  1.0  -0.3883
  N  N233  1  0.319900  0.662700  0.613000  1.0  -0.3871
  N  N234  1  0.130200  0.736200  0.638200  1.0  -0.3886
  N  N235  1  0.161500  0.538000  0.654200  1.0  -0.3965
  N  N236  1  0.167700  0.623800  0.492300  1.0  -0.3847
  N  N237  1  0.094300  0.635200  0.387600  1.0  -0.383
  N  N238  1  0.057400  0.807900  0.720900  1.0  -0.3775
  N  N239  1  0.080200  0.429900  0.691500  1.0  -0.3876
  N  N240  1  0.436300  0.736400  0.645100  1.0  -0.3883
  N  N241  1  0.180100  0.162700  0.613000  1.0  -0.3871
  N  N242  1  0.369800  0.236200  0.638200  1.0  -0.3881
  N  N243  1  0.338500  0.038000  0.654200  1.0  -0.3969
  N  N244  1  0.332300  0.123800  0.492300  1.0  -0.3852
  N  N245  1  0.405700  0.135200  0.387600  1.0  -0.3836
  N  N246  1  0.442600  0.307900  0.720900  1.0  -0.3779
  N  N247  1  0.419800  0.929900  0.691500  1.0  -0.3857
  N  N248  1  0.063700  0.236400  0.645100  1.0  -0.3883
  N  N249  1  0.319900  0.837300  0.113000  1.0  -0.3871
  N  N250  1  0.130200  0.763800  0.138200  1.0  -0.3887
  N  N251  1  0.161500  0.962000  0.154200  1.0  -0.3965
  N  N252  1  0.167700  0.876200  0.992300  1.0  -0.3848
  N  N253  1  0.094300  0.864800  0.887600  1.0  -0.3834
  N  N254  1  0.057400  0.692100  0.220900  1.0  -0.3777
  N  N255  1  0.080200  0.070100  0.191500  1.0  -0.3877
  N  N256  1  0.436300  0.763600  0.145100  1.0  -0.3881
  N  N257  1  0.819900  0.662700  0.887000  1.0  -0.3869
  N  N258  1  0.630200  0.736200  0.861800  1.0  -0.3877
  N  N259  1  0.661500  0.538000  0.845800  1.0  -0.3965
  N  N260  1  0.667700  0.623800  0.007700  1.0  -0.3845
  N  N261  1  0.594300  0.635200  0.112400  1.0  -0.3834
  N  N262  1  0.557400  0.807900  0.779100  1.0  -0.3767
  N  N263  1  0.580200  0.429900  0.808500  1.0  -0.3872
  N  N264  1  0.936300  0.736400  0.854900  1.0  -0.3879
  N  N265  1  0.680100  0.337300  0.387000  1.0  -0.3872
  N  N266  1  0.869800  0.263800  0.361800  1.0  -0.3878
  N  N267  1  0.838500  0.462000  0.345800  1.0  -0.3972
  N  N268  1  0.832300  0.376200  0.507700  1.0  -0.3846
  N  N269  1  0.905700  0.364800  0.612400  1.0  -0.3837
  N  N270  1  0.942600  0.192100  0.279100  1.0  -0.3783
  N  N271  1  0.919800  0.570100  0.308500  1.0  -0.386
  N  N272  1  0.563700  0.263600  0.354900  1.0  -0.3878
