# generated using pymatgen
data_Co5H18(C17O9)2
_symmetry_space_group_name_H-M   'P 1'
_cell_length_a   8.46530000
_cell_length_b   9.93870000
_cell_length_c   25.11500000
_cell_angle_alpha   90.56000000
_cell_angle_beta   90.00000000
_cell_angle_gamma   90.00000000
_symmetry_Int_Tables_number   1
_chemical_formula_structural   Co5H18(C17O9)2
_chemical_formula_sum   'Co10 H36 C68 O36'
_cell_volume   2112.92642076
_cell_formula_units_Z   2
loop_
 _symmetry_equiv_pos_site_id
 _symmetry_equiv_pos_as_xyz
  1  'x, y, z'
loop_
 _atom_site_type_symbol
 _atom_site_label
 _atom_site_symmetry_multiplicity
 _atom_site_fract_x
 _atom_site_fract_y
 _atom_site_fract_z
 _atom_site_occupancy
 _atom_site_charge
  Co  Co1  1  0.673330  0.254940  0.912370  1.0  1.0998
  Co  Co2  1  0.295900  0.315710  0.902140  1.0  0.9816
  Co  Co3  1  0.173330  0.245060  0.587630  1.0  1.1004
  Co  Co4  1  0.795900  0.184290  0.597860  1.0  0.9824
  Co  Co5  1  0.326670  0.745060  0.087630  1.0  1.1024
  Co  Co6  1  0.704100  0.684290  0.097860  1.0  0.9809
  Co  Co7  1  0.826670  0.754940  0.412370  1.0  1.1019
  Co  Co8  1  0.204100  0.815710  0.402140  1.0  0.9818
  Co  Co9  1  0.500000  0.500000  0.000000  1.0  1.2484
  Co  Co10  1  0.000000  0.000000  0.500000  1.0  1.2484
  H  H11  1  0.010000  0.948800  0.813700  1.0  0.1215
  H  H12  1  0.968000  0.547100  0.831100  1.0  0.1117
  H  H13  1  0.725900  0.799800  0.927000  1.0  0.1019
  H  H14  1  0.199700  0.796900  0.768600  1.0  0.1036
  H  H15  1  0.195800  0.641300  0.779100  1.0  0.1126
  H  H16  1  0.019300  0.890800  0.701600  1.0  0.1165
  H  H17  1  0.842800  0.646500  0.588900  1.0  0.1124
  H  H18  1  0.050600  0.491300  0.718400  1.0  0.1232
  H  H19  1  0.464900  0.248700  0.983100  1.0  0.444
  H  H20  1  0.510000  0.551200  0.686300  1.0  0.1217
  H  H21  1  0.468000  0.952900  0.668900  1.0  0.1112
  H  H22  1  0.225900  0.700200  0.573000  1.0  0.102
  H  H23  1  0.699700  0.703100  0.731400  1.0  0.1038
  H  H24  1  0.695800  0.858700  0.720900  1.0  0.1117
  H  H25  1  0.519300  0.609200  0.798400  1.0  0.1169
  H  H26  1  0.342800  0.853500  0.911100  1.0  0.1125
  H  H27  1  0.550600  0.008700  0.781600  1.0  0.123
  H  H28  1  0.964900  0.251300  0.516900  1.0  0.4423
  H  H29  1  0.990000  0.051200  0.186300  1.0  0.1212
  H  H30  1  0.032000  0.452900  0.168900  1.0  0.111
  H  H31  1  0.274100  0.200200  0.073000  1.0  0.1023
  H  H32  1  0.800300  0.203100  0.231400  1.0  0.1043
  H  H33  1  0.804200  0.358700  0.220900  1.0  0.112
  H  H34  1  0.980700  0.109200  0.298400  1.0  0.117
  H  H35  1  0.157200  0.353500  0.411100  1.0  0.1127
  H  H36  1  0.949400  0.508700  0.281600  1.0  0.123
  H  H37  1  0.535100  0.751300  0.016900  1.0  0.4401
  H  H38  1  0.490000  0.448800  0.313700  1.0  0.1213
  H  H39  1  0.532000  0.047100  0.331100  1.0  0.1115
  H  H40  1  0.774100  0.299800  0.427000  1.0  0.1026
  H  H41  1  0.300300  0.296900  0.268600  1.0  0.1044
  H  H42  1  0.304200  0.141300  0.279100  1.0  0.1125
  H  H43  1  0.480700  0.390800  0.201600  1.0  0.1166
  H  H44  1  0.657200  0.146500  0.088900  1.0  0.1127
  H  H45  1  0.449400  0.991300  0.218400  1.0  0.1228
  H  H46  1  0.035100  0.748700  0.483100  1.0  0.4435
  C  C47  1  0.861500  0.893700  0.872500  1.0  -0.1138
  C  C48  1  0.967400  0.875200  0.831200  1.0  -0.0698
  C  C49  1  0.010500  0.741600  0.815940  1.0  0.0513
  C  C50  1  0.943300  0.634500  0.841790  1.0  -0.0869
  C  C51  1  0.837000  0.656500  0.884510  1.0  -0.1352
  C  C52  1  0.796600  0.785200  0.899210  1.0  -0.0101
  C  C53  1  0.805100  0.035100  0.885900  1.0  0.6372
  C  C54  1  0.756100  0.539000  0.910500  1.0  0.7045
  C  C55  1  0.131000  0.719100  0.771200  1.0  -0.2221
  C  C56  1  0.046100  0.697000  0.719470  1.0  0.077
  C  C57  1  0.000700  0.803900  0.689000  1.0  -0.0956
  C  C58  1  0.926600  0.786000  0.639300  1.0  -0.1345
  C  C59  1  0.894100  0.659000  0.621310  1.0  -0.0098
  C  C60  1  0.937700  0.548100  0.651470  1.0  -0.1185
  C  C61  1  0.016800  0.565800  0.699400  1.0  -0.0774
  C  C62  1  0.883300  0.907300  0.607400  1.0  0.6989
  C  C63  1  0.899800  0.409100  0.632020  1.0  0.6683
  C  C64  1  0.361500  0.606300  0.627500  1.0  -0.1139
  C  C65  1  0.467400  0.624800  0.668800  1.0  -0.0693
  C  C66  1  0.510500  0.758400  0.684060  1.0  0.0522
  C  C67  1  0.443300  0.865500  0.658210  1.0  -0.0849
  C  C68  1  0.337000  0.843500  0.615490  1.0  -0.1325
  C  C69  1  0.296600  0.714800  0.600790  1.0  -0.0106
  C  C70  1  0.305100  0.464900  0.614100  1.0  0.6381
  C  C71  1  0.256100  0.961000  0.589500  1.0  0.7045
  C  C72  1  0.631000  0.780900  0.728800  1.0  -0.2222
  C  C73  1  0.546100  0.803000  0.780530  1.0  0.0767
  C  C74  1  0.500700  0.696100  0.811000  1.0  -0.0954
  C  C75  1  0.426600  0.714000  0.860700  1.0  -0.136
  C  C76  1  0.394100  0.841000  0.878690  1.0  -0.0104
  C  C77  1  0.437700  0.951900  0.848530  1.0  -0.118
  C  C78  1  0.516800  0.934200  0.800600  1.0  -0.0788
  C  C79  1  0.383300  0.592700  0.892600  1.0  0.698
  C  C80  1  0.399800  0.090900  0.867980  1.0  0.6691
  C  C81  1  0.138500  0.106300  0.127500  1.0  -0.1147
  C  C82  1  0.032600  0.124800  0.168800  1.0  -0.0683
  C  C83  1  0.989500  0.258400  0.184060  1.0  0.0523
  C  C84  1  0.056700  0.365500  0.158210  1.0  -0.0871
  C  C85  1  0.163000  0.343500  0.115490  1.0  -0.1315
  C  C86  1  0.203400  0.214800  0.100790  1.0  -0.0097
  C  C87  1  0.194900  0.964900  0.114100  1.0  0.638
  C  C88  1  0.243900  0.461000  0.089500  1.0  0.7056
  C  C89  1  0.869000  0.280900  0.228800  1.0  -0.2219
  C  C90  1  0.953900  0.303000  0.280530  1.0  0.0766
  C  C91  1  0.999300  0.196100  0.311000  1.0  -0.0955
  C  C92  1  0.073400  0.214000  0.360700  1.0  -0.1356
  C  C93  1  0.105900  0.341000  0.378690  1.0  -0.0102
  C  C94  1  0.062300  0.451900  0.348530  1.0  -0.1181
  C  C95  1  0.983200  0.434200  0.300600  1.0  -0.0807
  C  C96  1  0.116700  0.092700  0.392600  1.0  0.698
  C  C97  1  0.100200  0.590900  0.367980  1.0  0.6689
  C  C98  1  0.638500  0.393700  0.372500  1.0  -0.1149
  C  C99  1  0.532600  0.375200  0.331200  1.0  -0.07
  C  C100  1  0.489500  0.241600  0.315940  1.0  0.0516
  C  C101  1  0.556700  0.134500  0.341790  1.0  -0.0881
  C  C102  1  0.663000  0.156500  0.384510  1.0  -0.1349
  C  C103  1  0.703400  0.285200  0.399210  1.0  -0.0105
  C  C104  1  0.694900  0.535100  0.385900  1.0  0.638
  C  C105  1  0.743900  0.039000  0.410500  1.0  0.7037
  C  C106  1  0.369000  0.219100  0.271200  1.0  -0.2217
  C  C107  1  0.453900  0.197000  0.219470  1.0  0.077
  C  C108  1  0.499300  0.303900  0.189000  1.0  -0.0956
  C  C109  1  0.573400  0.286000  0.139300  1.0  -0.134
  C  C110  1  0.605900  0.159000  0.121310  1.0  -0.0114
  C  C111  1  0.562300  0.048100  0.151470  1.0  -0.1184
  C  C112  1  0.483200  0.065800  0.199400  1.0  -0.0778
  C  C113  1  0.616700  0.407300  0.107400  1.0  0.6981
  C  C114  1  0.600200  0.909100  0.132020  1.0  0.6683
  O  O115  1  0.486200  0.319400  0.957160  1.0  -1.0048
  O  O116  1  0.849100  0.137500  0.860760  1.0  -0.5744
  O  O117  1  0.704300  0.050800  0.923940  1.0  -0.6067
  O  O118  1  0.707500  0.557100  0.956840  1.0  -0.6295
  O  O119  1  0.743000  0.433300  0.882970  1.0  -0.5959
  O  O120  1  0.864600  0.016000  0.632110  1.0  -0.5817
  O  O121  1  0.867400  0.894200  0.557180  1.0  -0.6423
  O  O122  1  0.784300  0.392500  0.602000  1.0  -0.5717
  O  O123  1  0.981700  0.309400  0.645360  1.0  -0.6129
  O  O124  1  0.986200  0.180600  0.542840  1.0  -1.0041
  O  O125  1  0.349100  0.362500  0.639240  1.0  -0.5758
  O  O126  1  0.204300  0.449200  0.576060  1.0  -0.6052
  O  O127  1  0.207500  0.942900  0.543160  1.0  -0.6297
  O  O128  1  0.243000  0.066700  0.617030  1.0  -0.5952
  O  O129  1  0.364600  0.484000  0.867890  1.0  -0.5818
  O  O130  1  0.367400  0.605800  0.942820  1.0  -0.6413
  O  O131  1  0.284300  0.107500  0.898000  1.0  -0.5723
  O  O132  1  0.481700  0.190600  0.854640  1.0  -0.6107
  O  O133  1  0.513800  0.680600  0.042840  1.0  -1.0038
  O  O134  1  0.150900  0.862500  0.139240  1.0  -0.5749
  O  O135  1  0.295700  0.949200  0.076060  1.0  -0.6047
  O  O136  1  0.292500  0.442900  0.043160  1.0  -0.63
  O  O137  1  0.257000  0.566700  0.117030  1.0  -0.5952
  O  O138  1  0.135400  0.984000  0.367890  1.0  -0.5818
  O  O139  1  0.132600  0.105800  0.442820  1.0  -0.6418
  O  O140  1  0.215700  0.607500  0.398000  1.0  -0.5713
  O  O141  1  0.018300  0.690600  0.354640  1.0  -0.611
  O  O142  1  0.013800  0.819400  0.457160  1.0  -1.0046
  O  O143  1  0.650900  0.637500  0.360760  1.0  -0.5726
  O  O144  1  0.795700  0.550800  0.423940  1.0  -0.6066
  O  O145  1  0.792500  0.057100  0.456840  1.0  -0.6299
  O  O146  1  0.757000  0.933300  0.382970  1.0  -0.5956
  O  O147  1  0.635400  0.516000  0.132110  1.0  -0.5815
  O  O148  1  0.632600  0.394200  0.057180  1.0  -0.6425
  O  O149  1  0.715700  0.892500  0.102000  1.0  -0.5708
  O  O150  1  0.518300  0.809400  0.145360  1.0  -0.6136
