# generated using pymatgen
data_ZnH16(C4O)8
_symmetry_space_group_name_H-M   'P 1'
_cell_length_a   16.44200000
_cell_length_b   17.69700000
_cell_length_c   27.52800000
_cell_angle_alpha   90.00000000
_cell_angle_beta   90.00000000
_cell_angle_gamma   90.00000000
_symmetry_Int_Tables_number   1
_chemical_formula_structural   ZnH16(C4O)8
_chemical_formula_sum   'Zn8 H128 C256 O64'
_cell_volume   8009.93430907
_cell_formula_units_Z   8
loop_
 _symmetry_equiv_pos_site_id
 _symmetry_equiv_pos_as_xyz
  1  'x, y, z'
loop_
 _atom_site_type_symbol
 _atom_site_label
 _atom_site_symmetry_multiplicity
 _atom_site_fract_x
 _atom_site_fract_y
 _atom_site_fract_z
 _atom_site_occupancy
 _atom_site_charge
  Zn  Zn1  1  0.513870  0.249180  0.384130  1.0  1.1137
  Zn  Zn2  1  0.986130  0.750830  0.884130  1.0  1.114
  Zn  Zn3  1  0.486130  0.750830  0.615870  1.0  1.1146
  Zn  Zn4  1  0.013870  0.249180  0.115870  1.0  1.1144
  Zn  Zn5  1  0.486130  0.749180  0.115870  1.0  1.1144
  Zn  Zn6  1  0.013870  0.250820  0.615870  1.0  1.114
  Zn  Zn7  1  0.513870  0.250820  0.884130  1.0  1.1141
  Zn  Zn8  1  0.986130  0.749180  0.384130  1.0  1.1145
  H  H9  1  0.747800  0.154600  0.365000  1.0  0.119
  H  H10  1  0.876800  0.123100  0.389200  1.0  0.1232
  H  H11  1  0.988800  0.141900  0.337300  1.0  0.1123
  H  H12  1  0.971000  0.194200  0.261600  1.0  0.1029
  H  H13  1  0.789000  0.315900  0.139200  1.0  0.119
  H  H14  1  0.662600  0.360400  0.118700  1.0  0.1233
  H  H15  1  0.551500  0.345300  0.172200  1.0  0.1109
  H  H16  1  0.566800  0.282100  0.244500  1.0  0.1041
  H  H17  1  0.533200  0.309300  0.508100  1.0  0.1114
  H  H18  1  0.607900  0.290500  0.577500  1.0  0.12
  H  H19  1  0.644600  0.393900  0.627200  1.0  0.1192
  H  H20  1  0.609300  0.515300  0.605700  1.0  0.1235
  H  H21  1  0.500500  0.184400  0.538100  1.0  0.1128
  H  H22  1  0.429000  0.187200  0.609600  1.0  0.121
  H  H23  1  0.375900  0.074600  0.642900  1.0  0.1214
  H  H24  1  0.391200  0.961400  0.603400  1.0  0.1202
  H  H25  1  0.752200  0.845400  0.865000  1.0  0.1188
  H  H26  1  0.623200  0.876900  0.889200  1.0  0.1234
  H  H27  1  0.511200  0.858100  0.837300  1.0  0.113
  H  H28  1  0.529000  0.805800  0.761600  1.0  0.1025
  H  H29  1  0.711000  0.684100  0.639200  1.0  0.1191
  H  H30  1  0.837400  0.639600  0.618700  1.0  0.1236
  H  H31  1  0.948500  0.654700  0.672200  1.0  0.1101
  H  H32  1  0.933200  0.717900  0.744500  1.0  0.1049
  H  H33  1  0.966800  0.690700  0.008100  1.0  0.1118
  H  H34  1  0.892100  0.709500  0.077500  1.0  0.121
  H  H35  1  0.855400  0.606100  0.127200  1.0  0.1193
  H  H36  1  0.890700  0.484700  0.105700  1.0  0.1242
  H  H37  1  0.999500  0.815600  0.038100  1.0  0.1124
  H  H38  1  0.071000  0.812800  0.109600  1.0  0.1206
  H  H39  1  0.124100  0.925400  0.142900  1.0  0.1201
  H  H40  1  0.108800  0.038600  0.103400  1.0  0.1196
  H  H41  1  0.252200  0.845400  0.635000  1.0  0.1191
  H  H42  1  0.123200  0.876900  0.610800  1.0  0.1229
  H  H43  1  0.011200  0.858100  0.662700  1.0  0.1131
  H  H44  1  0.029000  0.805800  0.738400  1.0  0.1029
  H  H45  1  0.211000  0.684100  0.860800  1.0  0.1196
  H  H46  1  0.337400  0.639600  0.881300  1.0  0.1236
  H  H47  1  0.448500  0.654700  0.827800  1.0  0.1096
  H  H48  1  0.433200  0.717900  0.755500  1.0  0.1042
  H  H49  1  0.466800  0.690700  0.491900  1.0  0.1118
  H  H50  1  0.392100  0.709500  0.422500  1.0  0.1211
  H  H51  1  0.355400  0.606100  0.372800  1.0  0.1199
  H  H52  1  0.390700  0.484700  0.394300  1.0  0.1241
  H  H53  1  0.499500  0.815600  0.461900  1.0  0.1127
  H  H54  1  0.571000  0.812800  0.390400  1.0  0.1205
  H  H55  1  0.624100  0.925400  0.357100  1.0  0.1202
  H  H56  1  0.608800  0.038600  0.396600  1.0  0.1195
  H  H57  1  0.247800  0.154600  0.135000  1.0  0.1192
  H  H58  1  0.376800  0.123100  0.110800  1.0  0.1231
  H  H59  1  0.488800  0.141900  0.162700  1.0  0.1125
  H  H60  1  0.471000  0.194200  0.238400  1.0  0.1038
  H  H61  1  0.289000  0.315900  0.360800  1.0  0.1191
  H  H62  1  0.162600  0.360400  0.381300  1.0  0.1238
  H  H63  1  0.051500  0.345300  0.327800  1.0  0.1107
  H  H64  1  0.066800  0.282100  0.255500  1.0  0.1037
  H  H65  1  0.033200  0.309300  0.991900  1.0  0.1118
  H  H66  1  0.107900  0.290500  0.922500  1.0  0.1205
  H  H67  1  0.144600  0.393900  0.872800  1.0  0.1205
  H  H68  1  0.109300  0.515300  0.894300  1.0  0.1242
  H  H69  1  0.000500  0.184400  0.961900  1.0  0.1127
  H  H70  1  0.929000  0.187200  0.890400  1.0  0.121
  H  H71  1  0.875900  0.074600  0.857100  1.0  0.1203
  H  H72  1  0.891200  0.961400  0.896600  1.0  0.1197
  H  H73  1  0.252200  0.654600  0.135000  1.0  0.1192
  H  H74  1  0.123200  0.623100  0.110800  1.0  0.1231
  H  H75  1  0.011200  0.641900  0.162700  1.0  0.113
  H  H76  1  0.029000  0.694200  0.238400  1.0  0.1033
  H  H77  1  0.211000  0.815900  0.360800  1.0  0.1196
  H  H78  1  0.337400  0.860400  0.381300  1.0  0.1239
  H  H79  1  0.448500  0.845300  0.327800  1.0  0.1103
  H  H80  1  0.433200  0.782100  0.255500  1.0  0.1039
  H  H81  1  0.466800  0.809300  0.991900  1.0  0.112
  H  H82  1  0.392100  0.790500  0.922500  1.0  0.1213
  H  H83  1  0.355400  0.893900  0.872800  1.0  0.1203
  H  H84  1  0.390700  0.015300  0.894300  1.0  0.1243
  H  H85  1  0.499500  0.684400  0.961900  1.0  0.1127
  H  H86  1  0.571000  0.687200  0.890400  1.0  0.1205
  H  H87  1  0.624100  0.574600  0.857100  1.0  0.121
  H  H88  1  0.608800  0.461400  0.896600  1.0  0.1196
  H  H89  1  0.247800  0.345400  0.635000  1.0  0.1193
  H  H90  1  0.376800  0.376900  0.610800  1.0  0.1225
  H  H91  1  0.488800  0.358100  0.662700  1.0  0.1126
  H  H92  1  0.471000  0.305800  0.738400  1.0  0.1033
  H  H93  1  0.289000  0.184100  0.860800  1.0  0.1194
  H  H94  1  0.162600  0.139600  0.881300  1.0  0.1238
  H  H95  1  0.051500  0.154700  0.827800  1.0  0.1101
  H  H96  1  0.066800  0.217900  0.755500  1.0  0.1038
  H  H97  1  0.033200  0.190700  0.491900  1.0  0.1117
  H  H98  1  0.107900  0.209500  0.422500  1.0  0.121
  H  H99  1  0.144600  0.106100  0.372800  1.0  0.1201
  H  H100  1  0.109300  0.984700  0.394300  1.0  0.1241
  H  H101  1  0.000500  0.315600  0.461900  1.0  0.1127
  H  H102  1  0.929000  0.312800  0.390400  1.0  0.1209
  H  H103  1  0.875900  0.425400  0.357100  1.0  0.1213
  H  H104  1  0.891200  0.538600  0.396600  1.0  0.1199
  H  H105  1  0.747800  0.345400  0.865000  1.0  0.1189
  H  H106  1  0.876800  0.376900  0.889200  1.0  0.1229
  H  H107  1  0.988800  0.358100  0.837300  1.0  0.1126
  H  H108  1  0.971000  0.305800  0.761600  1.0  0.1027
  H  H109  1  0.789000  0.184100  0.639200  1.0  0.119
  H  H110  1  0.662600  0.139600  0.618700  1.0  0.1236
  H  H111  1  0.551500  0.154700  0.672200  1.0  0.1104
  H  H112  1  0.566800  0.217900  0.744500  1.0  0.1045
  H  H113  1  0.533200  0.190700  0.008100  1.0  0.1118
  H  H114  1  0.607900  0.209500  0.077500  1.0  0.1206
  H  H115  1  0.644600  0.106100  0.127200  1.0  0.1197
  H  H116  1  0.609300  0.984700  0.105700  1.0  0.1241
  H  H117  1  0.500500  0.315600  0.038100  1.0  0.1124
  H  H118  1  0.429000  0.312800  0.109600  1.0  0.1212
  H  H119  1  0.375900  0.425400  0.142900  1.0  0.1204
  H  H120  1  0.391200  0.538600  0.103400  1.0  0.12
  H  H121  1  0.752200  0.654600  0.365000  1.0  0.119
  H  H122  1  0.623200  0.623100  0.389200  1.0  0.1235
  H  H123  1  0.511200  0.641900  0.337300  1.0  0.1128
  H  H124  1  0.529000  0.694200  0.261600  1.0  0.1027
  H  H125  1  0.711000  0.815900  0.139200  1.0  0.1194
  H  H126  1  0.837400  0.860400  0.118700  1.0  0.1233
  H  H127  1  0.948500  0.845300  0.172200  1.0  0.1106
  H  H128  1  0.933200  0.782100  0.244500  1.0  0.1043
  H  H129  1  0.966800  0.809300  0.508100  1.0  0.1116
  H  H130  1  0.892100  0.790500  0.577500  1.0  0.1211
  H  H131  1  0.855400  0.893900  0.627200  1.0  0.1205
  H  H132  1  0.890700  0.015300  0.605700  1.0  0.1236
  H  H133  1  0.999500  0.684400  0.538100  1.0  0.1129
  H  H134  1  0.071000  0.687200  0.609600  1.0  0.1204
  H  H135  1  0.124100  0.574600  0.642900  1.0  0.1195
  H  H136  1  0.108800  0.461400  0.603400  1.0  0.12
  C  C137  1  0.629110  0.203480  0.313940  1.0  0.6674
  C  C138  1  0.701280  0.220830  0.282070  1.0  -0.1057
  C  C139  1  0.778480  0.198260  0.297220  1.0  0.023
  C  C140  1  0.792420  0.163910  0.343880  1.0  -0.0993
  C  C141  1  0.868530  0.144670  0.358020  1.0  -0.0887
  C  C142  1  0.935860  0.156210  0.326930  1.0  -0.086
  C  C143  1  0.925360  0.187700  0.282320  1.0  -0.1005
  C  C144  1  0.847070  0.211180  0.266130  1.0  0.0645
  C  C145  1  0.834700  0.246570  0.221050  1.0  -0.0943
  C  C146  1  0.757780  0.270260  0.206210  1.0  0.0041
  C  C147  1  0.744710  0.308820  0.160940  1.0  -0.1011
  C  C148  1  0.670210  0.335180  0.148800  1.0  -0.0891
  C  C149  1  0.603260  0.325470  0.180830  1.0  -0.0631
  C  C150  1  0.612370  0.288230  0.223620  1.0  -0.1017
  C  C151  1  0.689320  0.258240  0.237700  1.0  0.0602
  C  C152  1  0.906340  0.263130  0.188990  1.0  0.7062
  C  C153  1  0.455140  0.371640  0.439380  1.0  0.6726
  C  C154  1  0.476410  0.438210  0.471220  1.0  -0.0486
  C  C155  1  0.522710  0.425590  0.513110  1.0  0.057
  C  C156  1  0.547750  0.351480  0.527570  1.0  -0.0818
  C  C157  1  0.591970  0.340250  0.568610  1.0  -0.0799
  C  C158  1  0.614470  0.402460  0.598300  1.0  -0.0702
  C  C159  1  0.593240  0.474200  0.585680  1.0  -0.0915
  C  C160  1  0.452910  0.511560  0.457400  1.0  0.0496
  C  C161  1  0.563900  0.139080  0.458080  1.0  0.6688
  C  C162  1  0.533970  0.066550  0.481000  1.0  -0.0292
  C  C163  1  0.490420  0.069570  0.524570  1.0  0.0286
  C  C164  1  0.478510  0.138790  0.550740  1.0  -0.0844
  C  C165  1  0.436710  0.140580  0.593080  1.0  -0.0621
  C  C166  1  0.404340  0.072940  0.612890  1.0  -0.0862
  C  C167  1  0.413400  0.006000  0.589510  1.0  -0.1
  C  C168  1  0.544020  0.998550  0.455860  1.0  0.0235
  C  C169  1  0.870890  0.796520  0.813940  1.0  0.667
  C  C170  1  0.798720  0.779170  0.782070  1.0  -0.1053
  C  C171  1  0.721520  0.801740  0.797220  1.0  0.0233
  C  C172  1  0.707580  0.836090  0.843880  1.0  -0.0993
  C  C173  1  0.631470  0.855330  0.858020  1.0  -0.0884
  C  C174  1  0.564140  0.843790  0.826930  1.0  -0.0838
  C  C175  1  0.574640  0.812300  0.782320  1.0  -0.0997
  C  C176  1  0.652930  0.788820  0.766130  1.0  0.064
  C  C177  1  0.665300  0.753430  0.721050  1.0  -0.0943
  C  C178  1  0.742220  0.729740  0.706210  1.0  0.0038
  C  C179  1  0.755290  0.691180  0.660940  1.0  -0.1012
  C  C180  1  0.829790  0.664820  0.648800  1.0  -0.0898
  C  C181  1  0.896740  0.674530  0.680830  1.0  -0.0633
  C  C182  1  0.887630  0.711770  0.723620  1.0  -0.1017
  C  C183  1  0.810680  0.741760  0.737700  1.0  0.0603
  C  C184  1  0.593660  0.736870  0.688990  1.0  0.7043
  C  C185  1  0.044860  0.628360  0.939380  1.0  0.6712
  C  C186  1  0.023590  0.561790  0.971220  1.0  -0.0481
  C  C187  1  0.977290  0.574410  0.013110  1.0  0.0574
  C  C188  1  0.952250  0.648520  0.027570  1.0  -0.0811
  C  C189  1  0.908030  0.659750  0.068610  1.0  -0.0809
  C  C190  1  0.885530  0.597540  0.098300  1.0  -0.0711
  C  C191  1  0.906760  0.525800  0.085680  1.0  -0.0924
  C  C192  1  0.047090  0.488440  0.957400  1.0  0.0492
  C  C193  1  0.936100  0.860920  0.958080  1.0  0.6704
  C  C194  1  0.966030  0.933450  0.981000  1.0  -0.0289
  C  C195  1  0.009580  0.930430  0.024570  1.0  0.0284
  C  C196  1  0.021490  0.861210  0.050740  1.0  -0.085
  C  C197  1  0.063290  0.859420  0.093080  1.0  -0.0639
  C  C198  1  0.095660  0.927060  0.112890  1.0  -0.085
  C  C199  1  0.086600  0.994000  0.089510  1.0  -0.0989
  C  C200  1  0.955980  0.001450  0.955860  1.0  0.0236
  C  C201  1  0.370890  0.796520  0.686060  1.0  0.6675
  C  C202  1  0.298720  0.779170  0.717930  1.0  -0.1053
  C  C203  1  0.221520  0.801740  0.702780  1.0  0.0234
  C  C204  1  0.207580  0.836090  0.656120  1.0  -0.0978
  C  C205  1  0.131470  0.855330  0.641980  1.0  -0.0895
  C  C206  1  0.064140  0.843790  0.673070  1.0  -0.0833
  C  C207  1  0.074640  0.812300  0.717680  1.0  -0.1
  C  C208  1  0.152930  0.788820  0.733870  1.0  0.064
  C  C209  1  0.165300  0.753430  0.778950  1.0  -0.0944
  C  C210  1  0.242220  0.729740  0.793790  1.0  0.0037
  C  C211  1  0.255290  0.691180  0.839060  1.0  -0.1021
  C  C212  1  0.329790  0.664820  0.851200  1.0  -0.0885
  C  C213  1  0.396740  0.674530  0.819170  1.0  -0.0638
  C  C214  1  0.387630  0.711770  0.776380  1.0  -0.1014
  C  C215  1  0.310680  0.741760  0.762300  1.0  0.0603
  C  C216  1  0.093660  0.736870  0.811010  1.0  0.7042
  C  C217  1  0.544860  0.628360  0.560620  1.0  0.6707
  C  C218  1  0.523590  0.561790  0.528780  1.0  -0.0476
  C  C219  1  0.477290  0.574410  0.486890  1.0  0.0574
  C  C220  1  0.452250  0.648520  0.472430  1.0  -0.0819
  C  C221  1  0.408030  0.659750  0.431390  1.0  -0.0804
  C  C222  1  0.385530  0.597540  0.401700  1.0  -0.0714
  C  C223  1  0.406760  0.525800  0.414320  1.0  -0.0918
  C  C224  1  0.547090  0.488440  0.542600  1.0  0.0496
  C  C225  1  0.436100  0.860920  0.541920  1.0  0.6705
  C  C226  1  0.466030  0.933450  0.519000  1.0  -0.0285
  C  C227  1  0.509580  0.930430  0.475430  1.0  0.0282
  C  C228  1  0.521490  0.861210  0.449260  1.0  -0.0851
  C  C229  1  0.563290  0.859420  0.406920  1.0  -0.0634
  C  C230  1  0.595660  0.927060  0.387110  1.0  -0.0858
  C  C231  1  0.586600  0.994000  0.410490  1.0  -0.0984
  C  C232  1  0.455980  0.001450  0.544140  1.0  0.0236
  C  C233  1  0.129110  0.203480  0.186060  1.0  0.6678
  C  C234  1  0.201280  0.220830  0.217930  1.0  -0.1056
  C  C235  1  0.278480  0.198260  0.202780  1.0  0.023
  C  C236  1  0.292420  0.163910  0.156120  1.0  -0.0983
  C  C237  1  0.368530  0.144670  0.141980  1.0  -0.0905
  C  C238  1  0.435860  0.156210  0.173070  1.0  -0.0856
  C  C239  1  0.425360  0.187700  0.217680  1.0  -0.0998
  C  C240  1  0.347070  0.211180  0.233870  1.0  0.0644
  C  C241  1  0.334700  0.246570  0.278950  1.0  -0.0944
  C  C242  1  0.257780  0.270260  0.293790  1.0  0.0039
  C  C243  1  0.244710  0.308820  0.339060  1.0  -0.1022
  C  C244  1  0.170210  0.335180  0.351200  1.0  -0.0887
  C  C245  1  0.103260  0.325470  0.319170  1.0  -0.0629
  C  C246  1  0.112370  0.288230  0.276380  1.0  -0.1007
  C  C247  1  0.189320  0.258240  0.262300  1.0  0.0603
  C  C248  1  0.406340  0.263130  0.311010  1.0  0.7063
  C  C249  1  0.955140  0.371640  0.060620  1.0  0.6721
  C  C250  1  0.976410  0.438210  0.028780  1.0  -0.0484
  C  C251  1  0.022710  0.425590  0.986890  1.0  0.057
  C  C252  1  0.047750  0.351480  0.972430  1.0  -0.0833
  C  C253  1  0.091970  0.340250  0.931390  1.0  -0.0799
  C  C254  1  0.114470  0.402460  0.901700  1.0  -0.0704
  C  C255  1  0.093240  0.474200  0.914320  1.0  -0.0907
  C  C256  1  0.952910  0.511560  0.042600  1.0  0.05
  C  C257  1  0.063900  0.139080  0.041920  1.0  0.6685
  C  C258  1  0.033970  0.066550  0.019000  1.0  -0.029
  C  C259  1  0.990420  0.069570  0.975430  1.0  0.0284
  C  C260  1  0.978510  0.138790  0.949260  1.0  -0.0842
  C  C261  1  0.936710  0.140580  0.906920  1.0  -0.0617
  C  C262  1  0.904340  0.072940  0.887110  1.0  -0.087
  C  C263  1  0.913400  0.006000  0.910490  1.0  -0.098
  C  C264  1  0.044020  0.998550  0.044140  1.0  0.0235
  C  C265  1  0.370890  0.703480  0.186060  1.0  0.6678
  C  C266  1  0.298720  0.720830  0.217930  1.0  -0.1054
  C  C267  1  0.221520  0.698260  0.202780  1.0  0.0226
  C  C268  1  0.207580  0.663910  0.156120  1.0  -0.0979
  C  C269  1  0.131470  0.644670  0.141980  1.0  -0.0895
  C  C270  1  0.064140  0.656210  0.173070  1.0  -0.0838
  C  C271  1  0.074640  0.687700  0.217680  1.0  -0.1001
  C  C272  1  0.152930  0.711180  0.233870  1.0  0.0641
  C  C273  1  0.165300  0.746570  0.278950  1.0  -0.0944
  C  C274  1  0.242220  0.770260  0.293790  1.0  0.0035
  C  C275  1  0.255290  0.808820  0.339060  1.0  -0.103
  C  C276  1  0.329790  0.835180  0.351200  1.0  -0.0886
  C  C277  1  0.396740  0.825470  0.319170  1.0  -0.0625
  C  C278  1  0.387630  0.788230  0.276380  1.0  -0.1008
  C  C279  1  0.310680  0.758240  0.262300  1.0  0.0602
  C  C280  1  0.093660  0.763130  0.311010  1.0  0.7046
  C  C281  1  0.544860  0.871640  0.060620  1.0  0.671
  C  C282  1  0.523590  0.938210  0.028780  1.0  -0.0478
  C  C283  1  0.477290  0.925590  0.986890  1.0  0.0574
  C  C284  1  0.452250  0.851480  0.972430  1.0  -0.082
  C  C285  1  0.408030  0.840250  0.931390  1.0  -0.0806
  C  C286  1  0.385530  0.902460  0.901700  1.0  -0.0721
  C  C287  1  0.406760  0.974200  0.914320  1.0  -0.0903
  C  C288  1  0.547090  0.011560  0.042600  1.0  0.0495
  C  C289  1  0.436100  0.639080  0.041920  1.0  0.6693
  C  C290  1  0.466030  0.566550  0.019000  1.0  -0.0282
  C  C291  1  0.509580  0.569570  0.975430  1.0  0.0282
  C  C292  1  0.521490  0.638790  0.949260  1.0  -0.0858
  C  C293  1  0.563290  0.640580  0.906920  1.0  -0.0628
  C  C294  1  0.595660  0.572940  0.887110  1.0  -0.0855
  C  C295  1  0.586600  0.506000  0.910490  1.0  -0.0978
  C  C296  1  0.455980  0.498550  0.044140  1.0  0.0237
  C  C297  1  0.129110  0.296520  0.686060  1.0  0.6672
  C  C298  1  0.201280  0.279170  0.717930  1.0  -0.1055
  C  C299  1  0.278480  0.301740  0.702780  1.0  0.0236
  C  C300  1  0.292420  0.336090  0.656120  1.0  -0.0987
  C  C301  1  0.368530  0.355330  0.641980  1.0  -0.0901
  C  C302  1  0.435860  0.343790  0.673070  1.0  -0.0853
  C  C303  1  0.425360  0.312300  0.717680  1.0  -0.0995
  C  C304  1  0.347070  0.288820  0.733870  1.0  0.0645
  C  C305  1  0.334700  0.253430  0.778950  1.0  -0.0944
  C  C306  1  0.257780  0.229740  0.793790  1.0  0.004
  C  C307  1  0.244710  0.191180  0.839060  1.0  -0.1018
  C  C308  1  0.170210  0.164820  0.851200  1.0  -0.0892
  C  C309  1  0.103260  0.174530  0.819170  1.0  -0.0635
  C  C310  1  0.112370  0.211770  0.776380  1.0  -0.1012
  C  C311  1  0.189320  0.241760  0.762300  1.0  0.0604
  C  C312  1  0.406340  0.236870  0.811010  1.0  0.706
  C  C313  1  0.955140  0.128360  0.560620  1.0  0.6717
  C  C314  1  0.976410  0.061790  0.528780  1.0  -0.048
  C  C315  1  0.022710  0.074410  0.486890  1.0  0.057
  C  C316  1  0.047750  0.148520  0.472430  1.0  -0.0838
  C  C317  1  0.091970  0.159750  0.431390  1.0  -0.08
  C  C318  1  0.114470  0.097540  0.401700  1.0  -0.0703
  C  C319  1  0.093240  0.025800  0.414320  1.0  -0.0909
  C  C320  1  0.952910  0.988440  0.542600  1.0  0.0495
  C  C321  1  0.063900  0.360920  0.541920  1.0  0.6697
  C  C322  1  0.033970  0.433450  0.519000  1.0  -0.0291
  C  C323  1  0.990420  0.430430  0.475430  1.0  0.0284
  C  C324  1  0.978510  0.361210  0.449260  1.0  -0.0835
  C  C325  1  0.936710  0.359420  0.406920  1.0  -0.0629
  C  C326  1  0.904340  0.427060  0.387110  1.0  -0.0867
  C  C327  1  0.913400  0.494000  0.410490  1.0  -0.0994
  C  C328  1  0.044020  0.501450  0.544140  1.0  0.0235
  C  C329  1  0.629110  0.296520  0.813940  1.0  0.6665
  C  C330  1  0.701280  0.279170  0.782070  1.0  -0.1056
  C  C331  1  0.778480  0.301740  0.797220  1.0  0.0236
  C  C332  1  0.792420  0.336090  0.843880  1.0  -0.1002
  C  C333  1  0.868530  0.355330  0.858020  1.0  -0.0891
  C  C334  1  0.935860  0.343790  0.826930  1.0  -0.0853
  C  C335  1  0.925360  0.312300  0.782320  1.0  -0.0996
  C  C336  1  0.847070  0.288820  0.766130  1.0  0.0645
  C  C337  1  0.834700  0.253430  0.721050  1.0  -0.0944
  C  C338  1  0.757780  0.229740  0.706210  1.0  0.0041
  C  C339  1  0.744710  0.191180  0.660940  1.0  -0.101
  C  C340  1  0.670210  0.164820  0.648800  1.0  -0.0901
  C  C341  1  0.603260  0.174530  0.680830  1.0  -0.0629
  C  C342  1  0.612370  0.211770  0.723620  1.0  -0.1022
  C  C343  1  0.689320  0.241760  0.737700  1.0  0.0604
  C  C344  1  0.906340  0.236870  0.688990  1.0  0.7057
  C  C345  1  0.455140  0.128360  0.939380  1.0  0.6726
  C  C346  1  0.476410  0.061790  0.971220  1.0  -0.0485
  C  C347  1  0.522710  0.074410  0.013110  1.0  0.057
  C  C348  1  0.547750  0.148520  0.027570  1.0  -0.0822
  C  C349  1  0.591970  0.159750  0.068610  1.0  -0.0802
  C  C350  1  0.614470  0.097540  0.098300  1.0  -0.0698
  C  C351  1  0.593240  0.025800  0.085680  1.0  -0.0919
  C  C352  1  0.452910  0.988440  0.957400  1.0  0.0499
  C  C353  1  0.563900  0.360920  0.958080  1.0  0.6697
  C  C354  1  0.533970  0.433450  0.981000  1.0  -0.0295
  C  C355  1  0.490420  0.430430  0.024570  1.0  0.0286
  C  C356  1  0.478510  0.361210  0.050740  1.0  -0.0832
  C  C357  1  0.436710  0.359420  0.093080  1.0  -0.0633
  C  C358  1  0.404340  0.427060  0.112890  1.0  -0.0866
  C  C359  1  0.413400  0.494000  0.089510  1.0  -0.0993
  C  C360  1  0.544020  0.501450  0.955860  1.0  0.0234
  C  C361  1  0.870890  0.703480  0.313940  1.0  0.6677
  C  C362  1  0.798720  0.720830  0.282070  1.0  -0.1054
  C  C363  1  0.721520  0.698260  0.297220  1.0  0.0226
  C  C364  1  0.707580  0.663910  0.343880  1.0  -0.0991
  C  C365  1  0.631470  0.644670  0.358020  1.0  -0.0878
  C  C366  1  0.564140  0.656210  0.326930  1.0  -0.0845
  C  C367  1  0.574640  0.687700  0.282320  1.0  -0.1003
  C  C368  1  0.652930  0.711180  0.266130  1.0  0.0641
  C  C369  1  0.665300  0.746570  0.221050  1.0  -0.0943
  C  C370  1  0.742220  0.770260  0.206210  1.0  0.0037
  C  C371  1  0.755290  0.808820  0.160940  1.0  -0.1016
  C  C372  1  0.829790  0.835180  0.148800  1.0  -0.0889
  C  C373  1  0.896740  0.825470  0.180830  1.0  -0.0631
  C  C374  1  0.887630  0.788230  0.223620  1.0  -0.1013
  C  C375  1  0.810680  0.758240  0.237700  1.0  0.0601
  C  C376  1  0.593660  0.763130  0.188990  1.0  0.7048
  C  C377  1  0.044860  0.871640  0.439380  1.0  0.6711
  C  C378  1  0.023590  0.938210  0.471220  1.0  -0.0481
  C  C379  1  0.977290  0.925590  0.513110  1.0  0.0575
  C  C380  1  0.952250  0.851480  0.527570  1.0  -0.0803
  C  C381  1  0.908030  0.840250  0.568610  1.0  -0.0807
  C  C382  1  0.885530  0.902460  0.598300  1.0  -0.0721
  C  C383  1  0.906760  0.974200  0.585680  1.0  -0.0927
  C  C384  1  0.047090  0.011560  0.457400  1.0  0.0499
  C  C385  1  0.936100  0.639080  0.458080  1.0  0.6695
  C  C386  1  0.966030  0.566550  0.481000  1.0  -0.0285
  C  C387  1  0.009580  0.569570  0.524570  1.0  0.0284
  C  C388  1  0.021490  0.638790  0.550740  1.0  -0.0858
  C  C389  1  0.063290  0.640580  0.593080  1.0  -0.063
  C  C390  1  0.095660  0.572940  0.612890  1.0  -0.0847
  C  C391  1  0.086600  0.506000  0.589510  1.0  -0.0982
  C  C392  1  0.955980  0.498550  0.455860  1.0  0.0237
  O  O393  1  0.616040  0.250930  0.347890  1.0  -0.5835
  O  O394  1  0.589260  0.145900  0.305300  1.0  -0.4941
  O  O395  1  0.915030  0.219980  0.151650  1.0  -0.5676
  O  O396  1  0.952490  0.315890  0.198720  1.0  -0.5128
  O  O397  1  0.515200  0.348400  0.414330  1.0  -0.5798
  O  O398  1  0.385900  0.344800  0.439570  1.0  -0.4975
  O  O399  1  0.508730  0.173420  0.434830  1.0  -0.5891
  O  O400  1  0.635310  0.158740  0.462070  1.0  -0.5178
  O  O401  1  0.883960  0.749070  0.847890  1.0  -0.5842
  O  O402  1  0.910740  0.854100  0.805300  1.0  -0.493
  O  O403  1  0.584970  0.780020  0.651650  1.0  -0.5668
  O  O404  1  0.547510  0.684110  0.698720  1.0  -0.5114
  O  O405  1  0.984800  0.651600  0.914330  1.0  -0.58
  O  O406  1  0.114100  0.655200  0.939570  1.0  -0.4994
  O  O407  1  0.991270  0.826580  0.934830  1.0  -0.5894
  O  O408  1  0.864690  0.841260  0.962070  1.0  -0.5157
  O  O409  1  0.383960  0.749070  0.652110  1.0  -0.5845
  O  O410  1  0.410740  0.854100  0.694700  1.0  -0.4936
  O  O411  1  0.084970  0.780020  0.848350  1.0  -0.5651
  O  O412  1  0.047510  0.684110  0.801280  1.0  -0.511
  O  O413  1  0.484800  0.651600  0.585670  1.0  -0.5797
  O  O414  1  0.614100  0.655200  0.560430  1.0  -0.499
  O  O415  1  0.491270  0.826580  0.565170  1.0  -0.5898
  O  O416  1  0.364690  0.841260  0.537930  1.0  -0.5174
  O  O417  1  0.116040  0.250930  0.152110  1.0  -0.5837
  O  O418  1  0.089260  0.145900  0.194700  1.0  -0.4948
  O  O419  1  0.415030  0.219980  0.348350  1.0  -0.5671
  O  O420  1  0.452490  0.315890  0.301280  1.0  -0.5128
  O  O421  1  0.015200  0.348400  0.085670  1.0  -0.579
  O  O422  1  0.885900  0.344800  0.060430  1.0  -0.499
  O  O423  1  0.008730  0.173420  0.065170  1.0  -0.5898
  O  O424  1  0.135310  0.158740  0.037930  1.0  -0.5179
  O  O425  1  0.383960  0.750930  0.152110  1.0  -0.5838
  O  O426  1  0.410740  0.645900  0.194700  1.0  -0.4942
  O  O427  1  0.084970  0.719980  0.348350  1.0  -0.567
  O  O428  1  0.047510  0.815890  0.301280  1.0  -0.5116
  O  O429  1  0.484800  0.848400  0.085670  1.0  -0.58
  O  O430  1  0.614100  0.844800  0.060430  1.0  -0.4997
  O  O431  1  0.491270  0.673420  0.065170  1.0  -0.5895
  O  O432  1  0.364690  0.658740  0.037930  1.0  -0.5177
  O  O433  1  0.116040  0.249070  0.652110  1.0  -0.5849
  O  O434  1  0.089260  0.354100  0.694700  1.0  -0.494
  O  O435  1  0.415030  0.280020  0.848350  1.0  -0.5652
  O  O436  1  0.452490  0.184110  0.801280  1.0  -0.5122
  O  O437  1  0.015200  0.151600  0.585670  1.0  -0.5787
  O  O438  1  0.885900  0.155200  0.560430  1.0  -0.4985
  O  O439  1  0.008730  0.326580  0.565170  1.0  -0.59
  O  O440  1  0.135310  0.341260  0.537930  1.0  -0.5185
  O  O441  1  0.616040  0.249070  0.847890  1.0  -0.5843
  O  O442  1  0.589260  0.354100  0.805300  1.0  -0.4934
  O  O443  1  0.915030  0.280020  0.651650  1.0  -0.5664
  O  O444  1  0.952490  0.184110  0.698720  1.0  -0.5126
  O  O445  1  0.515200  0.151600  0.914330  1.0  -0.5796
  O  O446  1  0.385900  0.155200  0.939570  1.0  -0.4979
  O  O447  1  0.508730  0.326580  0.934830  1.0  -0.5898
  O  O448  1  0.635310  0.341260  0.962070  1.0  -0.5175
  O  O449  1  0.883960  0.750930  0.347890  1.0  -0.5843
  O  O450  1  0.910740  0.645900  0.305300  1.0  -0.4936
  O  O451  1  0.584970  0.719980  0.151650  1.0  -0.5678
  O  O452  1  0.547510  0.815890  0.198720  1.0  -0.5114
  O  O453  1  0.984800  0.848400  0.414330  1.0  -0.5803
  O  O454  1  0.114100  0.844800  0.439570  1.0  -0.4992
  O  O455  1  0.991270  0.673420  0.434830  1.0  -0.5889
  O  O456  1  0.864690  0.658740  0.462070  1.0  -0.5166
