# generated using pymatgen
data_CdH6C10(NO)4
_symmetry_space_group_name_H-M   'P 1'
_cell_length_a   26.04140000
_cell_length_b   26.04140000
_cell_length_c   26.04140000
_cell_angle_alpha   109.47100000
_cell_angle_beta   109.47100000
_cell_angle_gamma   109.47100000
_symmetry_Int_Tables_number   1
_chemical_formula_structural   CdH6C10(NO)4
_chemical_formula_sum   'Cd24 H144 C240 N96 O96'
_cell_volume   13594.85695035
_cell_formula_units_Z   24
loop_
 _symmetry_equiv_pos_site_id
 _symmetry_equiv_pos_as_xyz
  1  'x, y, z'
loop_
 _atom_site_type_symbol
 _atom_site_label
 _atom_site_symmetry_multiplicity
 _atom_site_fract_x
 _atom_site_fract_y
 _atom_site_fract_z
 _atom_site_occupancy
 _atom_site_charge
  Cd  Cd1  1  0.645180  0.290360  0.145180  1.0  0.9005
  Cd  Cd2  1  0.145180  0.500000  0.854820  1.0  0.9032
  Cd  Cd3  1  0.854820  0.709640  0.354820  1.0  0.9007
  Cd  Cd4  1  0.354820  0.500000  0.645180  1.0  0.8999
  Cd  Cd5  1  0.354820  0.854820  0.709640  1.0  0.9025
  Cd  Cd6  1  0.645180  0.354820  0.500000  1.0  0.9002
  Cd  Cd7  1  0.145180  0.645180  0.290360  1.0  0.9009
  Cd  Cd8  1  0.854820  0.145180  0.500000  1.0  0.8975
  Cd  Cd9  1  0.500000  0.854820  0.145180  1.0  0.9009
  Cd  Cd10  1  0.290360  0.145180  0.645180  1.0  0.9002
  Cd  Cd11  1  0.500000  0.645180  0.354820  1.0  0.9026
  Cd  Cd12  1  0.709640  0.354820  0.854820  1.0  0.8978
  Cd  Cd13  1  0.354820  0.709640  0.854820  1.0  0.9003
  Cd  Cd14  1  0.854820  0.500000  0.145180  1.0  0.8999
  Cd  Cd15  1  0.145180  0.290360  0.645180  1.0  0.9002
  Cd  Cd16  1  0.645180  0.500000  0.354820  1.0  0.9032
  Cd  Cd17  1  0.645180  0.145180  0.290360  1.0  0.9009
  Cd  Cd18  1  0.354820  0.645180  0.500000  1.0  0.8975
  Cd  Cd19  1  0.854820  0.354820  0.709640  1.0  0.9025
  Cd  Cd20  1  0.145180  0.854820  0.500000  1.0  0.9002
  Cd  Cd21  1  0.500000  0.145180  0.854820  1.0  0.9026
  Cd  Cd22  1  0.709640  0.854820  0.354820  1.0  0.8977
  Cd  Cd23  1  0.500000  0.354820  0.645180  1.0  0.9009
  Cd  Cd24  1  0.290360  0.645180  0.145180  1.0  0.9002
  H  H25  1  0.585400  0.369000  0.086600  1.0  0.0893
  H  H26  1  0.499200  0.219500  0.125700  1.0  0.1017
  H  H27  1  0.282400  0.498800  0.913400  1.0  0.0872
  H  H28  1  0.093800  0.373500  0.874300  1.0  0.1021
  H  H29  1  0.717600  0.631000  0.216400  1.0  0.0905
  H  H30  1  0.906200  0.780500  0.279700  1.0  0.1012
  H  H31  1  0.414600  0.501200  0.783600  1.0  0.0889
  H  H32  1  0.500800  0.626500  0.720300  1.0  0.1007
  H  H33  1  0.216400  0.717600  0.631000  1.0  0.0892
  H  H34  1  0.279700  0.906200  0.780500  1.0  0.1023
  H  H35  1  0.783600  0.414600  0.501200  1.0  0.0898
  H  H36  1  0.720300  0.500800  0.626500  1.0  0.1006
  H  H37  1  0.086600  0.585400  0.369000  1.0  0.0898
  H  H38  1  0.125700  0.499200  0.219500  1.0  0.1034
  H  H39  1  0.913400  0.282400  0.498800  1.0  0.0891
  H  H40  1  0.874300  0.093800  0.373500  1.0  0.1022
  H  H41  1  0.498800  0.913400  0.282400  1.0  0.0886
  H  H42  1  0.373500  0.874300  0.093800  1.0  0.1031
  H  H43  1  0.369000  0.086600  0.585400  1.0  0.0907
  H  H44  1  0.219500  0.125700  0.499200  1.0  0.1031
  H  H45  1  0.501200  0.783600  0.414600  1.0  0.0887
  H  H46  1  0.626500  0.720300  0.500800  1.0  0.1017
  H  H47  1  0.631000  0.216400  0.717600  1.0  0.0895
  H  H48  1  0.780500  0.279700  0.906200  1.0  0.1006
  H  H49  1  0.631000  0.414600  0.913400  1.0  0.0897
  H  H50  1  0.780500  0.500800  0.874300  1.0  0.1021
  H  H51  1  0.501200  0.717600  0.086600  1.0  0.0884
  H  H52  1  0.626500  0.906200  0.125700  1.0  0.1026
  H  H53  1  0.369000  0.282400  0.783600  1.0  0.0909
  H  H54  1  0.219500  0.093800  0.720300  1.0  0.1019
  H  H55  1  0.498800  0.585400  0.216400  1.0  0.0889
  H  H56  1  0.373500  0.499200  0.279700  1.0  0.1015
  H  H57  1  0.282400  0.783600  0.369000  1.0  0.0897
  H  H58  1  0.093800  0.720300  0.219500  1.0  0.1025
  H  H59  1  0.585400  0.216400  0.498800  1.0  0.0881
  H  H60  1  0.499200  0.279700  0.373500  1.0  0.0995
  H  H61  1  0.414600  0.913400  0.631000  1.0  0.089
  H  H62  1  0.500800  0.874300  0.780500  1.0  0.1018
  H  H63  1  0.717600  0.086600  0.501200  1.0  0.0895
  H  H64  1  0.906200  0.125700  0.626500  1.0  0.1035
  H  H65  1  0.086600  0.501200  0.717600  1.0  0.0889
  H  H66  1  0.125700  0.626500  0.906200  1.0  0.1036
  H  H67  1  0.913400  0.631000  0.414600  1.0  0.0897
  H  H68  1  0.874300  0.780500  0.500800  1.0  0.1014
  H  H69  1  0.216400  0.498800  0.585400  1.0  0.0874
  H  H70  1  0.279700  0.373500  0.499200  1.0  0.1
  H  H71  1  0.783600  0.369000  0.282400  1.0  0.0893
  H  H72  1  0.720300  0.219500  0.093800  1.0  0.1011
  H  H73  1  0.414600  0.631000  0.913400  1.0  0.0894
  H  H74  1  0.500800  0.780500  0.874300  1.0  0.1007
  H  H75  1  0.717600  0.501200  0.086600  1.0  0.0871
  H  H76  1  0.906200  0.626500  0.125700  1.0  0.1018
  H  H77  1  0.282400  0.369000  0.783600  1.0  0.0898
  H  H78  1  0.093800  0.219500  0.720300  1.0  0.1013
  H  H79  1  0.585400  0.498800  0.216400  1.0  0.0879
  H  H80  1  0.499200  0.373500  0.279700  1.0  0.1012
  H  H81  1  0.783600  0.282400  0.369000  1.0  0.0883
  H  H82  1  0.720300  0.093800  0.219500  1.0  0.1011
  H  H83  1  0.216400  0.585400  0.498800  1.0  0.0876
  H  H84  1  0.279700  0.499200  0.373500  1.0  0.1003
  H  H85  1  0.913400  0.414600  0.631000  1.0  0.09
  H  H86  1  0.874300  0.500800  0.780500  1.0  0.1028
  H  H87  1  0.086600  0.717600  0.501200  1.0  0.0891
  H  H88  1  0.125700  0.906200  0.626500  1.0  0.1033
  H  H89  1  0.501200  0.086600  0.717600  1.0  0.0879
  H  H90  1  0.626500  0.125700  0.906200  1.0  0.1028
  H  H91  1  0.631000  0.913400  0.414600  1.0  0.09
  H  H92  1  0.780500  0.874300  0.500800  1.0  0.1029
  H  H93  1  0.498800  0.216400  0.585400  1.0  0.0878
  H  H94  1  0.373500  0.279700  0.499200  1.0  0.1019
  H  H95  1  0.369000  0.783600  0.282400  1.0  0.0892
  H  H96  1  0.219500  0.720300  0.093800  1.0  0.101
  H  H97  1  0.369000  0.585400  0.086600  1.0  0.0886
  H  H98  1  0.219500  0.499200  0.125700  1.0  0.1025
  H  H99  1  0.498800  0.282400  0.913400  1.0  0.0882
  H  H100  1  0.373500  0.093800  0.874300  1.0  0.1029
  H  H101  1  0.631000  0.717600  0.216400  1.0  0.09
  H  H102  1  0.780500  0.906200  0.279700  1.0  0.1025
  H  H103  1  0.501200  0.414600  0.783600  1.0  0.0897
  H  H104  1  0.626500  0.500800  0.720300  1.0  0.1019
  H  H105  1  0.717600  0.216400  0.631000  1.0  0.0892
  H  H106  1  0.906200  0.279700  0.780500  1.0  0.1033
  H  H107  1  0.414600  0.783600  0.501200  1.0  0.0886
  H  H108  1  0.500800  0.720300  0.626500  1.0  0.0992
  H  H109  1  0.585400  0.086600  0.369000  1.0  0.0886
  H  H110  1  0.499200  0.125700  0.219500  1.0  0.1027
  H  H111  1  0.282400  0.913400  0.498800  1.0  0.089
  H  H112  1  0.093800  0.874300  0.373500  1.0  0.1033
  H  H113  1  0.913400  0.498800  0.282400  1.0  0.0879
  H  H114  1  0.874300  0.373500  0.093800  1.0  0.1033
  H  H115  1  0.086600  0.369000  0.585400  1.0  0.0894
  H  H116  1  0.125700  0.219500  0.499200  1.0  0.1019
  H  H117  1  0.783600  0.501200  0.414600  1.0  0.0872
  H  H118  1  0.720300  0.626500  0.500800  1.0  0.099
  H  H119  1  0.216400  0.631000  0.717600  1.0  0.0891
  H  H120  1  0.279700  0.780500  0.906200  1.0  0.1005
  H  H121  1  0.614400  0.449600  0.064000  1.0  0.1107
  H  H122  1  0.385600  0.550400  0.936000  1.0  0.1107
  H  H123  1  0.614400  0.550400  0.164800  1.0  0.1079
  H  H124  1  0.385600  0.449600  0.835200  1.0  0.1085
  H  H125  1  0.164800  0.614400  0.550400  1.0  0.1093
  H  H126  1  0.835200  0.385600  0.449600  1.0  0.1088
  H  H127  1  0.064000  0.614400  0.449600  1.0  0.1111
  H  H128  1  0.936000  0.385600  0.550400  1.0  0.1104
  H  H129  1  0.550400  0.936000  0.385600  1.0  0.1112
  H  H130  1  0.449600  0.064000  0.614400  1.0  0.1104
  H  H131  1  0.449600  0.835200  0.385600  1.0  0.1087
  H  H132  1  0.550400  0.164800  0.614400  1.0  0.1095
  H  H133  1  0.550400  0.385600  0.936000  1.0  0.1115
  H  H134  1  0.449600  0.614400  0.064000  1.0  0.1104
  H  H135  1  0.449600  0.385600  0.835200  1.0  0.1084
  H  H136  1  0.550400  0.614400  0.164800  1.0  0.1087
  H  H137  1  0.385600  0.835200  0.449600  1.0  0.1087
  H  H138  1  0.614400  0.164800  0.550400  1.0  0.1096
  H  H139  1  0.385600  0.936000  0.550400  1.0  0.1104
  H  H140  1  0.614400  0.064000  0.449600  1.0  0.1113
  H  H141  1  0.064000  0.449600  0.614400  1.0  0.1103
  H  H142  1  0.936000  0.550400  0.385600  1.0  0.1105
  H  H143  1  0.164800  0.550400  0.614400  1.0  0.1081
  H  H144  1  0.835200  0.449600  0.385600  1.0  0.1089
  H  H145  1  0.447200  0.156200  0.156200  1.0  0.1103
  H  H146  1  0.000000  0.291000  0.843800  1.0  0.1119
  H  H147  1  0.000000  0.843800  0.291000  1.0  0.1091
  H  H148  1  0.552800  0.709000  0.709000  1.0  0.1118
  H  H149  1  0.291000  0.000000  0.843800  1.0  0.1106
  H  H150  1  0.709000  0.552800  0.709000  1.0  0.112
  H  H151  1  0.156200  0.447200  0.156200  1.0  0.1137
  H  H152  1  0.843800  0.000000  0.291000  1.0  0.1103
  H  H153  1  0.291000  0.843800  0.000000  1.0  0.1083
  H  H154  1  0.156200  0.156200  0.447200  1.0  0.1095
  H  H155  1  0.709000  0.709000  0.552800  1.0  0.1127
  H  H156  1  0.843800  0.291000  0.000000  1.0  0.1113
  H  H157  1  0.843800  0.552800  0.843800  1.0  0.1112
  H  H158  1  0.709000  0.000000  0.156200  1.0  0.1105
  H  H159  1  0.156200  0.000000  0.709000  1.0  0.1104
  H  H160  1  0.291000  0.447200  0.291000  1.0  0.1143
  H  H161  1  0.000000  0.709000  0.156200  1.0  0.1106
  H  H162  1  0.447200  0.291000  0.291000  1.0  0.1117
  H  H163  1  0.552800  0.843800  0.843800  1.0  0.1109
  H  H164  1  0.000000  0.156200  0.709000  1.0  0.1102
  H  H165  1  0.156200  0.709000  0.000000  1.0  0.1108
  H  H166  1  0.843800  0.843800  0.552800  1.0  0.1116
  H  H167  1  0.291000  0.291000  0.447200  1.0  0.112
  H  H168  1  0.709000  0.156200  0.000000  1.0  0.1099
  C  C169  1  0.626800  0.389600  0.093800  1.0  0.1781
  C  C170  1  0.519700  0.204000  0.148900  1.0  0.1148
  C  C171  1  0.295800  0.533000  0.906200  1.0  0.1729
  C  C172  1  0.055100  0.370800  0.851100  1.0  0.1141
  C  C173  1  0.704200  0.610400  0.237200  1.0  0.1725
  C  C174  1  0.944900  0.796000  0.315700  1.0  0.1102
  C  C175  1  0.373200  0.467000  0.762800  1.0  0.1788
  C  C176  1  0.480300  0.629200  0.684300  1.0  0.1251
  C  C177  1  0.237200  0.704200  0.610400  1.0  0.175
  C  C178  1  0.315700  0.944900  0.796000  1.0  0.1105
  C  C179  1  0.762800  0.373200  0.467000  1.0  0.1779
  C  C180  1  0.684300  0.480300  0.629200  1.0  0.1222
  C  C181  1  0.093800  0.626800  0.389600  1.0  0.1745
  C  C182  1  0.148900  0.519700  0.204000  1.0  0.1137
  C  C183  1  0.906200  0.295800  0.533000  1.0  0.1734
  C  C184  1  0.851100  0.055100  0.370800  1.0  0.1123
  C  C185  1  0.533000  0.906200  0.295800  1.0  0.1771
  C  C186  1  0.370800  0.851100  0.055100  1.0  0.1136
  C  C187  1  0.389600  0.093800  0.626800  1.0  0.1748
  C  C188  1  0.204000  0.148900  0.519700  1.0  0.1124
  C  C189  1  0.467000  0.762800  0.373200  1.0  0.1792
  C  C190  1  0.629200  0.684300  0.480300  1.0  0.119
  C  C191  1  0.610400  0.237200  0.704200  1.0  0.175
  C  C192  1  0.796000  0.315700  0.944900  1.0  0.1153
  C  C193  1  0.610400  0.373200  0.906200  1.0  0.174
  C  C194  1  0.796000  0.480300  0.851100  1.0  0.112
  C  C195  1  0.467000  0.704200  0.093800  1.0  0.1766
  C  C196  1  0.629200  0.944900  0.148900  1.0  0.1095
  C  C197  1  0.389600  0.295800  0.762800  1.0  0.1711
  C  C198  1  0.204000  0.055100  0.684300  1.0  0.1109
  C  C199  1  0.533000  0.626800  0.237200  1.0  0.1802
  C  C200  1  0.370800  0.519700  0.315700  1.0  0.1217
  C  C201  1  0.295800  0.762800  0.389600  1.0  0.1749
  C  C202  1  0.055100  0.684300  0.204000  1.0  0.1117
  C  C203  1  0.626800  0.237200  0.533000  1.0  0.1795
  C  C204  1  0.519700  0.315700  0.370800  1.0  0.1249
  C  C205  1  0.373200  0.906200  0.610400  1.0  0.1766
  C  C206  1  0.480300  0.851100  0.796000  1.0  0.1156
  C  C207  1  0.704200  0.093800  0.467000  1.0  0.1752
  C  C208  1  0.944900  0.148900  0.629200  1.0  0.1102
  C  C209  1  0.093800  0.467000  0.704200  1.0  0.1762
  C  C210  1  0.148900  0.629200  0.944900  1.0  0.1135
  C  C211  1  0.906200  0.610400  0.373200  1.0  0.1719
  C  C212  1  0.851100  0.796000  0.480300  1.0  0.1138
  C  C213  1  0.237200  0.533000  0.626800  1.0  0.1778
  C  C214  1  0.315700  0.370800  0.519700  1.0  0.1213
  C  C215  1  0.762800  0.389600  0.295800  1.0  0.1766
  C  C216  1  0.684300  0.204000  0.055100  1.0  0.1147
  C  C217  1  0.373200  0.610400  0.906200  1.0  0.179
  C  C218  1  0.480300  0.796000  0.851100  1.0  0.1171
  C  C219  1  0.704200  0.467000  0.093800  1.0  0.1743
  C  C220  1  0.944900  0.629200  0.148900  1.0  0.1108
  C  C221  1  0.295800  0.389600  0.762800  1.0  0.1714
  C  C222  1  0.055100  0.204000  0.684300  1.0  0.1124
  C  C223  1  0.626800  0.533000  0.237200  1.0  0.1806
  C  C224  1  0.519700  0.370800  0.315700  1.0  0.1234
  C  C225  1  0.762800  0.295800  0.389600  1.0  0.1754
  C  C226  1  0.684300  0.055100  0.204000  1.0  0.1112
  C  C227  1  0.237200  0.626800  0.533000  1.0  0.1779
  C  C228  1  0.315700  0.519700  0.370800  1.0  0.1223
  C  C229  1  0.906200  0.373200  0.610400  1.0  0.1761
  C  C230  1  0.851100  0.480300  0.796000  1.0  0.1132
  C  C231  1  0.093800  0.704200  0.467000  1.0  0.172
  C  C232  1  0.148900  0.944900  0.629200  1.0  0.1111
  C  C233  1  0.467000  0.093800  0.704200  1.0  0.177
  C  C234  1  0.629200  0.148900  0.944900  1.0  0.1165
  C  C235  1  0.610400  0.906200  0.373200  1.0  0.1751
  C  C236  1  0.796000  0.851100  0.480300  1.0  0.1104
  C  C237  1  0.533000  0.237200  0.626800  1.0  0.1795
  C  C238  1  0.370800  0.315700  0.519700  1.0  0.1207
  C  C239  1  0.389600  0.762800  0.295800  1.0  0.1749
  C  C240  1  0.204000  0.684300  0.055100  1.0  0.114
  C  C241  1  0.389600  0.626800  0.093800  1.0  0.1742
  C  C242  1  0.204000  0.519700  0.148900  1.0  0.1141
  C  C243  1  0.533000  0.295800  0.906200  1.0  0.1764
  C  C244  1  0.370800  0.055100  0.851100  1.0  0.1092
  C  C245  1  0.610400  0.704200  0.237200  1.0  0.172
  C  C246  1  0.796000  0.944900  0.315700  1.0  0.113
  C  C247  1  0.467000  0.373200  0.762800  1.0  0.179
  C  C248  1  0.629200  0.480300  0.684300  1.0  0.1222
  C  C249  1  0.704200  0.237200  0.610400  1.0  0.1736
  C  C250  1  0.944900  0.315700  0.796000  1.0  0.1109
  C  C251  1  0.373200  0.762800  0.467000  1.0  0.1804
  C  C252  1  0.480300  0.684300  0.629200  1.0  0.1258
  C  C253  1  0.626800  0.093800  0.389600  1.0  0.1769
  C  C254  1  0.519700  0.148900  0.204000  1.0  0.1159
  C  C255  1  0.295800  0.906200  0.533000  1.0  0.1742
  C  C256  1  0.055100  0.851100  0.370800  1.0  0.1108
  C  C257  1  0.906200  0.533000  0.295800  1.0  0.1752
  C  C258  1  0.851100  0.370800  0.055100  1.0  0.1165
  C  C259  1  0.093800  0.389600  0.626800  1.0  0.174
  C  C260  1  0.148900  0.204000  0.519700  1.0  0.1126
  C  C261  1  0.762800  0.467000  0.373200  1.0  0.177
  C  C262  1  0.684300  0.629200  0.480300  1.0  0.123
  C  C263  1  0.237200  0.610400  0.704200  1.0  0.1771
  C  C264  1  0.315700  0.796000  0.944900  1.0  0.1146
  C  C265  1  0.612100  0.383100  0.229000  1.0  0.6733
  C  C266  1  0.677200  0.402100  0.275100  1.0  0.357
  C  C267  1  0.154100  0.383100  0.771000  1.0  0.6762
  C  C268  1  0.127000  0.402100  0.724900  1.0  0.3589
  C  C269  1  0.845900  0.616900  0.229000  1.0  0.6747
  C  C270  1  0.873000  0.597900  0.275100  1.0  0.3578
  C  C271  1  0.387900  0.616900  0.771000  1.0  0.6732
  C  C272  1  0.322800  0.597900  0.724900  1.0  0.3577
  C  C273  1  0.229000  0.845900  0.616900  1.0  0.6749
  C  C274  1  0.275100  0.873000  0.597900  1.0  0.3583
  C  C275  1  0.771000  0.387900  0.616900  1.0  0.6746
  C  C276  1  0.724900  0.322800  0.597900  1.0  0.3585
  C  C277  1  0.229000  0.612100  0.383100  1.0  0.6696
  C  C278  1  0.275100  0.677200  0.402100  1.0  0.3586
  C  C279  1  0.771000  0.154100  0.383100  1.0  0.6754
  C  C280  1  0.724900  0.127000  0.402100  1.0  0.3588
  C  C281  1  0.383100  0.771000  0.154100  1.0  0.6743
  C  C282  1  0.402100  0.724900  0.127000  1.0  0.3592
  C  C283  1  0.383100  0.229000  0.612100  1.0  0.6712
  C  C284  1  0.402100  0.275100  0.677200  1.0  0.3555
  C  C285  1  0.616900  0.771000  0.387900  1.0  0.6728
  C  C286  1  0.597900  0.724900  0.322800  1.0  0.3575
  C  C287  1  0.616900  0.229000  0.845900  1.0  0.6729
  C  C288  1  0.597900  0.275100  0.873000  1.0  0.3594
  C  C289  1  0.616900  0.387900  0.771000  1.0  0.6741
  C  C290  1  0.597900  0.322800  0.724900  1.0  0.3584
  C  C291  1  0.616900  0.845900  0.229000  1.0  0.675
  C  C292  1  0.597900  0.873000  0.275100  1.0  0.358
  C  C293  1  0.383100  0.154100  0.771000  1.0  0.6752
  C  C294  1  0.402100  0.127000  0.724900  1.0  0.3591
  C  C295  1  0.383100  0.612100  0.229000  1.0  0.6703
  C  C296  1  0.402100  0.677200  0.275100  1.0  0.3589
  C  C297  1  0.154100  0.771000  0.383100  1.0  0.6734
  C  C298  1  0.127000  0.724900  0.402100  1.0  0.3579
  C  C299  1  0.612100  0.229000  0.383100  1.0  0.6721
  C  C300  1  0.677200  0.275100  0.402100  1.0  0.3568
  C  C301  1  0.387900  0.771000  0.616900  1.0  0.6735
  C  C302  1  0.322800  0.724900  0.597900  1.0  0.3575
  C  C303  1  0.845900  0.229000  0.616900  1.0  0.673
  C  C304  1  0.873000  0.275100  0.597900  1.0  0.3592
  C  C305  1  0.229000  0.616900  0.845900  1.0  0.6746
  C  C306  1  0.275100  0.597900  0.873000  1.0  0.3593
  C  C307  1  0.771000  0.616900  0.387900  1.0  0.6746
  C  C308  1  0.724900  0.597900  0.322800  1.0  0.3575
  C  C309  1  0.229000  0.383100  0.612100  1.0  0.6731
  C  C310  1  0.275100  0.402100  0.677200  1.0  0.3554
  C  C311  1  0.771000  0.383100  0.154100  1.0  0.674
  C  C312  1  0.724900  0.402100  0.127000  1.0  0.3598
  C  C313  1  0.643500  0.437500  0.081000  1.0  -0.1325
  C  C314  1  0.356500  0.562500  0.919000  1.0  -0.1307
  C  C315  1  0.643500  0.562500  0.206000  1.0  -0.1318
  C  C316  1  0.356500  0.437500  0.794000  1.0  -0.1337
  C  C317  1  0.206000  0.643500  0.562500  1.0  -0.1323
  C  C318  1  0.794000  0.356500  0.437500  1.0  -0.1339
  C  C319  1  0.081000  0.643500  0.437500  1.0  -0.1287
  C  C320  1  0.919000  0.356500  0.562500  1.0  -0.1294
  C  C321  1  0.562500  0.919000  0.356500  1.0  -0.1335
  C  C322  1  0.437500  0.081000  0.643500  1.0  -0.1318
  C  C323  1  0.437500  0.794000  0.356500  1.0  -0.132
  C  C324  1  0.562500  0.206000  0.643500  1.0  -0.1315
  C  C325  1  0.562500  0.356500  0.919000  1.0  -0.1324
  C  C326  1  0.437500  0.643500  0.081000  1.0  -0.1322
  C  C327  1  0.437500  0.356500  0.794000  1.0  -0.1298
  C  C328  1  0.562500  0.643500  0.206000  1.0  -0.1295
  C  C329  1  0.356500  0.794000  0.437500  1.0  -0.131
  C  C330  1  0.643500  0.206000  0.562500  1.0  -0.1321
  C  C331  1  0.356500  0.919000  0.562500  1.0  -0.1327
  C  C332  1  0.643500  0.081000  0.437500  1.0  -0.1326
  C  C333  1  0.081000  0.437500  0.643500  1.0  -0.1323
  C  C334  1  0.919000  0.562500  0.356500  1.0  -0.1312
  C  C335  1  0.206000  0.562500  0.643500  1.0  -0.1328
  C  C336  1  0.794000  0.437500  0.356500  1.0  -0.1328
  C  C337  1  0.541500  0.212100  0.000000  1.0  0.6597
  C  C338  1  0.591000  0.195800  0.000000  1.0  0.3702
  C  C339  1  0.212100  0.541500  0.000000  1.0  0.6551
  C  C340  1  0.195800  0.591000  0.000000  1.0  0.3718
  C  C341  1  0.787900  0.787900  0.329400  1.0  0.6733
  C  C342  1  0.804200  0.804200  0.395200  1.0  0.3688
  C  C343  1  0.458500  0.458500  0.670600  1.0  0.6666
  C  C344  1  0.409000  0.409000  0.604800  1.0  0.3735
  C  C345  1  0.329400  0.787900  0.787900  1.0  0.6666
  C  C346  1  0.395200  0.804200  0.804200  1.0  0.3673
  C  C347  1  0.670600  0.458500  0.458500  1.0  0.6619
  C  C348  1  0.604800  0.409000  0.409000  1.0  0.3769
  C  C349  1  0.000000  0.541500  0.212100  1.0  0.6582
  C  C350  1  0.000000  0.591000  0.195800  1.0  0.3689
  C  C351  1  0.000000  0.212100  0.541500  1.0  0.6646
  C  C352  1  0.000000  0.195800  0.591000  1.0  0.3717
  C  C353  1  0.541500  0.000000  0.212100  1.0  0.6593
  C  C354  1  0.591000  0.000000  0.195800  1.0  0.37
  C  C355  1  0.212100  0.000000  0.541500  1.0  0.6662
  C  C356  1  0.195800  0.000000  0.591000  1.0  0.3734
  C  C357  1  0.458500  0.670600  0.458500  1.0  0.6691
  C  C358  1  0.409000  0.604800  0.409000  1.0  0.376
  C  C359  1  0.787900  0.329400  0.787900  1.0  0.669
  C  C360  1  0.804200  0.395200  0.804200  1.0  0.3677
  C  C361  1  0.787900  0.458500  0.000000  1.0  0.6563
  C  C362  1  0.804200  0.409000  0.000000  1.0  0.37
  C  C363  1  0.458500  0.787900  0.000000  1.0  0.6607
  C  C364  1  0.409000  0.804200  0.000000  1.0  0.3683
  C  C365  1  0.212100  0.212100  0.670600  1.0  0.6729
  C  C366  1  0.195800  0.195800  0.604800  1.0  0.3695
  C  C367  1  0.541500  0.541500  0.329400  1.0  0.6667
  C  C368  1  0.591000  0.591000  0.395200  1.0  0.3756
  C  C369  1  0.212100  0.670600  0.212100  1.0  0.6715
  C  C370  1  0.195800  0.604800  0.195800  1.0  0.3679
  C  C371  1  0.541500  0.329400  0.541500  1.0  0.671
  C  C372  1  0.591000  0.395200  0.591000  1.0  0.3771
  C  C373  1  0.458500  0.000000  0.787900  1.0  0.6591
  C  C374  1  0.409000  0.000000  0.804200  1.0  0.3687
  C  C375  1  0.787900  0.000000  0.458500  1.0  0.6679
  C  C376  1  0.804200  0.000000  0.409000  1.0  0.3734
  C  C377  1  0.000000  0.458500  0.787900  1.0  0.6585
  C  C378  1  0.000000  0.409000  0.804200  1.0  0.3691
  C  C379  1  0.000000  0.787900  0.458500  1.0  0.6644
  C  C380  1  0.000000  0.804200  0.409000  1.0  0.3724
  C  C381  1  0.329400  0.541500  0.541500  1.0  0.6634
  C  C382  1  0.395200  0.591000  0.591000  1.0  0.3766
  C  C383  1  0.670600  0.212100  0.212100  1.0  0.669
  C  C384  1  0.604800  0.195800  0.195800  1.0  0.3657
  C  C385  1  0.489800  0.168100  0.168100  1.0  -0.1828
  C  C386  1  0.000000  0.321700  0.831900  1.0  -0.1702
  C  C387  1  0.000000  0.831900  0.321700  1.0  -0.1711
  C  C388  1  0.510200  0.678300  0.678300  1.0  -0.1744
  C  C389  1  0.321700  0.000000  0.831900  1.0  -0.1694
  C  C390  1  0.678300  0.510200  0.678300  1.0  -0.1745
  C  C391  1  0.168100  0.489800  0.168100  1.0  -0.1828
  C  C392  1  0.831900  0.000000  0.321700  1.0  -0.1683
  C  C393  1  0.321700  0.831900  0.000000  1.0  -0.1747
  C  C394  1  0.168100  0.168100  0.489800  1.0  -0.1787
  C  C395  1  0.678300  0.678300  0.510200  1.0  -0.1708
  C  C396  1  0.831900  0.321700  0.000000  1.0  -0.1744
  C  C397  1  0.831900  0.510200  0.831900  1.0  -0.1827
  C  C398  1  0.678300  0.000000  0.168100  1.0  -0.1714
  C  C399  1  0.168100  0.000000  0.678300  1.0  -0.1715
  C  C400  1  0.321700  0.489800  0.321700  1.0  -0.1757
  C  C401  1  0.000000  0.678300  0.168100  1.0  -0.1748
  C  C402  1  0.489800  0.321700  0.321700  1.0  -0.1773
  C  C403  1  0.510200  0.831900  0.831900  1.0  -0.1781
  C  C404  1  0.000000  0.168100  0.678300  1.0  -0.172
  C  C405  1  0.168100  0.678300  0.000000  1.0  -0.1775
  C  C406  1  0.831900  0.831900  0.510200  1.0  -0.1794
  C  C407  1  0.321700  0.321700  0.489800  1.0  -0.1742
  C  C408  1  0.678300  0.168100  0.000000  1.0  -0.1747
  N  N409  1  0.666900  0.371000  0.116300  1.0  -0.3483
  N  N410  1  0.576900  0.217300  0.162600  1.0  -0.3235
  N  N411  1  0.254700  0.550600  0.883700  1.0  -0.3498
  N  N412  1  0.054700  0.414300  0.837400  1.0  -0.3168
  N  N413  1  0.745300  0.629000  0.295900  1.0  -0.3419
  N  N414  1  0.945300  0.782700  0.359600  1.0  -0.3177
  N  N415  1  0.333100  0.449400  0.704100  1.0  -0.3496
  N  N416  1  0.423100  0.585700  0.640400  1.0  -0.3211
  N  N417  1  0.295900  0.745300  0.629000  1.0  -0.344
  N  N418  1  0.359600  0.945300  0.782700  1.0  -0.3162
  N  N419  1  0.704100  0.333100  0.449400  1.0  -0.3481
  N  N420  1  0.640400  0.423100  0.585700  1.0  -0.3247
  N  N421  1  0.116300  0.666900  0.371000  1.0  -0.348
  N  N422  1  0.162600  0.576900  0.217300  1.0  -0.3204
  N  N423  1  0.883700  0.254700  0.550600  1.0  -0.3515
  N  N424  1  0.837400  0.054700  0.414300  1.0  -0.3194
  N  N425  1  0.550600  0.883700  0.254700  1.0  -0.352
  N  N426  1  0.414300  0.837400  0.054700  1.0  -0.3154
  N  N427  1  0.371000  0.116300  0.666900  1.0  -0.3482
  N  N428  1  0.217300  0.162600  0.576900  1.0  -0.3196
  N  N429  1  0.449400  0.704100  0.333100  1.0  -0.3487
  N  N430  1  0.585700  0.640400  0.423100  1.0  -0.3188
  N  N431  1  0.629000  0.295900  0.745300  1.0  -0.3414
  N  N432  1  0.782700  0.359600  0.945300  1.0  -0.3229
  N  N433  1  0.629000  0.333100  0.883700  1.0  -0.3463
  N  N434  1  0.782700  0.423100  0.837400  1.0  -0.3236
  N  N435  1  0.449400  0.745300  0.116300  1.0  -0.3526
  N  N436  1  0.585700  0.945300  0.162600  1.0  -0.3186
  N  N437  1  0.371000  0.254700  0.704100  1.0  -0.343
  N  N438  1  0.217300  0.054700  0.640400  1.0  -0.3193
  N  N439  1  0.550600  0.666900  0.295900  1.0  -0.3491
  N  N440  1  0.414300  0.576900  0.359600  1.0  -0.3196
  N  N441  1  0.254700  0.704100  0.371000  1.0  -0.3421
  N  N442  1  0.054700  0.640400  0.217300  1.0  -0.3158
  N  N443  1  0.666900  0.295900  0.550600  1.0  -0.3487
  N  N444  1  0.576900  0.359600  0.414300  1.0  -0.3194
  N  N445  1  0.333100  0.883700  0.629000  1.0  -0.3473
  N  N446  1  0.423100  0.837400  0.782700  1.0  -0.3188
  N  N447  1  0.745300  0.116300  0.449400  1.0  -0.3516
  N  N448  1  0.945300  0.162600  0.585700  1.0  -0.3207
  N  N449  1  0.116300  0.449400  0.745300  1.0  -0.3515
  N  N450  1  0.162600  0.585700  0.945300  1.0  -0.3183
  N  N451  1  0.883700  0.629000  0.333100  1.0  -0.3473
  N  N452  1  0.837400  0.782700  0.423100  1.0  -0.3218
  N  N453  1  0.295900  0.550600  0.666900  1.0  -0.3472
  N  N454  1  0.359600  0.414300  0.576900  1.0  -0.3216
  N  N455  1  0.704100  0.371000  0.254700  1.0  -0.3434
  N  N456  1  0.640400  0.217300  0.054700  1.0  -0.3199
  N  N457  1  0.333100  0.629000  0.883700  1.0  -0.3489
  N  N458  1  0.423100  0.782700  0.837400  1.0  -0.3232
  N  N459  1  0.745300  0.449400  0.116300  1.0  -0.3497
  N  N460  1  0.945300  0.585700  0.162600  1.0  -0.3184
  N  N461  1  0.254700  0.371000  0.704100  1.0  -0.341
  N  N462  1  0.054700  0.217300  0.640400  1.0  -0.3178
  N  N463  1  0.666900  0.550600  0.295900  1.0  -0.3492
  N  N464  1  0.576900  0.414300  0.359600  1.0  -0.3197
  N  N465  1  0.704100  0.254700  0.371000  1.0  -0.343
  N  N466  1  0.640400  0.054700  0.217300  1.0  -0.3181
  N  N467  1  0.295900  0.666900  0.550600  1.0  -0.3476
  N  N468  1  0.359600  0.576900  0.414300  1.0  -0.3232
  N  N469  1  0.883700  0.333100  0.629000  1.0  -0.3472
  N  N470  1  0.837400  0.423100  0.782700  1.0  -0.3206
  N  N471  1  0.116300  0.745300  0.449400  1.0  -0.3528
  N  N472  1  0.162600  0.945300  0.585700  1.0  -0.3203
  N  N473  1  0.449400  0.116300  0.745300  1.0  -0.3508
  N  N474  1  0.585700  0.162600  0.945300  1.0  -0.3195
  N  N475  1  0.629000  0.883700  0.333100  1.0  -0.3475
  N  N476  1  0.782700  0.837400  0.423100  1.0  -0.3208
  N  N477  1  0.550600  0.295900  0.666900  1.0  -0.3495
  N  N478  1  0.414300  0.359600  0.576900  1.0  -0.3203
  N  N479  1  0.371000  0.704100  0.254700  1.0  -0.3418
  N  N480  1  0.217300  0.640400  0.054700  1.0  -0.3164
  N  N481  1  0.371000  0.666900  0.116300  1.0  -0.3466
  N  N482  1  0.217300  0.576900  0.162600  1.0  -0.3234
  N  N483  1  0.550600  0.254700  0.883700  1.0  -0.3524
  N  N484  1  0.414300  0.054700  0.837400  1.0  -0.3169
  N  N485  1  0.629000  0.745300  0.295900  1.0  -0.3434
  N  N486  1  0.782700  0.945300  0.359600  1.0  -0.3183
  N  N487  1  0.449400  0.333100  0.704100  1.0  -0.3488
  N  N488  1  0.585700  0.423100  0.640400  1.0  -0.3209
  N  N489  1  0.745300  0.295900  0.629000  1.0  -0.3416
  N  N490  1  0.945300  0.359600  0.782700  1.0  -0.318
  N  N491  1  0.333100  0.704100  0.449400  1.0  -0.3481
  N  N492  1  0.423100  0.640400  0.585700  1.0  -0.3237
  N  N493  1  0.666900  0.116300  0.371000  1.0  -0.3482
  N  N494  1  0.576900  0.162600  0.217300  1.0  -0.3193
  N  N495  1  0.254700  0.883700  0.550600  1.0  -0.3519
  N  N496  1  0.054700  0.837400  0.414300  1.0  -0.3155
  N  N497  1  0.883700  0.550600  0.254700  1.0  -0.3523
  N  N498  1  0.837400  0.414300  0.054700  1.0  -0.3202
  N  N499  1  0.116300  0.371000  0.666900  1.0  -0.3462
  N  N500  1  0.162600  0.217300  0.576900  1.0  -0.3203
  N  N501  1  0.704100  0.449400  0.333100  1.0  -0.3471
  N  N502  1  0.640400  0.585700  0.423100  1.0  -0.3179
  N  N503  1  0.295900  0.629000  0.745300  1.0  -0.3434
  N  N504  1  0.359600  0.782700  0.945300  1.0  -0.3233
  O  O505  1  0.587400  0.338900  0.175100  1.0  -0.6201
  O  O506  1  0.547000  0.243300  0.051700  1.0  -0.6245
  O  O507  1  0.163800  0.412300  0.824900  1.0  -0.6285
  O  O508  1  0.191600  0.495300  0.948300  1.0  -0.6264
  O  O509  1  0.836200  0.661100  0.248500  1.0  -0.626
  O  O510  1  0.808400  0.756700  0.303700  1.0  -0.6329
  O  O511  1  0.412600  0.587700  0.751500  1.0  -0.6238
  O  O512  1  0.453000  0.504700  0.696300  1.0  -0.6334
  O  O513  1  0.248500  0.836200  0.661100  1.0  -0.6316
  O  O514  1  0.303700  0.808400  0.756700  1.0  -0.6311
  O  O515  1  0.751500  0.412600  0.587700  1.0  -0.6235
  O  O516  1  0.696300  0.453000  0.504700  1.0  -0.6335
  O  O517  1  0.175100  0.587400  0.338900  1.0  -0.6218
  O  O518  1  0.051700  0.547000  0.243300  1.0  -0.6292
  O  O519  1  0.824900  0.163800  0.412300  1.0  -0.6262
  O  O520  1  0.948300  0.191600  0.495300  1.0  -0.6278
  O  O521  1  0.412300  0.824900  0.163800  1.0  -0.6282
  O  O522  1  0.495300  0.948300  0.191600  1.0  -0.6286
  O  O523  1  0.338900  0.175100  0.587400  1.0  -0.6213
  O  O524  1  0.243300  0.051700  0.547000  1.0  -0.6305
  O  O525  1  0.587700  0.751500  0.412600  1.0  -0.6282
  O  O526  1  0.504700  0.696300  0.453000  1.0  -0.6312
  O  O527  1  0.661100  0.248500  0.836200  1.0  -0.6261
  O  O528  1  0.756700  0.303700  0.808400  1.0  -0.6345
  O  O529  1  0.661100  0.412600  0.824900  1.0  -0.6212
  O  O530  1  0.756700  0.453000  0.948300  1.0  -0.6273
  O  O531  1  0.587700  0.836200  0.175100  1.0  -0.6294
  O  O532  1  0.504700  0.808400  0.051700  1.0  -0.6263
  O  O533  1  0.338900  0.163800  0.751500  1.0  -0.628
  O  O534  1  0.243300  0.191600  0.696300  1.0  -0.6338
  O  O535  1  0.412300  0.587400  0.248500  1.0  -0.6277
  O  O536  1  0.495300  0.547000  0.303700  1.0  -0.6343
  O  O537  1  0.163800  0.751500  0.338900  1.0  -0.6287
  O  O538  1  0.191600  0.696300  0.243300  1.0  -0.6315
  O  O539  1  0.587400  0.248500  0.412300  1.0  -0.6244
  O  O540  1  0.547000  0.303700  0.495300  1.0  -0.635
  O  O541  1  0.412600  0.824900  0.661100  1.0  -0.621
  O  O542  1  0.453000  0.948300  0.756700  1.0  -0.6282
  O  O543  1  0.836200  0.175100  0.587700  1.0  -0.6287
  O  O544  1  0.808400  0.051700  0.504700  1.0  -0.6282
  O  O545  1  0.175100  0.587700  0.836200  1.0  -0.6247
  O  O546  1  0.051700  0.504700  0.808400  1.0  -0.6297
  O  O547  1  0.824900  0.661100  0.412600  1.0  -0.6198
  O  O548  1  0.948300  0.756700  0.453000  1.0  -0.6258
  O  O549  1  0.248500  0.412300  0.587400  1.0  -0.6252
  O  O550  1  0.303700  0.495300  0.547000  1.0  -0.6326
  O  O551  1  0.751500  0.338900  0.163800  1.0  -0.6265
  O  O552  1  0.696300  0.243300  0.191600  1.0  -0.6305
  O  O553  1  0.412600  0.661100  0.824900  1.0  -0.6191
  O  O554  1  0.453000  0.756700  0.948300  1.0  -0.6255
  O  O555  1  0.836200  0.587700  0.175100  1.0  -0.6278
  O  O556  1  0.808400  0.504700  0.051700  1.0  -0.6256
  O  O557  1  0.163800  0.338900  0.751500  1.0  -0.6282
  O  O558  1  0.191600  0.243300  0.696300  1.0  -0.63
  O  O559  1  0.587400  0.412300  0.248500  1.0  -0.6229
  O  O560  1  0.547000  0.495300  0.303700  1.0  -0.6354
  O  O561  1  0.751500  0.163800  0.338900  1.0  -0.628
  O  O562  1  0.696300  0.191600  0.243300  1.0  -0.6329
  O  O563  1  0.248500  0.587400  0.412300  1.0  -0.6274
  O  O564  1  0.303700  0.547000  0.495300  1.0  -0.6338
  O  O565  1  0.824900  0.412600  0.661100  1.0  -0.6201
  O  O566  1  0.948300  0.453000  0.756700  1.0  -0.6294
  O  O567  1  0.175100  0.836200  0.587700  1.0  -0.6279
  O  O568  1  0.051700  0.808400  0.504700  1.0  -0.6274
  O  O569  1  0.587700  0.175100  0.836200  1.0  -0.6289
  O  O570  1  0.504700  0.051700  0.808400  1.0  -0.6268
  O  O571  1  0.661100  0.824900  0.412600  1.0  -0.6215
  O  O572  1  0.756700  0.948300  0.453000  1.0  -0.6314
  O  O573  1  0.412300  0.248500  0.587400  1.0  -0.6264
  O  O574  1  0.495300  0.303700  0.547000  1.0  -0.6326
  O  O575  1  0.338900  0.751500  0.163800  1.0  -0.6263
  O  O576  1  0.243300  0.696300  0.191600  1.0  -0.6335
  O  O577  1  0.338900  0.587400  0.175100  1.0  -0.622
  O  O578  1  0.243300  0.547000  0.051700  1.0  -0.6292
  O  O579  1  0.412300  0.163800  0.824900  1.0  -0.632
  O  O580  1  0.495300  0.191600  0.948300  1.0  -0.6264
  O  O581  1  0.661100  0.836200  0.248500  1.0  -0.6272
  O  O582  1  0.756700  0.808400  0.303700  1.0  -0.6339
  O  O583  1  0.587700  0.412600  0.751500  1.0  -0.6258
  O  O584  1  0.504700  0.453000  0.696300  1.0  -0.6331
  O  O585  1  0.836200  0.248500  0.661100  1.0  -0.6289
  O  O586  1  0.808400  0.303700  0.756700  1.0  -0.6324
  O  O587  1  0.412600  0.751500  0.587700  1.0  -0.6229
  O  O588  1  0.453000  0.696300  0.504700  1.0  -0.6333
  O  O589  1  0.587400  0.175100  0.338900  1.0  -0.6198
  O  O590  1  0.547000  0.051700  0.243300  1.0  -0.6281
  O  O591  1  0.163800  0.824900  0.412300  1.0  -0.627
  O  O592  1  0.191600  0.948300  0.495300  1.0  -0.6307
  O  O593  1  0.824900  0.412300  0.163800  1.0  -0.6238
  O  O594  1  0.948300  0.495300  0.191600  1.0  -0.6287
  O  O595  1  0.175100  0.338900  0.587400  1.0  -0.6216
  O  O596  1  0.051700  0.243300  0.547000  1.0  -0.6261
  O  O597  1  0.751500  0.587700  0.412600  1.0  -0.6292
  O  O598  1  0.696300  0.504700  0.453000  1.0  -0.6307
  O  O599  1  0.248500  0.661100  0.836200  1.0  -0.6257
  O  O600  1  0.303700  0.756700  0.808400  1.0  -0.6302
