# generated using pymatgen
data_Co3H24C30(NO6)2
_symmetry_space_group_name_H-M   'P 1'
_cell_length_a   31.71700000
_cell_length_b   9.43330000
_cell_length_c   18.17390000
_cell_angle_alpha   90.00000000
_cell_angle_beta   119.89400000
_cell_angle_gamma   90.00000000
_symmetry_Int_Tables_number   1
_chemical_formula_structural   Co3H24C30(NO6)2
_chemical_formula_sum   'Co12 H96 C120 N8 O48'
_cell_volume   4714.08495856
_cell_formula_units_Z   4
loop_
 _symmetry_equiv_pos_site_id
 _symmetry_equiv_pos_as_xyz
  1  'x, y, z'
loop_
 _atom_site_type_symbol
 _atom_site_label
 _atom_site_symmetry_multiplicity
 _atom_site_fract_x
 _atom_site_fract_y
 _atom_site_fract_z
 _atom_site_occupancy
 _atom_site_charge
  Co  Co1  1  0.123720  0.814640  0.392080  1.0  0.8605
  Co  Co2  1  0.623720  0.314640  0.392080  1.0  0.8605
  Co  Co3  1  0.876280  0.814640  0.107920  1.0  0.8609
  Co  Co4  1  0.376280  0.314640  0.107920  1.0  0.8609
  Co  Co5  1  0.876280  0.185360  0.607920  1.0  0.8595
  Co  Co6  1  0.376280  0.685360  0.607920  1.0  0.8595
  Co  Co7  1  0.123720  0.185360  0.892080  1.0  0.8599
  Co  Co8  1  0.623720  0.685360  0.892080  1.0  0.8599
  Co  Co9  1  0.250000  0.750000  0.500000  1.0  1.158
  Co  Co10  1  0.750000  0.750000  0.000000  1.0  1.158
  Co  Co11  1  0.750000  0.250000  0.500000  1.0  1.158
  Co  Co12  1  0.250000  0.250000  0.000000  1.0  1.158
  H  H13  1  0.104600  0.549800  0.182100  1.0  0.1036
  H  H14  1  0.245200  0.651700  0.266500  1.0  0.1085
  H  H15  1  0.241100  0.541700  0.148500  1.0  0.0946
  H  H16  1  0.100900  0.439300  0.064200  1.0  0.1068
  H  H17  1  0.186900  0.253900  0.358700  1.0  0.1136
  H  H18  1  0.258400  0.056100  0.586800  1.0  0.1004
  H  H19  1  0.024100  0.796400  0.389800  1.0  0.0842
  H  H20  1  0.033700  0.643100  0.363100  1.0  0.0738
  H  H21  1  0.042600  0.623500  0.238000  1.0  0.0821
  H  H22  1  0.053700  0.761300  0.199000  1.0  0.0804
  H  H23  1  0.041900  0.993600  0.243700  1.0  0.0801
  H  H24  1  0.038400  0.010400  0.328200  1.0  0.0899
  H  H25  1  0.604600  0.049800  0.182100  1.0  0.1036
  H  H26  1  0.745200  0.151700  0.266500  1.0  0.1085
  H  H27  1  0.741100  0.041700  0.148500  1.0  0.0946
  H  H28  1  0.600900  0.939300  0.064200  1.0  0.1068
  H  H29  1  0.686900  0.753900  0.358700  1.0  0.1136
  H  H30  1  0.758400  0.556100  0.586800  1.0  0.1004
  H  H31  1  0.524100  0.296400  0.389800  1.0  0.0842
  H  H32  1  0.533700  0.143100  0.363100  1.0  0.0738
  H  H33  1  0.542600  0.123500  0.238000  1.0  0.0821
  H  H34  1  0.553700  0.261300  0.199000  1.0  0.0804
  H  H35  1  0.541900  0.493600  0.243700  1.0  0.0801
  H  H36  1  0.538400  0.510400  0.328200  1.0  0.0899
  H  H37  1  0.895400  0.549800  0.317900  1.0  0.1043
  H  H38  1  0.754800  0.651700  0.233500  1.0  0.1087
  H  H39  1  0.758900  0.541700  0.351500  1.0  0.0943
  H  H40  1  0.899100  0.439300  0.435800  1.0  0.1065
  H  H41  1  0.813100  0.253900  0.141300  1.0  0.1138
  H  H42  1  0.741600  0.056100  0.913200  1.0  0.1006
  H  H43  1  0.975900  0.796400  0.110200  1.0  0.0804
  H  H44  1  0.966300  0.643100  0.136900  1.0  0.073
  H  H45  1  0.957400  0.623500  0.262000  1.0  0.0812
  H  H46  1  0.946300  0.761300  0.301000  1.0  0.0801
  H  H47  1  0.958100  0.993600  0.256300  1.0  0.0817
  H  H48  1  0.961600  0.010400  0.171800  1.0  0.0916
  H  H49  1  0.395400  0.049800  0.317900  1.0  0.1043
  H  H50  1  0.254800  0.151700  0.233500  1.0  0.1087
  H  H51  1  0.258900  0.041700  0.351500  1.0  0.0943
  H  H52  1  0.399100  0.939300  0.435800  1.0  0.1065
  H  H53  1  0.313100  0.753900  0.141300  1.0  0.1138
  H  H54  1  0.241600  0.556100  0.913200  1.0  0.1006
  H  H55  1  0.475900  0.296400  0.110200  1.0  0.0804
  H  H56  1  0.466300  0.143100  0.136900  1.0  0.073
  H  H57  1  0.457400  0.123500  0.262000  1.0  0.0812
  H  H58  1  0.446300  0.261300  0.301000  1.0  0.0801
  H  H59  1  0.458100  0.493600  0.256300  1.0  0.0817
  H  H60  1  0.461600  0.510400  0.171800  1.0  0.0916
  H  H61  1  0.895400  0.450200  0.817900  1.0  0.1043
  H  H62  1  0.754800  0.348300  0.733500  1.0  0.1089
  H  H63  1  0.758900  0.458300  0.851500  1.0  0.0943
  H  H64  1  0.899100  0.560700  0.935800  1.0  0.1063
  H  H65  1  0.813100  0.746100  0.641300  1.0  0.1139
  H  H66  1  0.741600  0.943900  0.413200  1.0  0.1003
  H  H67  1  0.975900  0.203600  0.610200  1.0  0.0826
  H  H68  1  0.966300  0.356900  0.636900  1.0  0.0756
  H  H69  1  0.957400  0.376500  0.762000  1.0  0.0853
  H  H70  1  0.946300  0.238700  0.801000  1.0  0.0796
  H  H71  1  0.958100  0.006400  0.756300  1.0  0.0822
  H  H72  1  0.961600  0.989600  0.671800  1.0  0.089
  H  H73  1  0.395400  0.950200  0.817900  1.0  0.1043
  H  H74  1  0.254800  0.848300  0.733500  1.0  0.1089
  H  H75  1  0.258900  0.958300  0.851500  1.0  0.0943
  H  H76  1  0.399100  0.060700  0.935800  1.0  0.1063
  H  H77  1  0.313100  0.246100  0.641300  1.0  0.1139
  H  H78  1  0.241600  0.443900  0.413200  1.0  0.1003
  H  H79  1  0.475900  0.703600  0.610200  1.0  0.0826
  H  H80  1  0.466300  0.856900  0.636900  1.0  0.0756
  H  H81  1  0.457400  0.876500  0.762000  1.0  0.0853
  H  H82  1  0.446300  0.738700  0.801000  1.0  0.0796
  H  H83  1  0.458100  0.506400  0.756300  1.0  0.0822
  H  H84  1  0.461600  0.489600  0.671800  1.0  0.089
  H  H85  1  0.104600  0.450200  0.682100  1.0  0.1034
  H  H86  1  0.245200  0.348300  0.766500  1.0  0.1089
  H  H87  1  0.241100  0.458300  0.648500  1.0  0.0946
  H  H88  1  0.100900  0.560700  0.564200  1.0  0.1066
  H  H89  1  0.186900  0.746100  0.858700  1.0  0.1136
  H  H90  1  0.258400  0.943900  0.086800  1.0  0.1
  H  H91  1  0.024100  0.203600  0.889800  1.0  0.0818
  H  H92  1  0.033700  0.356900  0.863100  1.0  0.0743
  H  H93  1  0.042600  0.376500  0.738000  1.0  0.0847
  H  H94  1  0.053700  0.238700  0.699000  1.0  0.0801
  H  H95  1  0.041900  0.006400  0.743700  1.0  0.0798
  H  H96  1  0.038400  0.989600  0.828200  1.0  0.0889
  H  H97  1  0.604600  0.950200  0.682100  1.0  0.1034
  H  H98  1  0.745200  0.848300  0.766500  1.0  0.1089
  H  H99  1  0.741100  0.958300  0.648500  1.0  0.0946
  H  H100  1  0.600900  0.060700  0.564200  1.0  0.1066
  H  H101  1  0.686900  0.246100  0.858700  1.0  0.1136
  H  H102  1  0.758400  0.443900  0.086800  1.0  0.1
  H  H103  1  0.524100  0.703600  0.889800  1.0  0.0818
  H  H104  1  0.533700  0.856900  0.863100  1.0  0.0743
  H  H105  1  0.542600  0.876500  0.738000  1.0  0.0847
  H  H106  1  0.553700  0.738700  0.699000  1.0  0.0801
  H  H107  1  0.541900  0.506400  0.743700  1.0  0.0798
  H  H108  1  0.538400  0.489600  0.828200  1.0  0.0889
  C  C109  1  0.178820  0.683600  0.313400  1.0  0.7009
  C  C110  1  0.175200  0.613500  0.235790  1.0  -0.153
  C  C111  1  0.132410  0.549000  0.175300  1.0  -0.0535
  C  C112  1  0.215590  0.609300  0.225180  1.0  -0.0391
  C  C113  1  0.169110  0.405500  0.019850  1.0  0.6982
  C  C114  1  0.170360  0.481600  0.093820  1.0  -0.1335
  C  C115  1  0.213170  0.543900  0.154840  1.0  -0.0338
  C  C116  1  0.130240  0.483400  0.105000  1.0  -0.0541
  C  C117  1  0.183470  0.014700  0.433380  1.0  0.6674
  C  C118  1  0.217860  0.136900  0.467520  1.0  -0.1213
  C  C119  1  0.212580  0.252300  0.415960  1.0  -0.0481
  C  C120  1  0.255080  0.134600  0.551600  1.0  -0.0264
  C  C121  1  0.019990  0.738200  0.341310  1.0  -0.0304
  C  C122  1  0.034260  0.724700  0.223820  1.0  -0.0303
  C  C123  1  0.028030  0.951600  0.276940  1.0  -0.0435
  C  C124  1  0.678820  0.183600  0.313400  1.0  0.7009
  C  C125  1  0.675200  0.113500  0.235790  1.0  -0.153
  C  C126  1  0.632410  0.049000  0.175300  1.0  -0.0535
  C  C127  1  0.715590  0.109300  0.225180  1.0  -0.0391
  C  C128  1  0.669110  0.905500  0.019850  1.0  0.6982
  C  C129  1  0.670360  0.981600  0.093820  1.0  -0.1335
  C  C130  1  0.713170  0.043900  0.154840  1.0  -0.0338
  C  C131  1  0.630240  0.983400  0.105000  1.0  -0.0541
  C  C132  1  0.683470  0.514700  0.433380  1.0  0.6674
  C  C133  1  0.717860  0.636900  0.467520  1.0  -0.1213
  C  C134  1  0.712580  0.752300  0.415960  1.0  -0.0481
  C  C135  1  0.755080  0.634600  0.551600  1.0  -0.0264
  C  C136  1  0.519990  0.238200  0.341310  1.0  -0.0304
  C  C137  1  0.534260  0.224700  0.223820  1.0  -0.0303
  C  C138  1  0.528030  0.451600  0.276940  1.0  -0.0435
  C  C139  1  0.821180  0.683600  0.186600  1.0  0.7006
  C  C140  1  0.824800  0.613500  0.264210  1.0  -0.153
  C  C141  1  0.867590  0.549000  0.324700  1.0  -0.0545
  C  C142  1  0.784410  0.609300  0.274820  1.0  -0.0406
  C  C143  1  0.830890  0.405500  0.480150  1.0  0.7007
  C  C144  1  0.829640  0.481600  0.406180  1.0  -0.1347
  C  C145  1  0.786830  0.543900  0.345160  1.0  -0.0335
  C  C146  1  0.869760  0.483400  0.395000  1.0  -0.0524
  C  C147  1  0.816530  0.014700  0.066620  1.0  0.668
  C  C148  1  0.782140  0.136900  0.032480  1.0  -0.1221
  C  C149  1  0.787420  0.252300  0.084040  1.0  -0.049
  C  C150  1  0.744920  0.134600  0.948400  1.0  -0.027
  C  C151  1  0.980010  0.738200  0.158690  1.0  -0.0296
  C  C152  1  0.965740  0.724700  0.276180  1.0  -0.0306
  C  C153  1  0.971970  0.951600  0.223060  1.0  -0.0424
  C  C154  1  0.321180  0.183600  0.186600  1.0  0.7006
  C  C155  1  0.324800  0.113500  0.264210  1.0  -0.153
  C  C156  1  0.367590  0.049000  0.324700  1.0  -0.0545
  C  C157  1  0.284410  0.109300  0.274820  1.0  -0.0406
  C  C158  1  0.330890  0.905500  0.480150  1.0  0.7007
  C  C159  1  0.329640  0.981600  0.406180  1.0  -0.1347
  C  C160  1  0.286830  0.043900  0.345160  1.0  -0.0335
  C  C161  1  0.369760  0.983400  0.395000  1.0  -0.0524
  C  C162  1  0.316530  0.514700  0.066620  1.0  0.668
  C  C163  1  0.282140  0.636900  0.032480  1.0  -0.1221
  C  C164  1  0.287420  0.752300  0.084040  1.0  -0.049
  C  C165  1  0.244920  0.634600  0.948400  1.0  -0.027
  C  C166  1  0.480010  0.238200  0.158690  1.0  -0.0296
  C  C167  1  0.465740  0.224700  0.276180  1.0  -0.0306
  C  C168  1  0.471970  0.451600  0.223060  1.0  -0.0424
  C  C169  1  0.821180  0.316400  0.686600  1.0  0.7003
  C  C170  1  0.824800  0.386500  0.764210  1.0  -0.1535
  C  C171  1  0.867590  0.451000  0.824700  1.0  -0.0546
  C  C172  1  0.784410  0.390700  0.774820  1.0  -0.0406
  C  C173  1  0.830890  0.594500  0.980150  1.0  0.701
  C  C174  1  0.829640  0.518400  0.906180  1.0  -0.1342
  C  C175  1  0.786830  0.456100  0.845160  1.0  -0.0337
  C  C176  1  0.869760  0.516600  0.895000  1.0  -0.0527
  C  C177  1  0.816530  0.985300  0.566620  1.0  0.6682
  C  C178  1  0.782140  0.863100  0.532480  1.0  -0.1219
  C  C179  1  0.787420  0.747700  0.584040  1.0  -0.0515
  C  C180  1  0.744920  0.865400  0.448400  1.0  -0.0274
  C  C181  1  0.980010  0.261800  0.658690  1.0  -0.0269
  C  C182  1  0.965740  0.275300  0.776180  1.0  -0.0296
  C  C183  1  0.971970  0.048400  0.723060  1.0  -0.042
  C  C184  1  0.321180  0.816400  0.686600  1.0  0.7003
  C  C185  1  0.324800  0.886500  0.764210  1.0  -0.1535
  C  C186  1  0.367590  0.951000  0.824700  1.0  -0.0546
  C  C187  1  0.284410  0.890700  0.774820  1.0  -0.0406
  C  C188  1  0.330890  0.094500  0.980150  1.0  0.701
  C  C189  1  0.329640  0.018400  0.906180  1.0  -0.1342
  C  C190  1  0.286830  0.956100  0.845160  1.0  -0.0337
  C  C191  1  0.369760  0.016600  0.895000  1.0  -0.0527
  C  C192  1  0.316530  0.485300  0.566620  1.0  0.6682
  C  C193  1  0.282140  0.363100  0.532480  1.0  -0.1219
  C  C194  1  0.287420  0.247700  0.584040  1.0  -0.0515
  C  C195  1  0.244920  0.365400  0.448400  1.0  -0.0274
  C  C196  1  0.480010  0.761800  0.658690  1.0  -0.0269
  C  C197  1  0.465740  0.775300  0.776180  1.0  -0.0296
  C  C198  1  0.471970  0.548400  0.723060  1.0  -0.042
  C  C199  1  0.178820  0.316400  0.813400  1.0  0.7007
  C  C200  1  0.175200  0.386500  0.735790  1.0  -0.1533
  C  C201  1  0.132410  0.451000  0.675300  1.0  -0.0535
  C  C202  1  0.215590  0.390700  0.725180  1.0  -0.0396
  C  C203  1  0.169110  0.594500  0.519850  1.0  0.6983
  C  C204  1  0.170360  0.518400  0.593820  1.0  -0.1331
  C  C205  1  0.213170  0.456100  0.654840  1.0  -0.0341
  C  C206  1  0.130240  0.516600  0.605000  1.0  -0.0544
  C  C207  1  0.183470  0.985300  0.933380  1.0  0.6682
  C  C208  1  0.217860  0.863100  0.967520  1.0  -0.1212
  C  C209  1  0.212580  0.747700  0.915960  1.0  -0.0507
  C  C210  1  0.255080  0.865400  0.051600  1.0  -0.0262
  C  C211  1  0.019990  0.261800  0.841310  1.0  -0.0318
  C  C212  1  0.034260  0.275300  0.723820  1.0  -0.0301
  C  C213  1  0.028030  0.048400  0.776940  1.0  -0.0446
  C  C214  1  0.678820  0.816400  0.813400  1.0  0.7007
  C  C215  1  0.675200  0.886500  0.735790  1.0  -0.1533
  C  C216  1  0.632410  0.951000  0.675300  1.0  -0.0535
  C  C217  1  0.715590  0.890700  0.725180  1.0  -0.0396
  C  C218  1  0.669110  0.094500  0.519850  1.0  0.6983
  C  C219  1  0.670360  0.018400  0.593820  1.0  -0.1331
  C  C220  1  0.713170  0.956100  0.654840  1.0  -0.0341
  C  C221  1  0.630240  0.016600  0.605000  1.0  -0.0544
  C  C222  1  0.683470  0.485300  0.933380  1.0  0.6682
  C  C223  1  0.717860  0.363100  0.967520  1.0  -0.1212
  C  C224  1  0.712580  0.247700  0.915960  1.0  -0.0507
  C  C225  1  0.755080  0.365400  0.051600  1.0  -0.0262
  C  C226  1  0.519990  0.761800  0.841310  1.0  -0.0318
  C  C227  1  0.534260  0.775300  0.723820  1.0  -0.0301
  C  C228  1  0.528030  0.548400  0.776940  1.0  -0.0446
  N  N229  1  0.046770  0.805000  0.302520  1.0  -0.1913
  N  N230  1  0.546770  0.305000  0.302520  1.0  -0.1913
  N  N231  1  0.953230  0.805000  0.197480  1.0  -0.1905
  N  N232  1  0.453230  0.305000  0.197480  1.0  -0.1905
  N  N233  1  0.953230  0.195000  0.697480  1.0  -0.1909
  N  N234  1  0.453230  0.695000  0.697480  1.0  -0.1909
  N  N235  1  0.046770  0.195000  0.802520  1.0  -0.1916
  N  N236  1  0.546770  0.695000  0.802520  1.0  -0.1916
  O  O237  1  0.139200  0.711200  0.310650  1.0  -0.6045
  O  O238  1  0.220780  0.707600  0.373070  1.0  -0.5959
  O  O239  1  0.207670  0.398910  0.017730  1.0  -0.6163
  O  O240  1  0.128330  0.352200  0.965920  1.0  -0.6057
  O  O241  1  0.143300  0.025800  0.366440  1.0  -0.5651
  O  O242  1  0.194800  0.899020  0.475160  1.0  -0.6784
  O  O243  1  0.639200  0.211200  0.310650  1.0  -0.6045
  O  O244  1  0.720780  0.207600  0.373070  1.0  -0.5959
  O  O245  1  0.707670  0.898910  0.017730  1.0  -0.6163
  O  O246  1  0.628330  0.852200  0.965920  1.0  -0.6057
  O  O247  1  0.643300  0.525800  0.366440  1.0  -0.5651
  O  O248  1  0.694800  0.399020  0.475160  1.0  -0.6784
  O  O249  1  0.860800  0.711200  0.189350  1.0  -0.6056
  O  O250  1  0.779220  0.707600  0.126930  1.0  -0.5949
  O  O251  1  0.792330  0.398910  0.482270  1.0  -0.6156
  O  O252  1  0.871670  0.352200  0.534080  1.0  -0.6056
  O  O253  1  0.856700  0.025800  0.133560  1.0  -0.5659
  O  O254  1  0.805200  0.899020  0.024840  1.0  -0.6767
  O  O255  1  0.360800  0.211200  0.189350  1.0  -0.6056
  O  O256  1  0.279220  0.207600  0.126930  1.0  -0.5949
  O  O257  1  0.292330  0.898910  0.482270  1.0  -0.6156
  O  O258  1  0.371670  0.852200  0.534080  1.0  -0.6056
  O  O259  1  0.356700  0.525800  0.133560  1.0  -0.5659
  O  O260  1  0.305200  0.399020  0.024840  1.0  -0.6767
  O  O261  1  0.860800  0.288800  0.689350  1.0  -0.6055
  O  O262  1  0.779220  0.292400  0.626930  1.0  -0.5964
  O  O263  1  0.792330  0.601090  0.982270  1.0  -0.6156
  O  O264  1  0.871670  0.647800  0.034080  1.0  -0.6055
  O  O265  1  0.856700  0.974200  0.633560  1.0  -0.5668
  O  O266  1  0.805200  0.100980  0.524840  1.0  -0.6763
  O  O267  1  0.360800  0.788800  0.689350  1.0  -0.6055
  O  O268  1  0.279220  0.792400  0.626930  1.0  -0.5964
  O  O269  1  0.292330  0.101090  0.982270  1.0  -0.6156
  O  O270  1  0.371670  0.147800  0.034080  1.0  -0.6055
  O  O271  1  0.356700  0.474200  0.633560  1.0  -0.5668
  O  O272  1  0.305200  0.600980  0.524840  1.0  -0.6763
  O  O273  1  0.139200  0.288800  0.810650  1.0  -0.6047
  O  O274  1  0.220780  0.292400  0.873070  1.0  -0.5946
  O  O275  1  0.207670  0.601090  0.517730  1.0  -0.6162
  O  O276  1  0.128330  0.647800  0.465920  1.0  -0.6057
  O  O277  1  0.143300  0.974200  0.866440  1.0  -0.5655
  O  O278  1  0.194800  0.100980  0.975160  1.0  -0.6778
  O  O279  1  0.639200  0.788800  0.810650  1.0  -0.6047
  O  O280  1  0.720780  0.792400  0.873070  1.0  -0.5946
  O  O281  1  0.707670  0.101090  0.517730  1.0  -0.6162
  O  O282  1  0.628330  0.147800  0.465920  1.0  -0.6057
  O  O283  1  0.643300  0.474200  0.866440  1.0  -0.5655
  O  O284  1  0.694800  0.600980  0.975160  1.0  -0.6778
