# generated using pymatgen
data_CeH6(C2O)6
_symmetry_space_group_name_H-M   'P 1'
_cell_length_a   14.10510000
_cell_length_b   15.33650000
_cell_length_c   17.81620000
_cell_angle_alpha   89.98500000
_cell_angle_beta   86.89000000
_cell_angle_gamma   89.74700000
_symmetry_Int_Tables_number   1
_chemical_formula_structural   CeH6(C2O)6
_chemical_formula_sum   'Ce10 H60 C120 O60'
_cell_volume   3848.33774565
_cell_formula_units_Z   10
loop_
 _symmetry_equiv_pos_site_id
 _symmetry_equiv_pos_as_xyz
  1  'x, y, z'
loop_
 _atom_site_type_symbol
 _atom_site_label
 _atom_site_symmetry_multiplicity
 _atom_site_fract_x
 _atom_site_fract_y
 _atom_site_fract_z
 _atom_site_occupancy
 _atom_site_charge
  Ce  Ce1  1  0.693580  0.573400  0.723710  1.0  2.2648
  Ce  Ce2  1  0.870920  0.842060  0.252320  1.0  2.2592
  Ce  Ce3  1  0.516540  0.249760  0.253030  1.0  2.1799
  Ce  Ce4  1  0.144720  0.658620  0.237400  1.0  2.2562
  Ce  Ce5  1  0.259340  0.924730  0.738000  1.0  2.206
  Ce  Ce6  1  0.483460  0.750240  0.746970  1.0  2.1802
  Ce  Ce7  1  0.740660  0.075270  0.262000  1.0  2.2062
  Ce  Ce8  1  0.855280  0.341380  0.762600  1.0  2.2595
  Ce  Ce9  1  0.129080  0.157940  0.747680  1.0  2.2579
  Ce  Ce10  1  0.306420  0.426600  0.276290  1.0  2.2648
  H  H11  1  0.019600  0.126000  0.068100  1.0  0.115
  H  H12  1  0.939100  0.392300  0.983200  1.0  0.1183
  H  H13  1  0.994500  0.459200  0.084400  1.0  0.0711
  H  H14  1  0.723600  0.564600  0.252100  1.0  0.1033
  H  H15  1  0.301200  0.943400  0.240700  1.0  0.1123
  H  H16  1  0.399200  0.061100  0.092900  1.0  0.0922
  H  H17  1  0.912900  0.826900  0.756600  1.0  0.1145
  H  H18  1  0.127700  0.410000  0.519700  1.0  0.1105
  H  H19  1  0.933400  0.337300  0.278500  1.0  0.1136
  H  H20  1  0.662500  0.001500  0.011900  1.0  0.1105
  H  H21  1  0.669200  0.419500  0.250100  1.0  0.1158
  H  H22  1  0.147700  0.937600  0.471700  1.0  0.1136
  H  H23  1  0.628300  0.928600  0.542200  1.0  0.1216
  H  H24  1  0.357100  0.986900  0.561500  1.0  0.0722
  H  H25  1  0.453500  0.366500  0.641200  1.0  0.081
  H  H26  1  0.066600  0.662700  0.721500  1.0  0.1133
  H  H27  1  0.954100  0.037300  0.619500  1.0  0.093
  H  H28  1  0.354600  0.249000  0.635700  1.0  0.1303
  H  H29  1  0.371700  0.071400  0.457800  1.0  0.1215
  H  H30  1  0.234800  0.332500  0.068100  1.0  0.1053
  H  H31  1  0.031800  0.032700  0.232600  1.0  0.1031
  H  H32  1  0.635400  0.573500  0.526000  1.0  0.0903
  H  H33  1  0.852300  0.062400  0.528300  1.0  0.1135
  H  H34  1  0.980400  0.874000  0.931900  1.0  0.1152
  H  H35  1  0.276400  0.435400  0.747900  1.0  0.1031
  H  H36  1  0.045900  0.962700  0.380500  1.0  0.093
  H  H37  1  0.988200  0.483300  0.272500  1.0  0.114
  H  H38  1  0.330800  0.580500  0.749900  1.0  0.115
  H  H39  1  0.462000  0.888500  0.244100  1.0  0.1217
  H  H40  1  0.765200  0.667500  0.931900  1.0  0.1054
  H  H41  1  0.407500  0.623700  0.995300  1.0  0.103
  H  H42  1  0.698800  0.056600  0.759300  1.0  0.1133
  H  H43  1  0.634200  0.236000  0.760400  1.0  0.1032
  H  H44  1  0.872300  0.590000  0.480300  1.0  0.1106
  H  H45  1  0.112500  0.099800  0.960100  1.0  0.0893
  H  H46  1  0.538000  0.111500  0.755900  1.0  0.1223
  H  H47  1  0.636800  0.466600  0.430500  1.0  0.1105
  H  H48  1  0.968200  0.967300  0.767400  1.0  0.1034
  H  H49  1  0.647700  0.912000  0.765700  1.0  0.0826
  H  H50  1  0.817200  0.745600  0.039000  1.0  0.1284
  H  H51  1  0.363200  0.533400  0.569500  1.0  0.1099
  H  H52  1  0.642900  0.013100  0.438500  1.0  0.0726
  H  H53  1  0.004000  0.423900  0.613700  1.0  0.1156
  H  H54  1  0.600800  0.938900  0.907100  1.0  0.093
  H  H55  1  0.996000  0.576100  0.386300  1.0  0.117
  H  H56  1  0.364600  0.426500  0.474000  1.0  0.0903
  H  H57  1  0.405600  0.543500  0.105300  1.0  0.123
  H  H58  1  0.645400  0.751000  0.364300  1.0  0.1307
  H  H59  1  0.182800  0.254400  0.961000  1.0  0.1289
  H  H60  1  0.011800  0.516700  0.727500  1.0  0.1143
  H  H61  1  0.337500  0.998500  0.988100  1.0  0.1106
  H  H62  1  0.060900  0.607700  0.016800  1.0  0.1185
  H  H63  1  0.352300  0.088000  0.234300  1.0  0.0826
  H  H64  1  0.594400  0.456500  0.894700  1.0  0.1231
  H  H65  1  0.887500  0.900200  0.039900  1.0  0.0898
  H  H66  1  0.592500  0.376300  0.004700  1.0  0.1016
  H  H67  1  0.087100  0.173100  0.243400  1.0  0.1145
  H  H68  1  0.365800  0.764000  0.239600  1.0  0.1031
  H  H69  1  0.005500  0.540800  0.915600  1.0  0.0719
  H  H70  1  0.546500  0.633500  0.358800  1.0  0.0814
  C  C71  1  0.072300  0.492400  0.446000  1.0  -0.0993
  C  C72  1  0.519300  0.164000  0.735000  1.0  -0.1175
  C  C73  1  0.612900  0.390000  0.703500  1.0  0.7121
  C  C74  1  0.712400  0.923900  0.762700  1.0  -0.0366
  C  C75  1  0.096400  0.042700  0.235700  1.0  -0.0861
  C  C76  1  0.422100  0.761700  0.264300  1.0  -0.041
  C  C77  1  0.108500  0.617300  0.730100  1.0  -0.0364
  C  C78  1  0.387100  0.610000  0.296500  1.0  0.712
  C  C79  1  0.129300  0.126300  0.240400  1.0  -0.0827
  C  C80  1  0.470000  0.315200  0.665100  1.0  -0.0109
  C  C81  1  0.901400  0.627900  0.265000  1.0  0.6256
  C  C82  1  0.138200  0.464300  0.739500  1.0  -0.0976
  C  C83  1  0.881700  0.031800  0.136200  1.0  0.6833
  C  C84  1  0.057300  0.985500  0.935000  1.0  -0.1184
  C  C85  1  0.924200  0.471100  0.268200  1.0  -0.1478
  C  C86  1  0.903600  0.957300  0.764300  1.0  -0.0876
  C  C87  1  0.118300  0.968200  0.863800  1.0  0.6824
  C  C88  1  0.497300  0.435400  0.445200  1.0  1e-04
  C  C89  1  0.799700  0.366000  0.258800  1.0  -0.0845
  C  C90  1  0.133400  0.976900  0.618300  1.0  0.7004
  C  C91  1  0.933200  0.012400  0.442300  1.0  -0.1136
  C  C92  1  0.845600  0.524400  0.614900  1.0  0.7253
  C  C93  1  0.067100  0.059000  0.976000  1.0  -0.0446
  C  C94  1  0.973600  0.022700  0.570400  1.0  -0.0503
  C  C95  1  0.855300  0.703700  0.014400  1.0  -0.0885
  C  C96  1  0.419100  0.520600  0.541500  1.0  -0.0425
  C  C97  1  0.891500  0.382700  0.269900  1.0  -0.0377
  C  C98  1  0.772500  0.859600  0.759300  1.0  -0.0659
  C  C99  1  0.597200  0.001900  0.007300  1.0  -0.0632
  C  C100  1  0.483400  0.883500  0.627500  1.0  0.6756
  C  C101  1  0.579400  0.544700  0.516300  1.0  -0.1354
  C  C102  1  0.026400  0.977300  0.429600  1.0  -0.0519
  C  C103  1  0.866600  0.023100  0.381700  1.0  0.7027
  C  C104  1  0.538000  0.042100  0.063600  1.0  -0.0826
  C  C105  1  0.409100  0.245900  0.662800  1.0  -0.1688
  C  C106  1  0.098600  0.372100  0.735000  1.0  0.6248
  C  C107  1  0.497700  0.389700  0.131800  1.0  0.6986
  C  C108  1  0.839200  0.028800  0.764400  1.0  -0.1302
  C  C109  1  0.440400  0.037500  0.055700  1.0  -0.0428
  C  C110  1  0.051500  0.315500  0.963600  1.0  -0.1154
  C  C111  1  0.000900  0.622000  0.001000  1.0  -0.1038
  C  C112  1  0.965800  0.579000  0.942700  1.0  -0.0687
  C  C113  1  0.910700  0.036500  0.515800  1.0  -0.0829
  C  C114  1  0.558000  0.474500  0.937000  1.0  -0.1247
  C  C115  1  0.736000  0.762600  0.752900  1.0  0.5672
  C  C116  1  0.011400  0.075200  0.040800  1.0  -0.098
  C  C117  1  0.496600  0.626400  0.619300  1.0  0.69
  C  C118  1  0.554000  0.425500  0.002300  1.0  -0.0414
  C  C119  1  0.923900  0.553600  0.487900  1.0  -0.0236
  C  C120  1  0.420600  0.455300  0.483700  1.0  -0.1363
  C  C121  1  0.742600  0.011300  0.761700  1.0  -0.0461
  C  C122  1  0.424900  0.042900  0.474700  1.0  -0.1417
  C  C123  1  0.154400  0.475600  0.385100  1.0  0.7238
  C  C124  1  0.834800  0.537400  0.862000  1.0  0.7
  C  C125  1  0.232700  0.727800  0.735100  1.0  0.5467
  C  C126  1  0.416400  0.991300  0.536500  1.0  -0.0185
  C  C127  1  0.577900  0.238300  0.735700  1.0  -0.0407
  C  C128  1  0.861800  0.535700  0.260500  1.0  -0.0974
  C  C129  1  0.144700  0.296300  0.985600  1.0  -0.0884
  C  C130  1  0.873000  0.127300  0.759000  1.0  0.6223
  C  C131  1  0.127000  0.872700  0.241000  1.0  0.624
  C  C132  1  0.504200  0.553600  0.936700  1.0  -0.1382
  C  C133  1  0.766500  0.518600  0.255100  1.0  -0.0212
  C  C134  1  0.559600  0.962500  0.944300  1.0  -0.0415
  C  C135  1  0.200300  0.634000  0.741200  1.0  -0.0716
  C  C136  1  0.932900  0.941000  0.024000  1.0  -0.0434
  C  C137  1  0.076100  0.446400  0.512100  1.0  -0.0243
  C  C138  1  0.983400  0.728400  0.107600  1.0  0.7207
  C  C139  1  0.488200  0.946900  0.563300  1.0  -0.121
  C  C140  1  0.733300  0.431800  0.253900  1.0  -0.1073
  C  C141  1  0.511800  0.053100  0.436700  1.0  -0.1202
  C  C142  1  0.948500  0.684500  0.036400  1.0  -0.1163
  C  C143  1  0.462000  0.957900  0.936400  1.0  -0.083
  C  C144  1  0.870700  0.873700  0.759600  1.0  -0.0859
  C  C145  1  0.997900  0.545900  0.431400  1.0  -0.0615
  C  C146  1  0.034200  0.421000  0.057300  1.0  -0.0686
  C  C147  1  0.495800  0.446400  0.063300  1.0  -0.1395
  C  C148  1  0.266700  0.568200  0.746100  1.0  -0.1082
  C  C149  1  0.160800  0.971200  0.235600  1.0  -0.1316
  C  C150  1  0.264000  0.237400  0.247100  1.0  0.5678
  C  C151  1  0.530000  0.684800  0.334900  1.0  -0.0109
  C  C152  1  0.503400  0.373600  0.380700  1.0  0.6911
  C  C153  1  0.287600  0.076100  0.237300  1.0  -0.04
  C  C154  1  0.999100  0.378000  0.999000  1.0  -0.104
  C  C155  1  0.878400  0.589200  0.921700  1.0  -0.0864
  C  C156  1  0.502700  0.564600  0.554800  1.0  0.002
  C  C157  1  0.480700  0.836000  0.265000  1.0  -0.1203
  C  C158  1  0.165200  0.462600  0.138000  1.0  0.7003
  C  C159  1  0.578800  0.084300  0.128300  1.0  0.7593
  C  C160  1  0.575100  0.957100  0.525300  1.0  -0.1371
  C  C161  1  0.442000  0.525500  0.063000  1.0  -0.1253
  C  C162  1  0.516600  0.116500  0.372500  1.0  0.6763
  C  C163  1  0.002100  0.454100  0.568600  1.0  -0.0607
  C  C164  1  0.590900  0.754100  0.337200  1.0  -0.1676
  C  C165  1  0.016600  0.271600  0.892400  1.0  0.7219
  C  C166  1  0.767300  0.272200  0.264900  1.0  0.548
  C  C167  1  0.568900  0.827900  0.298600  1.0  -0.0908
  C  C168  1  0.233500  0.481400  0.744900  1.0  -0.0217
  C  C169  1  0.421200  0.915700  0.871700  1.0  0.7469
  C  C170  1  0.121600  0.410800  0.078300  1.0  -0.0859
  C  C171  1  0.227500  0.140400  0.240700  1.0  -0.0689
  C  C172  1  0.502300  0.610300  0.868200  1.0  0.6976
  C  C173  1  0.447000  0.686600  0.299500  1.0  -0.1276
  C  C174  1  0.927700  0.507600  0.554000  1.0  -0.0986
  C  C175  1  0.580900  0.479400  0.458500  1.0  -0.0421
  C  C176  1  0.823200  0.655000  0.951700  1.0  -0.0811
  C  C177  1  0.089300  0.963500  0.484200  1.0  -0.0832
  C  C178  1  0.257400  0.988700  0.238300  1.0  -0.0466
  C  C179  1  0.628600  0.905200  0.290500  1.0  0.642
  C  C180  1  0.371400  0.094800  0.709500  1.0  0.6416
  C  C181  1  0.402800  0.998100  0.992700  1.0  -0.0681
  C  C182  1  0.988600  0.924800  0.959200  1.0  -0.0984
  C  C183  1  0.431100  0.172100  0.701400  1.0  -0.0894
  C  C184  1  0.583600  0.008700  0.463500  1.0  -0.0176
  C  C185  1  0.553000  0.313400  0.700500  1.0  -0.1264
  C  C186  1  0.446000  0.574500  0.997700  1.0  -0.0403
  C  C187  1  0.066800  0.987600  0.557700  1.0  -0.1137
  C  C188  1  0.075800  0.528900  0.731800  1.0  -0.1473
  C  C189  1  0.942700  0.014500  0.065000  1.0  -0.1192
  C  C190  1  0.176800  0.345000  0.048300  1.0  -0.0816
  O  O191  1  0.426300  0.350700  0.351700  1.0  -0.8302
  O  O192  1  0.401100  0.028800  0.740800  1.0  -0.5956
  O  O193  1  0.778300  0.568100  0.597000  1.0  -0.6771
  O  O194  1  0.113100  0.004700  0.683300  1.0  -0.6817
  O  O195  1  0.206900  0.928900  0.601700  1.0  -0.6847
  O  O196  1  0.692200  0.386300  0.734000  1.0  -0.7755
  O  O197  1  0.463600  0.682900  0.874200  1.0  -0.675
  O  O198  1  0.401800  0.866900  0.662700  1.0  -0.8199
  O  O199  1  0.165300  0.315600  0.734300  1.0  -0.65
  O  O200  1  0.420900  0.660600  0.641600  1.0  -0.6466
  O  O201  1  0.812300  0.183200  0.764700  1.0  -0.6383
  O  O202  1  0.543400  0.586400  0.804200  1.0  -0.7835
  O  O203  1  0.718100  0.900700  0.312400  1.0  -0.756
  O  O204  1  0.938700  0.294600  0.872200  1.0  -0.6711
  O  O205  1  0.525800  0.123600  0.170600  1.0  -0.6583
  O  O206  1  0.150600  0.512300  0.321500  1.0  -0.7477
  O  O207  1  0.007100  0.351800  0.734000  1.0  -0.6814
  O  O208  1  0.357300  0.253000  0.237100  1.0  -0.7174
  O  O209  1  0.246000  0.444200  0.157200  1.0  -0.6659
  O  O210  1  0.456600  0.413600  0.195800  1.0  -0.7824
  O  O211  1  0.579100  0.339400  0.358400  1.0  -0.6457
  O  O212  1  0.067100  0.212300  0.866200  1.0  -0.6664
  O  O213  1  0.114300  0.528200  0.163400  1.0  -0.6733
  O  O214  1  0.797000  0.706900  0.723800  1.0  -0.6761
  O  O215  1  0.642700  0.747000  0.762900  1.0  -0.7176
  O  O216  1  0.180200  0.783100  0.708700  1.0  -0.5717
  O  O217  1  0.446400  0.151000  0.351000  1.0  -0.6205
  O  O218  1  0.849400  0.487700  0.678500  1.0  -0.7486
  O  O219  1  0.819800  0.216900  0.291300  1.0  -0.5714
  O  O220  1  0.323200  0.751300  0.757700  1.0  -0.7555
  O  O221  1  0.967800  0.141000  0.753000  1.0  -0.7171
  O  O222  1  0.573700  0.649300  0.648300  1.0  -0.8358
  O  O223  1  0.414200  0.540200  0.323700  1.0  -0.6689
  O  O224  1  0.992900  0.648200  0.266000  1.0  -0.6798
  O  O225  1  0.203000  0.293100  0.276200  1.0  -0.6768
  O  O226  1  0.754000  0.555800  0.842800  1.0  -0.6664
  O  O227  1  0.335200  0.919900  0.861800  1.0  -0.6336
  O  O228  1  0.127100  0.892200  0.839600  1.0  -0.6339
  O  O229  1  0.474200  0.876400  0.829400  1.0  -0.658
  O  O230  1  0.837100  0.967400  0.171800  1.0  -0.7517
  O  O231  1  0.553600  0.849000  0.649000  1.0  -0.621
  O  O232  1  0.281900  0.099300  0.687600  1.0  -0.7569
  O  O233  1  0.162900  0.032600  0.828200  1.0  -0.7511
  O  O234  1  0.793100  0.071100  0.398300  1.0  -0.6828
  O  O235  1  0.187700  0.816800  0.235300  1.0  -0.6383
  O  O236  1  0.834700  0.684400  0.265700  1.0  -0.6506
  O  O237  1  0.676800  0.248700  0.242300  1.0  -0.7541
  O  O238  1  0.221700  0.431900  0.403000  1.0  -0.6783
  O  O239  1  0.886900  0.995300  0.316700  1.0  -0.6826
  O  O240  1  0.872900  0.107800  0.160400  1.0  -0.6376
  O  O241  1  0.585800  0.459800  0.676300  1.0  -0.6677
  O  O242  1  0.598900  0.971200  0.259200  1.0  -0.5957
  O  O243  1  0.664800  0.080100  0.138200  1.0  -0.6333
  O  O244  1  0.932900  0.787700  0.133800  1.0  -0.667
  O  O245  1  0.598200  0.133100  0.337300  1.0  -0.8165
  O  O246  1  0.032200  0.859000  0.247000  1.0  -0.7178
  O  O247  1  0.061300  0.705400  0.127800  1.0  -0.67
  O  O248  1  0.536400  0.317100  0.125800  1.0  -0.6762
  O  O249  1  0.307800  0.613700  0.266000  1.0  -0.7768
  O  O250  1  0.885700  0.471800  0.836600  1.0  -0.6721
