# generated using pymatgen
data_Co5H64C41(N2O3)4
_symmetry_space_group_name_H-M   'P 1'
_cell_length_a   14.44300000
_cell_length_b   14.53700000
_cell_length_c   22.01500000
_cell_angle_alpha   90.00000000
_cell_angle_beta   99.97300000
_cell_angle_gamma   90.00000000
_symmetry_Int_Tables_number   1
_chemical_formula_structural   Co5H64C41(N2O3)4
_chemical_formula_sum   'Co10 H128 C82 N16 O24'
_cell_volume   4552.37874740
_cell_formula_units_Z   2
loop_
 _symmetry_equiv_pos_site_id
 _symmetry_equiv_pos_as_xyz
  1  'x, y, z'
loop_
 _atom_site_type_symbol
 _atom_site_label
 _atom_site_symmetry_multiplicity
 _atom_site_fract_x
 _atom_site_fract_y
 _atom_site_fract_z
 _atom_site_occupancy
 _atom_site_charge
  Co  Co1  1  0.189900  0.812200  0.060700  1.0  0.8766
  Co  Co2  1  0.846700  0.164600  0.068000  1.0  0.8569
  Co  Co3  1  0.569600  0.992100  0.275600  1.0  0.9114
  Co  Co4  1  0.602600  0.118300  0.412200  1.0  0.8104
  Co  Co5  1  0.621300  0.912700  0.405500  1.0  0.9404
  Co  Co6  1  0.810100  0.312200  0.939300  1.0  0.879
  Co  Co7  1  0.153300  0.664600  0.932000  1.0  0.8596
  Co  Co8  1  0.430400  0.492100  0.724400  1.0  0.913
  Co  Co9  1  0.397400  0.618300  0.587800  1.0  0.8095
  Co  Co10  1  0.378700  0.412700  0.594500  1.0  0.9395
  H  H11  1  0.058300  0.691000  0.022500  1.0  0.1826
  H  H12  1  0.040100  0.776500  0.978500  1.0  0.1959
  H  H13  1  0.716900  0.027000  0.353300  1.0  0.2977
  H  H14  1  0.301000  0.444000  0.038400  1.0  0.0897
  H  H15  1  0.396100  0.484200  0.024900  1.0  0.1017
  H  H16  1  0.394600  0.426300  0.084800  1.0  0.0942
  H  H17  1  0.477400  0.558300  0.146900  1.0  0.079
  H  H18  1  0.473500  0.620500  0.088300  1.0  0.0974
  H  H19  1  0.428700  0.655000  0.144100  1.0  0.0901
  H  H20  1  0.232700  0.507200  0.130300  1.0  0.1016
  H  H21  1  0.329300  0.497100  0.175000  1.0  0.1053
  H  H22  1  0.280200  0.593400  0.165500  1.0  0.1031
  H  H23  1  0.333900  0.859100  0.834400  1.0  0.0939
  H  H24  1  0.388500  0.949100  0.857900  1.0  0.1025
  H  H25  1  0.238000  0.060000  0.927300  1.0  0.0903
  H  H26  1  0.312300  0.007800  0.975400  1.0  0.0818
  H  H27  1  0.342200  0.051500  0.916700  1.0  0.0843
  H  H28  1  0.145000  0.892100  0.838900  1.0  0.099
  H  H29  1  0.149600  0.998500  0.850400  1.0  0.1001
  H  H30  1  0.209300  0.953700  0.805100  1.0  0.0889
  H  H31  1  0.413200  0.913100  0.913700  1.0  0.2103
  H  H32  1  0.472900  0.226900  0.169700  1.0  0.0932
  H  H33  1  0.374900  0.209600  0.189000  1.0  0.0978
  H  H34  1  0.401300  0.308200  0.168800  1.0  0.0912
  H  H35  1  0.368800  0.371600  0.271500  1.0  0.1027
  H  H36  1  0.343600  0.272300  0.291000  1.0  0.0864
  H  H37  1  0.422200  0.328800  0.333100  1.0  0.0926
  H  H38  1  0.593200  0.319700  0.240400  1.0  0.0959
  H  H39  1  0.521900  0.400300  0.243000  1.0  0.0923
  H  H40  1  0.571300  0.353000  0.304100  1.0  0.0888
  H  H41  1  0.731700  0.756400  0.201900  1.0  0.094
  H  H42  1  0.697200  0.654100  0.194600  1.0  0.0998
  H  H43  1  0.623900  0.734500  0.187100  1.0  0.0924
  H  H44  1  0.763500  0.672000  0.357200  1.0  0.083
  H  H45  1  0.781000  0.613300  0.300500  1.0  0.0953
  H  H46  1  0.820300  0.713800  0.309200  1.0  0.1012
  H  H47  1  0.596000  0.635700  0.325100  1.0  0.1178
  H  H48  1  0.546200  0.660100  0.258100  1.0  0.0927
  H  H49  1  0.621500  0.581500  0.268700  1.0  0.0944
  H  H50  1  0.831800  0.923200  0.642900  1.0  0.0843
  H  H51  1  0.729600  0.895400  0.612100  1.0  0.0964
  H  H52  1  0.815500  0.865400  0.581900  1.0  0.0896
  H  H53  1  0.873600  0.090600  0.532200  1.0  0.1012
  H  H54  1  0.920300  0.041400  0.593300  1.0  0.0919
  H  H55  1  0.904100  0.987300  0.530700  1.0  0.1
  H  H56  1  0.736100  0.136500  0.578200  1.0  0.0878
  H  H57  1  0.673100  0.062300  0.602900  1.0  0.0993
  H  H58  1  0.772000  0.086900  0.641100  1.0  0.0913
  H  H59  1  0.313800  0.778400  0.181300  1.0  0.0777
  H  H60  1  0.444800  0.828000  0.244200  1.0  0.0691
  H  H61  1  0.440900  0.048500  0.147500  1.0  0.0573
  H  H62  1  0.310700  0.998000  0.082400  1.0  0.0943
  H  H63  1  0.980000  0.034600  0.154400  1.0  0.0733
  H  H64  1  0.096000  0.929700  0.153400  1.0  0.0833
  H  H65  1  0.048200  0.934300  0.975000  1.0  0.063
  H  H66  1  0.929700  0.039600  0.977100  1.0  0.0886
  H  H67  1  0.804600  0.195700  0.197000  1.0  0.0773
  H  H68  1  0.709000  0.144300  0.261900  1.0  0.0714
  H  H69  1  0.641400  0.934200  0.156300  1.0  0.072
  H  H70  1  0.730400  0.989300  0.089200  1.0  0.0716
  H  H71  1  0.427100  0.210800  0.581200  1.0  0.0657
  H  H72  1  0.497800  0.116100  0.523700  1.0  0.0689
  H  H73  1  0.569900  0.321600  0.433200  1.0  0.0656
  H  H74  1  0.488800  0.417100  0.486200  1.0  0.0665
  H  H75  1  0.941700  0.191000  0.977500  1.0  0.1819
  H  H76  1  0.959900  0.276500  0.021500  1.0  0.1958
  H  H77  1  0.283100  0.527000  0.646700  1.0  0.296
  H  H78  1  0.699000  0.944000  0.961600  1.0  0.0888
  H  H79  1  0.603900  0.984200  0.975100  1.0  0.101
  H  H80  1  0.605400  0.926300  0.915200  1.0  0.0947
  H  H81  1  0.522600  0.058300  0.853100  1.0  0.079
  H  H82  1  0.526500  0.120500  0.911700  1.0  0.097
  H  H83  1  0.571300  0.155000  0.855900  1.0  0.0899
  H  H84  1  0.767300  0.007200  0.869700  1.0  0.1016
  H  H85  1  0.670700  0.997100  0.825000  1.0  0.1062
  H  H86  1  0.719800  0.093400  0.834500  1.0  0.1018
  H  H87  1  0.666100  0.359100  0.165600  1.0  0.0944
  H  H88  1  0.611500  0.449100  0.142100  1.0  0.1023
  H  H89  1  0.762000  0.560000  0.072700  1.0  0.0901
  H  H90  1  0.687700  0.507800  0.024600  1.0  0.0819
  H  H91  1  0.657800  0.551500  0.083300  1.0  0.0852
  H  H92  1  0.855000  0.392100  0.161100  1.0  0.0986
  H  H93  1  0.850400  0.498500  0.149600  1.0  0.0993
  H  H94  1  0.790700  0.453700  0.194900  1.0  0.0889
  H  H95  1  0.586800  0.413100  0.086300  1.0  0.2112
  H  H96  1  0.527100  0.726900  0.830300  1.0  0.0926
  H  H97  1  0.625100  0.709600  0.811000  1.0  0.0985
  H  H98  1  0.598700  0.808200  0.831200  1.0  0.0894
  H  H99  1  0.631200  0.871600  0.728500  1.0  0.1017
  H  H100  1  0.656400  0.772300  0.709000  1.0  0.0871
  H  H101  1  0.577800  0.828800  0.666900  1.0  0.0929
  H  H102  1  0.406800  0.819700  0.759600  1.0  0.0959
  H  H103  1  0.478100  0.900300  0.757000  1.0  0.0918
  H  H104  1  0.428700  0.853000  0.695900  1.0  0.0888
  H  H105  1  0.268300  0.256400  0.798100  1.0  0.0938
  H  H106  1  0.302800  0.154100  0.805400  1.0  0.0992
  H  H107  1  0.376100  0.234500  0.812900  1.0  0.0933
  H  H108  1  0.236500  0.172000  0.642800  1.0  0.0828
  H  H109  1  0.219000  0.113300  0.699500  1.0  0.0942
  H  H110  1  0.179700  0.213800  0.690800  1.0  0.0991
  H  H111  1  0.404000  0.135700  0.674900  1.0  0.1161
  H  H112  1  0.453800  0.160100  0.741900  1.0  0.0922
  H  H113  1  0.378500  0.081500  0.731300  1.0  0.0937
  H  H114  1  0.168200  0.423200  0.357100  1.0  0.0831
  H  H115  1  0.270400  0.395400  0.387900  1.0  0.0972
  H  H116  1  0.184500  0.365400  0.418100  1.0  0.0898
  H  H117  1  0.126400  0.590600  0.467800  1.0  0.0995
  H  H118  1  0.079700  0.541400  0.406700  1.0  0.0921
  H  H119  1  0.095900  0.487300  0.469300  1.0  0.1007
  H  H120  1  0.263900  0.636500  0.421800  1.0  0.0863
  H  H121  1  0.326900  0.562300  0.397100  1.0  0.1003
  H  H122  1  0.228000  0.586900  0.358900  1.0  0.0911
  H  H123  1  0.686200  0.278400  0.818700  1.0  0.0772
  H  H124  1  0.555200  0.328000  0.755800  1.0  0.0695
  H  H125  1  0.559100  0.548500  0.852500  1.0  0.0572
  H  H126  1  0.689300  0.498000  0.917600  1.0  0.0937
  H  H127  1  0.020000  0.534600  0.845600  1.0  0.0723
  H  H128  1  0.904000  0.429700  0.846600  1.0  0.0826
  H  H129  1  0.951800  0.434300  0.025000  1.0  0.0637
  H  H130  1  0.070300  0.539600  0.022900  1.0  0.0881
  H  H131  1  0.195400  0.695700  0.803000  1.0  0.0782
  H  H132  1  0.291000  0.644300  0.738100  1.0  0.0725
  H  H133  1  0.358600  0.434200  0.843700  1.0  0.0721
  H  H134  1  0.269600  0.489300  0.910800  1.0  0.0712
  H  H135  1  0.572900  0.710800  0.418800  1.0  0.0647
  H  H136  1  0.502200  0.616100  0.476300  1.0  0.0687
  H  H137  1  0.430100  0.821600  0.566800  1.0  0.0639
  H  H138  1  0.511200  0.917100  0.513800  1.0  0.0678
  C  C139  1  0.287000  0.628000  0.048000  1.0  0.6549
  C  C140  1  0.344000  0.557000  0.091000  1.0  0.064
  C  C141  1  0.361000  0.470000  0.057000  1.0  -0.4251
  C  C142  1  0.440000  0.602000  0.120000  1.0  -0.3851
  C  C143  1  0.292000  0.537000  0.146000  1.0  -0.4036
  C  C144  1  0.241000  0.855000  0.939400  1.0  0.6334
  C  C145  1  0.268000  0.931000  0.897000  1.0  0.0195
  C  C146  1  0.355000  0.897000  0.870000  1.0  -0.157
  C  C147  1  0.292000  0.021000  0.932000  1.0  -0.3886
  C  C148  1  0.185000  0.945000  0.843000  1.0  -0.3888
  C  C149  1  0.508000  0.189000  0.289000  1.0  0.6835
  C  C150  1  0.467000  0.276000  0.257000  1.0  0.1714
  C  C151  1  0.425000  0.253000  0.190000  1.0  -0.4071
  C  C152  1  0.394000  0.316000  0.291000  1.0  -0.3912
  C  C153  1  0.545000  0.343000  0.261000  1.0  -0.4085
  C  C154  1  0.651000  0.799000  0.302000  1.0  0.6928
  C  C155  1  0.681000  0.710000  0.278000  1.0  0.1837
  C  C156  1  0.684000  0.714000  0.209000  1.0  -0.4059
  C  C157  1  0.769000  0.674000  0.314000  1.0  -0.3962
  C  C158  1  0.604000  0.640000  0.283000  1.0  -0.3969
  C  C159  1  0.716000  0.985000  0.504000  1.0  0.6047
  C  C160  1  0.782000  0.004000  0.566000  1.0  0.0352
  C  C161  1  0.791000  0.913000  0.604000  1.0  -0.3531
  C  C162  1  0.879000  0.034000  0.554000  1.0  -0.3341
  C  C163  1  0.736000  0.080000  0.600000  1.0  -0.3818
  C  C164  1  0.340000  0.834000  0.172800  1.0  0.1232
  C  C165  1  0.418000  0.865000  0.211100  1.0  0.1601
  C  C166  1  0.416000  0.991000  0.155000  1.0  0.1609
  C  C167  1  0.338000  0.961000  0.115000  1.0  0.0909
  C  C168  1  0.993000  0.014000  0.116600  1.0  0.1497
  C  C169  1  0.063000  0.952000  0.116200  1.0  0.0776
  C  C170  1  0.035000  0.954000  0.012900  1.0  0.0952
  C  C171  1  0.963000  0.018000  0.014100  1.0  0.0843
  C  C172  1  0.770000  0.142000  0.187100  1.0  0.1325
  C  C173  1  0.712000  0.111000  0.226300  1.0  0.1533
  C  C174  1  0.673000  0.990000  0.164700  1.0  0.1154
  C  C175  1  0.728000  0.022000  0.125000  1.0  0.1233
  C  C176  1  0.455000  0.236000  0.550000  1.0  0.1461
  C  C177  1  0.499000  0.179000  0.516000  1.0  0.144
  C  C178  1  0.539000  0.297000  0.463000  1.0  0.1386
  C  C179  1  0.492000  0.355000  0.496000  1.0  0.1354
  C  C180  1  0.713000  0.128000  0.952000  1.0  0.653
  C  C181  1  0.656000  0.057000  0.909000  1.0  0.0639
  C  C182  1  0.639000  0.970000  0.943000  1.0  -0.4233
  C  C183  1  0.560000  0.102000  0.880000  1.0  -0.3852
  C  C184  1  0.708000  0.037000  0.854000  1.0  -0.4043
  C  C185  1  0.759000  0.355000  0.060600  1.0  0.6335
  C  C186  1  0.732000  0.431000  0.103000  1.0  0.02
  C  C187  1  0.645000  0.397000  0.130000  1.0  -0.1586
  C  C188  1  0.708000  0.521000  0.068000  1.0  -0.3866
  C  C189  1  0.815000  0.445000  0.157000  1.0  -0.3903
  C  C190  1  0.492000  0.689000  0.711000  1.0  0.6834
  C  C191  1  0.533000  0.776000  0.743000  1.0  0.1716
  C  C192  1  0.575000  0.753000  0.810000  1.0  -0.4075
  C  C193  1  0.606000  0.816000  0.709000  1.0  -0.3903
  C  C194  1  0.455000  0.843000  0.739000  1.0  -0.4097
  C  C195  1  0.349000  0.299000  0.698000  1.0  0.6926
  C  C196  1  0.319000  0.210000  0.722000  1.0  0.1847
  C  C197  1  0.316000  0.214000  0.791000  1.0  -0.4051
  C  C198  1  0.231000  0.174000  0.686000  1.0  -0.3991
  C  C199  1  0.396000  0.140000  0.717000  1.0  -0.3963
  C  C200  1  0.284000  0.485000  0.496000  1.0  0.6045
  C  C201  1  0.218000  0.504000  0.434000  1.0  0.0336
  C  C202  1  0.209000  0.413000  0.396000  1.0  -0.3502
  C  C203  1  0.121000  0.534000  0.446000  1.0  -0.3357
  C  C204  1  0.264000  0.580000  0.400000  1.0  -0.382
  C  C205  1  0.660000  0.334000  0.827200  1.0  0.124
  C  C206  1  0.582000  0.365000  0.788900  1.0  0.1608
  C  C207  1  0.584000  0.491000  0.845000  1.0  0.1597
  C  C208  1  0.662000  0.461000  0.885000  1.0  0.0913
  C  C209  1  0.007000  0.514000  0.883400  1.0  0.1528
  C  C210  1  0.937000  0.452000  0.883800  1.0  0.0778
  C  C211  1  0.965000  0.454000  0.987100  1.0  0.0945
  C  C212  1  0.037000  0.518000  0.985900  1.0  0.0838
  C  C213  1  0.230000  0.642000  0.812900  1.0  0.1317
  C  C214  1  0.288000  0.611000  0.773700  1.0  0.1537
  C  C215  1  0.327000  0.490000  0.835300  1.0  0.1157
  C  C216  1  0.272000  0.522000  0.875000  1.0  0.1238
  C  C217  1  0.545000  0.736000  0.450000  1.0  0.1442
  C  C218  1  0.501000  0.679000  0.484000  1.0  0.1432
  C  C219  1  0.461000  0.797000  0.537000  1.0  0.1388
  C  C220  1  0.508000  0.855000  0.504000  1.0  0.1351
  N  N221  1  0.301000  0.881000  0.124300  1.0  -0.3365
  N  N222  1  0.458000  0.944000  0.202700  1.0  -0.3264
  N  N223  1  0.943000  0.047000  0.066000  1.0  -0.3276
  N  N224  1  0.086000  0.922000  0.063500  1.0  -0.319
  N  N225  1  0.778000  0.099000  0.136700  1.0  -0.338
  N  N226  1  0.662000  0.037000  0.215500  1.0  -0.3426
  N  N227  1  0.451000  0.325000  0.540900  1.0  -0.3437
  N  N228  1  0.542000  0.208000  0.471300  1.0  -0.3604
  N  N229  1  0.699000  0.381000  0.875700  1.0  -0.3362
  N  N230  1  0.542000  0.444000  0.797300  1.0  -0.3267
  N  N231  1  0.057000  0.547000  0.934000  1.0  -0.3278
  N  N232  1  0.914000  0.422000  0.936500  1.0  -0.3213
  N  N233  1  0.222000  0.599000  0.863300  1.0  -0.3341
  N  N234  1  0.338000  0.537000  0.784500  1.0  -0.343
  N  N235  1  0.549000  0.825000  0.459100  1.0  -0.3437
  N  N236  1  0.458000  0.708000  0.528700  1.0  -0.3618
  O  O237  1  0.285100  0.706800  0.067700  1.0  -0.6014
  O  O238  1  0.088200  0.735300  0.999300  1.0  -0.8584
  O  O239  1  0.242000  0.598500  0.998100  1.0  -0.614
  O  O240  1  0.650100  0.021000  0.355800  1.0  -1.005
  O  O241  1  0.229000  0.882300  0.991400  1.0  -0.6031
  O  O242  1  0.232900  0.777200  0.919300  1.0  -0.588
  O  O243  1  0.507000  0.116000  0.261200  1.0  -0.6282
  O  O244  1  0.540000  0.197000  0.345200  1.0  -0.6537
  O  O245  1  0.622000  0.862000  0.266000  1.0  -0.6057
  O  O246  1  0.656000  0.804000  0.359300  1.0  -0.6304
  O  O247  1  0.734000  0.921000  0.476000  1.0  -0.583
  O  O248  1  0.651000  0.032000  0.488600  1.0  -0.6825
  O  O249  1  0.714900  0.206800  0.932300  1.0  -0.6016
  O  O250  1  0.911800  0.235300  0.000700  1.0  -0.858
  O  O251  1  0.758000  0.098500  0.001900  1.0  -0.6133
  O  O252  1  0.349900  0.521000  0.644200  1.0  -1.0041
  O  O253  1  0.771000  0.382300  0.008600  1.0  -0.6017
  O  O254  1  0.767100  0.277200  0.080700  1.0  -0.5873
  O  O255  1  0.493000  0.616000  0.738800  1.0  -0.6285
  O  O256  1  0.460000  0.697000  0.654800  1.0  -0.653
  O  O257  1  0.378000  0.362000  0.734000  1.0  -0.607
  O  O258  1  0.344000  0.304000  0.640700  1.0  -0.6323
  O  O259  1  0.266000  0.421000  0.524000  1.0  -0.5822
  O  O260  1  0.349000  0.532000  0.511400  1.0  -0.6836
