# generated using pymatgen
data_MnH2C8S2(NO)4
_symmetry_space_group_name_H-M   'P 1'
_cell_length_a   7.66870000
_cell_length_b   12.68090000
_cell_length_c   12.68090000
_cell_angle_alpha   84.75420000
_cell_angle_beta   72.39990000
_cell_angle_gamma   72.39980000
_symmetry_Int_Tables_number   1
_chemical_formula_structural   MnH2C8S2(NO)4
_chemical_formula_sum   'Mn2 H4 C16 S4 N8 O8'
_cell_volume   1120.41972543
_cell_formula_units_Z   2
loop_
 _symmetry_equiv_pos_site_id
 _symmetry_equiv_pos_as_xyz
  1  'x, y, z'
loop_
 _atom_site_type_symbol
 _atom_site_label
 _atom_site_symmetry_multiplicity
 _atom_site_fract_x
 _atom_site_fract_y
 _atom_site_fract_z
 _atom_site_occupancy
 _atom_site_charge
  Mn  Mn1  1  0.000000  0.000000  0.000000  1.0  1.161
  Mn  Mn2  1  0.250000  0.500000  0.500000  1.0  1.1609
  H  H3  1  0.125000  0.646800  0.853200  1.0  0.1411
  H  H4  1  0.625000  0.353200  0.146800  1.0  0.1408
  H  H5  1  0.021800  0.853200  0.353200  1.0  0.1415
  H  H6  1  0.228200  0.146800  0.646800  1.0  0.14
  C  C7  1  0.110800  0.807600  0.823400  1.0  0.591
  C  C8  1  0.741800  0.192400  0.176600  1.0  0.5924
  C  C9  1  0.065800  0.823400  0.192400  1.0  0.5955
  C  C10  1  0.081600  0.176600  0.807600  1.0  0.5933
  C  C11  1  0.508200  0.323400  0.307600  1.0  0.5929
  C  C12  1  0.139200  0.676600  0.692400  1.0  0.5954
  C  C13  1  0.168400  0.692400  0.323400  1.0  0.5913
  C  C14  1  0.184200  0.307600  0.676600  1.0  0.593
  C  C15  1  0.125000  0.866600  0.633400  1.0  0.2468
  C  C16  1  0.125000  0.701300  0.798700  1.0  -0.1586
  C  C17  1  0.625000  0.133400  0.366600  1.0  0.2451
  C  C18  1  0.625000  0.298700  0.201300  1.0  -0.1598
  C  C19  1  0.241600  0.633400  0.133400  1.0  0.2468
  C  C20  1  0.076300  0.798700  0.298700  1.0  -0.1589
  C  C21  1  0.008400  0.366600  0.866600  1.0  0.245
  C  C22  1  0.173700  0.201300  0.701300  1.0  -0.1595
  S  S23  1  0.125000  0.962500  0.537500  1.0  -0.1158
  S  S24  1  0.625000  0.037500  0.462500  1.0  -0.1165
  S  S25  1  0.337500  0.537500  0.037500  1.0  -0.1164
  S  S26  1  0.912500  0.462500  0.962500  1.0  -0.1166
  N  N27  1  0.112500  0.886600  0.739200  1.0  -0.3367
  N  N28  1  0.738300  0.113400  0.260800  1.0  -0.334
  N  N29  1  0.148300  0.739200  0.113400  1.0  -0.3378
  N  N30  1  0.000900  0.260800  0.886600  1.0  -0.3346
  N  N31  1  0.511700  0.239200  0.386600  1.0  -0.3347
  N  N32  1  0.137500  0.760800  0.613400  1.0  -0.338
  N  N33  1  0.249100  0.613400  0.239200  1.0  -0.3351
  N  N34  1  0.101700  0.386600  0.760800  1.0  -0.3355
  O  O35  1  0.106450  0.841160  0.913940  1.0  -0.6008
  O  O36  1  0.861550  0.158840  0.086060  1.0  -0.6057
  O  O37  1  0.979610  0.913940  0.158840  1.0  -0.604
  O  O38  1  0.052390  0.086060  0.841160  1.0  -0.6023
  O  O39  1  0.388450  0.413940  0.341160  1.0  -0.6039
  O  O40  1  0.143550  0.586060  0.658840  1.0  -0.6025
  O  O41  1  0.197610  0.658840  0.413940  1.0  -0.6006
  O  O42  1  0.270390  0.341160  0.586060  1.0  -0.6054
