# generated using pymatgen
data_ZnH2C8S2(NO)4
_symmetry_space_group_name_H-M   'P 1'
_cell_length_a   7.55710000
_cell_length_b   12.57100000
_cell_length_c   12.57100000
_cell_angle_alpha   84.81650000
_cell_angle_beta   72.50780000
_cell_angle_gamma   72.50780000
_symmetry_Int_Tables_number   1
_chemical_formula_structural   ZnH2C8S2(NO)4
_chemical_formula_sum   'Zn2 H4 C16 S4 N8 O8'
_cell_volume   1086.35332759
_cell_formula_units_Z   2
loop_
 _symmetry_equiv_pos_site_id
 _symmetry_equiv_pos_as_xyz
  1  'x, y, z'
loop_
 _atom_site_type_symbol
 _atom_site_label
 _atom_site_symmetry_multiplicity
 _atom_site_fract_x
 _atom_site_fract_y
 _atom_site_fract_z
 _atom_site_occupancy
 _atom_site_charge
  Zn  Zn1  1  0.500000  0.000000  0.000000  1.0  1.1491
  Zn  Zn2  1  0.750000  0.500000  0.500000  1.0  1.1491
  H  H3  1  0.625000  0.852000  0.648000  1.0  0.1411
  H  H4  1  0.125000  0.148000  0.352000  1.0  0.1415
  H  H5  1  0.727000  0.648000  0.148000  1.0  0.1395
  H  H6  1  0.523000  0.352000  0.852000  1.0  0.143
  C  C7  1  0.611300  0.823700  0.808900  1.0  0.6096
  C  C8  1  0.243900  0.176300  0.191100  1.0  0.6107
  C  C9  1  0.579800  0.808900  0.176300  1.0  0.6104
  C  C10  1  0.565000  0.191100  0.823700  1.0  0.6085
  C  C11  1  0.006100  0.308900  0.323700  1.0  0.609
  C  C12  1  0.638700  0.691100  0.676300  1.0  0.61
  C  C13  1  0.685000  0.676300  0.308900  1.0  0.6107
  C  C14  1  0.670200  0.323700  0.691100  1.0  0.6108
  C  C15  1  0.625000  0.797200  0.702800  1.0  -0.343
  C  C16  1  0.625000  0.632000  0.868000  1.0  0.2877
  C  C17  1  0.125000  0.202800  0.297200  1.0  -0.3441
  C  C18  1  0.125000  0.368000  0.132000  1.0  0.29
  C  C19  1  0.672200  0.702800  0.202800  1.0  -0.3429
  C  C20  1  0.507000  0.868000  0.368000  1.0  0.2886
  C  C21  1  0.577800  0.297200  0.797200  1.0  -0.3446
  C  C22  1  0.743000  0.132000  0.632000  1.0  0.2883
  S  S23  1  0.625000  0.534060  0.965940  1.0  -0.075
  S  S24  1  0.125000  0.465940  0.034060  1.0  -0.0742
  S  S25  1  0.409060  0.965940  0.465940  1.0  -0.0756
  S  S26  1  0.840940  0.034060  0.534060  1.0  -0.0741
  N  N27  1  0.613800  0.737500  0.890100  1.0  -0.3285
  N  N28  1  0.241400  0.262500  0.109900  1.0  -0.3276
  N  N29  1  0.496100  0.890100  0.262500  1.0  -0.331
  N  N30  1  0.648700  0.109900  0.737500  1.0  -0.3282
  N  N31  1  0.008600  0.390100  0.237500  1.0  -0.3289
  N  N32  1  0.636200  0.609900  0.762500  1.0  -0.328
  N  N33  1  0.601300  0.762500  0.390100  1.0  -0.3275
  N  N34  1  0.753900  0.237500  0.609900  1.0  -0.3262
  O  O35  1  0.603320  0.916190  0.843970  1.0  -0.5754
  O  O36  1  0.363480  0.083810  0.156030  1.0  -0.573
  O  O37  1  0.552710  0.843970  0.083810  1.0  -0.576
  O  O38  1  0.480490  0.156030  0.916190  1.0  -0.5745
  O  O39  1  0.886520  0.343970  0.416190  1.0  -0.5746
  O  O40  1  0.646680  0.656030  0.583810  1.0  -0.5762
  O  O41  1  0.769510  0.583810  0.343970  1.0  -0.5744
  O  O42  1  0.697290  0.416190  0.656030  1.0  -0.5741
