# generated using pymatgen
data_UH2(CO)4
_symmetry_space_group_name_H-M   'P 1'
_cell_length_a   6.60590000
_cell_length_b   9.86380000
_cell_length_c   13.18700000
_cell_angle_alpha   79.31700000
_cell_angle_beta   86.34900000
_cell_angle_gamma   83.79400000
_symmetry_Int_Tables_number   1
_chemical_formula_structural   UH2(CO)4
_chemical_formula_sum   'U4 H8 C16 O16'
_cell_volume   838.57643608
_cell_formula_units_Z   4
loop_
 _symmetry_equiv_pos_site_id
 _symmetry_equiv_pos_as_xyz
  1  'x, y, z'
loop_
 _atom_site_type_symbol
 _atom_site_label
 _atom_site_symmetry_multiplicity
 _atom_site_fract_x
 _atom_site_fract_y
 _atom_site_fract_z
 _atom_site_occupancy
 _atom_site_charge
  U  U1  1  0.616840  0.386400  0.193480  1.0  1.1214
  U  U2  1  0.948760  0.831660  0.254780  1.0  1.562
  U  U3  1  0.383160  0.613600  0.806520  1.0  1.1297
  U  U4  1  0.051240  0.168340  0.745220  1.0  1.5586
  H  H5  1  0.339800  0.398000  0.448200  1.0  0.1057
  H  H6  1  0.680600  0.359500  0.468900  1.0  0.0942
  H  H7  1  0.773000  0.964500  0.976200  1.0  0.1124
  H  H8  1  0.543600  0.818300  0.051600  1.0  0.0843
  H  H9  1  0.660200  0.602000  0.551800  1.0  0.1056
  H  H10  1  0.319400  0.640500  0.531100  1.0  0.0986
  H  H11  1  0.227000  0.035500  0.023800  1.0  0.1122
  H  H12  1  0.456400  0.181700  0.948400  1.0  0.0889
  C  C13  1  0.328400  0.582800  0.344200  1.0  0.717
  C  C14  1  0.399200  0.486300  0.441300  1.0  -0.1497
  C  C15  1  0.633900  0.458700  0.457500  1.0  -0.1428
  C  C16  1  0.758700  0.541100  0.372100  1.0  0.7139
  C  C17  1  0.740400  0.100100  0.079600  1.0  0.7136
  C  C18  1  0.661200  0.013600  0.011600  1.0  -0.1651
  C  C19  1  0.502200  0.911800  0.065400  1.0  -0.142
  C  C20  1  0.447800  0.905200  0.177700  1.0  0.721
  C  C21  1  0.671600  0.417200  0.655800  1.0  0.7186
  C  C22  1  0.600800  0.513700  0.558700  1.0  -0.1363
  C  C23  1  0.366100  0.541300  0.542500  1.0  -0.145
  C  C24  1  0.241300  0.458900  0.627900  1.0  0.7141
  C  C25  1  0.259600  0.899900  0.920400  1.0  0.7131
  C  C26  1  0.338800  0.986400  0.988400  1.0  -0.1652
  C  C27  1  0.497800  0.088200  0.934600  1.0  -0.1416
  C  C28  1  0.552200  0.094800  0.822300  1.0  0.7231
  O  O29  1  0.406800  0.562700  0.257500  1.0  -0.6708
  O  O30  1  0.194200  0.679100  0.355000  1.0  -0.6325
  O  O31  1  0.817500  0.485700  0.295400  1.0  -0.684
  O  O32  1  0.785200  0.661800  0.378900  1.0  -0.6012
  O  O33  1  0.655300  0.218100  0.084000  1.0  -0.6772
  O  O34  1  0.894100  0.046300  0.132100  1.0  -0.6962
  O  O35  1  0.587700  0.887500  0.241400  1.0  -0.6909
  O  O36  1  0.263600  0.922700  0.208500  1.0  -0.7044
  O  O37  1  0.593200  0.437300  0.742500  1.0  -0.6739
  O  O38  1  0.805800  0.320900  0.645000  1.0  -0.6321
  O  O39  1  0.182500  0.514300  0.704600  1.0  -0.6854
  O  O40  1  0.214800  0.338200  0.621100  1.0  -0.603
  O  O41  1  0.344700  0.781900  0.916000  1.0  -0.6776
  O  O42  1  0.105900  0.953700  0.867900  1.0  -0.696
  O  O43  1  0.412300  0.112500  0.758600  1.0  -0.6903
  O  O44  1  0.736400  0.077300  0.791500  1.0  -0.7051
