# generated using pymatgen
data_U5H12(C12O23)2
_symmetry_space_group_name_H-M   'P 1'
_cell_length_a   22.57100000
_cell_length_b   22.57100000
_cell_length_c   22.57100000
_cell_angle_alpha   90.00000000
_cell_angle_beta   90.00000000
_cell_angle_gamma   90.00000000
_symmetry_Int_Tables_number   1
_chemical_formula_structural   U5H12(C12O23)2
_chemical_formula_sum   'U20 H48 C96 O184'
_cell_volume   11498.79687541
_cell_formula_units_Z   4
loop_
 _symmetry_equiv_pos_site_id
 _symmetry_equiv_pos_as_xyz
  1  'x, y, z'
loop_
 _atom_site_type_symbol
 _atom_site_label
 _atom_site_symmetry_multiplicity
 _atom_site_fract_x
 _atom_site_fract_y
 _atom_site_fract_z
 _atom_site_occupancy
 _atom_site_charge
  U  U1  1  0.796920  0.796920  0.796920  1.0  2.6283
  U  U2  1  0.203080  0.203080  0.796920  1.0  2.6278
  U  U3  1  0.203080  0.796920  0.203080  1.0  2.6279
  U  U4  1  0.796920  0.203080  0.203080  1.0  2.6281
  U  U5  1  0.796920  0.796920  0.203080  1.0  2.6283
  U  U6  1  0.203080  0.203080  0.203080  1.0  2.6277
  U  U7  1  0.796920  0.203080  0.796920  1.0  2.6282
  U  U8  1  0.203080  0.796920  0.796920  1.0  2.6279
  U  U9  1  0.500000  0.000000  0.770780  1.0  2.5948
  U  U10  1  0.500000  0.000000  0.229220  1.0  2.5962
  U  U11  1  0.770780  0.500000  0.000000  1.0  2.5998
  U  U12  1  0.229220  0.500000  0.000000  1.0  2.6016
  U  U13  1  0.000000  0.770780  0.500000  1.0  2.5983
  U  U14  1  0.000000  0.229220  0.500000  1.0  2.5986
  U  U15  1  0.000000  0.500000  0.229220  1.0  2.5962
  U  U16  1  0.000000  0.500000  0.770780  1.0  2.5948
  U  U17  1  0.500000  0.770780  0.000000  1.0  2.5983
  U  U18  1  0.500000  0.229220  0.000000  1.0  2.5986
  U  U19  1  0.770780  0.000000  0.500000  1.0  2.5998
  U  U20  1  0.229220  0.000000  0.500000  1.0  2.6016
  H  H21  1  0.688600  0.940000  0.688600  1.0  0.2189
  H  H22  1  0.311400  0.060000  0.688600  1.0  0.2175
  H  H23  1  0.311400  0.940000  0.311400  1.0  0.2185
  H  H24  1  0.688600  0.060000  0.311400  1.0  0.2192
  H  H25  1  0.688600  0.688600  0.940000  1.0  0.2183
  H  H26  1  0.688600  0.311400  0.060000  1.0  0.2172
  H  H27  1  0.311400  0.311400  0.940000  1.0  0.2173
  H  H28  1  0.311400  0.688600  0.060000  1.0  0.216
  H  H29  1  0.940000  0.688600  0.688600  1.0  0.2189
  H  H30  1  0.060000  0.688600  0.311400  1.0  0.2192
  H  H31  1  0.940000  0.311400  0.311400  1.0  0.2187
  H  H32  1  0.060000  0.311400  0.688600  1.0  0.2182
  H  H33  1  0.940000  0.688600  0.311400  1.0  0.2196
  H  H34  1  0.060000  0.311400  0.311400  1.0  0.2189
  H  H35  1  0.940000  0.311400  0.688600  1.0  0.2181
  H  H36  1  0.060000  0.688600  0.688600  1.0  0.2186
  H  H37  1  0.688600  0.688600  0.060000  1.0  0.2182
  H  H38  1  0.311400  0.688600  0.940000  1.0  0.2177
  H  H39  1  0.311400  0.311400  0.060000  1.0  0.2156
  H  H40  1  0.688600  0.311400  0.940000  1.0  0.2177
  H  H41  1  0.688600  0.940000  0.311400  1.0  0.2198
  H  H42  1  0.688600  0.060000  0.688600  1.0  0.2184
  H  H43  1  0.311400  0.940000  0.688600  1.0  0.2182
  H  H44  1  0.311400  0.060000  0.311400  1.0  0.2183
  H  H45  1  0.711800  0.000000  0.798300  1.0  0.2138
  H  H46  1  0.288200  0.000000  0.798300  1.0  0.2136
  H  H47  1  0.288200  0.000000  0.201700  1.0  0.2145
  H  H48  1  0.711800  0.000000  0.201700  1.0  0.2151
  H  H49  1  0.798300  0.711800  0.000000  1.0  0.2123
  H  H50  1  0.798300  0.288200  0.000000  1.0  0.2118
  H  H51  1  0.201700  0.288200  0.000000  1.0  0.2127
  H  H52  1  0.201700  0.711800  0.000000  1.0  0.2128
  H  H53  1  0.000000  0.798300  0.711800  1.0  0.212
  H  H54  1  0.000000  0.798300  0.288200  1.0  0.2132
  H  H55  1  0.000000  0.201700  0.288200  1.0  0.2107
  H  H56  1  0.000000  0.201700  0.711800  1.0  0.21
  H  H57  1  0.000000  0.711800  0.201700  1.0  0.2145
  H  H58  1  0.000000  0.288200  0.201700  1.0  0.2147
  H  H59  1  0.000000  0.288200  0.798300  1.0  0.2135
  H  H60  1  0.000000  0.711800  0.798300  1.0  0.2131
  H  H61  1  0.711800  0.798300  0.000000  1.0  0.2131
  H  H62  1  0.288200  0.798300  0.000000  1.0  0.2129
  H  H63  1  0.288200  0.201700  0.000000  1.0  0.2109
  H  H64  1  0.711800  0.201700  0.000000  1.0  0.211
  H  H65  1  0.798300  0.000000  0.288200  1.0  0.2117
  H  H66  1  0.798300  0.000000  0.711800  1.0  0.2103
  H  H67  1  0.201700  0.000000  0.711800  1.0  0.2115
  H  H68  1  0.201700  0.000000  0.288200  1.0  0.2128
  C  C69  1  0.745100  0.898500  0.745100  1.0  0.8229
  C  C70  1  0.718100  0.951800  0.718100  1.0  0.0103
  C  C71  1  0.254900  0.101500  0.745100  1.0  0.8227
  C  C72  1  0.281900  0.048200  0.718100  1.0  0.0105
  C  C73  1  0.254900  0.898500  0.254900  1.0  0.8212
  C  C74  1  0.281900  0.951800  0.281900  1.0  0.01
  C  C75  1  0.745100  0.101500  0.254900  1.0  0.8231
  C  C76  1  0.718100  0.048200  0.281900  1.0  0.0103
  C  C77  1  0.745100  0.745100  0.898500  1.0  0.8266
  C  C78  1  0.718100  0.718100  0.951800  1.0  0.0143
  C  C79  1  0.745100  0.254900  0.101500  1.0  0.8313
  C  C80  1  0.718100  0.281900  0.048200  1.0  0.0144
  C  C81  1  0.254900  0.254900  0.898500  1.0  0.8271
  C  C82  1  0.281900  0.281900  0.951800  1.0  0.0137
  C  C83  1  0.254900  0.745100  0.101500  1.0  0.8306
  C  C84  1  0.281900  0.718100  0.048200  1.0  0.0141
  C  C85  1  0.898500  0.745100  0.745100  1.0  0.8244
  C  C86  1  0.951800  0.718100  0.718100  1.0  0.012
  C  C87  1  0.101500  0.745100  0.254900  1.0  0.822
  C  C88  1  0.048200  0.718100  0.281900  1.0  0.0149
  C  C89  1  0.898500  0.254900  0.254900  1.0  0.8244
  C  C90  1  0.951800  0.281900  0.281900  1.0  0.0131
  C  C91  1  0.101500  0.254900  0.745100  1.0  0.8226
  C  C92  1  0.048200  0.281900  0.718100  1.0  0.0151
  C  C93  1  0.898500  0.745100  0.254900  1.0  0.8246
  C  C94  1  0.951800  0.718100  0.281900  1.0  0.0128
  C  C95  1  0.101500  0.254900  0.254900  1.0  0.8219
  C  C96  1  0.048200  0.281900  0.281900  1.0  0.0151
  C  C97  1  0.898500  0.254900  0.745100  1.0  0.8244
  C  C98  1  0.951800  0.281900  0.718100  1.0  0.0123
  C  C99  1  0.101500  0.745100  0.745100  1.0  0.8223
  C  C100  1  0.048200  0.718100  0.718100  1.0  0.0147
  C  C101  1  0.745100  0.745100  0.101500  1.0  0.8313
  C  C102  1  0.718100  0.718100  0.048200  1.0  0.0141
  C  C103  1  0.254900  0.745100  0.898500  1.0  0.8268
  C  C104  1  0.281900  0.718100  0.951800  1.0  0.0137
  C  C105  1  0.254900  0.254900  0.101500  1.0  0.831
  C  C106  1  0.281900  0.281900  0.048200  1.0  0.0141
  C  C107  1  0.745100  0.254900  0.898500  1.0  0.8266
  C  C108  1  0.718100  0.281900  0.951800  1.0  0.0145
  C  C109  1  0.745100  0.898500  0.254900  1.0  0.8217
  C  C110  1  0.718100  0.951800  0.281900  1.0  0.0103
  C  C111  1  0.745100  0.101500  0.745100  1.0  0.8237
  C  C112  1  0.718100  0.048200  0.718100  1.0  0.0105
  C  C113  1  0.254900  0.898500  0.745100  1.0  0.822
  C  C114  1  0.281900  0.951800  0.718100  1.0  0.01
  C  C115  1  0.254900  0.101500  0.254900  1.0  0.8226
  C  C116  1  0.281900  0.048200  0.281900  1.0  0.0101
  C  C117  1  0.691700  0.000000  0.759800  1.0  -0.0029
  C  C118  1  0.626300  0.000000  0.767400  1.0  0.6293
  C  C119  1  0.308300  0.000000  0.759800  1.0  -0.0033
  C  C120  1  0.373700  0.000000  0.767400  1.0  0.6291
  C  C121  1  0.308300  0.000000  0.240200  1.0  -0.0025
  C  C122  1  0.373700  0.000000  0.232600  1.0  0.6276
  C  C123  1  0.691700  0.000000  0.240200  1.0  -0.003
  C  C124  1  0.626300  0.000000  0.232600  1.0  0.6282
  C  C125  1  0.759800  0.691700  0.000000  1.0  -0.0045
  C  C126  1  0.767400  0.626300  0.000000  1.0  0.6258
  C  C127  1  0.759800  0.308300  0.000000  1.0  -0.0042
  C  C128  1  0.767400  0.373700  0.000000  1.0  0.6258
  C  C129  1  0.240200  0.308300  0.000000  1.0  -0.0042
  C  C130  1  0.232600  0.373700  0.000000  1.0  0.626
  C  C131  1  0.240200  0.691700  0.000000  1.0  -0.0047
  C  C132  1  0.232600  0.626300  0.000000  1.0  0.6236
  C  C133  1  0.000000  0.759800  0.691700  1.0  -0.0071
  C  C134  1  0.000000  0.767400  0.626300  1.0  0.6292
  C  C135  1  0.000000  0.759800  0.308300  1.0  -0.0088
  C  C136  1  0.000000  0.767400  0.373700  1.0  0.6299
  C  C137  1  0.000000  0.240200  0.308300  1.0  -0.0082
  C  C138  1  0.000000  0.232600  0.373700  1.0  0.6294
  C  C139  1  0.000000  0.240200  0.691700  1.0  -0.007
  C  C140  1  0.000000  0.232600  0.626300  1.0  0.627
  C  C141  1  0.000000  0.691700  0.240200  1.0  -0.0052
  C  C142  1  0.000000  0.626300  0.232600  1.0  0.6254
  C  C143  1  0.000000  0.308300  0.240200  1.0  -0.0041
  C  C144  1  0.000000  0.373700  0.232600  1.0  0.6272
  C  C145  1  0.000000  0.308300  0.759800  1.0  -0.0054
  C  C146  1  0.000000  0.373700  0.767400  1.0  0.6283
  C  C147  1  0.000000  0.691700  0.759800  1.0  -0.005
  C  C148  1  0.000000  0.626300  0.767400  1.0  0.6268
  C  C149  1  0.691700  0.759800  0.000000  1.0  -0.0065
  C  C150  1  0.626300  0.767400  0.000000  1.0  0.6264
  C  C151  1  0.308300  0.759800  0.000000  1.0  -0.0069
  C  C152  1  0.373700  0.767400  0.000000  1.0  0.6262
  C  C153  1  0.308300  0.240200  0.000000  1.0  -0.0069
  C  C154  1  0.373700  0.232600  0.000000  1.0  0.6261
  C  C155  1  0.691700  0.240200  0.000000  1.0  -0.0057
  C  C156  1  0.626300  0.232600  0.000000  1.0  0.6257
  C  C157  1  0.759800  0.000000  0.308300  1.0  -0.0043
  C  C158  1  0.767400  0.000000  0.373700  1.0  0.6306
  C  C159  1  0.759800  0.000000  0.691700  1.0  -0.0021
  C  C160  1  0.767400  0.000000  0.626300  1.0  0.6293
  C  C161  1  0.240200  0.000000  0.691700  1.0  -0.0033
  C  C162  1  0.232600  0.000000  0.626300  1.0  0.6287
  C  C163  1  0.240200  0.000000  0.308300  1.0  -0.0044
  C  C164  1  0.232600  0.000000  0.373700  1.0  0.6296
  O  O165  1  0.790300  0.876100  0.722300  1.0  -0.5364
  O  O166  1  0.598700  0.048000  0.758400  1.0  -0.529
  O  O167  1  0.209700  0.123900  0.722300  1.0  -0.5359
  O  O168  1  0.401300  0.952000  0.758400  1.0  -0.5301
  O  O169  1  0.209700  0.876100  0.277700  1.0  -0.5358
  O  O170  1  0.401300  0.048000  0.241600  1.0  -0.5285
  O  O171  1  0.790300  0.123900  0.277700  1.0  -0.538
  O  O172  1  0.598700  0.952000  0.241600  1.0  -0.5289
  O  O173  1  0.722300  0.790300  0.876100  1.0  -0.5378
  O  O174  1  0.758400  0.598700  0.048000  1.0  -0.5325
  O  O175  1  0.722300  0.209700  0.123900  1.0  -0.5369
  O  O176  1  0.758400  0.401300  0.952000  1.0  -0.5324
  O  O177  1  0.277700  0.209700  0.876100  1.0  -0.5388
  O  O178  1  0.241600  0.401300  0.048000  1.0  -0.5346
  O  O179  1  0.277700  0.790300  0.123900  1.0  -0.5392
  O  O180  1  0.241600  0.598700  0.952000  1.0  -0.5329
  O  O181  1  0.876100  0.722300  0.790300  1.0  -0.5389
  O  O182  1  0.048000  0.758400  0.598700  1.0  -0.5267
  O  O183  1  0.123900  0.722300  0.209700  1.0  -0.5387
  O  O184  1  0.952000  0.758400  0.401300  1.0  -0.5268
  O  O185  1  0.876100  0.277700  0.209700  1.0  -0.5396
  O  O186  1  0.048000  0.241600  0.401300  1.0  -0.5274
  O  O187  1  0.123900  0.277700  0.790300  1.0  -0.5397
  O  O188  1  0.952000  0.241600  0.598700  1.0  -0.5262
  O  O189  1  0.876100  0.790300  0.277700  1.0  -0.5395
  O  O190  1  0.048000  0.598700  0.241600  1.0  -0.5289
  O  O191  1  0.123900  0.209700  0.277700  1.0  -0.5383
  O  O192  1  0.952000  0.401300  0.241600  1.0  -0.5275
  O  O193  1  0.876100  0.209700  0.722300  1.0  -0.5376
  O  O194  1  0.048000  0.401300  0.758400  1.0  -0.5286
  O  O195  1  0.123900  0.790300  0.722300  1.0  -0.5375
  O  O196  1  0.952000  0.598700  0.758400  1.0  -0.5267
  O  O197  1  0.790300  0.722300  0.123900  1.0  -0.5366
  O  O198  1  0.598700  0.758400  0.952000  1.0  -0.5298
  O  O199  1  0.209700  0.722300  0.876100  1.0  -0.5357
  O  O200  1  0.401300  0.758400  0.048000  1.0  -0.5307
  O  O201  1  0.209700  0.277700  0.123900  1.0  -0.5369
  O  O202  1  0.401300  0.241600  0.952000  1.0  -0.5299
  O  O203  1  0.790300  0.277700  0.876100  1.0  -0.5374
  O  O204  1  0.598700  0.241600  0.048000  1.0  -0.5315
  O  O205  1  0.722300  0.876100  0.209700  1.0  -0.5385
  O  O206  1  0.758400  0.048000  0.401300  1.0  -0.5288
  O  O207  1  0.722300  0.123900  0.790300  1.0  -0.5401
  O  O208  1  0.758400  0.952000  0.598700  1.0  -0.5299
  O  O209  1  0.277700  0.876100  0.790300  1.0  -0.5395
  O  O210  1  0.241600  0.048000  0.598700  1.0  -0.53
  O  O211  1  0.277700  0.123900  0.209700  1.0  -0.5406
  O  O212  1  0.241600  0.952000  0.401300  1.0  -0.5309
  O  O213  1  0.209700  0.123900  0.277700  1.0  -0.5371
  O  O214  1  0.401300  0.952000  0.241600  1.0  -0.5307
  O  O215  1  0.790300  0.876100  0.277700  1.0  -0.5371
  O  O216  1  0.598700  0.048000  0.241600  1.0  -0.529
  O  O217  1  0.790300  0.123900  0.722300  1.0  -0.5365
  O  O218  1  0.598700  0.952000  0.758400  1.0  -0.5279
  O  O219  1  0.209700  0.876100  0.722300  1.0  -0.5354
  O  O220  1  0.401300  0.048000  0.758400  1.0  -0.5285
  O  O221  1  0.277700  0.209700  0.123900  1.0  -0.5389
  O  O222  1  0.241600  0.401300  0.952000  1.0  -0.5331
  O  O223  1  0.277700  0.790300  0.876100  1.0  -0.5387
  O  O224  1  0.241600  0.598700  0.048000  1.0  -0.5335
  O  O225  1  0.722300  0.790300  0.123900  1.0  -0.5383
  O  O226  1  0.758400  0.598700  0.952000  1.0  -0.5325
  O  O227  1  0.722300  0.209700  0.876100  1.0  -0.5371
  O  O228  1  0.758400  0.401300  0.048000  1.0  -0.5333
  O  O229  1  0.123900  0.277700  0.209700  1.0  -0.5396
  O  O230  1  0.952000  0.241600  0.401300  1.0  -0.5262
  O  O231  1  0.876100  0.277700  0.790300  1.0  -0.5407
  O  O232  1  0.048000  0.241600  0.598700  1.0  -0.5269
  O  O233  1  0.123900  0.722300  0.790300  1.0  -0.5382
  O  O234  1  0.952000  0.758400  0.598700  1.0  -0.5266
  O  O235  1  0.876100  0.722300  0.209700  1.0  -0.5386
  O  O236  1  0.048000  0.758400  0.401300  1.0  -0.5275
  O  O237  1  0.123900  0.209700  0.722300  1.0  -0.5378
  O  O238  1  0.952000  0.401300  0.758400  1.0  -0.5272
  O  O239  1  0.876100  0.790300  0.722300  1.0  -0.5378
  O  O240  1  0.048000  0.598700  0.758400  1.0  -0.5283
  O  O241  1  0.123900  0.790300  0.277700  1.0  -0.5386
  O  O242  1  0.952000  0.598700  0.241600  1.0  -0.5274
  O  O243  1  0.876100  0.209700  0.277700  1.0  -0.5379
  O  O244  1  0.048000  0.401300  0.241600  1.0  -0.5287
  O  O245  1  0.209700  0.277700  0.876100  1.0  -0.5367
  O  O246  1  0.401300  0.241600  0.048000  1.0  -0.5308
  O  O247  1  0.790300  0.277700  0.123900  1.0  -0.5381
  O  O248  1  0.598700  0.241600  0.952000  1.0  -0.5296
  O  O249  1  0.790300  0.722300  0.876100  1.0  -0.5365
  O  O250  1  0.598700  0.758400  0.048000  1.0  -0.5316
  O  O251  1  0.209700  0.722300  0.123900  1.0  -0.5351
  O  O252  1  0.401300  0.758400  0.952000  1.0  -0.53
  O  O253  1  0.277700  0.123900  0.790300  1.0  -0.5407
  O  O254  1  0.241600  0.952000  0.598700  1.0  -0.5301
  O  O255  1  0.277700  0.876100  0.209700  1.0  -0.5399
  O  O256  1  0.241600  0.048000  0.401300  1.0  -0.53
  O  O257  1  0.722300  0.123900  0.209700  1.0  -0.5392
  O  O258  1  0.758400  0.952000  0.401300  1.0  -0.5308
  O  O259  1  0.722300  0.876100  0.790300  1.0  -0.5389
  O  O260  1  0.758400  0.048000  0.598700  1.0  -0.5286
  O  O261  1  0.751500  0.751500  0.751500  1.0  -0.4507
  O  O262  1  0.842300  0.842300  0.842300  1.0  -0.436
  O  O263  1  0.248500  0.248500  0.751500  1.0  -0.4507
  O  O264  1  0.157700  0.157700  0.842300  1.0  -0.4393
  O  O265  1  0.248500  0.751500  0.248500  1.0  -0.4521
  O  O266  1  0.157700  0.842300  0.157700  1.0  -0.4388
  O  O267  1  0.751500  0.248500  0.248500  1.0  -0.4518
  O  O268  1  0.842300  0.157700  0.157700  1.0  -0.4374
  O  O269  1  0.751500  0.751500  0.248500  1.0  -0.4523
  O  O270  1  0.842300  0.842300  0.157700  1.0  -0.4369
  O  O271  1  0.248500  0.248500  0.248500  1.0  -0.4511
  O  O272  1  0.157700  0.157700  0.157700  1.0  -0.439
  O  O273  1  0.751500  0.248500  0.751500  1.0  -0.4519
  O  O274  1  0.842300  0.157700  0.842300  1.0  -0.4386
  O  O275  1  0.248500  0.751500  0.751500  1.0  -0.4496
  O  O276  1  0.157700  0.842300  0.842300  1.0  -0.4373
  O  O277  1  0.500000  0.034500  0.842900  1.0  -0.5803
  O  O278  1  0.500000  0.974200  0.698900  1.0  -0.462
  O  O279  1  0.500000  0.102400  0.723700  1.0  -0.591
  O  O280  1  0.500000  0.965500  0.842900  1.0  -0.5821
  O  O281  1  0.500000  0.025800  0.698900  1.0  -0.4662
  O  O282  1  0.500000  0.897600  0.723700  1.0  -0.592
  O  O283  1  0.500000  0.034500  0.157100  1.0  -0.5819
  O  O284  1  0.500000  0.974200  0.301100  1.0  -0.4642
  O  O285  1  0.500000  0.102400  0.276300  1.0  -0.5908
  O  O286  1  0.500000  0.965500  0.157100  1.0  -0.5809
  O  O287  1  0.500000  0.025800  0.301100  1.0  -0.4662
  O  O288  1  0.500000  0.897600  0.276300  1.0  -0.5925
  O  O289  1  0.842900  0.500000  0.034500  1.0  -0.5885
  O  O290  1  0.698900  0.500000  0.974200  1.0  -0.4627
  O  O291  1  0.723700  0.500000  0.102400  1.0  -0.5663
  O  O292  1  0.842900  0.500000  0.965500  1.0  -0.5887
  O  O293  1  0.698900  0.500000  0.025800  1.0  -0.4632
  O  O294  1  0.723700  0.500000  0.897600  1.0  -0.5935
  O  O295  1  0.157100  0.500000  0.034500  1.0  -0.5863
  O  O296  1  0.301100  0.500000  0.974200  1.0  -0.4625
  O  O297  1  0.276300  0.500000  0.102400  1.0  -0.566
  O  O298  1  0.157100  0.500000  0.965500  1.0  -0.5885
  O  O299  1  0.301100  0.500000  0.025800  1.0  -0.4623
  O  O300  1  0.276300  0.500000  0.897600  1.0  -0.5942
  O  O301  1  0.034500  0.842900  0.500000  1.0  -0.5825
  O  O302  1  0.974200  0.698900  0.500000  1.0  -0.4637
  O  O303  1  0.102400  0.723700  0.500000  1.0  -0.5891
  O  O304  1  0.965500  0.842900  0.500000  1.0  -0.5811
  O  O305  1  0.025800  0.698900  0.500000  1.0  -0.4644
  O  O306  1  0.897600  0.723700  0.500000  1.0  -0.5899
  O  O307  1  0.034500  0.157100  0.500000  1.0  -0.5827
  O  O308  1  0.974200  0.301100  0.500000  1.0  -0.463
  O  O309  1  0.102400  0.276300  0.500000  1.0  -0.5893
  O  O310  1  0.965500  0.157100  0.500000  1.0  -0.5825
  O  O311  1  0.025800  0.301100  0.500000  1.0  -0.464
  O  O312  1  0.897600  0.276300  0.500000  1.0  -0.5903
  O  O313  1  0.034500  0.500000  0.157100  1.0  -0.5819
  O  O314  1  0.974200  0.500000  0.301100  1.0  -0.4641
  O  O315  1  0.102400  0.500000  0.276300  1.0  -0.5892
  O  O316  1  0.965500  0.500000  0.157100  1.0  -0.5812
  O  O317  1  0.025800  0.500000  0.301100  1.0  -0.465
  O  O318  1  0.897600  0.500000  0.276300  1.0  -0.5888
  O  O319  1  0.034500  0.500000  0.842900  1.0  -0.5817
  O  O320  1  0.974200  0.500000  0.698900  1.0  -0.462
  O  O321  1  0.102400  0.500000  0.723700  1.0  -0.5889
  O  O322  1  0.965500  0.500000  0.842900  1.0  -0.5816
  O  O323  1  0.025800  0.500000  0.698900  1.0  -0.4633
  O  O324  1  0.897600  0.500000  0.723700  1.0  -0.5889
  O  O325  1  0.500000  0.842900  0.965500  1.0  -0.587
  O  O326  1  0.500000  0.698900  0.025800  1.0  -0.465
  O  O327  1  0.500000  0.723700  0.897600  1.0  -0.5896
  O  O328  1  0.500000  0.842900  0.034500  1.0  -0.5844
  O  O329  1  0.500000  0.698900  0.974200  1.0  -0.4659
  O  O330  1  0.500000  0.723700  0.102400  1.0  -0.5674
  O  O331  1  0.500000  0.157100  0.965500  1.0  -0.5869
  O  O332  1  0.500000  0.301100  0.025800  1.0  -0.4634
  O  O333  1  0.500000  0.276300  0.897600  1.0  -0.5905
  O  O334  1  0.500000  0.157100  0.034500  1.0  -0.5861
  O  O335  1  0.500000  0.301100  0.974200  1.0  -0.4658
  O  O336  1  0.500000  0.276300  0.102400  1.0  -0.5672
  O  O337  1  0.842900  0.034500  0.500000  1.0  -0.5831
  O  O338  1  0.698900  0.974200  0.500000  1.0  -0.4611
  O  O339  1  0.723700  0.102400  0.500000  1.0  -0.592
  O  O340  1  0.842900  0.965500  0.500000  1.0  -0.5844
  O  O341  1  0.698900  0.025800  0.500000  1.0  -0.4644
  O  O342  1  0.723700  0.897600  0.500000  1.0  -0.5937
  O  O343  1  0.157100  0.034500  0.500000  1.0  -0.583
  O  O344  1  0.301100  0.974200  0.500000  1.0  -0.4613
  O  O345  1  0.276300  0.102400  0.500000  1.0  -0.5919
  O  O346  1  0.157100  0.965500  0.500000  1.0  -0.5834
  O  O347  1  0.301100  0.025800  0.500000  1.0  -0.4639
  O  O348  1  0.276300  0.897600  0.500000  1.0  -0.5939
