# generated using pymatgen
data_CuH3C2O3
_symmetry_space_group_name_H-M   'P 1'
_cell_length_a   9.73200000
_cell_length_b   10.59600000
_cell_length_c   12.59200000
_cell_angle_alpha   111.37000000
_cell_angle_beta   106.05000000
_cell_angle_gamma   96.36000000
_symmetry_Int_Tables_number   1
_chemical_formula_structural   CuH3C2O3
_chemical_formula_sum   'Cu8 H24 C16 O24'
_cell_volume   1129.15692802
_cell_formula_units_Z   8
loop_
 _symmetry_equiv_pos_site_id
 _symmetry_equiv_pos_as_xyz
  1  'x, y, z'
loop_
 _atom_site_type_symbol
 _atom_site_label
 _atom_site_symmetry_multiplicity
 _atom_site_fract_x
 _atom_site_fract_y
 _atom_site_fract_z
 _atom_site_occupancy
 _atom_site_charge
  Cu  Cu1  1  0.643870  0.992880  0.595660  1.0  0.9567
  Cu  Cu2  1  0.933020  0.109310  0.587790  1.0  1.0553
  Cu  Cu3  1  0.757850  0.793970  0.414540  1.0  1.091
  Cu  Cu4  1  0.340290  0.893400  0.605890  1.0  1.087
  Cu  Cu5  1  0.356130  0.007120  0.404340  1.0  0.9591
  Cu  Cu6  1  0.066980  0.890690  0.412210  1.0  1.0514
  Cu  Cu7  1  0.242150  0.206030  0.585460  1.0  1.0889
  Cu  Cu8  1  0.659710  0.106600  0.394110  1.0  1.087
  H  H9  1  0.640000  0.487000  0.043300  1.0  0.0983
  H  H10  1  0.597400  0.600600  0.997300  1.0  0.1217
  H  H11  1  0.124100  0.441900  0.498300  1.0  0.1183
  H  H12  1  0.994600  0.417900  0.380800  1.0  0.1236
  H  H13  1  0.365800  0.009600  0.017100  1.0  0.1264
  H  H14  1  0.480100  0.134900  0.029800  1.0  0.1344
  H  H15  1  0.379400  0.560100  0.497200  1.0  0.13
  H  H16  1  0.508600  0.589400  0.615900  1.0  0.1393
  H  H17  1  0.848900  0.891000  0.629300  1.0  0.4467
  H  H18  1  0.165500  0.047700  0.675300  1.0  0.379
  H  H19  1  0.701200  0.197300  0.598200  1.0  0.4781
  H  H20  1  0.484600  0.127100  0.668800  1.0  0.4174
  H  H21  1  0.360000  0.513000  0.956700  1.0  0.1034
  H  H22  1  0.402600  0.399400  0.002700  1.0  0.1218
  H  H23  1  0.875900  0.558100  0.501700  1.0  0.1193
  H  H24  1  0.005400  0.582100  0.619200  1.0  0.1236
  H  H25  1  0.634200  0.990400  0.982900  1.0  0.1268
  H  H26  1  0.519900  0.865100  0.970200  1.0  0.1376
  H  H27  1  0.620600  0.439900  0.502800  1.0  0.13
  H  H28  1  0.491400  0.410600  0.384100  1.0  0.139
  H  H29  1  0.151100  0.109000  0.370700  1.0  0.4466
  H  H30  1  0.834500  0.952300  0.324700  1.0  0.3697
  H  H31  1  0.298800  0.802700  0.401800  1.0  0.4776
  H  H32  1  0.515400  0.872900  0.331200  1.0  0.4173
  C  C33  1  0.584100  0.641900  0.165100  1.0  0.7233
  C  C34  1  0.569600  0.544400  0.037300  1.0  -0.2541
  C  C35  1  0.935400  0.309900  0.474300  1.0  0.7595
  C  C36  1  0.019200  0.433300  0.465300  1.0  -0.2884
  C  C37  1  0.365600  0.003200  0.853300  1.0  0.7258
  C  C38  1  0.440300  0.034900  0.986000  1.0  -0.2823
  C  C39  1  0.565500  0.688300  0.517700  1.0  0.742
  C  C40  1  0.484200  0.568100  0.530200  1.0  -0.2946
  C  C41  1  0.415900  0.358100  0.834900  1.0  0.7239
  C  C42  1  0.430400  0.455600  0.962700  1.0  -0.2545
  C  C43  1  0.064600  0.690100  0.525700  1.0  0.7595
  C  C44  1  0.980800  0.566700  0.534700  1.0  -0.2895
  C  C45  1  0.634400  0.996800  0.146700  1.0  0.7259
  C  C46  1  0.559700  0.965100  0.014000  1.0  -0.283
  C  C47  1  0.434500  0.311700  0.482300  1.0  0.7503
  C  C48  1  0.515800  0.431900  0.469800  1.0  -0.2948
  O  O49  1  0.703500  0.658100  0.246900  1.0  -0.5817
  O  O50  1  0.482200  0.699500  0.181500  1.0  -0.5984
  O  O51  1  0.005200  0.262800  0.545300  1.0  -0.6384
  O  O52  1  0.800700  0.266100  0.411100  1.0  -0.5908
  O  O53  1  0.247400  0.037000  0.824800  1.0  -0.5991
  O  O54  1  0.427200  0.942600  0.779500  1.0  -0.5829
  O  O55  1  0.643400  0.663800  0.451600  1.0  -0.5916
  O  O56  1  0.546400  0.806600  0.575300  1.0  -0.6542
  O  O57  1  0.825200  0.935800  0.584000  1.0  -0.9763
  O  O58  1  0.125400  0.068800  0.613300  1.0  -0.9906
  O  O59  1  0.740200  0.150800  0.569500  1.0  -0.9985
  O  O60  1  0.468400  0.054500  0.615300  1.0  -0.9329
  O  O61  1  0.296500  0.341900  0.753100  1.0  -0.5813
  O  O62  1  0.517800  0.300500  0.818500  1.0  -0.5986
  O  O63  1  0.994800  0.737200  0.454700  1.0  -0.6408
  O  O64  1  0.199300  0.733900  0.588900  1.0  -0.5917
  O  O65  1  0.752600  0.963000  0.175200  1.0  -0.5991
  O  O66  1  0.572800  0.057400  0.220500  1.0  -0.582
  O  O67  1  0.356600  0.336200  0.548400  1.0  -0.5909
  O  O68  1  0.453600  0.193400  0.424700  1.0  -0.6539
  O  O69  1  0.174800  0.064200  0.416000  1.0  -0.9763
  O  O70  1  0.874600  0.931200  0.386700  1.0  -0.9895
  O  O71  1  0.259800  0.849200  0.430500  1.0  -0.9993
  O  O72  1  0.531600  0.945500  0.384700  1.0  -0.9326
