# generated using pymatgen
data_NdAgH8C14(NO4)2
_symmetry_space_group_name_H-M   'P 1'
_cell_length_a   9.20500000
_cell_length_b   9.74410000
_cell_length_c   22.40150000
_cell_angle_alpha   90.00000000
_cell_angle_beta   90.00000000
_cell_angle_gamma   116.99200000
_symmetry_Int_Tables_number   1
_chemical_formula_structural   NdAgH8C14(NO4)2
_chemical_formula_sum   'Nd4 Ag4 H32 C56 N8 O32'
_cell_volume   1790.41785638
_cell_formula_units_Z   4
loop_
 _symmetry_equiv_pos_site_id
 _symmetry_equiv_pos_as_xyz
  1  'x, y, z'
loop_
 _atom_site_type_symbol
 _atom_site_label
 _atom_site_symmetry_multiplicity
 _atom_site_fract_x
 _atom_site_fract_y
 _atom_site_fract_z
 _atom_site_occupancy
 _atom_site_charge
  Nd  Nd1  1  0.382890  0.141730  0.008870  1.0  2.2916
  Nd  Nd2  1  0.117110  0.858270  0.508870  1.0  2.2924
  Nd  Nd3  1  0.617110  0.858270  0.991130  1.0  2.292
  Nd  Nd4  1  0.882890  0.141730  0.491130  1.0  2.2974
  Ag  Ag5  1  0.981220  0.821120  0.852630  1.0  0.3895
  Ag  Ag6  1  0.518780  0.178880  0.352630  1.0  0.3902
  Ag  Ag7  1  0.018780  0.178880  0.147370  1.0  0.3897
  Ag  Ag8  1  0.481220  0.821120  0.647370  1.0  0.3888
  H  H9  1  0.817200  0.528600  0.932900  1.0  0.0833
  H  H10  1  0.219400  0.680400  0.840300  1.0  0.068
  H  H11  1  0.259700  0.474500  0.869000  1.0  0.1312
  H  H12  1  0.063300  0.283800  0.926400  1.0  0.0956
  H  H13  1  0.008700  0.858600  0.719600  1.0  0.0786
  H  H14  1  0.886900  0.093500  0.831300  1.0  0.0768
  H  H15  1  0.854500  0.234200  0.755900  1.0  0.1352
  H  H16  1  0.898300  0.184400  0.658100  1.0  0.1157
  H  H17  1  0.682800  0.471400  0.432900  1.0  0.084
  H  H18  1  0.280600  0.319600  0.340300  1.0  0.0685
  H  H19  1  0.240300  0.525500  0.369000  1.0  0.1335
  H  H20  1  0.436700  0.716200  0.426400  1.0  0.0956
  H  H21  1  0.491300  0.141400  0.219600  1.0  0.0785
  H  H22  1  0.613100  0.906500  0.331300  1.0  0.0764
  H  H23  1  0.645500  0.765800  0.255900  1.0  0.1347
  H  H24  1  0.601700  0.815600  0.158100  1.0  0.1159
  H  H25  1  0.182800  0.471400  0.067100  1.0  0.0842
  H  H26  1  0.780600  0.319600  0.159700  1.0  0.0689
  H  H27  1  0.740300  0.525500  0.131000  1.0  0.1325
  H  H28  1  0.936700  0.716200  0.073600  1.0  0.0958
  H  H29  1  0.991300  0.141400  0.280400  1.0  0.0786
  H  H30  1  0.113100  0.906500  0.168700  1.0  0.0762
  H  H31  1  0.145500  0.765800  0.244100  1.0  0.1351
  H  H32  1  0.101700  0.815600  0.341900  1.0  0.1158
  H  H33  1  0.317200  0.528600  0.567100  1.0  0.0837
  H  H34  1  0.719400  0.680400  0.659700  1.0  0.0682
  H  H35  1  0.759700  0.474500  0.631000  1.0  0.131
  H  H36  1  0.563300  0.283800  0.573600  1.0  0.0958
  H  H37  1  0.508700  0.858600  0.780400  1.0  0.0787
  H  H38  1  0.386900  0.093500  0.668700  1.0  0.0767
  H  H39  1  0.354500  0.234200  0.744100  1.0  0.1353
  H  H40  1  0.398300  0.184400  0.841900  1.0  0.1153
  C  C41  1  0.917100  0.385800  0.935400  1.0  -0.2267
  C  C42  1  0.905500  0.515900  0.919100  1.0  0.1856
  C  C43  1  0.143400  0.606500  0.865300  1.0  0.1677
  C  C44  1  0.167300  0.482400  0.881300  1.0  -0.1618
  C  C45  1  0.051500  0.370600  0.915900  1.0  0.0578
  C  C46  1  0.783200  0.260000  0.971200  1.0  0.7724
  C  C47  1  0.959900  0.014600  0.678400  1.0  -0.2188
  C  C48  1  0.977600  0.935500  0.726700  1.0  0.1565
  C  C49  1  0.906200  0.073500  0.792300  1.0  0.183
  C  C50  1  0.885800  0.158000  0.747400  1.0  -0.1907
  C  C51  1  0.912200  0.128800  0.689500  1.0  0.0544
  C  C52  1  0.994200  0.974300  0.617100  1.0  0.7497
  C  C53  1  0.002900  0.979300  0.967100  1.0  0.5424
  C  C54  1  0.509000  0.507600  0.034900  1.0  0.5612
  C  C55  1  0.582900  0.614200  0.435400  1.0  -0.2265
  C  C56  1  0.594500  0.484100  0.419100  1.0  0.1851
  C  C57  1  0.356600  0.393500  0.365300  1.0  0.1684
  C  C58  1  0.332700  0.517600  0.381300  1.0  -0.1626
  C  C59  1  0.448500  0.629400  0.415900  1.0  0.0581
  C  C60  1  0.716800  0.740000  0.471200  1.0  0.7735
  C  C61  1  0.540100  0.985400  0.178400  1.0  -0.219
  C  C62  1  0.522400  0.064500  0.226700  1.0  0.1552
  C  C63  1  0.593800  0.926500  0.292300  1.0  0.1834
  C  C64  1  0.614200  0.842000  0.247400  1.0  -0.1891
  C  C65  1  0.587800  0.871200  0.189500  1.0  0.0539
  C  C66  1  0.505800  0.025700  0.117100  1.0  0.7491
  C  C67  1  0.497100  0.020700  0.467100  1.0  0.544
  C  C68  1  0.991000  0.492400  0.534900  1.0  0.5612
  C  C69  1  0.082900  0.614200  0.064600  1.0  -0.2271
  C  C70  1  0.094500  0.484100  0.080900  1.0  0.1863
  C  C71  1  0.856600  0.393500  0.134700  1.0  0.1681
  C  C72  1  0.832700  0.517600  0.118700  1.0  -0.1626
  C  C73  1  0.948500  0.629400  0.084100  1.0  0.0584
  C  C74  1  0.216800  0.740000  0.028800  1.0  0.7731
  C  C75  1  0.040100  0.985400  0.321600  1.0  -0.2187
  C  C76  1  0.022400  0.064500  0.273300  1.0  0.1546
  C  C77  1  0.093800  0.926500  0.207700  1.0  0.1829
  C  C78  1  0.114200  0.842000  0.252600  1.0  -0.1886
  C  C79  1  0.087800  0.871200  0.310500  1.0  0.0547
  C  C80  1  0.005800  0.025700  0.382900  1.0  0.7515
  C  C81  1  0.997100  0.020700  0.032900  1.0  0.5446
  C  C82  1  0.491000  0.492400  0.965100  1.0  0.5614
  C  C83  1  0.417100  0.385800  0.564600  1.0  -0.2268
  C  C84  1  0.405500  0.515900  0.580900  1.0  0.1865
  C  C85  1  0.643400  0.606500  0.634700  1.0  0.1674
  C  C86  1  0.667300  0.482400  0.618700  1.0  -0.1618
  C  C87  1  0.551500  0.370600  0.584100  1.0  0.058
  C  C88  1  0.283200  0.260000  0.528800  1.0  0.7721
  C  C89  1  0.459900  0.014600  0.821600  1.0  -0.2186
  C  C90  1  0.477600  0.935500  0.773300  1.0  0.1553
  C  C91  1  0.406200  0.073500  0.707700  1.0  0.1827
  C  C92  1  0.385800  0.158000  0.752600  1.0  -0.1901
  C  C93  1  0.412200  0.128800  0.810500  1.0  0.0544
  C  C94  1  0.494200  0.974300  0.882900  1.0  0.7525
  C  C95  1  0.502900  0.979300  0.532900  1.0  0.5438
  C  C96  1  0.009000  0.507600  0.465100  1.0  0.5616
  N  N97  1  0.015600  0.626400  0.883900  1.0  -0.3211
  N  N98  1  0.952600  0.963600  0.783200  1.0  -0.3038
  N  N99  1  0.484400  0.373600  0.383900  1.0  -0.3224
  N  N100  1  0.547400  0.036400  0.283200  1.0  -0.3033
  N  N101  1  0.984400  0.373600  0.116100  1.0  -0.3242
  N  N102  1  0.047400  0.036400  0.216800  1.0  -0.305
  N  N103  1  0.515600  0.626400  0.616100  1.0  -0.3244
  N  N104  1  0.452600  0.963600  0.716800  1.0  -0.3067
  O  O105  1  0.677900  0.291400  0.995270  1.0  -0.7303
  O  O106  1  0.787100  0.133700  0.972720  1.0  -0.7228
  O  O107  1  0.059100  0.886600  0.613620  1.0  -0.6601
  O  O108  1  0.957100  0.028200  0.572480  1.0  -0.7903
  O  O109  1  0.870400  0.883100  0.944540  1.0  -0.6425
  O  O110  1  0.137000  0.040100  0.941040  1.0  -0.6234
  O  O111  1  0.449700  0.385300  0.063860  1.0  -0.6361
  O  O112  1  0.578800  0.641600  0.055260  1.0  -0.6709
  O  O113  1  0.822100  0.708600  0.495270  1.0  -0.732
  O  O114  1  0.712900  0.866300  0.472720  1.0  -0.7211
  O  O115  1  0.440900  0.113400  0.113620  1.0  -0.661
  O  O116  1  0.542900  0.971800  0.072480  1.0  -0.7898
  O  O117  1  0.629600  0.116900  0.444540  1.0  -0.643
  O  O118  1  0.363000  0.959900  0.441040  1.0  -0.6235
  O  O119  1  0.050300  0.614700  0.563860  1.0  -0.6366
  O  O120  1  0.921200  0.358400  0.555260  1.0  -0.6705
  O  O121  1  0.322100  0.708600  0.004730  1.0  -0.7328
  O  O122  1  0.212900  0.866300  0.027280  1.0  -0.7214
  O  O123  1  0.940900  0.113400  0.386380  1.0  -0.6613
  O  O124  1  0.042900  0.971800  0.427520  1.0  -0.7902
  O  O125  1  0.129600  0.116900  0.055460  1.0  -0.6427
  O  O126  1  0.863000  0.959900  0.058960  1.0  -0.6227
  O  O127  1  0.550300  0.614700  0.936140  1.0  -0.6361
  O  O128  1  0.421200  0.358400  0.944740  1.0  -0.6704
  O  O129  1  0.177900  0.291400  0.504730  1.0  -0.7309
  O  O130  1  0.287100  0.133700  0.527280  1.0  -0.7231
  O  O131  1  0.559100  0.886600  0.886380  1.0  -0.6603
  O  O132  1  0.457100  0.028200  0.927520  1.0  -0.7914
  O  O133  1  0.370400  0.883100  0.555460  1.0  -0.6409
  O  O134  1  0.637000  0.040100  0.558960  1.0  -0.6229
  O  O135  1  0.949700  0.385300  0.436140  1.0  -0.6354
  O  O136  1  0.078800  0.641600  0.444740  1.0  -0.6708
