# generated using pymatgen
data_Ni3H46C74S3N4O19
_symmetry_space_group_name_H-M   'P 1'
_cell_length_a   14.09050000
_cell_length_b   14.67620000
_cell_length_c   21.58580000
_cell_angle_alpha   89.93700000
_cell_angle_beta   85.40200000
_cell_angle_gamma   61.99400000
_symmetry_Int_Tables_number   1
_chemical_formula_structural   Ni3H46C74S3N4O19
_chemical_formula_sum   'Ni6 H92 C148 S6 N8 O38'
_cell_volume   3925.04140801
_cell_formula_units_Z   2
loop_
 _symmetry_equiv_pos_site_id
 _symmetry_equiv_pos_as_xyz
  1  'x, y, z'
loop_
 _atom_site_type_symbol
 _atom_site_label
 _atom_site_symmetry_multiplicity
 _atom_site_fract_x
 _atom_site_fract_y
 _atom_site_fract_z
 _atom_site_occupancy
 _atom_site_charge
  Ni  Ni1  1  0.787720  0.045310  0.097970  1.0  0.8583
  Ni  Ni2  1  0.723720  0.214760  0.228510  1.0  0.7976
  Ni  Ni3  1  0.568370  0.271200  0.389010  1.0  0.8045
  Ni  Ni4  1  0.212280  0.954690  0.902030  1.0  0.8537
  Ni  Ni5  1  0.276280  0.785240  0.771490  1.0  0.799
  Ni  Ni6  1  0.431630  0.728800  0.610990  1.0  0.8068
  H  H7  1  0.117300  0.442800  0.802300  1.0  0.1137
  H  H8  1  0.219400  0.538700  0.650000  1.0  0.1272
  H  H9  1  0.322400  0.235200  0.672400  1.0  0.1076
  H  H10  1  0.080400  0.186800  0.886700  1.0  0.0774
  H  H11  1  0.081000  0.322700  0.832400  1.0  0.1184
  H  H12  1  0.364400  0.124900  0.745300  1.0  0.1278
  H  H13  1  0.356800  0.996500  0.802000  1.0  0.0757
  H  H14  1  0.450400  0.190300  0.475800  1.0  0.0834
  H  H15  1  0.362200  0.218600  0.571200  1.0  0.1107
  H  H16  1  0.360600  0.486600  0.583500  1.0  0.1072
  H  H17  1  0.436600  0.459000  0.482400  1.0  0.0886
  H  H18  1  0.031600  0.720900  0.846100  1.0  0.1153
  H  H19  1  0.716800  0.839800  0.819900  1.0  0.1254
  H  H20  1  0.941000  0.615200  0.702600  1.0  0.1264
  H  H21  1  0.489500  0.877800  0.685900  1.0  0.0851
  H  H22  1  0.621200  0.880100  0.735600  1.0  0.1214
  H  H23  1  0.796800  0.578800  0.696600  1.0  0.1188
  H  H24  1  0.661200  0.584600  0.644000  1.0  0.0757
  H  H25  1  0.962000  0.922400  0.998800  1.0  0.099
  H  H26  1  0.993700  0.837600  0.909600  1.0  0.1155
  H  H27  1  0.681300  0.922500  0.908400  1.0  0.1341
  H  H28  1  0.656100  0.018200  0.997900  1.0  0.08
  H  H29  1  0.428500  0.603100  0.368800  1.0  0.1302
  H  H30  1  0.374000  0.772700  0.343200  1.0  0.1161
  H  H31  1  0.534200  0.679400  0.174100  1.0  0.1319
  H  H32  1  0.598600  0.507500  0.201500  1.0  0.1052
  H  H33  1  0.186000  0.015200  0.289000  1.0  0.121
  H  H34  1  0.014400  0.071100  0.257800  1.0  0.1111
  H  H35  1  0.138200  0.871000  0.110600  1.0  0.1101
  H  H36  1  0.310900  0.814300  0.141200  1.0  0.1211
  H  H37  1  0.713100  0.923500  0.411100  1.0  0.1116
  H  H38  1  0.845900  0.751300  0.403400  1.0  0.1142
  H  H39  1  0.020400  0.821800  0.274700  1.0  0.1101
  H  H40  1  0.886500  0.993500  0.281100  1.0  0.0984
  H  H41  1  0.050000  0.588500  0.462200  1.0  0.132
  H  H42  1  0.112600  0.628600  0.548000  1.0  0.088
  H  H43  1  0.279800  0.734300  0.442500  1.0  0.1189
  H  H44  1  0.209100  0.705800  0.355200  1.0  0.1189
  H  H45  1  0.780000  0.434000  0.121800  1.0  0.1158
  H  H46  1  0.829000  0.536500  0.061000  1.0  0.1193
  H  H47  1  0.879100  0.351400  0.911300  1.0  0.1263
  H  H48  1  0.835700  0.245200  0.973100  1.0  0.1101
  H  H49  1  0.707900  0.724100  0.977600  1.0  0.1207
  H  H50  1  0.534900  0.830300  0.949100  1.0  0.1081
  H  H51  1  0.590100  0.640500  0.802100  1.0  0.1011
  H  H52  1  0.761700  0.531700  0.831700  1.0  0.1176
  H  H53  1  0.882700  0.557200  0.197700  1.0  0.1136
  H  H54  1  0.780600  0.461300  0.350000  1.0  0.1267
  H  H55  1  0.677600  0.764800  0.327600  1.0  0.1073
  H  H56  1  0.919600  0.813200  0.113300  1.0  0.0773
  H  H57  1  0.919000  0.677300  0.167600  1.0  0.1179
  H  H58  1  0.635600  0.875100  0.254700  1.0  0.1285
  H  H59  1  0.643200  0.003500  0.198000  1.0  0.0754
  H  H60  1  0.549600  0.809700  0.524200  1.0  0.0829
  H  H61  1  0.637800  0.781400  0.428800  1.0  0.1108
  H  H62  1  0.639400  0.513400  0.416500  1.0  0.1067
  H  H63  1  0.563400  0.541000  0.517600  1.0  0.0886
  H  H64  1  0.968400  0.279100  0.153900  1.0  0.1146
  H  H65  1  0.283200  0.160200  0.180100  1.0  0.1255
  H  H66  1  0.059000  0.384800  0.297400  1.0  0.1258
  H  H67  1  0.510500  0.122200  0.314100  1.0  0.0853
  H  H68  1  0.378800  0.119900  0.264400  1.0  0.1225
  H  H69  1  0.203200  0.421200  0.303400  1.0  0.1199
  H  H70  1  0.338800  0.415400  0.356000  1.0  0.0758
  H  H71  1  0.038000  0.077600  0.001200  1.0  0.0981
  H  H72  1  0.006300  0.162400  0.090400  1.0  0.1152
  H  H73  1  0.318700  0.077500  0.091600  1.0  0.1339
  H  H74  1  0.343900  0.981800  0.002100  1.0  0.0808
  H  H75  1  0.571500  0.396900  0.631200  1.0  0.1302
  H  H76  1  0.626000  0.227300  0.656800  1.0  0.1162
  H  H77  1  0.465800  0.320600  0.825900  1.0  0.1321
  H  H78  1  0.401400  0.492500  0.798500  1.0  0.105
  H  H79  1  0.814000  0.984800  0.711000  1.0  0.1221
  H  H80  1  0.985600  0.928900  0.742200  1.0  0.1117
  H  H81  1  0.861800  0.129000  0.889400  1.0  0.1095
  H  H82  1  0.689100  0.185700  0.858800  1.0  0.1213
  H  H83  1  0.286900  0.076500  0.588900  1.0  0.1113
  H  H84  1  0.154100  0.248700  0.596600  1.0  0.1141
  H  H85  1  0.979600  0.178200  0.725300  1.0  0.1095
  H  H86  1  0.113500  0.006500  0.718900  1.0  0.0986
  H  H87  1  0.950000  0.411500  0.537800  1.0  0.1319
  H  H88  1  0.887400  0.371400  0.452000  1.0  0.0888
  H  H89  1  0.720200  0.265700  0.557500  1.0  0.1186
  H  H90  1  0.790900  0.294200  0.644800  1.0  0.1188
  H  H91  1  0.220000  0.566000  0.878200  1.0  0.1153
  H  H92  1  0.171000  0.463500  0.939000  1.0  0.119
  H  H93  1  0.120900  0.648600  0.088700  1.0  0.1271
  H  H94  1  0.164300  0.754800  0.026900  1.0  0.1094
  H  H95  1  0.292100  0.275900  0.022400  1.0  0.121
  H  H96  1  0.465100  0.169700  0.050900  1.0  0.1085
  H  H97  1  0.409900  0.359500  0.197900  1.0  0.1012
  H  H98  1  0.238300  0.468300  0.168300  1.0  0.1178
  C  C99  1  0.221300  0.324000  0.744230  1.0  0.007
  C  C100  1  0.159900  0.426500  0.764590  1.0  -0.1427
  C  C101  1  0.161400  0.503600  0.729670  1.0  0.3112
  C  C102  1  0.220800  0.484500  0.672920  1.0  -0.1561
  C  C103  1  0.282100  0.384300  0.650760  1.0  -0.0012
  C  C104  1  0.281500  0.303300  0.687230  1.0  -0.0941
  C  C105  1  0.139100  0.173900  0.858520  1.0  0.1935
  C  C106  1  0.138200  0.256400  0.824990  1.0  -0.154
  C  C107  1  0.222300  0.238900  0.781090  1.0  0.0696
  C  C108  1  0.305100  0.140200  0.773730  1.0  -0.2025
  C  C109  1  0.300200  0.063200  0.808880  1.0  0.1918
  C  C110  1  0.433800  0.251200  0.497710  1.0  0.1834
  C  C111  1  0.378000  0.269200  0.554910  1.0  -0.2016
  C  C112  1  0.344900  0.358400  0.588580  1.0  0.0747
  C  C113  1  0.375300  0.426300  0.561530  1.0  -0.1493
  C  C114  1  0.427600  0.406800  0.501970  1.0  0.1647
  C  C115  1  0.003600  0.656800  0.771500  1.0  0.3008
  C  C116  1  0.977500  0.722000  0.823630  1.0  -0.1066
  C  C117  1  0.869900  0.788900  0.841890  1.0  0.0164
  C  C118  1  0.788500  0.793000  0.808110  1.0  -0.0837
  C  C119  1  0.815200  0.726400  0.756460  1.0  0.0466
  C  C120  1  0.923200  0.658800  0.737670  1.0  -0.1088
  C  C121  1  0.553200  0.816200  0.687150  1.0  0.1751
  C  C122  1  0.632100  0.818400  0.717030  1.0  -0.2304
  C  C123  1  0.729000  0.730300  0.720520  1.0  0.1007
  C  C124  1  0.735300  0.641700  0.693680  1.0  -0.1979
  C  C125  1  0.652300  0.645300  0.662960  1.0  0.1755
  C  C126  1  0.904300  0.921900  0.980800  1.0  0.1785
  C  C127  1  0.923600  0.868900  0.928740  1.0  -0.1278
  C  C128  1  0.844300  0.856500  0.900100  1.0  0.0509
  C  C129  1  0.740600  0.919000  0.926550  1.0  -0.2111
  C  C130  1  0.726500  0.976400  0.980890  1.0  0.2096
  C  C131  1  0.555500  0.429000  0.303330  1.0  0.6937
  C  C132  1  0.517200  0.538900  0.286110  1.0  -0.13
  C  C133  1  0.450000  0.618300  0.330030  1.0  -0.0629
  C  C134  1  0.416800  0.719200  0.314270  1.0  -0.0631
  C  C135  1  0.445800  0.741500  0.257160  1.0  -0.2192
  C  C136  1  0.514100  0.663400  0.213010  1.0  -0.0545
  C  C137  1  0.551000  0.560900  0.229200  1.0  0.0019
  C  C138  1  0.265300  0.909600  0.217650  1.0  -0.1882
  C  C139  1  0.176400  0.986400  0.253160  1.0  -0.0232
  C  C140  1  0.073800  0.019400  0.234620  1.0  -0.0694
  C  C141  1  0.059200  0.975800  0.181660  1.0  -0.1362
  C  C142  1  0.147900  0.899600  0.146390  1.0  -0.088
  C  C143  1  0.251500  0.865900  0.164570  1.0  -0.0495
  C  C144  1  0.951700  0.012000  0.158970  1.0  0.6208
  C  C145  1  0.704500  0.085600  0.354250  1.0  0.6763
  C  C146  1  0.785900  0.975800  0.347120  1.0  -0.1382
  C  C147  1  0.774400  0.903300  0.383550  1.0  -0.0083
  C  C148  1  0.854100  0.800000  0.379160  1.0  -0.0401
  C  C149  1  0.946000  0.770600  0.338210  1.0  -0.1752
  C  C150  1  0.958600  0.842200  0.301850  1.0  -0.0278
  C  C151  1  0.878400  0.945200  0.305860  1.0  -0.0115
  C  C152  1  0.118500  0.649800  0.401740  1.0  -0.1867
  C  C153  1  0.092900  0.621100  0.458090  1.0  -0.1671
  C  C154  1  0.133900  0.642800  0.508820  1.0  -0.0107
  C  C155  1  0.201600  0.682700  0.505630  1.0  -0.1403
  C  C156  1  0.232000  0.707100  0.446520  1.0  -0.0043
  C  C157  1  0.189800  0.690200  0.394480  1.0  -0.0474
  C  C158  1  0.247800  0.702900  0.562200  1.0  0.7257
  C  C159  1  0.780500  0.256400  0.094150  1.0  0.7056
  C  C160  1  0.801400  0.328300  0.052790  1.0  -0.1368
  C  C161  1  0.799700  0.417800  0.079510  1.0  0.0081
  C  C162  1  0.826800  0.479800  0.043320  1.0  -0.0226
  C  C163  1  0.851000  0.457400  0.980330  1.0  -0.228
  C  C164  1  0.857800  0.368000  0.953440  1.0  -0.0532
  C  C165  1  0.832100  0.304700  0.990580  1.0  0.0293
  C  C166  1  0.750600  0.620400  0.907090  1.0  -0.1615
  C  C167  1  0.684400  0.707100  0.942490  1.0  -0.0611
  C  C168  1  0.580200  0.770300  0.925440  1.0  -0.0098
  C  C169  1  0.544200  0.745000  0.874410  1.0  -0.1138
  C  C170  1  0.613200  0.656500  0.837730  1.0  -0.0091
  C  C171  1  0.716200  0.592400  0.854740  1.0  -0.0424
  C  C172  1  0.430100  0.812600  0.857810  1.0  0.6498
  C  C173  1  0.778700  0.676000  0.255770  1.0  0.0061
  C  C174  1  0.840100  0.573500  0.235410  1.0  -0.1447
  C  C175  1  0.838600  0.496400  0.270330  1.0  0.312
  C  C176  1  0.779200  0.515500  0.327080  1.0  -0.1554
  C  C177  1  0.717900  0.615700  0.349240  1.0  -0.0014
  C  C178  1  0.718500  0.696700  0.312770  1.0  -0.0956
  C  C179  1  0.860900  0.826100  0.141480  1.0  0.1924
  C  C180  1  0.861800  0.743600  0.175010  1.0  -0.1543
  C  C181  1  0.777700  0.761100  0.218910  1.0  0.0694
  C  C182  1  0.694900  0.859800  0.226270  1.0  -0.203
  C  C183  1  0.699800  0.936800  0.191120  1.0  0.192
  C  C184  1  0.566200  0.748800  0.502290  1.0  0.1817
  C  C185  1  0.622000  0.730800  0.445090  1.0  -0.203
  C  C186  1  0.655100  0.641600  0.411420  1.0  0.0746
  C  C187  1  0.624700  0.573700  0.438470  1.0  -0.15
  C  C188  1  0.572400  0.593200  0.498030  1.0  0.1653
  C  C189  1  0.996400  0.343200  0.228500  1.0  0.3009
  C  C190  1  0.022500  0.278000  0.176370  1.0  -0.1062
  C  C191  1  0.130100  0.211100  0.158110  1.0  0.0166
  C  C192  1  0.211500  0.207000  0.191890  1.0  -0.0821
  C  C193  1  0.184800  0.273600  0.243540  1.0  0.0464
  C  C194  1  0.076800  0.341200  0.262330  1.0  -0.11
  C  C195  1  0.446800  0.183800  0.312850  1.0  0.1758
  C  C196  1  0.367900  0.181600  0.282970  1.0  -0.2298
  C  C197  1  0.271000  0.269700  0.279480  1.0  0.1013
  C  C198  1  0.264700  0.358300  0.306320  1.0  -0.1979
  C  C199  1  0.347700  0.354700  0.337040  1.0  0.1764
  C  C200  1  0.095700  0.078100  0.019200  1.0  0.1802
  C  C201  1  0.076400  0.131100  0.071260  1.0  -0.1277
  C  C202  1  0.155700  0.143500  0.099900  1.0  0.051
  C  C203  1  0.259400  0.081000  0.073450  1.0  -0.21
  C  C204  1  0.273500  0.023600  0.019110  1.0  0.2082
  C  C205  1  0.444500  0.571000  0.696670  1.0  0.6935
  C  C206  1  0.482800  0.461100  0.713890  1.0  -0.1275
  C  C207  1  0.550000  0.381700  0.669970  1.0  -0.063
  C  C208  1  0.583200  0.280800  0.685730  1.0  -0.0635
  C  C209  1  0.554200  0.258500  0.742840  1.0  -0.2178
  C  C210  1  0.485900  0.336600  0.786990  1.0  -0.057
  C  C211  1  0.449000  0.439100  0.770800  1.0  0.0018
  C  C212  1  0.734700  0.090400  0.782350  1.0  -0.1886
  C  C213  1  0.823600  0.013600  0.746840  1.0  -0.0217
  C  C214  1  0.926200  0.980600  0.765380  1.0  -0.0678
  C  C215  1  0.940800  0.024200  0.818340  1.0  -0.137
  C  C216  1  0.852100  0.100400  0.853610  1.0  -0.0882
  C  C217  1  0.748500  0.134100  0.835430  1.0  -0.0481
  C  C218  1  0.048300  0.988000  0.841030  1.0  0.6222
  C  C219  1  0.295500  0.914400  0.645750  1.0  0.6756
  C  C220  1  0.214100  0.024200  0.652880  1.0  -0.1378
  C  C221  1  0.225600  0.096700  0.616450  1.0  -0.0056
  C  C222  1  0.145900  0.200000  0.620840  1.0  -0.0393
  C  C223  1  0.054000  0.229400  0.661790  1.0  -0.1764
  C  C224  1  0.041400  0.157800  0.698150  1.0  -0.0259
  C  C225  1  0.121600  0.054800  0.694140  1.0  -0.0099
  C  C226  1  0.881500  0.350200  0.598260  1.0  -0.1867
  C  C227  1  0.907100  0.378900  0.541910  1.0  -0.169
  C  C228  1  0.866100  0.357200  0.491180  1.0  -0.0111
  C  C229  1  0.798400  0.317300  0.494370  1.0  -0.1419
  C  C230  1  0.768000  0.292900  0.553480  1.0  -0.0053
  C  C231  1  0.810200  0.309800  0.605520  1.0  -0.0462
  C  C232  1  0.752200  0.297100  0.437800  1.0  0.7256
  C  C233  1  0.219500  0.743600  0.905850  1.0  0.7046
  C  C234  1  0.198600  0.671700  0.947210  1.0  -0.1383
  C  C235  1  0.200300  0.582200  0.920490  1.0  0.0072
  C  C236  1  0.173200  0.520200  0.956680  1.0  -0.024
  C  C237  1  0.149000  0.542600  0.019670  1.0  -0.2271
  C  C238  1  0.142200  0.632000  0.046560  1.0  -0.0542
  C  C239  1  0.167900  0.695300  0.009420  1.0  0.03
  C  C240  1  0.249400  0.379600  0.092910  1.0  -0.1628
  C  C241  1  0.315600  0.292900  0.057510  1.0  -0.0613
  C  C242  1  0.419800  0.229700  0.074560  1.0  -0.0112
  C  C243  1  0.455800  0.255000  0.125590  1.0  -0.1127
  C  C244  1  0.386800  0.343500  0.162270  1.0  -0.0109
  C  C245  1  0.283800  0.407600  0.145260  1.0  -0.0425
  C  C246  1  0.569900  0.187400  0.142190  1.0  0.6483
  S  S247  1  0.397360  0.872280  0.237300  1.0  1.1448
  S  S248  1  0.052180  0.644550  0.336610  1.0  1.115
  S  S249  1  0.879060  0.541600  0.932250  1.0  1.0796
  S  S250  1  0.602640  0.127720  0.762700  1.0  1.1466
  S  S251  1  0.947820  0.355450  0.663390  1.0  1.1161
  S  S252  1  0.120940  0.458400  0.067750  1.0  1.0801
  N  N253  1  0.220600  0.077900  0.851630  1.0  -0.3102
  N  N254  1  0.465700  0.314200  0.471640  1.0  -0.319
  N  N255  1  0.558900  0.731600  0.658750  1.0  -0.3258
  N  N256  1  0.804000  0.976300  0.009780  1.0  -0.319
  N  N257  1  0.779400  0.922100  0.148370  1.0  -0.3135
  N  N258  1  0.534300  0.685800  0.528360  1.0  -0.3174
  N  N259  1  0.441100  0.268400  0.341250  1.0  -0.3248
  N  N260  1  0.196000  0.023700  0.990220  1.0  -0.3218
  O  O261  1  0.111470  0.604770  0.752520  1.0  -0.2496
  O  O262  1  0.531150  0.411320  0.357070  1.0  -0.565
  O  O263  1  0.608230  0.361500  0.260630  1.0  -0.6558
  O  O264  1  0.389300  0.931250  0.292690  1.0  -0.5945
  O  O265  1  0.458400  0.877140  0.182700  1.0  -0.5877
  O  O266  1  0.864630  0.073860  0.189760  1.0  -0.684
  O  O267  1  0.950480  0.975310  0.106420  1.0  -0.577
  O  O268  1  0.637800  0.112790  0.399380  1.0  -0.5843
  O  O269  1  0.694450  0.154430  0.317430  1.0  -0.6723
  O  O270  1  0.006900  0.575230  0.350850  1.0  -0.5853
  O  O271  1  0.124700  0.626100  0.280550  1.0  -0.609
  O  O272  1  0.205800  0.694600  0.612810  1.0  -0.5722
  O  O273  1  0.322860  0.724750  0.553330  1.0  -0.6132
  O  O274  1  0.754600  0.283520  0.150870  1.0  -0.6042
  O  O275  1  0.787250  0.178090  0.068680  1.0  -0.5859
  O  O276  1  0.905660  0.603750  0.970100  1.0  -0.5584
  O  O277  1  0.950160  0.481520  0.879520  1.0  -0.6432
  O  O278  1  0.372890  0.883680  0.898880  1.0  -0.5692
  O  O279  1  0.401290  0.793410  0.806910  1.0  -0.6214
  O  O280  1  0.888530  0.395230  0.247480  1.0  -0.2506
  O  O281  1  0.468850  0.588680  0.642930  1.0  -0.5653
  O  O282  1  0.391770  0.638500  0.739370  1.0  -0.6561
  O  O283  1  0.610700  0.068750  0.707310  1.0  -0.5938
  O  O284  1  0.541600  0.122860  0.817300  1.0  -0.5884
  O  O285  1  0.135370  0.926140  0.810240  1.0  -0.6826
  O  O286  1  0.049520  0.024690  0.893580  1.0  -0.5769
  O  O287  1  0.362200  0.887210  0.600620  1.0  -0.5844
  O  O288  1  0.305550  0.845570  0.682570  1.0  -0.6739
  O  O289  1  0.993100  0.424770  0.649150  1.0  -0.5839
  O  O290  1  0.875300  0.373900  0.719450  1.0  -0.6089
  O  O291  1  0.794200  0.305400  0.387190  1.0  -0.5714
  O  O292  1  0.677140  0.275250  0.446670  1.0  -0.6116
  O  O293  1  0.245400  0.716480  0.849130  1.0  -0.6033
  O  O294  1  0.212750  0.821910  0.931320  1.0  -0.5839
  O  O295  1  0.094340  0.396250  0.029900  1.0  -0.5578
  O  O296  1  0.049840  0.518480  0.120480  1.0  -0.6411
  O  O297  1  0.627110  0.116320  0.101120  1.0  -0.5691
  O  O298  1  0.598710  0.206590  0.193090  1.0  -0.6206
