# generated using pymatgen
data_Co3H46C74S3N4O19
_symmetry_space_group_name_H-M   'P 1'
_cell_length_a   14.22690000
_cell_length_b   14.76920000
_cell_length_c   21.69120000
_cell_angle_alpha   90.39100000
_cell_angle_beta   94.35700000
_cell_angle_gamma   118.23300000
_symmetry_Int_Tables_number   1
_chemical_formula_structural   Co3H46C74S3N4O19
_chemical_formula_sum   'Co6 H92 C148 S6 N8 O38'
_cell_volume   3999.17151854
_cell_formula_units_Z   2
loop_
 _symmetry_equiv_pos_site_id
 _symmetry_equiv_pos_as_xyz
  1  'x, y, z'
loop_
 _atom_site_type_symbol
 _atom_site_label
 _atom_site_symmetry_multiplicity
 _atom_site_fract_x
 _atom_site_fract_y
 _atom_site_fract_z
 _atom_site_occupancy
 _atom_site_charge
  Co  Co1  1  0.062550  0.224250  0.112400  1.0  0.8502
  Co  Co2  1  0.286250  0.453820  0.399710  1.0  0.9904
  Co  Co3  1  0.221510  0.280000  0.271080  1.0  0.9744
  Co  Co4  1  0.937450  0.775750  0.887600  1.0  0.8514
  Co  Co5  1  0.713750  0.546180  0.600290  1.0  0.9886
  Co  Co6  1  0.778490  0.720000  0.728920  1.0  0.9763
  H  H7  1  0.956200  0.046700  0.010400  1.0  0.1043
  H  H8  1  0.856000  0.009900  0.915800  1.0  0.0987
  H  H9  1  0.845700  0.276000  0.933500  1.0  0.1059
  H  H10  1  0.940300  0.307800  0.029100  1.0  0.1036
  H  H11  1  0.718800  0.965400  0.848700  1.0  0.1092
  H  H12  1  0.621400  0.061100  0.696700  1.0  0.1155
  H  H13  1  0.821600  0.265900  0.831300  1.0  0.1057
  H  H14  1  0.864000  0.507300  0.699600  1.0  0.0975
  H  H15  1  0.865100  0.377000  0.756400  1.0  0.1068
  H  H16  1  0.575100  0.180500  0.673700  1.0  0.1099
  H  H17  1  0.576300  0.312800  0.616600  1.0  0.0997
  H  H18  1  0.438100  0.888300  0.794500  1.0  0.1162
  H  H19  1  0.220000  0.666300  0.674900  1.0  0.1108
  H  H20  1  0.533800  0.782900  0.653900  1.0  0.0989
  H  H21  1  0.988000  0.623700  0.811700  1.0  0.0942
  H  H22  1  0.122900  0.623700  0.758700  1.0  0.1194
  H  H23  1  0.303000  0.923400  0.803000  1.0  0.1085
  H  H24  1  0.164300  0.923600  0.851600  1.0  0.1053
  H  H25  1  0.464300  0.580600  0.495600  1.0  0.1001
  H  H26  1  0.501600  0.673900  0.580500  1.0  0.1166
  H  H27  1  0.184600  0.584400  0.587500  1.0  0.1095
  H  H28  1  0.151300  0.484200  0.498400  1.0  0.1269
  H  H29  1  0.086700  0.984800  0.299700  1.0  0.1013
  H  H30  1  0.026200  0.816000  0.324100  1.0  0.1103
  H  H31  1  0.874300  0.723100  0.153900  1.0  0.1091
  H  H32  1  0.931200  0.892400  0.130300  1.0  0.0976
  H  H33  1  0.809500  0.680600  0.355500  1.0  0.1109
  H  H34  1  0.636900  0.629400  0.385500  1.0  0.1037
  H  H35  1  0.512500  0.420800  0.242200  1.0  0.1069
  H  H36  1  0.684600  0.478100  0.209900  1.0  0.1175
  H  H37  1  0.037000  0.671000  0.552700  1.0  0.1045
  H  H38  1  0.210500  0.777700  0.526500  1.0  0.1163
  H  H39  1  0.256500  0.971600  0.670900  1.0  0.1241
  H  H40  1  0.085800  0.864500  0.696600  1.0  0.0902
  H  H41  1  0.325800  0.964900  0.442800  1.0  0.108
  H  H42  1  0.281100  0.065100  0.379600  1.0  0.1057
  H  H43  1  0.330500  0.257200  0.526100  1.0  0.1089
  H  H44  1  0.374600  0.152900  0.589300  1.0  0.1122
  H  H45  1  0.218200  0.575500  0.092600  1.0  0.1077
  H  H46  1  0.354100  0.745700  0.102500  1.0  0.1149
  H  H47  1  0.520400  0.663600  0.227300  1.0  0.0967
  H  H48  1  0.388900  0.494300  0.214800  1.0  0.1104
  H  H49  1  0.563100  0.910600  0.046500  1.0  0.1144
  H  H50  1  0.635500  0.889800  0.958300  1.0  0.1018
  H  H51  1  0.779400  0.754300  0.055300  1.0  0.1048
  H  H52  1  0.705800  0.771500  0.143800  1.0  0.1079
  H  H53  1  0.043800  0.953300  0.989600  1.0  0.104
  H  H54  1  0.144000  0.990100  0.084200  1.0  0.0994
  H  H55  1  0.154300  0.724000  0.066500  1.0  0.1059
  H  H56  1  0.059700  0.692200  0.970900  1.0  0.1028
  H  H57  1  0.281200  0.034600  0.151300  1.0  0.11
  H  H58  1  0.378600  0.938900  0.303300  1.0  0.1154
  H  H59  1  0.178400  0.734100  0.168700  1.0  0.1057
  H  H60  1  0.136000  0.492700  0.300400  1.0  0.0975
  H  H61  1  0.134900  0.623000  0.243600  1.0  0.1062
  H  H62  1  0.424900  0.819500  0.326300  1.0  0.1098
  H  H63  1  0.423700  0.687200  0.383400  1.0  0.1002
  H  H64  1  0.561900  0.111700  0.205500  1.0  0.1161
  H  H65  1  0.780000  0.333700  0.325100  1.0  0.1103
  H  H66  1  0.466200  0.217100  0.346100  1.0  0.0996
  H  H67  1  0.012000  0.376300  0.188300  1.0  0.0947
  H  H68  1  0.877100  0.376300  0.241300  1.0  0.1189
  H  H69  1  0.697000  0.076600  0.197000  1.0  0.1087
  H  H70  1  0.835700  0.076400  0.148400  1.0  0.1051
  H  H71  1  0.535700  0.419400  0.504400  1.0  0.1003
  H  H72  1  0.498400  0.326100  0.419500  1.0  0.1154
  H  H73  1  0.815400  0.415600  0.412500  1.0  0.1115
  H  H74  1  0.848700  0.515800  0.501600  1.0  0.1266
  H  H75  1  0.913300  0.015200  0.700300  1.0  0.1012
  H  H76  1  0.973800  0.184000  0.675900  1.0  0.1103
  H  H77  1  0.125700  0.276900  0.846100  1.0  0.1094
  H  H78  1  0.068800  0.107600  0.869700  1.0  0.0968
  H  H79  1  0.190500  0.319400  0.644500  1.0  0.1109
  H  H80  1  0.363100  0.370600  0.614500  1.0  0.1037
  H  H81  1  0.487500  0.579200  0.757800  1.0  0.1067
  H  H82  1  0.315400  0.521900  0.790100  1.0  0.1162
  H  H83  1  0.963000  0.329000  0.447300  1.0  0.1044
  H  H84  1  0.789500  0.222300  0.473500  1.0  0.1152
  H  H85  1  0.743500  0.028400  0.329100  1.0  0.124
  H  H86  1  0.914200  0.135500  0.303400  1.0  0.0901
  H  H87  1  0.674200  0.035100  0.557200  1.0  0.1085
  H  H88  1  0.718900  0.934900  0.620400  1.0  0.1048
  H  H89  1  0.669500  0.742800  0.473900  1.0  0.1087
  H  H90  1  0.625400  0.847100  0.410700  1.0  0.1111
  H  H91  1  0.781800  0.424500  0.907400  1.0  0.1081
  H  H92  1  0.645900  0.254300  0.897500  1.0  0.1148
  H  H93  1  0.479600  0.336400  0.772700  1.0  0.0963
  H  H94  1  0.611100  0.505700  0.785200  1.0  0.1105
  H  H95  1  0.436900  0.089400  0.953500  1.0  0.1153
  H  H96  1  0.364500  0.110200  0.041700  1.0  0.1018
  H  H97  1  0.220600  0.245700  0.944700  1.0  0.105
  H  H98  1  0.294200  0.228500  0.856200  1.0  0.1078
  C  C99  1  0.932700  0.092000  0.995240  1.0  0.1502
  C  C100  1  0.873800  0.070900  0.937930  1.0  -0.1075
  C  C101  1  0.840400  0.140200  0.912500  1.0  0.0634
  C  C102  1  0.866700  0.228800  0.948370  1.0  -0.1219
  C  C103  1  0.923700  0.248000  0.006000  1.0  0.152
  C  C104  1  0.779500  0.118600  0.849880  1.0  -0.0421
  C  C105  1  0.718700  0.019000  0.826420  1.0  -0.1262
  C  C106  1  0.657100  0.996900  0.770070  1.0  0.2804
  C  C107  1  0.659900  0.075800  0.735370  1.0  -0.1361
  C  C108  1  0.720400  0.177900  0.758040  1.0  0.0211
  C  C109  1  0.780600  0.198300  0.815770  1.0  -0.0932
  C  C110  1  0.805900  0.441400  0.694210  1.0  0.1409
  C  C111  1  0.806400  0.363100  0.728520  1.0  -0.1088
  C  C112  1  0.719600  0.262500  0.722080  1.0  0.0754
  C  C113  1  0.633700  0.245900  0.679290  1.0  -0.099
  C  C114  1  0.634300  0.325400  0.644800  1.0  0.1389
  C  C115  1  0.503530  0.846790  0.727490  1.0  0.2045
  C  C116  1  0.421750  0.844530  0.759760  1.0  -0.0806
  C  C117  1  0.315530  0.776890  0.740050  1.0  0.0516
  C  C118  1  0.291090  0.711510  0.688080  1.0  -0.1071
  C  C119  1  0.372870  0.713770  0.655810  1.0  0.0279
  C  C120  1  0.479090  0.781400  0.675520  1.0  -0.0683
  C  C121  1  0.051400  0.684700  0.809460  1.0  0.1455
  C  C122  1  0.132400  0.684400  0.777830  1.0  -0.1359
  C  C123  1  0.228300  0.775300  0.774700  1.0  0.0189
  C  C124  1  0.239000  0.862600  0.803580  1.0  -0.1277
  C  C125  1  0.156100  0.862500  0.833830  1.0  0.1439
  C  C126  1  0.408700  0.582300  0.514600  1.0  0.1822
  C  C127  1  0.430500  0.637500  0.564300  1.0  -0.1122
  C  C128  1  0.346800  0.646300  0.597810  1.0  -0.0033
  C  C129  1  0.241900  0.584600  0.569400  1.0  -0.0673
  C  C130  1  0.221200  0.524600  0.515700  1.0  0.1388
  C  C131  1  0.053800  0.067100  0.196530  1.0  0.6777
  C  C132  1  0.015600  0.955700  0.212160  1.0  -0.1403
  C  C133  1  0.043500  0.932100  0.270500  1.0  -0.0275
  C  C134  1  0.007200  0.831000  0.285000  1.0  -0.0172
  C  C135  1  0.942800  0.751400  0.242200  1.0  -0.17
  C  C136  1  0.916000  0.775600  0.183400  1.0  -0.0574
  C  C137  1  0.951100  0.877000  0.169000  1.0  -0.0301
  C  C138  1  0.761600  0.585200  0.278900  1.0  -0.1914
  C  C139  1  0.749700  0.629900  0.332300  1.0  -0.0802
  C  C140  1  0.646100  0.597700  0.351000  1.0  -0.0439
  C  C141  1  0.558600  0.518600  0.317740  1.0  -0.1362
  C  C142  1  0.571700  0.473400  0.264690  1.0  -0.077
  C  C143  1  0.675200  0.507800  0.245300  1.0  -0.027
  C  C144  1  0.449300  0.483600  0.339530  1.0  0.6671
  C  C145  1  0.932200  0.690600  0.641950  1.0  0.6796
  C  C146  1  0.043100  0.758600  0.627170  1.0  -0.1485
  C  C147  1  0.081100  0.731600  0.576070  1.0  -0.0095
  C  C148  1  0.184700  0.795400  0.560100  1.0  -0.0561
  C  C149  1  0.248500  0.885800  0.595400  1.0  -0.1818
  C  C150  1  0.212300  0.911700  0.646940  1.0  -0.0544
  C  C151  1  0.110200  0.847500  0.662040  1.0  0.0085
  C  C152  1  0.354000  0.049400  0.521240  1.0  -0.1966
  C  C153  1  0.326400  0.023500  0.459400  1.0  -0.0182
  C  C154  1  0.299800  0.083200  0.421650  1.0  -0.0121
  C  C155  1  0.300400  0.171000  0.445800  1.0  -0.1148
  C  C156  1  0.329300  0.198400  0.509470  1.0  -0.0005
  C  C157  1  0.355800  0.136200  0.547130  1.0  -0.0211
  C  C158  1  0.276200  0.241200  0.405480  1.0  0.7019
  C  C159  1  0.199800  0.409500  0.147750  1.0  0.6671
  C  C160  1  0.289200  0.520100  0.153860  1.0  -0.1194
  C  C161  1  0.279200  0.593600  0.119500  1.0  -0.0206
  C  C162  1  0.360600  0.695300  0.125000  1.0  -0.0431
  C  C163  1  0.452900  0.720600  0.165270  1.0  -0.2214
  C  C164  1  0.460600  0.645700  0.199530  1.0  -0.0447
  C  C165  1  0.381300  0.545000  0.193210  1.0  -0.0645
  C  C166  1  0.626900  0.842400  0.103800  1.0  -0.1746
  C  C167  1  0.605700  0.878400  0.048400  1.0  -0.0479
  C  C168  1  0.649100  0.865600  0.995600  1.0  -0.0228
  C  C169  1  0.711800  0.817600  0.998030  1.0  -0.1441
  C  C170  1  0.734800  0.784300  0.053400  1.0  -0.0077
  C  C171  1  0.691500  0.795400  0.106630  1.0  -0.0494
  C  C172  1  0.756900  0.802200  0.940290  1.0  0.6888
  C  C173  1  0.067300  0.908000  0.004760  1.0  0.1488
  C  C174  1  0.126200  0.929100  0.062070  1.0  -0.1082
  C  C175  1  0.159600  0.859800  0.087500  1.0  0.0624
  C  C176  1  0.133300  0.771200  0.051630  1.0  -0.1209
  C  C177  1  0.076300  0.752000  0.994000  1.0  0.151
  C  C178  1  0.220500  0.881400  0.150120  1.0  -0.0419
  C  C179  1  0.281300  0.981000  0.173580  1.0  -0.1281
  C  C180  1  0.342900  0.003100  0.229930  1.0  0.2804
  C  C181  1  0.340100  0.924200  0.264630  1.0  -0.135
  C  C182  1  0.279600  0.822100  0.241960  1.0  0.021
  C  C183  1  0.219400  0.801700  0.184230  1.0  -0.0931
  C  C184  1  0.194100  0.558600  0.305790  1.0  0.1416
  C  C185  1  0.193600  0.636900  0.271480  1.0  -0.1081
  C  C186  1  0.280400  0.737500  0.277920  1.0  0.0757
  C  C187  1  0.366300  0.754100  0.320710  1.0  -0.1003
  C  C188  1  0.365700  0.674600  0.355200  1.0  0.1386
  C  C189  1  0.496470  0.153210  0.272510  1.0  0.2048
  C  C190  1  0.578250  0.155470  0.240240  1.0  -0.0797
  C  C191  1  0.684470  0.223110  0.259950  1.0  0.05
  C  C192  1  0.708910  0.288490  0.311920  1.0  -0.1074
  C  C193  1  0.627130  0.286230  0.344190  1.0  0.0282
  C  C194  1  0.520910  0.218600  0.324480  1.0  -0.0707
  C  C195  1  0.948600  0.315300  0.190540  1.0  0.1455
  C  C196  1  0.867600  0.315600  0.222170  1.0  -0.1342
  C  C197  1  0.771700  0.224700  0.225300  1.0  0.016
  C  C198  1  0.761000  0.137400  0.196420  1.0  -0.1278
  C  C199  1  0.843900  0.137500  0.166170  1.0  0.1443
  C  C200  1  0.591300  0.417700  0.485400  1.0  0.1837
  C  C201  1  0.569500  0.362500  0.435700  1.0  -0.1085
  C  C202  1  0.653200  0.353700  0.402190  1.0  -0.0039
  C  C203  1  0.758100  0.415400  0.430600  1.0  -0.0682
  C  C204  1  0.778800  0.475400  0.484300  1.0  0.1416
  C  C205  1  0.946200  0.932900  0.803470  1.0  0.6772
  C  C206  1  0.984400  0.044300  0.787840  1.0  -0.1383
  C  C207  1  0.956500  0.067900  0.729500  1.0  -0.0274
  C  C208  1  0.992800  0.169000  0.715000  1.0  -0.0153
  C  C209  1  0.057200  0.248600  0.757800  1.0  -0.1689
  C  C210  1  0.084000  0.224400  0.816600  1.0  -0.0575
  C  C211  1  0.048900  0.123000  0.831000  1.0  -0.0298
  C  C212  1  0.238400  0.414800  0.721100  1.0  -0.1898
  C  C213  1  0.250300  0.370100  0.667700  1.0  -0.0792
  C  C214  1  0.353900  0.402300  0.649000  1.0  -0.0446
  C  C215  1  0.441400  0.481400  0.682260  1.0  -0.1354
  C  C216  1  0.428300  0.526600  0.735310  1.0  -0.0796
  C  C217  1  0.324800  0.492200  0.754700  1.0  -0.0297
  C  C218  1  0.550700  0.516400  0.660470  1.0  0.668
  C  C219  1  0.067800  0.309400  0.358050  1.0  0.6799
  C  C220  1  0.956900  0.241400  0.372830  1.0  -0.1475
  C  C221  1  0.918900  0.268400  0.423930  1.0  -0.0107
  C  C222  1  0.815300  0.204600  0.439900  1.0  -0.0589
  C  C223  1  0.751500  0.114200  0.404600  1.0  -0.1845
  C  C224  1  0.787700  0.088300  0.353060  1.0  -0.055
  C  C225  1  0.889800  0.152500  0.337960  1.0  0.0067
  C  C226  1  0.646000  0.950600  0.478760  1.0  -0.1979
  C  C227  1  0.673600  0.976500  0.540600  1.0  -0.0166
  C  C228  1  0.700200  0.916800  0.578350  1.0  -0.0117
  C  C229  1  0.699600  0.829000  0.554200  1.0  -0.1117
  C  C230  1  0.670700  0.801600  0.490530  1.0  0.0011
  C  C231  1  0.644200  0.863800  0.452870  1.0  -0.0208
  C  C232  1  0.723800  0.758800  0.594520  1.0  0.7011
  C  C233  1  0.800200  0.590500  0.852250  1.0  0.6653
  C  C234  1  0.710800  0.479900  0.846140  1.0  -0.1184
  C  C235  1  0.720800  0.406400  0.880500  1.0  -0.022
  C  C236  1  0.639400  0.304700  0.875000  1.0  -0.047
  C  C237  1  0.547100  0.279400  0.834730  1.0  -0.2223
  C  C238  1  0.539400  0.354300  0.800470  1.0  -0.041
  C  C239  1  0.618700  0.455000  0.806790  1.0  -0.0648
  C  C240  1  0.373100  0.157600  0.896200  1.0  -0.1749
  C  C241  1  0.394300  0.121600  0.951600  1.0  -0.0475
  C  C242  1  0.350900  0.134400  0.004400  1.0  -0.0251
  C  C243  1  0.288200  0.182400  0.001970  1.0  -0.1428
  C  C244  1  0.265200  0.215700  0.946600  1.0  -0.0082
  C  C245  1  0.308500  0.204600  0.893370  1.0  -0.0494
  C  C246  1  0.243100  0.197800  0.059710  1.0  0.6906
  S  S247  1  0.893690  0.623010  0.259790  1.0  1.168
  S  S248  1  0.378390  0.965160  0.571020  1.0  0.9126
  S  S249  1  0.560200  0.845340  0.168420  1.0  1.1323
  S  S250  1  0.106310  0.376990  0.740210  1.0  1.1681
  S  S251  1  0.621610  0.034840  0.428980  1.0  0.9127
  S  S252  1  0.439800  0.154660  0.831580  1.0  1.131
  N  N253  1  0.956100  0.180200  0.029610  1.0  -0.3309
  N  N254  1  0.721000  0.423200  0.652440  1.0  -0.3471
  N  N255  1  0.062900  0.773400  0.837560  1.0  -0.3336
  N  N256  1  0.306500  0.525700  0.488270  1.0  -0.3366
  N  N257  1  0.043900  0.819800  0.970390  1.0  -0.3306
  N  N258  1  0.279000  0.576800  0.347560  1.0  -0.345
  N  N259  1  0.937100  0.226600  0.162440  1.0  -0.3356
  N  N260  1  0.693500  0.474300  0.511730  1.0  -0.335
  O  O261  1  0.613700  0.897900  0.744940  1.0  -0.2671
  O  O262  1  0.028100  0.083500  0.142770  1.0  -0.5727
  O  O263  1  0.101600  0.132860  0.238670  1.0  -0.6438
  O  O264  1  0.885400  0.563300  0.206840  1.0  -0.562
  O  O265  1  0.954500  0.618500  0.315430  1.0  -0.62
  O  O266  1  0.365340  0.423490  0.307930  1.0  -0.6558
  O  O267  1  0.448600  0.520000  0.391900  1.0  -0.5833
  O  O268  1  0.131800  0.383670  0.100430  1.0  -0.5888
  O  O269  1  0.196460  0.343440  0.183690  1.0  -0.6367
  O  O270  1  0.516600  0.917400  0.156120  1.0  -0.6084
  O  O271  1  0.628300  0.859400  0.224480  1.0  -0.6315
  O  O272  1  0.712600  0.811800  0.890570  1.0  -0.61
  O  O273  1  0.827700  0.774600  0.946390  1.0  -0.6239
  O  O274  1  0.252700  0.214480  0.349120  1.0  -0.609
  O  O275  1  0.286400  0.322890  0.430190  1.0  -0.6138
  O  O276  1  0.407500  0.902200  0.534090  1.0  -0.6205
  O  O277  1  0.444200  0.025800  0.625640  1.0  -0.6884
  O  O278  1  0.874400  0.617000  0.602240  1.0  -0.5875
  O  O279  1  0.900330  0.707320  0.690940  1.0  -0.6182
  O  O280  1  0.386300  0.102100  0.255060  1.0  -0.2682
  O  O281  1  0.971900  0.916500  0.857230  1.0  -0.5717
  O  O282  1  0.898400  0.867140  0.761330  1.0  -0.6448
  O  O283  1  0.114600  0.436700  0.793160  1.0  -0.5641
  O  O284  1  0.045500  0.381500  0.684570  1.0  -0.6216
  O  O285  1  0.634660  0.576510  0.692070  1.0  -0.6562
  O  O286  1  0.551400  0.480000  0.608100  1.0  -0.5825
  O  O287  1  0.868200  0.616330  0.899570  1.0  -0.5887
  O  O288  1  0.803540  0.656560  0.816310  1.0  -0.6361
  O  O289  1  0.483400  0.082600  0.843880  1.0  -0.6095
  O  O290  1  0.371700  0.140600  0.775520  1.0  -0.6307
  O  O291  1  0.287400  0.188200  0.109430  1.0  -0.6094
  O  O292  1  0.172300  0.225400  0.053610  1.0  -0.6235
  O  O293  1  0.747300  0.785520  0.650880  1.0  -0.6098
  O  O294  1  0.713600  0.677110  0.569810  1.0  -0.6115
  O  O295  1  0.592500  0.097800  0.465910  1.0  -0.6187
  O  O296  1  0.555800  0.974200  0.374360  1.0  -0.6899
  O  O297  1  0.125600  0.383000  0.397760  1.0  -0.5883
  O  O298  1  0.099670  0.292680  0.309060  1.0  -0.6197
