# generated using pymatgen
data_Al3P3HO13
_symmetry_space_group_name_H-M   'P 1'
_cell_length_a   8.61910000
_cell_length_b   17.80310000
_cell_length_c   9.02570000
_cell_angle_alpha   90.00000000
_cell_angle_beta   107.35700000
_cell_angle_gamma   90.00000000
_symmetry_Int_Tables_number   1
_chemical_formula_structural   Al3P3HO13
_chemical_formula_sum   'Al12 P12 H4 O52'
_cell_volume   1321.89883311
_cell_formula_units_Z   4
loop_
 _symmetry_equiv_pos_site_id
 _symmetry_equiv_pos_as_xyz
  1  'x, y, z'
loop_
 _atom_site_type_symbol
 _atom_site_label
 _atom_site_symmetry_multiplicity
 _atom_site_fract_x
 _atom_site_fract_y
 _atom_site_fract_z
 _atom_site_occupancy
 _atom_site_charge
  Al  Al1  1  0.077200  0.295570  0.287430  1.0  1.8802
  Al  Al2  1  0.137040  0.109620  0.160940  1.0  1.8821
  Al  Al3  1  0.023650  0.177540  0.693160  1.0  1.9865
  Al  Al4  1  0.422800  0.795570  0.212570  1.0  1.8799
  Al  Al5  1  0.362960  0.609620  0.339060  1.0  1.8817
  Al  Al6  1  0.476350  0.677540  0.806840  1.0  1.9872
  Al  Al7  1  0.922800  0.704430  0.712570  1.0  1.876
  Al  Al8  1  0.862960  0.890380  0.839060  1.0  1.8828
  Al  Al9  1  0.976350  0.822460  0.306840  1.0  1.9874
  Al  Al10  1  0.577200  0.204430  0.787430  1.0  1.8767
  Al  Al11  1  0.637040  0.390380  0.660940  1.0  1.8837
  Al  Al12  1  0.523650  0.322460  0.193160  1.0  1.9867
  P  P13  1  0.347600  0.427550  0.361000  1.0  1.9053
  P  P14  1  0.806890  0.292170  0.474310  1.0  1.881
  P  P15  1  0.266340  0.169050  0.496100  1.0  1.9058
  P  P16  1  0.152400  0.927550  0.139000  1.0  1.91
  P  P17  1  0.693110  0.792170  0.025690  1.0  1.8808
  P  P18  1  0.233660  0.669050  0.003900  1.0  1.9061
  P  P19  1  0.652400  0.572450  0.639000  1.0  1.9107
  P  P20  1  0.193110  0.707830  0.525690  1.0  1.881
  P  P21  1  0.733660  0.830950  0.503900  1.0  1.9056
  P  P22  1  0.847600  0.072450  0.861000  1.0  1.9059
  P  P23  1  0.306890  0.207830  0.974310  1.0  1.8813
  P  P24  1  0.766340  0.330950  0.996100  1.0  1.9053
  H  H25  1  0.000000  0.214300  0.087200  1.0  0.412
  H  H26  1  0.500000  0.714300  0.412800  1.0  0.4147
  H  H27  1  0.000000  0.785700  0.912800  1.0  0.4148
  H  H28  1  0.500000  0.285700  0.587200  1.0  0.4122
  O  O29  1  0.044800  0.206080  0.179500  1.0  -0.8015
  O  O30  1  0.193100  0.380980  0.308400  1.0  -0.9655
  O  O31  1  0.246600  0.250810  0.438400  1.0  -0.8951
  O  O32  1  0.945700  0.306450  0.407500  1.0  -1.0016
  O  O33  1  0.432700  0.158920  0.613200  1.0  -0.8614
  O  O34  1  0.461500  0.405240  0.263200  1.0  -0.9216
  O  O35  1  0.849400  0.226970  0.591600  1.0  -0.9479
  O  O36  1  0.132300  0.149240  0.570600  1.0  -1.0095
  O  O37  1  0.650900  0.269300  0.345300  1.0  -0.8898
  O  O38  1  0.248900  0.113460  0.363200  1.0  -0.8826
  O  O39  1  0.437500  0.413410  0.531900  1.0  -0.9118
  O  O40  1  0.300800  0.509250  0.332400  1.0  -0.8362
  O  O41  1  0.773200  0.362980  0.553300  1.0  -0.9267
  O  O42  1  0.455200  0.706080  0.320500  1.0  -0.8061
  O  O43  1  0.306900  0.880980  0.191600  1.0  -0.9674
  O  O44  1  0.253400  0.750810  0.061600  1.0  -0.8955
  O  O45  1  0.554300  0.806450  0.092500  1.0  -1.0013
  O  O46  1  0.067300  0.658920  0.886800  1.0  -0.8609
  O  O47  1  0.038500  0.905240  0.236800  1.0  -0.9213
  O  O48  1  0.650600  0.726970  0.908400  1.0  -0.947
  O  O49  1  0.367700  0.649240  0.929400  1.0  -1.0083
  O  O50  1  0.849100  0.769300  0.154700  1.0  -0.8891
  O  O51  1  0.251100  0.613460  0.136800  1.0  -0.8823
  O  O52  1  0.062500  0.913410  0.968100  1.0  -0.9128
  O  O53  1  0.199200  0.009250  0.167600  1.0  -0.8366
  O  O54  1  0.726800  0.862980  0.946700  1.0  -0.9267
  O  O55  1  0.955200  0.793920  0.820500  1.0  -0.8057
  O  O56  1  0.806900  0.619020  0.691600  1.0  -0.9689
  O  O57  1  0.753400  0.749190  0.561600  1.0  -0.8959
  O  O58  1  0.054300  0.693550  0.592500  1.0  -1.0016
  O  O59  1  0.567300  0.841080  0.386800  1.0  -0.8621
  O  O60  1  0.538500  0.594760  0.736800  1.0  -0.9197
  O  O61  1  0.150600  0.773030  0.408400  1.0  -0.9478
  O  O62  1  0.867700  0.850760  0.429400  1.0  -1.0083
  O  O63  1  0.349100  0.730700  0.654700  1.0  -0.8871
  O  O64  1  0.751100  0.886540  0.636800  1.0  -0.8851
  O  O65  1  0.562500  0.586590  0.468100  1.0  -0.9129
  O  O66  1  0.699200  0.490750  0.667600  1.0  -0.8375
  O  O67  1  0.226800  0.637020  0.446700  1.0  -0.9283
  O  O68  1  0.544800  0.293920  0.679500  1.0  -0.8023
  O  O69  1  0.693100  0.119020  0.808400  1.0  -0.9661
  O  O70  1  0.746600  0.249190  0.938400  1.0  -0.8957
  O  O71  1  0.445700  0.193550  0.907500  1.0  -1.0017
  O  O72  1  0.932700  0.341080  0.113200  1.0  -0.8624
  O  O73  1  0.961500  0.094760  0.763200  1.0  -0.9195
  O  O74  1  0.349400  0.273030  0.091600  1.0  -0.9489
  O  O75  1  0.632300  0.350760  0.070600  1.0  -1.0092
  O  O76  1  0.150900  0.230700  0.845300  1.0  -0.8875
  O  O77  1  0.748900  0.386540  0.863200  1.0  -0.8847
  O  O78  1  0.937500  0.086590  0.031900  1.0  -0.9116
  O  O79  1  0.800800  0.990750  0.832400  1.0  -0.8366
  O  O80  1  0.273200  0.137020  0.053300  1.0  -0.9295
