# generated using pymatgen
data_Al2Zn(PO4)3
_symmetry_space_group_name_H-M   'P 1'
_cell_length_a   14.73300000
_cell_length_b   13.07900000
_cell_length_c   15.21000000
_cell_angle_alpha   90.00000000
_cell_angle_beta   110.99000000
_cell_angle_gamma   90.00000000
_symmetry_Int_Tables_number   1
_chemical_formula_structural   Al2Zn(PO4)3
_chemical_formula_sum   'Al16 Zn8 P24 O96'
_cell_volume   2736.37597781
_cell_formula_units_Z   8
loop_
 _symmetry_equiv_pos_site_id
 _symmetry_equiv_pos_as_xyz
  1  'x, y, z'
loop_
 _atom_site_type_symbol
 _atom_site_label
 _atom_site_symmetry_multiplicity
 _atom_site_fract_x
 _atom_site_fract_y
 _atom_site_fract_z
 _atom_site_occupancy
 _atom_site_charge
  Al  Al1  1  0.875150  0.809480  0.123890  1.0  1.9969
  Al  Al2  1  0.583130  0.606760  0.162790  1.0  2.0733
  Al  Al3  1  0.751060  0.873880  0.417990  1.0  1.957
  Al  Al4  1  0.375150  0.309480  0.123890  1.0  1.9969
  Al  Al5  1  0.251060  0.373880  0.417990  1.0  1.957
  Al  Al6  1  0.124850  0.809480  0.376110  1.0  1.9954
  Al  Al7  1  0.416870  0.606760  0.337210  1.0  2.0736
  Al  Al8  1  0.624850  0.309480  0.376110  1.0  1.9954
  Al  Al9  1  0.124850  0.190520  0.876110  1.0  1.9956
  Al  Al10  1  0.416870  0.393240  0.837210  1.0  2.0738
  Al  Al11  1  0.248940  0.126120  0.582010  1.0  1.9568
  Al  Al12  1  0.624850  0.690520  0.876110  1.0  1.9956
  Al  Al13  1  0.748940  0.626120  0.582010  1.0  1.9568
  Al  Al14  1  0.875150  0.190520  0.623890  1.0  1.9969
  Al  Al15  1  0.583130  0.393240  0.662790  1.0  2.0734
  Al  Al16  1  0.375150  0.690520  0.623890  1.0  1.9969
  Zn  Zn17  1  0.083130  0.106760  0.162790  1.0  1.1853
  Zn  Zn18  1  0.248940  0.873880  0.082010  1.0  1.173
  Zn  Zn19  1  0.748940  0.373880  0.082010  1.0  1.173
  Zn  Zn20  1  0.916870  0.106760  0.337210  1.0  1.1858
  Zn  Zn21  1  0.916870  0.893240  0.837210  1.0  1.1866
  Zn  Zn22  1  0.751060  0.126120  0.917990  1.0  1.1735
  Zn  Zn23  1  0.251060  0.626120  0.917990  1.0  1.1735
  Zn  Zn24  1  0.083130  0.893240  0.662790  1.0  1.1862
  P  P25  1  0.375670  0.686060  0.127720  1.0  2.1121
  P  P26  1  0.746080  0.612730  0.079130  1.0  2.1414
  P  P27  1  0.909150  0.867540  0.329880  1.0  2.1211
  P  P28  1  0.875670  0.186060  0.127720  1.0  2.1125
  P  P29  1  0.246080  0.112730  0.079130  1.0  2.1414
  P  P30  1  0.409150  0.367540  0.329880  1.0  2.1225
  P  P31  1  0.624330  0.686060  0.372280  1.0  2.1124
  P  P32  1  0.253920  0.612730  0.420870  1.0  2.1391
  P  P33  1  0.090850  0.867540  0.170120  1.0  2.1134
  P  P34  1  0.124330  0.186060  0.372280  1.0  2.1112
  P  P35  1  0.753920  0.112730  0.420870  1.0  2.1391
  P  P36  1  0.590850  0.367540  0.170120  1.0  2.1134
  P  P37  1  0.624330  0.313940  0.872280  1.0  2.1126
  P  P38  1  0.253920  0.387270  0.920870  1.0  2.1397
  P  P39  1  0.090850  0.132460  0.670120  1.0  2.122
  P  P40  1  0.124330  0.813940  0.872280  1.0  2.1114
  P  P41  1  0.753920  0.887270  0.920870  1.0  2.1397
  P  P42  1  0.590850  0.632460  0.670120  1.0  2.1235
  P  P43  1  0.375670  0.313940  0.627720  1.0  2.111
  P  P44  1  0.746080  0.387270  0.579130  1.0  2.1414
  P  P45  1  0.909150  0.132460  0.829880  1.0  2.1126
  P  P46  1  0.875670  0.813940  0.627720  1.0  2.111
  P  P47  1  0.246080  0.887270  0.579130  1.0  2.1414
  P  P48  1  0.409150  0.632460  0.829880  1.0  2.1126
  O  O49  1  0.472100  0.673500  0.113300  1.0  -0.9784
  O  O50  1  0.360900  0.800700  0.136400  1.0  -0.9031
  O  O51  1  0.376200  0.628000  0.214500  1.0  -0.9983
  O  O52  1  0.834600  0.680500  0.110400  1.0  -0.9519
  O  O53  1  0.859500  0.869600  0.223100  1.0  -0.955
  O  O54  1  0.672300  0.652500  0.120500  1.0  -1.0015
  O  O55  1  0.700500  0.613700  0.972800  1.0  -0.9833
  O  O56  1  0.841100  0.823800  0.374100  1.0  -0.9138
  O  O57  1  0.291500  0.642600  0.045700  1.0  -0.9375
  O  O58  1  0.778800  0.506000  0.112700  1.0  -0.9336
  O  O59  1  0.937600  0.975800  0.363500  1.0  -1.042
  O  O60  1  0.999800  0.798900  0.359900  1.0  -0.9503
  O  O61  1  0.972100  0.173500  0.113300  1.0  -0.9798
  O  O62  1  0.860900  0.300700  0.136400  1.0  -0.9031
  O  O63  1  0.876200  0.128000  0.214500  1.0  -0.9968
  O  O64  1  0.334600  0.180500  0.110400  1.0  -0.9519
  O  O65  1  0.359500  0.369600  0.223100  1.0  -0.955
  O  O66  1  0.172300  0.152500  0.120500  1.0  -1.0014
  O  O67  1  0.200500  0.113700  0.972800  1.0  -0.9833
  O  O68  1  0.341100  0.323800  0.374100  1.0  -0.9138
  O  O69  1  0.791500  0.142600  0.045700  1.0  -0.9375
  O  O70  1  0.278800  0.006000  0.112700  1.0  -0.9336
  O  O71  1  0.437600  0.475800  0.363500  1.0  -1.042
  O  O72  1  0.499800  0.298900  0.359900  1.0  -0.9503
  O  O73  1  0.527900  0.673500  0.386700  1.0  -0.9807
  O  O74  1  0.639100  0.800700  0.363600  1.0  -0.9072
  O  O75  1  0.623800  0.628000  0.285500  1.0  -0.9974
  O  O76  1  0.165400  0.680500  0.389600  1.0  -0.9496
  O  O77  1  0.140500  0.869600  0.276900  1.0  -0.9547
  O  O78  1  0.327700  0.652500  0.379500  1.0  -1.0013
  O  O79  1  0.299500  0.613700  0.527200  1.0  -0.9859
  O  O80  1  0.158900  0.823800  0.125900  1.0  -0.9101
  O  O81  1  0.708500  0.642600  0.454300  1.0  -0.9561
  O  O82  1  0.221200  0.506000  0.387300  1.0  -0.9376
  O  O83  1  0.062400  0.975800  0.136500  1.0  -1.0429
  O  O84  1  0.000200  0.798900  0.140100  1.0  -0.9506
  O  O85  1  0.027900  0.173500  0.386700  1.0  -0.9811
  O  O86  1  0.139100  0.300700  0.363600  1.0  -0.9072
  O  O87  1  0.123800  0.128000  0.285500  1.0  -0.9954
  O  O88  1  0.665400  0.180500  0.389600  1.0  -0.9496
  O  O89  1  0.640500  0.369600  0.276900  1.0  -0.9547
  O  O90  1  0.827700  0.152500  0.379500  1.0  -1.0014
  O  O91  1  0.799500  0.113700  0.527200  1.0  -0.9859
  O  O92  1  0.658900  0.323800  0.125900  1.0  -0.9101
  O  O93  1  0.208500  0.142600  0.454300  1.0  -0.9561
  O  O94  1  0.721200  0.006000  0.387300  1.0  -0.9376
  O  O95  1  0.562400  0.475800  0.136500  1.0  -1.0428
  O  O96  1  0.500200  0.298900  0.140100  1.0  -0.9506
  O  O97  1  0.527900  0.326500  0.886700  1.0  -0.979
  O  O98  1  0.639100  0.199300  0.863600  1.0  -0.9025
  O  O99  1  0.623800  0.372000  0.785500  1.0  -0.9974
  O  O100  1  0.165400  0.319500  0.889600  1.0  -0.9499
  O  O101  1  0.140500  0.130400  0.776900  1.0  -0.9545
  O  O102  1  0.327700  0.347500  0.879500  1.0  -0.9994
  O  O103  1  0.299500  0.386300  0.027200  1.0  -0.9837
  O  O104  1  0.158900  0.176200  0.625900  1.0  -0.914
  O  O105  1  0.708500  0.357400  0.954300  1.0  -0.9379
  O  O106  1  0.221200  0.494000  0.887300  1.0  -0.9351
  O  O107  1  0.062400  0.024200  0.636500  1.0  -1.0432
  O  O108  1  0.000200  0.201100  0.640100  1.0  -0.9536
  O  O109  1  0.027900  0.826500  0.886700  1.0  -0.9803
  O  O110  1  0.139100  0.699300  0.863600  1.0  -0.9025
  O  O111  1  0.123800  0.872000  0.785500  1.0  -0.9956
  O  O112  1  0.665400  0.819500  0.889600  1.0  -0.9499
  O  O113  1  0.640500  0.630400  0.776900  1.0  -0.9545
  O  O114  1  0.827700  0.847500  0.879500  1.0  -0.9994
  O  O115  1  0.799500  0.886300  0.027200  1.0  -0.9837
  O  O116  1  0.658900  0.676200  0.625900  1.0  -0.914
  O  O117  1  0.208500  0.857400  0.954300  1.0  -0.9379
  O  O118  1  0.721200  0.994000  0.887300  1.0  -0.9351
  O  O119  1  0.562400  0.524200  0.636500  1.0  -1.0431
  O  O120  1  0.500200  0.701100  0.640100  1.0  -0.9536
  O  O121  1  0.472100  0.326500  0.613300  1.0  -0.9789
  O  O122  1  0.360900  0.199300  0.636400  1.0  -0.9049
  O  O123  1  0.376200  0.372000  0.714500  1.0  -0.9987
  O  O124  1  0.834600  0.319500  0.610400  1.0  -0.9517
  O  O125  1  0.859500  0.130400  0.723100  1.0  -0.9551
  O  O126  1  0.672300  0.347500  0.620500  1.0  -0.9994
  O  O127  1  0.700500  0.386300  0.472800  1.0  -0.9832
  O  O128  1  0.841100  0.176200  0.874100  1.0  -0.9148
  O  O129  1  0.291500  0.357400  0.545700  1.0  -0.9564
  O  O130  1  0.778800  0.494000  0.612700  1.0  -0.9349
  O  O131  1  0.937600  0.024200  0.863500  1.0  -1.0419
  O  O132  1  0.999800  0.201100  0.859900  1.0  -0.9524
  O  O133  1  0.972100  0.826500  0.613300  1.0  -0.9793
  O  O134  1  0.860900  0.699300  0.636400  1.0  -0.9049
  O  O135  1  0.876200  0.872000  0.714500  1.0  -0.9969
  O  O136  1  0.334600  0.819500  0.610400  1.0  -0.9517
  O  O137  1  0.359500  0.630400  0.723100  1.0  -0.9551
  O  O138  1  0.172300  0.847500  0.620500  1.0  -0.9995
  O  O139  1  0.200500  0.886300  0.472800  1.0  -0.9832
  O  O140  1  0.341100  0.676200  0.874100  1.0  -0.9148
  O  O141  1  0.791500  0.857400  0.545700  1.0  -0.9564
  O  O142  1  0.278800  0.994000  0.612700  1.0  -0.9349
  O  O143  1  0.437600  0.524200  0.863500  1.0  -1.0418
  O  O144  1  0.499800  0.701100  0.859900  1.0  -0.9524
