# generated using pymatgen
data_MnAl2(PO4)3
_symmetry_space_group_name_H-M   'P 1'
_cell_length_a   14.87790000
_cell_length_b   13.06330000
_cell_length_c   15.41910000
_cell_angle_alpha   90.00000000
_cell_angle_beta   110.74500000
_cell_angle_gamma   90.00000000
_symmetry_Int_Tables_number   1
_chemical_formula_structural   MnAl2(PO4)3
_chemical_formula_sum   'Mn8 Al16 P24 O96'
_cell_volume   2802.47874340
_cell_formula_units_Z   8
loop_
 _symmetry_equiv_pos_site_id
 _symmetry_equiv_pos_as_xyz
  1  'x, y, z'
loop_
 _atom_site_type_symbol
 _atom_site_label
 _atom_site_symmetry_multiplicity
 _atom_site_fract_x
 _atom_site_fract_y
 _atom_site_fract_z
 _atom_site_occupancy
 _atom_site_charge
  Mn  Mn1  1  0.257170  0.625850  0.920330  1.0  0.9093
  Mn  Mn2  1  0.416160  0.609400  0.336230  1.0  1.0867
  Mn  Mn3  1  0.757170  0.125850  0.920330  1.0  0.9093
  Mn  Mn4  1  0.916160  0.109400  0.336230  1.0  1.0867
  Mn  Mn5  1  0.742830  0.625850  0.579670  1.0  0.9111
  Mn  Mn6  1  0.242830  0.125850  0.579670  1.0  0.9111
  Mn  Mn7  1  0.583840  0.390600  0.663770  1.0  1.0871
  Mn  Mn8  1  0.083840  0.890600  0.663770  1.0  1.0871
  Al  Al9  1  0.377300  0.307550  0.124090  1.0  1.9976
  Al  Al10  1  0.742830  0.374150  0.079670  1.0  2.0155
  Al  Al11  1  0.083840  0.109400  0.163770  1.0  2.0186
  Al  Al12  1  0.877300  0.807550  0.124090  1.0  1.9976
  Al  Al13  1  0.242830  0.874150  0.079670  1.0  2.0155
  Al  Al14  1  0.583840  0.609400  0.163770  1.0  2.0186
  Al  Al15  1  0.622700  0.307550  0.375910  1.0  1.9977
  Al  Al16  1  0.257170  0.374150  0.420330  1.0  2.0154
  Al  Al17  1  0.122700  0.807550  0.375910  1.0  1.9977
  Al  Al18  1  0.757170  0.874150  0.420330  1.0  2.0154
  Al  Al19  1  0.622700  0.692450  0.875910  1.0  1.9975
  Al  Al20  1  0.916160  0.890600  0.836230  1.0  2.0186
  Al  Al21  1  0.122700  0.192450  0.875910  1.0  1.9975
  Al  Al22  1  0.416160  0.390600  0.836230  1.0  2.0186
  Al  Al23  1  0.377300  0.692450  0.624090  1.0  1.9973
  Al  Al24  1  0.877300  0.192450  0.624090  1.0  1.9973
  P  P25  1  0.244690  0.114290  0.075510  1.0  2.1667
  P  P26  1  0.874130  0.190950  0.126560  1.0  2.1546
  P  P27  1  0.588770  0.366020  0.170980  1.0  2.1485
  P  P28  1  0.744690  0.614290  0.075510  1.0  2.1661
  P  P29  1  0.374130  0.690950  0.126560  1.0  2.1546
  P  P30  1  0.088770  0.866020  0.170980  1.0  2.1409
  P  P31  1  0.755310  0.114290  0.424490  1.0  2.1613
  P  P32  1  0.125870  0.190950  0.373440  1.0  2.1551
  P  P33  1  0.411230  0.366020  0.329020  1.0  2.1478
  P  P34  1  0.255310  0.614290  0.424490  1.0  2.1613
  P  P35  1  0.625870  0.690950  0.373440  1.0  2.1551
  P  P36  1  0.911230  0.866020  0.329020  1.0  2.1478
  P  P37  1  0.755310  0.885710  0.924490  1.0  2.1609
  P  P38  1  0.125870  0.809050  0.873440  1.0  2.1554
  P  P39  1  0.411230  0.633980  0.829020  1.0  2.1462
  P  P40  1  0.255310  0.385710  0.924490  1.0  2.1609
  P  P41  1  0.625870  0.309050  0.873440  1.0  2.1554
  P  P42  1  0.911230  0.133980  0.829020  1.0  2.1476
  P  P43  1  0.244690  0.885710  0.575510  1.0  2.166
  P  P44  1  0.874130  0.809050  0.626560  1.0  2.1548
  P  P45  1  0.588770  0.633980  0.670980  1.0  2.1483
  P  P46  1  0.744690  0.385710  0.575510  1.0  2.166
  P  P47  1  0.374130  0.309050  0.626560  1.0  2.1548
  P  P48  1  0.088770  0.133980  0.670980  1.0  2.1483
  O  O49  1  0.973100  0.187800  0.120100  1.0  -0.9309
  O  O50  1  0.336800  0.177100  0.108800  1.0  -0.9282
  O  O51  1  0.657900  0.328100  0.126300  1.0  -0.9529
  O  O52  1  0.868500  0.132200  0.207900  1.0  -0.9612
  O  O53  1  0.501200  0.296200  0.139600  1.0  -0.9454
  O  O54  1  0.174600  0.156400  0.116200  1.0  -0.9579
  O  O55  1  0.637000  0.364600  0.275500  1.0  -0.9512
  O  O56  1  0.849600  0.303900  0.130400  1.0  -0.9042
  O  O57  1  0.798100  0.143600  0.042100  1.0  -0.9938
  O  O58  1  0.558600  0.474100  0.140500  1.0  -1.0162
  O  O59  1  0.271900  0.004300  0.106300  1.0  -0.9607
  O  O60  1  0.201600  0.116700  0.970600  1.0  -0.974
  O  O61  1  0.473100  0.687800  0.120100  1.0  -0.931
  O  O62  1  0.836800  0.677100  0.108800  1.0  -0.9282
  O  O63  1  0.157900  0.828100  0.126300  1.0  -0.9529
  O  O64  1  0.368500  0.632200  0.207900  1.0  -0.9608
  O  O65  1  0.001200  0.796200  0.139600  1.0  -0.9454
  O  O66  1  0.674600  0.656400  0.116200  1.0  -0.9574
  O  O67  1  0.137000  0.864600  0.275500  1.0  -0.9512
  O  O68  1  0.349600  0.803900  0.130400  1.0  -0.9042
  O  O69  1  0.298100  0.643600  0.042100  1.0  -0.9938
  O  O70  1  0.058600  0.974100  0.140500  1.0  -1.0162
  O  O71  1  0.771900  0.504300  0.106300  1.0  -0.9607
  O  O72  1  0.701600  0.616700  0.970600  1.0  -0.974
  O  O73  1  0.026900  0.187800  0.379900  1.0  -0.941
  O  O74  1  0.663200  0.177100  0.391200  1.0  -0.9293
  O  O75  1  0.342100  0.328100  0.373700  1.0  -0.9543
  O  O76  1  0.131500  0.132200  0.292100  1.0  -0.9615
  O  O77  1  0.498800  0.296200  0.360400  1.0  -0.9446
  O  O78  1  0.825400  0.156400  0.383800  1.0  -0.9521
  O  O79  1  0.363000  0.364600  0.224500  1.0  -0.9506
  O  O80  1  0.150400  0.303900  0.369600  1.0  -0.9065
  O  O81  1  0.201900  0.143600  0.457900  1.0  -0.9929
  O  O82  1  0.441400  0.474100  0.359500  1.0  -1.0155
  O  O83  1  0.728100  0.004300  0.393700  1.0  -0.9625
  O  O84  1  0.798400  0.116700  0.529400  1.0  -0.9762
  O  O85  1  0.526900  0.687800  0.379900  1.0  -0.9399
  O  O86  1  0.163200  0.677100  0.391200  1.0  -0.9293
  O  O87  1  0.842100  0.828100  0.373700  1.0  -0.9543
  O  O88  1  0.631500  0.632200  0.292100  1.0  -0.9614
  O  O89  1  0.998800  0.796200  0.360400  1.0  -0.9446
  O  O90  1  0.325400  0.656400  0.383800  1.0  -0.9521
  O  O91  1  0.863000  0.864600  0.224500  1.0  -0.9506
  O  O92  1  0.650400  0.803900  0.369600  1.0  -0.9065
  O  O93  1  0.701900  0.643600  0.457900  1.0  -0.9929
  O  O94  1  0.941400  0.974100  0.359500  1.0  -1.0155
  O  O95  1  0.228100  0.504300  0.393700  1.0  -0.9625
  O  O96  1  0.298400  0.616700  0.529400  1.0  -0.9762
  O  O97  1  0.026900  0.812200  0.879900  1.0  -0.9311
  O  O98  1  0.663200  0.822900  0.891200  1.0  -0.9283
  O  O99  1  0.342100  0.671900  0.873700  1.0  -0.9552
  O  O100  1  0.131500  0.867800  0.792100  1.0  -0.963
  O  O101  1  0.498800  0.703800  0.860400  1.0  -0.9448
  O  O102  1  0.825400  0.843600  0.883800  1.0  -0.9507
  O  O103  1  0.363000  0.635400  0.724500  1.0  -0.9515
  O  O104  1  0.150400  0.696100  0.869600  1.0  -0.904
  O  O105  1  0.201900  0.856400  0.957900  1.0  -0.993
  O  O106  1  0.441400  0.525900  0.859500  1.0  -1.0149
  O  O107  1  0.728100  0.995700  0.893700  1.0  -0.962
  O  O108  1  0.798400  0.883300  0.029400  1.0  -0.9762
  O  O109  1  0.526900  0.312200  0.879900  1.0  -0.931
  O  O110  1  0.163200  0.322900  0.891200  1.0  -0.9283
  O  O111  1  0.842100  0.171900  0.873700  1.0  -0.9552
  O  O112  1  0.631500  0.367800  0.792100  1.0  -0.9626
  O  O113  1  0.998800  0.203800  0.860400  1.0  -0.9448
  O  O114  1  0.325400  0.343600  0.883800  1.0  -0.9505
  O  O115  1  0.863000  0.135400  0.724500  1.0  -0.9515
  O  O116  1  0.650400  0.196100  0.869600  1.0  -0.904
  O  O117  1  0.701900  0.356400  0.957900  1.0  -0.993
  O  O118  1  0.941400  0.025900  0.859500  1.0  -1.0149
  O  O119  1  0.228100  0.495700  0.893700  1.0  -0.962
  O  O120  1  0.298400  0.383300  0.029400  1.0  -0.9762
  O  O121  1  0.973100  0.812200  0.620100  1.0  -0.9348
  O  O122  1  0.336800  0.822900  0.608800  1.0  -0.9295
  O  O123  1  0.657900  0.671900  0.626300  1.0  -0.9536
  O  O124  1  0.868500  0.867800  0.707900  1.0  -0.9608
  O  O125  1  0.501200  0.703800  0.639600  1.0  -0.9459
  O  O126  1  0.174600  0.843600  0.616200  1.0  -0.9545
  O  O127  1  0.637000  0.635400  0.775500  1.0  -0.9512
  O  O128  1  0.849600  0.696100  0.630400  1.0  -0.9028
  O  O129  1  0.798100  0.856400  0.542100  1.0  -0.9936
  O  O130  1  0.558600  0.525900  0.640500  1.0  -1.0166
  O  O131  1  0.271900  0.995700  0.606300  1.0  -0.9607
  O  O132  1  0.201600  0.883300  0.470600  1.0  -0.9742
  O  O133  1  0.473100  0.312200  0.620100  1.0  -0.9338
  O  O134  1  0.836800  0.322900  0.608800  1.0  -0.9295
  O  O135  1  0.157900  0.171900  0.626300  1.0  -0.9536
  O  O136  1  0.368500  0.367800  0.707900  1.0  -0.9607
  O  O137  1  0.001200  0.203800  0.639600  1.0  -0.9459
  O  O138  1  0.674600  0.343600  0.616200  1.0  -0.9545
  O  O139  1  0.137000  0.135400  0.775500  1.0  -0.9512
  O  O140  1  0.349600  0.196100  0.630400  1.0  -0.9028
  O  O141  1  0.298100  0.356400  0.542100  1.0  -0.9936
  O  O142  1  0.058600  0.025900  0.640500  1.0  -1.0166
  O  O143  1  0.771900  0.495700  0.606300  1.0  -0.9607
  O  O144  1  0.701600  0.383300  0.470600  1.0  -0.9742
