# generated using pymatgen
data_Zn3H12C14(N8Cl)2
_symmetry_space_group_name_H-M   'P 1'
_cell_length_a   15.73450000
_cell_length_b   15.74420000
_cell_length_c   20.58010000
_cell_angle_alpha   90.00000000
_cell_angle_beta   90.00000000
_cell_angle_gamma   112.11800000
_symmetry_Int_Tables_number   1
_chemical_formula_structural   Zn3H12C14(N8Cl)2
_chemical_formula_sum   'Zn12 H48 C56 N64 Cl8'
_cell_volume   4723.07066082
_cell_formula_units_Z   4
loop_
 _symmetry_equiv_pos_site_id
 _symmetry_equiv_pos_as_xyz
  1  'x, y, z'
loop_
 _atom_site_type_symbol
 _atom_site_label
 _atom_site_symmetry_multiplicity
 _atom_site_fract_x
 _atom_site_fract_y
 _atom_site_fract_z
 _atom_site_occupancy
 _atom_site_charge
  Zn  Zn1  1  0.796510  0.143950  0.910500  1.0  0.877
  Zn  Zn2  1  0.296510  0.643950  0.589500  1.0  0.8776
  Zn  Zn3  1  0.646290  0.287870  0.908260  1.0  0.9149
  Zn  Zn4  1  0.872370  0.863470  0.755190  1.0  0.7942
  Zn  Zn5  1  0.372370  0.363470  0.744810  1.0  0.7945
  Zn  Zn6  1  0.703490  0.356050  0.410500  1.0  0.8742
  Zn  Zn7  1  0.627630  0.636530  0.255190  1.0  0.794
  Zn  Zn8  1  0.203490  0.856050  0.089500  1.0  0.872
  Zn  Zn9  1  0.353710  0.712130  0.091740  1.0  0.921
  Zn  Zn10  1  0.853710  0.212130  0.408260  1.0  0.9145
  Zn  Zn11  1  0.146290  0.787870  0.591740  1.0  0.9144
  Zn  Zn12  1  0.127630  0.136530  0.244810  1.0  0.7943
  H  H13  1  0.870900  0.524300  0.742600  1.0  0.0958
  H  H14  1  0.874100  0.377700  0.346200  1.0  0.0893
  H  H15  1  0.922800  0.518900  0.417200  1.0  0.0998
  H  H16  1  0.822400  0.384200  0.671400  1.0  0.1083
  H  H17  1  0.381400  0.039600  0.879800  1.0  0.1029
  H  H18  1  0.077200  0.481100  0.582800  1.0  0.0984
  H  H19  1  0.881600  0.388200  0.268700  1.0  0.0993
  H  H20  1  0.118400  0.611800  0.731300  1.0  0.0995
  H  H21  1  0.322400  0.884200  0.828600  1.0  0.1081
  H  H22  1  0.618400  0.111800  0.768700  1.0  0.1003
  H  H23  1  0.537500  0.947900  0.285400  1.0  0.0954
  H  H24  1  0.370900  0.024300  0.757400  1.0  0.0951
  H  H25  1  0.129100  0.475700  0.257400  1.0  0.0948
  H  H26  1  0.618600  0.960400  0.120200  1.0  0.1014
  H  H27  1  0.471900  0.134700  0.237000  1.0  0.1007
  H  H28  1  0.117500  0.678500  0.330900  1.0  0.0998
  H  H29  1  0.028100  0.365300  0.737000  1.0  0.0992
  H  H30  1  0.177600  0.615800  0.328600  1.0  0.109
  H  H31  1  0.118600  0.460400  0.379800  1.0  0.1017
  H  H32  1  0.037500  0.447900  0.214600  1.0  0.0952
  H  H33  1  0.462500  0.052100  0.714600  1.0  0.0965
  H  H34  1  0.422800  0.018900  0.082800  1.0  0.1007
  H  H35  1  0.979800  0.577800  0.585400  1.0  0.0978
  H  H36  1  0.617500  0.178500  0.169100  1.0  0.1
  H  H37  1  0.882500  0.321500  0.669100  1.0  0.0986
  H  H38  1  0.382500  0.821500  0.830900  1.0  0.0989
  H  H39  1  0.528100  0.865300  0.763000  1.0  0.0987
  H  H40  1  0.941500  0.545400  0.217700  1.0  0.1001
  H  H41  1  0.677600  0.115800  0.171400  1.0  0.1093
  H  H42  1  0.479800  0.077800  0.914600  1.0  0.0976
  H  H43  1  0.460600  0.118500  0.115600  1.0  0.111
  H  H44  1  0.971900  0.634700  0.263000  1.0  0.1008
  H  H45  1  0.374100  0.877700  0.153800  1.0  0.089
  H  H46  1  0.058500  0.454600  0.782300  1.0  0.0993
  H  H47  1  0.881400  0.539600  0.620200  1.0  0.1029
  H  H48  1  0.962500  0.552100  0.785400  1.0  0.0969
  H  H49  1  0.441500  0.045400  0.282300  1.0  0.1005
  H  H50  1  0.960600  0.618500  0.384400  1.0  0.1111
  H  H51  1  0.520200  0.922200  0.085400  1.0  0.0975
  H  H52  1  0.020200  0.422200  0.414600  1.0  0.0979
  H  H53  1  0.125900  0.622300  0.653800  1.0  0.0869
  H  H54  1  0.539400  0.881500  0.884400  1.0  0.1093
  H  H55  1  0.577200  0.981100  0.917200  1.0  0.099
  H  H56  1  0.381600  0.888200  0.231300  1.0  0.1013
  H  H57  1  0.039400  0.381500  0.615600  1.0  0.1089
  H  H58  1  0.625900  0.122300  0.846200  1.0  0.087
  H  H59  1  0.629100  0.975700  0.242600  1.0  0.0946
  H  H60  1  0.558500  0.954600  0.717700  1.0  0.1004
  C  C61  1  0.086900  0.486900  0.684080  1.0  0.0391
  C  C62  1  0.397400  0.900500  0.946570  1.0  0.2951
  C  C63  1  0.066000  0.475100  0.256390  1.0  -0.2005
  C  C64  1  0.913100  0.513100  0.315920  1.0  0.0414
  C  C65  1  0.102600  0.599500  0.446570  1.0  0.2947
  C  C66  1  0.885700  0.385400  0.672930  1.0  -0.2105
  C  C67  1  0.990000  0.677800  0.691420  1.0  0.2799
  C  C68  1  0.944500  0.540300  0.622130  1.0  -0.2404
  C  C69  1  0.959100  0.555300  0.380500  1.0  -0.2491
  C  C70  1  0.816800  0.515200  0.314240  1.0  0.2716
  C  C71  1  0.626900  0.132100  0.291590  1.0  0.2744
  C  C72  1  0.410900  0.915600  0.189790  1.0  -0.2331
  C  C73  1  0.614300  0.114600  0.172930  1.0  -0.2121
  C  C74  1  0.183200  0.484800  0.685760  1.0  0.2708
  C  C75  1  0.459100  0.055300  0.119500  1.0  -0.2478
  C  C76  1  0.683200  0.984800  0.814240  1.0  0.2681
  C  C77  1  0.413100  0.013100  0.184080  1.0  0.0417
  C  C78  1  0.602600  0.099500  0.053430  1.0  0.2964
  C  C79  1  0.569200  0.073300  0.238250  1.0  0.0839
  C  C80  1  0.510000  0.822200  0.191420  1.0  0.2827
  C  C81  1  0.430800  0.926700  0.761750  1.0  0.0814
  C  C82  1  0.441600  0.942700  0.884030  1.0  0.0628
  C  C83  1  0.540900  0.944700  0.880500  1.0  -0.2479
  C  C84  1  0.558400  0.057300  0.115970  1.0  0.0623
  C  C85  1  0.555500  0.959700  0.122130  1.0  -0.2398
  C  C86  1  0.029600  0.428600  0.740340  1.0  -0.2123
  C  C87  1  0.586900  0.986900  0.815920  1.0  0.0389
  C  C88  1  0.970400  0.571400  0.259660  1.0  -0.2115
  C  C89  1  0.566000  0.975100  0.243610  1.0  -0.1969
  C  C90  1  0.897400  0.400500  0.553430  1.0  0.2936
  C  C91  1  0.910900  0.415600  0.310210  1.0  -0.233
  C  C92  1  0.470400  0.071400  0.240340  1.0  -0.2124
  C  C93  1  0.010000  0.322200  0.308580  1.0  0.2827
  C  C94  1  0.510100  0.916800  0.187040  1.0  0.0948
  C  C95  1  0.040900  0.444700  0.619500  1.0  -0.2471
  C  C96  1  0.055500  0.459700  0.377870  1.0  -0.239
  C  C97  1  0.444500  0.040300  0.877870  1.0  -0.2396
  C  C98  1  0.385700  0.885400  0.827070  1.0  -0.2108
  C  C99  1  0.930800  0.426700  0.738250  1.0  0.0829
  C  C100  1  0.126900  0.632100  0.208410  1.0  0.2736
  C  C101  1  0.069200  0.573300  0.261750  1.0  0.0822
  C  C102  1  0.010100  0.416800  0.312960  1.0  0.0938
  C  C103  1  0.529600  0.928600  0.759660  1.0  -0.2126
  C  C104  1  0.873100  0.367900  0.791590  1.0  0.276
  C  C105  1  0.058400  0.557300  0.384030  1.0  0.0614
  C  C106  1  0.114300  0.614600  0.327070  1.0  -0.2118
  C  C107  1  0.490000  0.177800  0.808580  1.0  0.2781
  C  C108  1  0.316800  0.015200  0.185760  1.0  0.2727
  C  C109  1  0.934000  0.524900  0.743610  1.0  -0.1973
  C  C110  1  0.941600  0.442700  0.615970  1.0  0.0635
  C  C111  1  0.589100  0.084400  0.810210  1.0  -0.232
  C  C112  1  0.373100  0.867900  0.708410  1.0  0.276
  C  C113  1  0.989900  0.583200  0.687040  1.0  0.0937
  C  C114  1  0.489900  0.083200  0.812960  1.0  0.0919
  C  C115  1  0.089100  0.584400  0.689790  1.0  -0.2321
  C  C116  1  0.434000  0.024900  0.756390  1.0  -0.199
  N  N117  1  0.191600  0.637000  0.527430  1.0  -0.0016
  N  N118  1  0.580800  0.162300  0.021010  1.0  -0.3674
  N  N119  1  0.861200  0.315700  0.470550  1.0  -0.0228
  N  N120  1  0.795900  0.374300  0.815010  1.0  -0.3159
  N  N121  1  0.826600  0.011100  0.833910  1.0  -0.1751
  N  N122  1  0.756800  0.039600  0.847430  1.0  -0.3038
  N  N123  1  0.670900  0.082500  0.024150  1.0  -0.3471
  N  N124  1  0.112000  0.702900  0.181720  1.0  -0.3392
  N  N125  1  0.736200  0.193300  0.357460  1.0  -0.0115
  N  N126  1  0.638800  0.184300  0.970550  1.0  -0.0218
  N  N127  1  0.318200  0.760300  0.640490  1.0  -0.0025
  N  N128  1  0.296800  0.077600  0.218470  1.0  -0.3192
  N  N129  1  0.550500  0.712000  0.214370  1.0  -0.0446
  N  N130  1  0.263800  0.806700  0.642540  1.0  -0.0117
  N  N131  1  0.888000  0.297100  0.818280  1.0  -0.3408
  N  N132  1  0.071400  0.301600  0.273510  1.0  -0.3555
  N  N133  1  0.138800  0.684300  0.529450  1.0  -0.0194
  N  N134  1  0.449500  0.288000  0.785630  1.0  -0.0443
  N  N135  1  0.293200  0.441300  0.705180  1.0  -0.0303
  N  N136  1  0.181800  0.739700  0.140490  1.0  -0.0021
  N  N137  1  0.681800  0.239700  0.359510  1.0  -0.0029
  N  N138  1  0.206800  0.058700  0.205180  1.0  -0.0251
  N  N139  1  0.763800  0.306700  0.857460  1.0  -0.0117
  N  N140  1  0.928600  0.698400  0.726490  1.0  -0.3574
  N  N141  1  0.612000  0.202900  0.318280  1.0  -0.3414
  N  N142  1  0.361200  0.815700  0.029450  1.0  -0.0208
  N  N143  1  0.050500  0.212000  0.285630  1.0  -0.0449
  N  N144  1  0.256800  0.539600  0.652570  1.0  -0.3041
  N  N145  1  0.982700  0.179700  0.326120  1.0  -0.1372
  N  N146  1  0.829100  0.417500  0.524150  1.0  -0.3437
  N  N147  1  0.243200  0.960400  0.152570  1.0  -0.3011
  N  N148  1  0.204100  0.625700  0.184990  1.0  -0.3168
  N  N149  1  0.295900  0.874300  0.684990  1.0  -0.3145
  N  N150  1  0.673400  0.488900  0.333910  1.0  -0.1759
  N  N151  1  0.517300  0.320300  0.826120  1.0  -0.139
  N  N152  1  0.236200  0.693300  0.142540  1.0  -0.0123
  N  N153  1  0.044500  0.751200  0.657640  1.0  -0.2811
  N  N154  1  0.691600  0.137000  0.972570  1.0  -0.0031
  N  N155  1  0.017300  0.820300  0.673880  1.0  -0.1394
  N  N156  1  0.818200  0.260300  0.859510  1.0  -0.003
  N  N157  1  0.793200  0.941300  0.794820  1.0  -0.0297
  N  N158  1  0.706800  0.558700  0.294820  1.0  -0.0245
  N  N159  1  0.388000  0.797100  0.681720  1.0  -0.3417
  N  N160  1  0.173400  0.988900  0.166090  1.0  -0.1759
  N  N161  1  0.704100  0.125700  0.315010  1.0  -0.3144
  N  N162  1  0.419200  0.837700  0.978990  1.0  -0.3628
  N  N163  1  0.949500  0.788000  0.714370  1.0  -0.0459
  N  N164  1  0.955500  0.248800  0.342360  1.0  -0.2879
  N  N165  1  0.329100  0.917500  0.975850  1.0  -0.3445
  N  N166  1  0.703200  0.922400  0.781530  1.0  -0.323
  N  N167  1  0.571400  0.801600  0.226490  1.0  -0.357
  N  N168  1  0.919200  0.337700  0.521010  1.0  -0.3625
  N  N169  1  0.482700  0.679700  0.173880  1.0  -0.1369
  N  N170  1  0.308400  0.863000  0.027430  1.0  0.0003
  N  N171  1  0.455500  0.748800  0.157640  1.0  -0.2881
  N  N172  1  0.743200  0.460400  0.347430  1.0  -0.3075
  N  N173  1  0.428600  0.198400  0.773510  1.0  -0.3604
  N  N174  1  0.796800  0.577600  0.281530  1.0  -0.3208
  N  N175  1  0.544500  0.251200  0.842360  1.0  -0.2802
  N  N176  1  0.326600  0.511100  0.666090  1.0  -0.1753
  N  N177  1  0.203200  0.422400  0.718470  1.0  -0.3224
  N  N178  1  0.808400  0.363000  0.472570  1.0  0.0002
  N  N179  1  0.080800  0.662300  0.478990  1.0  -0.3676
  N  N180  1  0.170900  0.582500  0.475850  1.0  -0.3473
  Cl  Cl181  1  0.411030  0.648910  0.525060  1.0  -0.4203
  Cl  Cl182  1  0.339950  0.597440  0.027170  1.0  -0.3624
  Cl  Cl183  1  0.911030  0.148910  0.974940  1.0  -0.421
  Cl  Cl184  1  0.839950  0.097440  0.472830  1.0  -0.3625
  Cl  Cl185  1  0.588970  0.351090  0.474940  1.0  -0.423
  Cl  Cl186  1  0.088970  0.851090  0.025060  1.0  -0.4229
  Cl  Cl187  1  0.160050  0.902560  0.527170  1.0  -0.3616
  Cl  Cl188  1  0.660050  0.402560  0.972830  1.0  -0.3612
