# generated using pymatgen
data_CaC8(OF)4
_symmetry_space_group_name_H-M   'P 1'
_cell_length_a   10.95000000
_cell_length_b   17.70000000
_cell_length_c   7.84300000
_cell_angle_alpha   90.00000000
_cell_angle_beta   102.33000000
_cell_angle_gamma   90.00000000
_symmetry_Int_Tables_number   1
_chemical_formula_structural   CaC8(OF)4
_chemical_formula_sum   'Ca4 C32 O16 F16'
_cell_volume   1485.02847000
_cell_formula_units_Z   4
loop_
 _symmetry_equiv_pos_site_id
 _symmetry_equiv_pos_as_xyz
  1  'x, y, z'
loop_
 _atom_site_type_symbol
 _atom_site_label
 _atom_site_symmetry_multiplicity
 _atom_site_fract_x
 _atom_site_fract_y
 _atom_site_fract_z
 _atom_site_occupancy
 _atom_site_charge
  Ca  Ca1  1  0.500000  0.532170  0.250000  1.0  1.6144
  Ca  Ca2  1  0.000000  0.032170  0.250000  1.0  1.6144
  Ca  Ca3  1  0.500000  0.467830  0.750000  1.0  1.6182
  Ca  Ca4  1  0.000000  0.967830  0.750000  1.0  1.6182
  C  C5  1  0.359000  0.400000  0.092500  1.0  0.7343
  C  C6  1  0.302600  0.323200  0.044100  1.0  -0.2484
  C  C7  1  0.178800  0.307700  0.037900  1.0  0.1828
  C  C8  1  0.127400  0.237600  0.994000  1.0  0.1825
  C  C9  1  0.859000  0.900000  0.092500  1.0  0.7343
  C  C10  1  0.802600  0.823200  0.044100  1.0  -0.2484
  C  C11  1  0.678800  0.807700  0.037900  1.0  0.1828
  C  C12  1  0.627400  0.737600  0.994000  1.0  0.1825
  C  C13  1  0.641000  0.400000  0.407500  1.0  0.7344
  C  C14  1  0.697400  0.323200  0.455900  1.0  -0.2482
  C  C15  1  0.821200  0.307700  0.462100  1.0  0.1828
  C  C16  1  0.872600  0.237600  0.506000  1.0  0.183
  C  C17  1  0.141000  0.900000  0.407500  1.0  0.7344
  C  C18  1  0.197400  0.823200  0.455900  1.0  -0.2482
  C  C19  1  0.321200  0.807700  0.462100  1.0  0.1828
  C  C20  1  0.372600  0.737600  0.506000  1.0  0.183
  C  C21  1  0.641000  0.600000  0.907500  1.0  0.7347
  C  C22  1  0.697400  0.676800  0.955900  1.0  -0.2485
  C  C23  1  0.821200  0.692300  0.962100  1.0  0.1826
  C  C24  1  0.872600  0.762400  0.006000  1.0  0.1833
  C  C25  1  0.141000  0.100000  0.907500  1.0  0.7347
  C  C26  1  0.197400  0.176800  0.955900  1.0  -0.2485
  C  C27  1  0.321200  0.192300  0.962100  1.0  0.1826
  C  C28  1  0.372600  0.262400  0.006000  1.0  0.1833
  C  C29  1  0.359000  0.600000  0.592500  1.0  0.7345
  C  C30  1  0.302600  0.676800  0.544100  1.0  -0.2487
  C  C31  1  0.178800  0.692300  0.537900  1.0  0.1832
  C  C32  1  0.127400  0.762400  0.494000  1.0  0.1829
  C  C33  1  0.859000  0.100000  0.592500  1.0  0.7345
  C  C34  1  0.802600  0.176800  0.544100  1.0  -0.2487
  C  C35  1  0.678800  0.192300  0.537900  1.0  0.1832
  C  C36  1  0.627400  0.262400  0.494000  1.0  0.1829
  O  O37  1  0.353700  0.426010  0.237200  1.0  -0.5997
  O  O38  1  0.411600  0.432390  0.984400  1.0  -0.8051
  O  O39  1  0.853700  0.926010  0.237200  1.0  -0.5997
  O  O40  1  0.911600  0.932390  0.984400  1.0  -0.8051
  O  O41  1  0.646300  0.426010  0.262800  1.0  -0.5982
  O  O42  1  0.588400  0.432390  0.515600  1.0  -0.8052
  O  O43  1  0.146300  0.926010  0.262800  1.0  -0.5982
  O  O44  1  0.088400  0.932390  0.515600  1.0  -0.8052
  O  O45  1  0.646300  0.573990  0.762800  1.0  -0.5994
  O  O46  1  0.588400  0.567610  0.015600  1.0  -0.8044
  O  O47  1  0.146300  0.073990  0.762800  1.0  -0.5994
  O  O48  1  0.088400  0.067610  0.015600  1.0  -0.8044
  O  O49  1  0.353700  0.573990  0.737200  1.0  -0.599
  O  O50  1  0.411600  0.567610  0.484400  1.0  -0.8059
  O  O51  1  0.853700  0.073990  0.737200  1.0  -0.599
  O  O52  1  0.911600  0.067610  0.484400  1.0  -0.8059
  F  F53  1  0.104800  0.364710  0.071200  1.0  -0.1388
  F  F54  1  0.004700  0.228240  0.988100  1.0  -0.1209
  F  F55  1  0.604800  0.864710  0.071200  1.0  -0.1388
  F  F56  1  0.504700  0.728240  0.988100  1.0  -0.1209
  F  F57  1  0.895200  0.364710  0.428800  1.0  -0.1366
  F  F58  1  0.995300  0.228240  0.511900  1.0  -0.1179
  F  F59  1  0.395200  0.864710  0.428800  1.0  -0.1366
  F  F60  1  0.495300  0.728240  0.511900  1.0  -0.1179
  F  F61  1  0.895200  0.635290  0.928800  1.0  -0.1345
  F  F62  1  0.995300  0.771760  0.011900  1.0  -0.1181
  F  F63  1  0.395200  0.135290  0.928800  1.0  -0.1345
  F  F64  1  0.495300  0.271760  0.011900  1.0  -0.1181
  F  F65  1  0.104800  0.635290  0.571200  1.0  -0.1358
  F  F66  1  0.004700  0.771760  0.488100  1.0  -0.1205
  F  F67  1  0.604800  0.135290  0.571200  1.0  -0.1358
  F  F68  1  0.504700  0.271760  0.488100  1.0  -0.1205
