# generated using pymatgen
data_NiH28(C7N2)4
_symmetry_space_group_name_H-M   'P 1'
_cell_length_a   14.64900000
_cell_length_b   13.47000000
_cell_length_c   24.39900000
_cell_angle_alpha   90.00000000
_cell_angle_beta   106.60700000
_cell_angle_gamma   90.00000000
_symmetry_Int_Tables_number   1
_chemical_formula_structural   NiH28(C7N2)4
_chemical_formula_sum   'Ni4 H112 C112 N32'
_cell_volume   4613.63782753
_cell_formula_units_Z   4
loop_
 _symmetry_equiv_pos_site_id
 _symmetry_equiv_pos_as_xyz
  1  'x, y, z'
loop_
 _atom_site_type_symbol
 _atom_site_label
 _atom_site_symmetry_multiplicity
 _atom_site_fract_x
 _atom_site_fract_y
 _atom_site_fract_z
 _atom_site_occupancy
 _atom_site_charge
  Ni  Ni1  1  0.355760  0.153090  0.226040  1.0  0.4678
  Ni  Ni2  1  0.144240  0.653090  0.273950  1.0  0.4656
  Ni  Ni3  1  0.644240  0.846910  0.773950  1.0  0.4662
  Ni  Ni4  1  0.855760  0.346910  0.726040  1.0  0.4702
  H  H5  1  0.300600  0.925400  0.371100  1.0  0.1023
  H  H6  1  0.267700  0.966100  0.269900  1.0  0.0806
  H  H7  1  0.505400  0.098200  0.349400  1.0  0.0781
  H  H8  1  0.519300  0.871900  0.442000  1.0  0.0959
  H  H9  1  0.409300  0.196300  0.416800  1.0  0.1127
  H  H10  1  0.407600  0.228900  0.478200  1.0  0.1075
  H  H11  1  0.326400  0.161100  0.440900  1.0  0.1096
  H  H12  1  0.355900  0.928800  0.171300  1.0  0.078
  H  H13  1  0.235900  0.868300  0.086700  1.0  0.1015
  H  H14  1  0.150600  0.123500  0.135100  1.0  0.0847
  H  H15  1  0.143600  0.199100  0.037200  1.0  0.1135
  H  H16  1  0.134800  0.183600  0.972200  1.0  0.1204
  H  H17  1  0.208100  0.120800  0.018700  1.0  0.116
  H  H18  1  0.020000  0.879700  0.068900  1.0  0.0778
  H  H19  1  0.543800  0.016300  0.235400  1.0  0.0768
  H  H20  1  0.583400  0.160100  0.103900  1.0  0.1106
  H  H21  1  0.439800  0.221900  0.122700  1.0  0.085
  H  H22  1  0.737100  0.052700  0.259800  1.0  0.0963
  H  H23  1  0.793600  0.875500  0.111600  1.0  0.0891
  H  H24  1  0.928000  0.910100  0.310700  1.0  0.1125
  H  H25  1  0.888900  0.014200  0.321900  1.0  0.1149
  H  H26  1  0.968600  0.007000  0.290800  1.0  0.1099
  H  H27  1  0.556300  0.939200  0.082600  1.0  0.1112
  H  H28  1  0.630200  0.885700  0.057300  1.0  0.1108
  H  H29  1  0.618000  0.001200  0.052000  1.0  0.116
  H  H30  1  0.929300  0.739900  0.232500  1.0  0.0711
  H  H31  1  0.022300  0.977000  0.171500  1.0  0.1102
  H  H32  1  0.151800  0.856400  0.201300  1.0  0.0848
  H  H33  1  0.199400  0.425400  0.128900  1.0  0.1014
  H  H34  1  0.232300  0.466100  0.230100  1.0  0.0802
  H  H35  1  0.994600  0.598200  0.150600  1.0  0.0777
  H  H36  1  0.980700  0.371900  0.058000  1.0  0.0961
  H  H37  1  0.090700  0.696300  0.083200  1.0  0.1137
  H  H38  1  0.092400  0.728900  0.021800  1.0  0.108
  H  H39  1  0.173600  0.661100  0.059100  1.0  0.1082
  H  H40  1  0.144100  0.428800  0.328700  1.0  0.0776
  H  H41  1  0.264100  0.368300  0.413300  1.0  0.1018
  H  H42  1  0.349400  0.623500  0.364900  1.0  0.0849
  H  H43  1  0.356400  0.699100  0.462800  1.0  0.1135
  H  H44  1  0.365200  0.683600  0.527800  1.0  0.1196
  H  H45  1  0.291900  0.620800  0.481300  1.0  0.1162
  H  H46  1  0.480000  0.379700  0.431100  1.0  0.0778
  H  H47  1  0.956200  0.516300  0.264600  1.0  0.0768
  H  H48  1  0.916600  0.660100  0.396100  1.0  0.1108
  H  H49  1  0.060200  0.721900  0.377300  1.0  0.0811
  H  H50  1  0.762900  0.552700  0.240200  1.0  0.0952
  H  H51  1  0.706400  0.375500  0.388400  1.0  0.0892
  H  H52  1  0.572000  0.410100  0.189300  1.0  0.1114
  H  H53  1  0.611100  0.514200  0.178100  1.0  0.1118
  H  H54  1  0.531400  0.507000  0.209200  1.0  0.1077
  H  H55  1  0.943700  0.439200  0.417400  1.0  0.1079
  H  H56  1  0.869800  0.385700  0.442700  1.0  0.1107
  H  H57  1  0.882000  0.501200  0.448000  1.0  0.116
  H  H58  1  0.570700  0.239900  0.267500  1.0  0.0722
  H  H59  1  0.477700  0.477000  0.328500  1.0  0.1098
  H  H60  1  0.348200  0.356400  0.298700  1.0  0.0852
  H  H61  1  0.699400  0.074600  0.628900  1.0  0.1018
  H  H62  1  0.732300  0.033900  0.730100  1.0  0.08
  H  H63  1  0.494600  0.901800  0.650600  1.0  0.078
  H  H64  1  0.480700  0.128100  0.558000  1.0  0.0957
  H  H65  1  0.590700  0.803700  0.583200  1.0  0.1137
  H  H66  1  0.592400  0.771100  0.521800  1.0  0.107
  H  H67  1  0.673600  0.838900  0.559100  1.0  0.109
  H  H68  1  0.644100  0.071200  0.828700  1.0  0.0784
  H  H69  1  0.764100  0.131700  0.913300  1.0  0.1017
  H  H70  1  0.849400  0.876500  0.864900  1.0  0.0848
  H  H71  1  0.856400  0.800900  0.962800  1.0  0.1135
  H  H72  1  0.865200  0.816400  0.027800  1.0  0.1205
  H  H73  1  0.791900  0.879200  0.981300  1.0  0.116
  H  H74  1  0.980000  0.120300  0.931100  1.0  0.0782
  H  H75  1  0.456200  0.983700  0.764600  1.0  0.0773
  H  H76  1  0.416600  0.839900  0.896100  1.0  0.1105
  H  H77  1  0.560200  0.778100  0.877300  1.0  0.0812
  H  H78  1  0.262900  0.947300  0.740200  1.0  0.0952
  H  H79  1  0.206400  0.124500  0.888400  1.0  0.089
  H  H80  1  0.072000  0.089900  0.689300  1.0  0.1097
  H  H81  1  0.111100  0.985800  0.678100  1.0  0.1114
  H  H82  1  0.031400  0.993000  0.709200  1.0  0.1092
  H  H83  1  0.443700  0.060800  0.917400  1.0  0.1089
  H  H84  1  0.369800  0.114300  0.942700  1.0  0.1098
  H  H85  1  0.382000  0.998800  0.948000  1.0  0.1163
  H  H86  1  0.070700  0.260100  0.767500  1.0  0.0742
  H  H87  1  0.977700  0.023000  0.828500  1.0  0.1105
  H  H88  1  0.848200  0.143600  0.798700  1.0  0.0854
  H  H89  1  0.800600  0.574600  0.871100  1.0  0.1022
  H  H90  1  0.767700  0.533900  0.769900  1.0  0.0805
  H  H91  1  0.005400  0.401800  0.849400  1.0  0.078
  H  H92  1  0.019300  0.628100  0.942000  1.0  0.0963
  H  H93  1  0.909300  0.303700  0.916800  1.0  0.1129
  H  H94  1  0.907600  0.271100  0.978200  1.0  0.1071
  H  H95  1  0.826400  0.338900  0.940900  1.0  0.1094
  H  H96  1  0.855900  0.571200  0.671300  1.0  0.0781
  H  H97  1  0.735900  0.631700  0.586700  1.0  0.1019
  H  H98  1  0.650600  0.376500  0.635100  1.0  0.0841
  H  H99  1  0.643600  0.300900  0.537200  1.0  0.1138
  H  H100  1  0.634800  0.316400  0.472200  1.0  0.1198
  H  H101  1  0.708100  0.379200  0.518700  1.0  0.1158
  H  H102  1  0.520000  0.620300  0.568900  1.0  0.0775
  H  H103  1  0.043800  0.483700  0.735400  1.0  0.077
  H  H104  1  0.083400  0.339900  0.603900  1.0  0.1105
  H  H105  1  0.939800  0.278100  0.622700  1.0  0.0842
  H  H106  1  0.237100  0.447300  0.759800  1.0  0.0955
  H  H107  1  0.293600  0.624500  0.611600  1.0  0.0887
  H  H108  1  0.428000  0.589900  0.810700  1.0  0.1105
  H  H109  1  0.388900  0.485800  0.821900  1.0  0.1147
  H  H110  1  0.468600  0.493000  0.790800  1.0  0.1103
  H  H111  1  0.056300  0.560800  0.582600  1.0  0.1116
  H  H112  1  0.130200  0.614300  0.557300  1.0  0.1095
  H  H113  1  0.118000  0.498800  0.552000  1.0  0.1155
  H  H114  1  0.429300  0.760100  0.732500  1.0  0.0717
  H  H115  1  0.522300  0.523000  0.671500  1.0  0.1105
  H  H116  1  0.651800  0.643600  0.701300  1.0  0.0848
  C  C117  1  0.338000  0.964300  0.354460  1.0  -0.1245
  C  C118  1  0.320500  0.987400  0.298690  1.0  0.0007
  C  C119  1  0.450590  0.059500  0.341730  1.0  0.1245
  C  C120  1  0.463960  0.007800  0.442410  1.0  0.1635
  C  C121  1  0.512200  0.923400  0.465870  1.0  -0.2176
  C  C122  1  0.449400  0.086100  0.475240  1.0  0.0497
  C  C123  1  0.393100  0.176100  0.450580  1.0  -0.4084
  C  C124  1  0.299260  0.961100  0.153110  1.0  -0.0054
  C  C125  1  0.233500  0.926800  0.106410  1.0  -0.1675
  C  C126  1  0.187620  0.068000  0.133660  1.0  0.1142
  C  C127  1  0.079520  0.999000  0.045000  1.0  0.1293
  C  C128  1  0.071800  0.073100  0.005080  1.0  0.085
  C  C129  1  0.146300  0.151200  0.008620  1.0  -0.3993
  C  C130  1  0.011100  0.928100  0.040690  1.0  -0.192
  C  C131  1  0.535150  0.059800  0.204790  1.0  0.1299
  C  C132  1  0.557800  0.138200  0.132520  1.0  -0.1691
  C  C133  1  0.478900  0.172100  0.143270  1.0  -0.0073
  C  C134  1  0.749600  0.017000  0.230090  1.0  -0.1771
  C  C135  1  0.681040  0.011300  0.178050  1.0  0.1356
  C  C136  1  0.693540  0.957500  0.132410  1.0  0.0401
  C  C137  1  0.781540  0.911900  0.141150  1.0  -0.1859
  C  C138  1  0.851230  0.919200  0.192480  1.0  0.1307
  C  C139  1  0.837200  0.970000  0.238820  1.0  0.1015
  C  C140  1  0.912500  0.975900  0.295740  1.0  -0.4162
  C  C141  1  0.617600  0.944700  0.075910  1.0  -0.4178
  C  C142  1  0.969340  0.783800  0.221110  1.0  0.1472
  C  C143  1  0.019100  0.914800  0.187340  1.0  -0.1651
  C  C144  1  0.090300  0.847700  0.204110  1.0  0.0223
  C  C145  1  0.162000  0.464300  0.145540  1.0  -0.1248
  C  C146  1  0.179500  0.487400  0.201310  1.0  0.0009
  C  C147  1  0.049410  0.559500  0.158270  1.0  0.1224
  C  C148  1  0.036040  0.507800  0.057590  1.0  0.1639
  C  C149  1  0.987800  0.423400  0.034130  1.0  -0.2175
  C  C150  1  0.050600  0.586100  0.024760  1.0  0.0498
  C  C151  1  0.106900  0.676100  0.049420  1.0  -0.4097
  C  C152  1  0.200740  0.461100  0.346890  1.0  -0.0065
  C  C153  1  0.266500  0.426800  0.393590  1.0  -0.1677
  C  C154  1  0.312380  0.568000  0.366340  1.0  0.115
  C  C155  1  0.420480  0.499000  0.455000  1.0  0.1291
  C  C156  1  0.428200  0.573100  0.494920  1.0  0.086
  C  C157  1  0.353700  0.651200  0.491380  1.0  -0.3995
  C  C158  1  0.488900  0.428100  0.459310  1.0  -0.1918
  C  C159  1  0.964850  0.559800  0.295210  1.0  0.1283
  C  C160  1  0.942200  0.638200  0.367480  1.0  -0.1707
  C  C161  1  0.021100  0.672100  0.356730  1.0  -0.0072
  C  C162  1  0.750400  0.517000  0.269910  1.0  -0.1816
  C  C163  1  0.818960  0.511300  0.321950  1.0  0.1355
  C  C164  1  0.806460  0.457500  0.367590  1.0  0.0402
  C  C165  1  0.718460  0.411900  0.358850  1.0  -0.1849
  C  C166  1  0.648770  0.419200  0.307520  1.0  0.1318
  C  C167  1  0.662800  0.470000  0.261180  1.0  0.102
  C  C168  1  0.587500  0.475900  0.204260  1.0  -0.413
  C  C169  1  0.882400  0.444700  0.424090  1.0  -0.4168
  C  C170  1  0.530660  0.283800  0.278890  1.0  0.144
  C  C171  1  0.480900  0.414800  0.312660  1.0  -0.1621
  C  C172  1  0.409700  0.347700  0.295890  1.0  0.0207
  C  C173  1  0.662000  0.035700  0.645540  1.0  -0.1239
  C  C174  1  0.679500  0.012600  0.701310  1.0  0.0011
  C  C175  1  0.549410  0.940500  0.658270  1.0  0.1233
  C  C176  1  0.536040  0.992200  0.557590  1.0  0.1641
  C  C177  1  0.487800  0.076600  0.534130  1.0  -0.2158
  C  C178  1  0.550600  0.913900  0.524760  1.0  0.0502
  C  C179  1  0.606900  0.823900  0.549420  1.0  -0.4102
  C  C180  1  0.700740  0.038900  0.846890  1.0  -0.0075
  C  C181  1  0.766500  0.073200  0.893590  1.0  -0.1672
  C  C182  1  0.812380  0.932000  0.866340  1.0  0.1149
  C  C183  1  0.920480  0.001000  0.955000  1.0  0.1291
  C  C184  1  0.928200  0.926900  0.994920  1.0  0.0863
  C  C185  1  0.853700  0.848800  0.991380  1.0  -0.4
  C  C186  1  0.988900  0.071900  0.959310  1.0  -0.1868
  C  C187  1  0.464850  0.940200  0.795210  1.0  0.1323
  C  C188  1  0.442200  0.861800  0.867480  1.0  -0.1695
  C  C189  1  0.521100  0.827900  0.856730  1.0  -0.0071
  C  C190  1  0.250400  0.983000  0.769910  1.0  -0.1808
  C  C191  1  0.318960  0.988700  0.821950  1.0  0.1356
  C  C192  1  0.306460  0.042500  0.867590  1.0  0.0404
  C  C193  1  0.218460  0.088100  0.858850  1.0  -0.1858
  C  C194  1  0.148770  0.080800  0.807520  1.0  0.132
  C  C195  1  0.162800  0.030000  0.761180  1.0  0.1024
  C  C196  1  0.087500  0.024100  0.704260  1.0  -0.4102
  C  C197  1  0.382400  0.055300  0.924090  1.0  -0.4159
  C  C198  1  0.030660  0.216200  0.778890  1.0  0.1419
  C  C199  1  0.980900  0.085200  0.812660  1.0  -0.162
  C  C200  1  0.909700  0.152300  0.795890  1.0  0.0207
  C  C201  1  0.838000  0.535700  0.854460  1.0  -0.1247
  C  C202  1  0.820500  0.512600  0.798690  1.0  0.001
  C  C203  1  0.950590  0.440500  0.841730  1.0  0.1256
  C  C204  1  0.963960  0.492200  0.942410  1.0  0.1634
  C  C205  1  0.012200  0.576600  0.965870  1.0  -0.2159
  C  C206  1  0.949400  0.413900  0.975240  1.0  0.0497
  C  C207  1  0.893100  0.323900  0.950580  1.0  -0.4079
  C  C208  1  0.799260  0.538900  0.653110  1.0  -0.0063
  C  C209  1  0.733500  0.573200  0.606410  1.0  -0.1672
  C  C210  1  0.687620  0.432000  0.633660  1.0  0.1153
  C  C211  1  0.579520  0.501000  0.545000  1.0  0.1293
  C  C212  1  0.571800  0.426900  0.505080  1.0  0.0854
  C  C213  1  0.646300  0.348800  0.508620  1.0  -0.3995
  C  C214  1  0.511100  0.571900  0.540690  1.0  -0.187
  C  C215  1  0.035150  0.440200  0.704790  1.0  0.1284
  C  C216  1  0.057800  0.361800  0.632520  1.0  -0.1707
  C  C217  1  0.978900  0.327900  0.643270  1.0  -0.0069
  C  C218  1  0.249600  0.483000  0.730090  1.0  -0.1775
  C  C219  1  0.181040  0.488700  0.678050  1.0  0.1357
  C  C220  1  0.193540  0.542500  0.632410  1.0  0.0398
  C  C221  1  0.281540  0.588100  0.641150  1.0  -0.1851
  C  C222  1  0.351230  0.580800  0.692480  1.0  0.1308
  C  C223  1  0.337200  0.530000  0.738820  1.0  0.102
  C  C224  1  0.412500  0.524100  0.795740  1.0  -0.4136
  C  C225  1  0.117600  0.555300  0.575910  1.0  -0.4147
  C  C226  1  0.469340  0.716200  0.721110  1.0  0.1456
  C  C227  1  0.519100  0.585200  0.687340  1.0  -0.1645
  C  C228  1  0.590300  0.652300  0.704110  1.0  0.0224
  N  N229  1  0.058940  0.765470  0.225670  1.0  -0.395
  N  N230  1  0.941990  0.872810  0.198320  1.0  0.0013
  N  N231  1  0.593770  0.065390  0.171670  1.0  0.0068
  N  N232  1  0.464290  0.122720  0.189070  1.0  -0.3864
  N  N233  1  0.391780  0.046950  0.290370  1.0  -0.4033
  N  N234  1  0.422400  0.010220  0.381680  1.0  -0.0067
  N  N235  1  0.271090  0.049700  0.169990  1.0  -0.393
  N  N236  1  0.162590  0.996060  0.094090  1.0  0.0146
  N  N237  1  0.441060  0.265470  0.274330  1.0  -0.3953
  N  N238  1  0.558010  0.372810  0.301680  1.0  0.0022
  N  N239  1  0.906230  0.565390  0.328330  1.0  0.0068
  N  N240  1  0.035710  0.622720  0.310930  1.0  -0.3861
  N  N241  1  0.108220  0.546950  0.209630  1.0  -0.4049
  N  N242  1  0.077600  0.510220  0.118320  1.0  -0.0067
  N  N243  1  0.228910  0.549700  0.330010  1.0  -0.3932
  N  N244  1  0.337410  0.496060  0.405910  1.0  0.0142
  N  N245  1  0.941060  0.234530  0.774330  1.0  -0.3953
  N  N246  1  0.058010  0.127190  0.801680  1.0  0.0024
  N  N247  1  0.406230  0.934610  0.828330  1.0  0.0064
  N  N248  1  0.535710  0.877280  0.810930  1.0  -0.3858
  N  N249  1  0.608220  0.953050  0.709630  1.0  -0.4047
  N  N250  1  0.577600  0.989780  0.618320  1.0  -0.0061
  N  N251  1  0.728910  0.950300  0.830010  1.0  -0.3934
  N  N252  1  0.837410  0.003940  0.905910  1.0  0.0143
  N  N253  1  0.558940  0.734530  0.725670  1.0  -0.3964
  N  N254  1  0.441990  0.627190  0.698320  1.0  0.0012
  N  N255  1  0.093770  0.434610  0.671670  1.0  0.0065
  N  N256  1  0.964290  0.377280  0.689070  1.0  -0.3867
  N  N257  1  0.891780  0.453050  0.790370  1.0  -0.4036
  N  N258  1  0.922400  0.489780  0.881680  1.0  -0.0064
  N  N259  1  0.771090  0.450300  0.669990  1.0  -0.3925
  N  N260  1  0.662590  0.503940  0.594090  1.0  0.0146
