# generated using pymatgen
data_ZnH6(C3N2)2
_symmetry_space_group_name_H-M   'P 1'
_cell_length_a   9.51610000
_cell_length_b   30.15750000
_cell_length_c   45.93670000
_cell_angle_alpha   90.00000000
_cell_angle_beta   90.00000000
_cell_angle_gamma   90.00000000
_symmetry_Int_Tables_number   1
_chemical_formula_structural   ZnH6(C3N2)2
_chemical_formula_sum   'Zn40 H240 C240 N160'
_cell_volume   13182.99619746
_cell_formula_units_Z   40
loop_
 _symmetry_equiv_pos_site_id
 _symmetry_equiv_pos_as_xyz
  1  'x, y, z'
loop_
 _atom_site_type_symbol
 _atom_site_label
 _atom_site_symmetry_multiplicity
 _atom_site_fract_x
 _atom_site_fract_y
 _atom_site_fract_z
 _atom_site_occupancy
 _atom_site_charge
  Zn  Zn1  1  0.996460  0.171730  0.736790  1.0  0.7234
  Zn  Zn2  1  0.157980  0.683110  0.187490  1.0  0.7253
  Zn  Zn3  1  0.087720  0.237410  0.424810  1.0  0.7019
  Zn  Zn4  1  0.587720  0.262590  0.575190  1.0  0.7021
  Zn  Zn5  1  0.664140  0.003550  0.857960  1.0  0.7014
  Zn  Zn6  1  0.651750  0.281620  0.029920  1.0  0.7991
  Zn  Zn7  1  0.427920  0.868460  0.695980  1.0  0.7192
  Zn  Zn8  1  0.412280  0.762590  0.924810  1.0  0.7025
  Zn  Zn9  1  0.655110  0.470740  0.067230  1.0  0.7336
  Zn  Zn10  1  0.085990  0.357690  0.524760  1.0  0.7229
  Zn  Zn11  1  0.914010  0.857690  0.975240  1.0  0.7245
  Zn  Zn12  1  0.929620  0.770580  0.652710  1.0  0.7175
  Zn  Zn13  1  0.151750  0.218380  0.970080  1.0  0.7988
  Zn  Zn14  1  0.503540  0.828270  0.236790  1.0  0.7235
  Zn  Zn15  1  0.498550  0.054400  0.735360  1.0  0.7444
  Zn  Zn16  1  0.927920  0.631540  0.304020  1.0  0.719
  Zn  Zn17  1  0.429620  0.729420  0.347290  1.0  0.7173
  Zn  Zn18  1  0.570380  0.229420  0.152710  1.0  0.7175
  Zn  Zn19  1  0.496460  0.328270  0.263210  1.0  0.7234
  Zn  Zn20  1  0.501450  0.554400  0.764640  1.0  0.7452
  Zn  Zn21  1  0.342020  0.316890  0.687490  1.0  0.726
  Zn  Zn22  1  0.414010  0.642310  0.024760  1.0  0.723
  Zn  Zn23  1  0.001450  0.945600  0.235360  1.0  0.7452
  Zn  Zn24  1  0.848250  0.718380  0.529920  1.0  0.7986
  Zn  Zn25  1  0.072080  0.131540  0.195980  1.0  0.7192
  Zn  Zn26  1  0.585990  0.142310  0.475240  1.0  0.7246
  Zn  Zn27  1  0.844890  0.529260  0.567230  1.0  0.7337
  Zn  Zn28  1  0.572080  0.368460  0.804020  1.0  0.7192
  Zn  Zn29  1  0.155110  0.029260  0.932770  1.0  0.7339
  Zn  Zn30  1  0.335860  0.503550  0.642040  1.0  0.7012
  Zn  Zn31  1  0.003540  0.671730  0.763210  1.0  0.7237
  Zn  Zn32  1  0.998550  0.445600  0.264640  1.0  0.7446
  Zn  Zn33  1  0.348250  0.781620  0.470080  1.0  0.7985
  Zn  Zn34  1  0.835860  0.996450  0.357960  1.0  0.7015
  Zn  Zn35  1  0.842020  0.183110  0.312510  1.0  0.7259
  Zn  Zn36  1  0.912280  0.737410  0.075190  1.0  0.7021
  Zn  Zn37  1  0.070380  0.270580  0.847290  1.0  0.7177
  Zn  Zn38  1  0.344890  0.970740  0.432770  1.0  0.7343
  Zn  Zn39  1  0.657980  0.816890  0.812510  1.0  0.7253
  Zn  Zn40  1  0.164140  0.496450  0.142040  1.0  0.7015
  H  H41  1  0.894700  0.630400  0.567500  1.0  0.0299
  H  H42  1  0.661200  0.240600  0.961200  1.0  0.0912
  H  H43  1  0.070100  0.686100  0.121800  1.0  0.0761
  H  H44  1  0.786100  0.221300  0.457200  1.0  0.0889
  H  H45  1  0.236100  0.667900  0.310200  1.0  0.0677
  H  H46  1  0.901200  0.079400  0.317500  1.0  0.0627
  H  H47  1  0.968900  0.591400  0.808700  1.0  0.0935
  H  H48  1  0.060600  0.554600  0.345100  1.0  0.1043
  H  H49  1  0.190500  0.796200  0.971600  1.0  0.0699
  H  H50  1  0.533700  0.250900  0.219000  1.0  0.0803
  H  H51  1  0.272200  0.961300  0.192600  1.0  0.1022
  H  H52  1  0.938600  0.548400  0.264500  1.0  0.0652
  H  H53  1  0.919500  0.692400  0.361500  1.0  0.1046
  H  H54  1  0.995400  0.826700  0.803100  1.0  0.0931
  H  H55  1  0.940800  0.287200  0.060800  1.0  0.1013
  H  H56  1  0.401200  0.420600  0.682500  1.0  0.0629
  H  H57  1  0.690500  0.703800  0.028400  1.0  0.0711
  H  H58  1  0.136800  0.803400  0.602500  1.0  0.101
  H  H59  1  0.873700  0.850100  0.860900  1.0  0.087
  H  H60  1  0.492500  0.107500  0.540000  1.0  0.0993
  H  H61  1  0.253200  0.681200  0.812300  1.0  0.0943
  H  H62  1  0.468900  0.908600  0.191300  1.0  0.0926
  H  H63  1  0.561400  0.451600  0.764500  1.0  0.0656
  H  H64  1  0.891000  0.451600  0.111700  1.0  0.0769
  H  H65  1  0.144100  0.734100  0.512500  1.0  0.0521
  H  H66  1  0.713900  0.778700  0.957200  1.0  0.0878
  H  H67  1  0.348500  0.032500  0.838300  1.0  0.1126
  H  H68  1  0.505900  0.378500  0.199900  1.0  0.1028
  H  H69  1  0.792100  0.443900  0.212700  1.0  0.0953
  H  H70  1  0.651500  0.532500  0.661700  1.0  0.1123
  H  H71  1  0.644100  0.765900  0.487500  1.0  0.0526
  H  H72  1  0.966300  0.749100  0.719000  1.0  0.0804
  H  H73  1  0.636100  0.996900  0.409500  1.0  0.0758
  H  H74  1  0.061900  0.524200  0.514800  1.0  0.0972
  H  H75  1  0.068200  0.132300  0.432100  1.0  0.1015
  H  H76  1  0.939400  0.054600  0.154900  1.0  0.1037
  H  H77  1  0.465300  0.622700  0.356200  1.0  0.1002
  H  H78  1  0.394700  0.869600  0.432500  1.0  0.0306
  H  H79  1  0.863200  0.303400  0.897500  1.0  0.101
  H  H80  1  0.227800  0.038700  0.692600  1.0  0.1036
  H  H81  1  0.938100  0.024200  0.985200  1.0  0.0976
  H  H82  1  0.746800  0.181200  0.687700  1.0  0.0944
  H  H83  1  0.605300  0.369600  0.067500  1.0  0.0302
  H  H84  1  0.931800  0.632300  0.067900  1.0  0.1019
  H  H85  1  0.083300  0.574600  0.661200  1.0  0.0921
  H  H86  1  0.363900  0.496900  0.090500  1.0  0.0754
  H  H87  1  0.161200  0.259400  0.038800  1.0  0.0917
  H  H88  1  0.005900  0.121500  0.800100  1.0  0.1038
  H  H89  1  0.927400  0.063600  0.405300  1.0  0.0969
  H  H90  1  0.848500  0.467500  0.161700  1.0  0.1125
  H  H91  1  0.507500  0.607500  0.960000  1.0  0.0981
  H  H92  1  0.624500  0.224800  0.513900  1.0  0.0763
  H  H93  1  0.042700  0.368200  0.312600  1.0  0.1083
  H  H94  1  0.098800  0.579400  0.182500  1.0  0.0621
  H  H95  1  0.292100  0.056100  0.787300  1.0  0.0956
  H  H96  1  0.007500  0.892500  0.040000  1.0  0.0992
  H  H97  1  0.105300  0.130400  0.932500  1.0  0.0309
  H  H98  1  0.378200  0.946100  0.939800  1.0  0.1014
  H  H99  1  0.596700  0.575300  0.059400  1.0  0.0723
  H  H100  1  0.372500  0.701200  0.865400  1.0  0.0912
  H  H101  1  0.636800  0.696600  0.397500  1.0  0.0989
  H  H102  1  0.431800  0.867700  0.932100  1.0  0.1016
  H  H103  1  0.323300  0.544700  0.998300  1.0  0.0919
  H  H104  1  0.903300  0.424700  0.559400  1.0  0.0728
  H  H105  1  0.874400  0.925600  0.881300  1.0  0.1087
  H  H106  1  0.900000  0.284400  0.948900  1.0  0.0898
  H  H107  1  0.625400  0.415100  0.129900  1.0  0.1094
  H  H108  1  0.391000  0.048400  0.888300  1.0  0.076
  H  H109  1  0.732900  0.665000  0.249500  1.0  0.0901
  H  H110  1  0.859500  0.266200  0.717400  1.0  0.1063
  H  H111  1  0.600000  0.715600  0.448900  1.0  0.0899
  H  H112  1  0.125600  0.425600  0.618700  1.0  0.1088
  H  H113  1  0.427400  0.436400  0.594700  1.0  0.0963
  H  H114  1  0.718100  0.899200  0.254900  1.0  0.0746
  H  H115  1  0.609000  0.548400  0.611700  1.0  0.078
  H  H116  1  0.531100  0.408600  0.308700  1.0  0.0928
  H  H117  1  0.970600  0.663000  0.654300  1.0  0.0878
  H  H118  1  0.286100  0.278700  0.542800  1.0  0.0883
  H  H119  1  0.072600  0.563600  0.094700  1.0  0.0963
  H  H120  1  0.373700  0.266200  0.879600  1.0  0.0987
  H  H121  1  0.162600  0.211900  0.901500  1.0  0.0945
  H  H122  1  0.916700  0.074600  0.838800  1.0  0.0936
  H  H123  1  0.753200  0.818800  0.187700  1.0  0.0947
  H  H124  1  0.640500  0.733800  0.217400  1.0  0.1062
  H  H125  1  0.400000  0.215600  0.051100  1.0  0.088
  H  H126  1  0.570100  0.813900  0.878200  1.0  0.0755
  H  H127  1  0.207500  0.857900  0.505000  1.0  0.0924
  H  H128  1  0.416700  0.425400  0.161200  1.0  0.0923
  H  H129  1  0.894900  0.979100  0.173200  1.0  0.0981
  H  H130  1  0.207600  0.869700  0.250900  1.0  0.0777
  H  H131  1  0.873700  0.233800  0.120400  1.0  0.0992
  H  H132  1  0.355900  0.265900  0.012500  1.0  0.0506
  H  H133  1  0.855900  0.234100  0.987500  1.0  0.0522
  H  H134  1  0.875500  0.775200  0.013900  1.0  0.0762
  H  H135  1  0.838800  0.759400  0.461200  1.0  0.0907
  H  H136  1  0.470600  0.837000  0.345700  1.0  0.0881
  H  H137  1  0.020500  0.275900  0.318500  1.0  0.1054
  H  H138  1  0.763900  0.167900  0.189800  1.0  0.0682
  H  H139  1  0.363200  0.196600  0.102500  1.0  0.0999
  H  H140  1  0.560600  0.945400  0.654900  1.0  0.1038
  H  H141  1  0.362800  0.406900  0.546800  1.0  0.1033
  H  H142  1  0.640300  0.852600  0.747500  1.0  0.0691
  H  H143  1  0.105100  0.479100  0.326800  1.0  0.0975
  H  H144  1  0.403300  0.075300  0.440600  1.0  0.073
  H  H145  1  0.059200  0.787200  0.439200  1.0  0.1019
  H  H146  1  0.100000  0.784400  0.551100  1.0  0.0896
  H  H147  1  0.583300  0.925400  0.338800  1.0  0.0941
  H  H148  1  0.151500  0.967500  0.338300  1.0  0.1123
  H  H149  1  0.203400  0.794600  0.689300  1.0  0.0697
  H  H150  1  0.626300  0.149900  0.360900  1.0  0.0867
  H  H151  1  0.707500  0.642100  0.495000  1.0  0.0928
  H  H152  1  0.707600  0.630300  0.749100  1.0  0.0799
  H  H153  1  0.796600  0.294600  0.810700  1.0  0.069
  H  H154  1  0.494100  0.878500  0.300100  1.0  0.1038
  H  H155  1  0.809500  0.296200  0.528400  1.0  0.0715
  H  H156  1  0.538200  0.155500  0.407700  1.0  0.089
  H  H157  1  0.165300  0.934600  0.486500  1.0  0.1191
  H  H158  1  0.429900  0.313900  0.621800  1.0  0.0758
  H  H159  1  0.127500  0.298800  0.365400  1.0  0.0918
  H  H160  1  0.336100  0.194900  0.386000  1.0  0.1122
  H  H161  1  0.328300  0.816300  0.797800  1.0  0.1086
  H  H162  1  0.979500  0.775900  0.181500  1.0  0.1051
  H  H163  1  0.373700  0.649900  0.139100  1.0  0.0866
  H  H164  1  0.767100  0.335000  0.749500  1.0  0.0901
  H  H165  1  0.748400  0.725100  0.787600  1.0  0.0758
  H  H166  1  0.878200  0.553900  0.060200  1.0  0.1007
  H  H167  1  0.961800  0.844500  0.907700  1.0  0.0878
  H  H168  1  0.109000  0.951600  0.388300  1.0  0.0788
  H  H169  1  0.529400  0.337000  0.154300  1.0  0.0877
  H  H170  1  0.461800  0.655500  0.092300  1.0  0.0882
  H  H171  1  0.676700  0.044700  0.501700  1.0  0.0945
  H  H172  1  0.034700  0.377300  0.856200  1.0  0.0998
  H  H173  1  0.621800  0.446100  0.560200  1.0  0.1004
  H  H174  1  0.992500  0.392500  0.460000  1.0  0.0992
  H  H175  1  0.306700  0.525100  0.710800  1.0  0.0735
  H  H176  1  0.965300  0.877300  0.643800  1.0  0.0998
  H  H177  1  0.394900  0.520900  0.826800  1.0  0.097
  H  H178  1  0.663900  0.694900  0.114000  1.0  0.1117
  H  H179  1  0.031100  0.091400  0.691300  1.0  0.0926
  H  H180  1  0.329500  0.082500  0.161300  1.0  0.1038
  H  H181  1  0.693300  0.025100  0.789200  1.0  0.074
  H  H182  1  0.359500  0.233800  0.282600  1.0  0.1064
  H  H183  1  0.338800  0.740600  0.538800  1.0  0.0914
  H  H184  1  0.627500  0.201200  0.634600  1.0  0.0913
  H  H185  1  0.337400  0.788100  0.401500  1.0  0.0958
  H  H186  1  0.126300  0.350100  0.639100  1.0  0.0865
  H  H187  1  0.359700  0.352600  0.752500  1.0  0.0682
  H  H188  1  0.872500  0.798800  0.134600  1.0  0.0917
  H  H189  1  0.292400  0.130300  0.750900  1.0  0.0777
  H  H190  1  0.561900  0.975800  0.485200  1.0  0.0969
  H  H191  1  0.061400  0.048400  0.235500  1.0  0.0647
  H  H192  1  0.792500  0.357900  0.995000  1.0  0.0925
  H  H193  1  0.501100  0.156700  0.582900  1.0  0.1045
  H  H194  1  0.823300  0.955300  0.001700  1.0  0.094
  H  H195  1  0.309500  0.203800  0.471600  1.0  0.0701
  H  H196  1  0.176700  0.455300  0.498300  1.0  0.0915
  H  H197  1  0.334700  0.065400  0.986500  1.0  0.1188
  H  H198  1  0.375500  0.724800  0.986100  1.0  0.0765
  H  H199  1  0.772200  0.538700  0.807400  1.0  0.101
  H  H200  1  0.419500  0.807600  0.638500  1.0  0.1046
  H  H201  1  0.572600  0.936400  0.905300  1.0  0.0967
  H  H202  1  0.292500  0.142100  0.005000  1.0  0.0927
  H  H203  1  0.504600  0.173300  0.303100  1.0  0.093
  H  H204  1  0.121800  0.053900  0.439800  1.0  0.1009
  H  H205  1  0.374400  0.574400  0.118700  1.0  0.1087
  H  H206  1  0.004600  0.326700  0.696900  1.0  0.0936
  H  H207  1  0.374600  0.915100  0.370100  1.0  0.108
  H  H208  1  0.251600  0.225100  0.712400  1.0  0.076
  H  H209  1  0.534700  0.122700  0.143800  1.0  0.0999
  H  H210  1  0.792400  0.369700  0.249100  1.0  0.0792
  H  H211  1  0.568200  0.367700  0.567900  1.0  0.1015
  H  H212  1  0.207900  0.943900  0.287300  1.0  0.0957
  H  H213  1  0.296600  0.205400  0.189300  1.0  0.0695
  H  H214  1  0.625600  0.074400  0.381300  1.0  0.109
  H  H215  1  0.246800  0.318800  0.312300  1.0  0.0953
  H  H216  1  0.834700  0.434600  0.013500  1.0  0.1188
  H  H217  1  0.998900  0.843300  0.082900  1.0  0.1041
  H  H218  1  0.171700  0.183700  0.297800  1.0  0.1086
  H  H219  1  0.213900  0.721300  0.042800  1.0  0.0887
  H  H220  1  0.163900  0.805100  0.886000  1.0  0.1123
  H  H221  1  0.806700  0.974900  0.289200  1.0  0.0739
  H  H222  1  0.665300  0.565400  0.513500  1.0  0.1181
  H  H223  1  0.001100  0.343300  0.417100  1.0  0.1046
  H  H224  1  0.124500  0.275200  0.486100  1.0  0.0757
  H  H225  1  0.038200  0.344500  0.592300  1.0  0.0889
  H  H226  1  0.466300  0.750900  0.281000  1.0  0.0805
  H  H227  1  0.859700  0.147400  0.247500  1.0  0.0678
  H  H228  1  0.080500  0.192400  0.138500  1.0  0.1051
  H  H229  1  0.029400  0.163000  0.845700  1.0  0.0886
  H  H230  1  0.542700  0.131800  0.687400  1.0  0.1087
  H  H231  1  0.598800  0.920600  0.817500  1.0  0.0618
  H  H232  1  0.662600  0.288100  0.098500  1.0  0.0957
  H  H233  1  0.125400  0.084900  0.870100  1.0  0.1093
  H  H234  1  0.193300  0.474900  0.210800  1.0  0.0739
  H  H235  1  0.457300  0.631800  0.812600  1.0  0.1095
  H  H236  1  0.248400  0.774900  0.212400  1.0  0.0757
  H  H237  1  0.232900  0.835000  0.750500  1.0  0.0898
  H  H238  1  0.520500  0.224100  0.681500  1.0  0.1055
  H  H239  1  0.874600  0.584900  0.629900  1.0  0.1091
  H  H240  1  0.703400  0.705400  0.310700  1.0  0.0697
  H  H241  1  0.136100  0.503100  0.590500  1.0  0.076
  H  H242  1  0.670500  0.582500  0.338700  1.0  0.1037
  H  H243  1  0.559200  0.712800  0.560800  1.0  0.1016
  H  H244  1  0.994100  0.621500  0.699900  1.0  0.1037
  H  H245  1  0.439400  0.445400  0.845100  1.0  0.104
  H  H246  1  0.605100  0.020900  0.673200  1.0  0.0978
  H  H247  1  0.781900  0.100800  0.754900  1.0  0.0756
  H  H248  1  0.863900  0.003100  0.909500  1.0  0.076
  H  H249  1  0.957300  0.868200  0.187400  1.0  0.1085
  H  H250  1  0.837400  0.711900  0.598500  1.0  0.0959
  H  H251  1  0.267100  0.165000  0.250500  1.0  0.0895
  H  H252  1  0.033700  0.249100  0.781000  1.0  0.0803
  H  H253  1  0.707900  0.556100  0.712700  1.0  0.0952
  H  H254  1  0.438100  0.475800  0.014800  1.0  0.0974
  H  H255  1  0.862800  0.093100  0.453200  1.0  0.106
  H  H256  1  0.671700  0.316300  0.702200  1.0  0.1084
  H  H257  1  0.438600  0.951600  0.735500  1.0  0.0652
  H  H258  1  0.836100  0.305100  0.614000  1.0  0.1118
  H  H259  1  0.479500  0.724100  0.818500  1.0  0.1054
  H  H260  1  0.637200  0.906900  0.953200  1.0  0.1035
  H  H261  1  0.126300  0.733800  0.379600  1.0  0.0984
  H  H262  1  0.140300  0.647400  0.252500  1.0  0.0688
  H  H263  1  0.498900  0.656700  0.917100  1.0  0.1049
  H  H264  1  0.736100  0.832100  0.689800  1.0  0.0682
  H  H265  1  0.218100  0.600800  0.745100  1.0  0.074
  H  H266  1  0.929900  0.186100  0.378200  1.0  0.0759
  H  H267  1  0.281900  0.399200  0.245100  1.0  0.0743
  H  H268  1  0.580500  0.307600  0.861500  1.0  0.1051
  H  H269  1  0.751600  0.274900  0.287600  1.0  0.079
  H  H270  1  0.140500  0.766200  0.782600  1.0  0.1067
  H  H271  1  0.495400  0.673300  0.196900  1.0  0.0929
  H  H272  1  0.828300  0.683700  0.202200  1.0  0.1086
  H  H273  1  0.263900  0.332100  0.810200  1.0  0.0677
  H  H274  1  0.440800  0.212800  0.939200  1.0  0.1024
  H  H275  1  0.626300  0.766200  0.620400  1.0  0.0996
  H  H276  1  0.727800  0.461300  0.307400  1.0  0.1035
  H  H277  1  0.137200  0.593100  0.046800  1.0  0.1056
  H  H278  1  0.096700  0.924700  0.940600  1.0  0.0724
  H  H279  1  0.829500  0.417500  0.838700  1.0  0.1037
  H  H280  1  0.170500  0.917500  0.661300  1.0  0.1036
  C  C281  1  0.848500  0.387000  0.835040  1.0  0.0081
  C  C282  1  0.034100  0.711800  0.131080  1.0  0.1896
  C  C283  1  0.986000  0.038100  0.406600  1.0  -0.0228
  C  C284  1  0.028700  0.175700  0.826790  1.0  -0.011
  C  C285  1  0.381500  0.825500  0.781370  1.0  -0.0212
  C  C286  1  0.430500  0.438600  0.142670  1.0  0.0082
  C  C287  1  0.626900  0.875600  0.951500  1.0  -0.0273
  C  C288  1  0.541900  0.955600  0.674100  1.0  -0.0363
  C  C289  1  0.317600  0.584600  0.134400  1.0  -0.0406
  C  C290  1  0.831300  0.320500  0.819940  1.0  0.2199
  C  C291  1  0.531400  0.277900  0.208370  1.0  0.2153
  C  C292  1  0.617700  0.131100  0.701080  1.0  -0.0384
  C  C293  1  0.271600  0.658500  0.798410  1.0  -0.0084
  C  C294  1  0.986500  0.146000  0.439930  1.0  -0.045
  C  C295  1  0.590300  0.201500  0.525890  1.0  0.1905
  C  C296  1  0.927100  0.772900  0.137730  1.0  -0.0434
  C  C297  1  0.585000  0.521600  0.602030  1.0  0.2198
  C  C298  1  0.010700  0.692100  0.353100  1.0  -0.0461
  C  C299  1  0.542300  0.735100  0.213800  1.0  -0.0263
  C  C300  1  0.217400  0.064000  0.704600  1.0  -0.055
  C  C301  1  0.255900  0.130600  0.987400  1.0  0.0482
  C  C302  1  0.069500  0.255700  0.031000  1.0  -0.0211
  C  C303  1  0.034100  0.829800  0.918200  1.0  -0.0226
  C  C304  1  0.484400  0.847300  0.301770  1.0  -0.049
  C  C305  1  0.538800  0.634900  0.344710  1.0  -0.0484
  C  C306  1  0.348500  0.113000  0.164960  1.0  0.0081
  C  C307  1  0.597300  0.977100  0.395560  1.0  0.2265
  C  C308  1  0.158100  0.803400  0.952610  1.0  0.2314
  C  C309  1  0.873100  0.124400  0.451500  1.0  -0.0264
  C  C310  1  0.658100  0.696600  0.047390  1.0  0.2315
  C  C311  1  0.935200  0.002600  0.184200  1.0  -0.018
  C  C312  1  0.548700  0.845000  0.754060  1.0  0.2077
  C  C313  1  0.552200  0.730100  0.543600  1.0  -0.0227
  C  C314  1  0.670400  0.336100  0.744470  1.0  0.0175
  C  C315  1  0.829500  0.743400  0.788790  1.0  0.2318
  C  C316  1  0.329600  0.836100  0.755530  1.0  0.018
  C  C317  1  0.667200  0.806000  0.953660  1.0  0.2003
  C  C318  1  0.608900  0.407000  0.295800  1.0  -0.0179
  C  C319  1  0.341900  0.196600  0.452610  1.0  0.2315
  C  C320  1  0.947800  0.269900  0.043600  1.0  -0.0225
  C  C321  1  0.151500  0.887000  0.664960  1.0  0.0071
  C  C322  1  0.976000  0.835100  0.063530  1.0  -0.0546
  C  C323  1  0.090300  0.298500  0.474110  1.0  0.1911
  C  C324  1  0.070400  0.782600  0.595280  1.0  -0.0204
  C  C325  1  0.817600  0.915400  0.865600  1.0  -0.0401
  C  C326  1  0.124700  0.715000  0.363000  1.0  -0.0312
  C  C327  1  0.315800  0.626200  0.145470  1.0  -0.0325
  C  C328  1  0.072900  0.272900  0.362270  1.0  -0.0435
  C  C329  1  0.965900  0.329800  0.581800  1.0  -0.0208
  C  C330  1  0.513500  0.854000  0.939930  1.0  -0.0469
  C  C331  1  0.755900  0.369400  0.012600  1.0  0.0469
  C  C332  1  0.572900  0.227100  0.637730  1.0  -0.0437
  C  C333  1  0.644600  0.692200  0.093790  1.0  -0.0314
  C  C334  1  0.024000  0.335100  0.436470  1.0  -0.0566
  C  C335  1  0.457700  0.235100  0.286200  1.0  -0.0285
  C  C336  1  0.773700  0.412800  0.021400  1.0  -0.0333
  C  C337  1  0.404600  0.966600  0.925100  1.0  -0.0132
  C  C338  1  0.085000  0.978400  0.397970  1.0  0.2201
  C  C339  1  0.968600  0.722100  0.708370  1.0  0.2129
  C  C340  1  0.126900  0.624400  0.048500  1.0  -0.0262
  C  C341  1  0.332800  0.306000  0.546340  1.0  0.2007
  C  C342  1  0.331500  0.412300  0.668720  1.0  0.2378
  C  C343  1  0.331300  0.179500  0.180060  1.0  0.2188
  C  C344  1  0.489300  0.307900  0.853100  1.0  -0.0465
  C  C345  1  0.087200  0.965000  0.322500  1.0  -0.0372
  C  C346  1  0.949700  0.271900  0.932900  1.0  -0.0164
  C  C347  1  0.382300  0.631100  0.798920  1.0  -0.0373
  C  C348  1  0.273700  0.087200  0.978600  1.0  -0.0331
  C  C349  1  0.014900  0.260100  0.336340  1.0  -0.0345
  C  C350  1  0.592700  0.267200  0.092920  1.0  0.208
  C  C351  1  0.515600  0.347300  0.198230  1.0  -0.0496
  C  C352  1  0.435200  0.497400  0.815800  1.0  -0.0214
  C  C353  1  0.052200  0.769900  0.456400  1.0  -0.0223
  C  C354  1  0.717400  0.436000  0.295400  1.0  -0.0564
  C  C355  1  0.093000  0.740500  0.495200  1.0  0.1687
  C  C356  1  0.744100  0.630600  0.512600  1.0  0.0463
  C  C357  1  0.752500  0.885400  0.237680  1.0  0.2099
  C  C358  1  0.534100  0.670200  0.081800  1.0  -0.0229
  C  C359  1  0.681300  0.820700  0.674170  1.0  0.2053
  C  C360  1  0.818700  0.179300  0.174170  1.0  0.2061
  C  C361  1  0.013500  0.646000  0.060070  1.0  -0.0459
  C  C362  1  0.458100  0.455600  0.825900  1.0  -0.0367
  C  C363  1  0.038600  0.298600  0.702900  1.0  -0.0228
  C  C364  1  0.391100  0.907000  0.204200  1.0  -0.0177
  C  C365  1  0.514900  0.239900  0.663660  1.0  -0.0348
  C  C366  1  0.108900  0.093000  0.704200  1.0  -0.0168
  C  C367  1  0.985100  0.760100  0.163660  1.0  -0.035
  C  C368  1  0.486000  0.461900  0.593400  1.0  -0.0222
  C  C369  1  0.855400  0.307800  0.593790  1.0  -0.0319
  C  C370  1  0.605400  0.042700  0.487300  1.0  -0.0365
  C  C371  1  0.069500  0.561400  0.642670  1.0  0.0094
  C  C372  1  0.373100  0.375600  0.548500  1.0  -0.0284
  C  C373  1  0.486500  0.354000  0.560070  1.0  -0.0447
  C  C374  1  0.980300  0.862200  0.039820  1.0  -0.0343
  C  C375  1  0.875300  0.215000  0.137000  1.0  -0.031
  C  C376  1  0.881700  0.452800  0.205800  1.0  -0.0197
  C  C377  1  0.728400  0.158500  0.701590  1.0  -0.0076
  C  C378  1  0.957700  0.264900  0.713800  1.0  -0.0281
  C  C379  1  0.624700  0.785000  0.637000  1.0  -0.0316
  C  C380  1  0.514000  0.961900  0.906600  1.0  -0.0212
  C  C381  1  0.375300  0.285000  0.863000  1.0  -0.0318
  C  C382  1  0.534100  0.788200  0.868920  1.0  0.1895
  C  C383  1  0.550300  0.728100  0.432900  1.0  -0.0158
  C  C384  1  0.468600  0.777900  0.291630  1.0  0.2147
  C  C385  1  0.168500  0.587700  0.168720  1.0  0.2372
  C  C386  1  0.476000  0.664900  0.936470  1.0  -0.0555
  C  C387  1  0.909700  0.798500  0.025890  1.0  0.1911
  C  C388  1  0.961400  0.798600  0.797100  1.0  -0.0224
  C  C389  1  0.930500  0.061400  0.857330  1.0  0.0099
  C  C390  1  0.430500  0.744300  0.531000  1.0  -0.0211
  C  C391  1  0.848400  0.623200  0.549800  1.0  0.2161
  C  C392  1  0.951300  0.155000  0.254060  1.0  0.2057
  C  C393  1  0.882300  0.868900  0.201080  1.0  -0.0373
  C  C394  1  0.412800  0.035000  0.822500  1.0  -0.0368
  C  C395  1  0.957300  0.995300  0.978000  1.0  -0.0175
  C  C396  1  0.118300  0.952800  0.294200  1.0  -0.019
  C  C397  1  0.031400  0.222100  0.791630  1.0  0.2125
  C  C398  1  0.041900  0.544400  0.325900  1.0  -0.0356
  C  C399  1  0.429600  0.217400  0.095280  1.0  -0.0193
  C  C400  1  0.184200  0.373800  0.645470  1.0  -0.0326
  C  C401  1  0.449700  0.228100  0.067100  1.0  -0.0157
  C  C402  1  0.971300  0.675700  0.673210  1.0  -0.0086
  C  C403  1  0.958100  0.044400  0.174100  1.0  -0.0361
  C  C404  1  0.355400  0.192200  0.406210  1.0  -0.0315
  C  C405  1  0.726300  0.587200  0.521400  1.0  -0.0338
  C  C406  1  0.832800  0.194000  0.453660  1.0  0.2012
  C  C407  1  0.097300  0.522900  0.604440  1.0  0.2266
  C  C408  1  0.528700  0.324300  0.173210  1.0  -0.009
  C  C409  1  0.618300  0.547200  0.705800  1.0  -0.0202
  C  C410  1  0.427100  0.727100  0.862270  1.0  -0.0432
  C  C411  1  0.894600  0.957300  0.987300  1.0  -0.0357
  C  C412  1  0.831500  0.087700  0.331280  1.0  0.2382
  C  C413  1  0.670500  0.256600  0.288790  1.0  0.2304
  C  C414  1  0.907000  0.240500  0.004800  1.0  0.1681
  C  C415  1  0.954000  0.567000  0.625470  1.0  -0.0228
  C  C416  1  0.471300  0.824300  0.326790  1.0  -0.0115
  C  C417  1  0.961200  0.365100  0.844710  1.0  -0.0487
  C  C418  1  0.618500  0.325500  0.718630  1.0  -0.0209
  C  C419  1  0.348400  0.876800  0.450200  1.0  0.215
  C  C420  1  0.465900  0.170200  0.418200  1.0  -0.0217
  C  C421  1  0.904600  0.533400  0.074900  1.0  -0.0129
  C  C422  1  0.454000  0.933000  0.374530  1.0  -0.0225
  C  C423  1  0.461400  0.701400  0.202900  1.0  -0.0213
  C  C424  1  0.118500  0.174500  0.281370  1.0  -0.0207
  C  C425  1  0.930500  0.755700  0.469000  1.0  -0.0212
  C  C426  1  0.181300  0.679300  0.325830  1.0  0.2063
  C  C427  1  0.447800  0.230100  0.956400  1.0  -0.022
  C  C428  1  0.168700  0.820500  0.680060  1.0  0.2195
  C  C429  1  0.891100  0.593000  0.795800  1.0  -0.0177
  C  C430  1  0.457300  0.504700  0.022000  1.0  -0.0172
  C  C431  1  0.407000  0.259500  0.995200  1.0  0.168
  C  C432  1  0.477000  0.959500  0.717090  1.0  0.235
  C  C433  1  0.524000  0.164900  0.563530  1.0  -0.057
  C  C434  1  0.252500  0.614600  0.762320  1.0  0.2117
  C  C435  1  0.485100  0.739900  0.836340  1.0  -0.0351
  C  C436  1  0.046000  0.067000  0.874530  1.0  -0.0212
  C  C437  1  0.682400  0.084600  0.365600  1.0  -0.0405
  C  C438  1  0.668500  0.912300  0.831280  1.0  0.2374
  C  C439  1  0.381700  0.047200  0.794200  1.0  -0.0188
  C  C440  1  0.815800  0.873800  0.854530  1.0  -0.0322
  C  C441  1  0.064800  0.502600  0.315800  1.0  -0.0176
  C  C442  1  0.407300  0.767200  0.407080  1.0  0.2079
  C  C443  1  0.038800  0.865100  0.655290  1.0  -0.0493
  C  C444  1  0.095400  0.033400  0.425100  1.0  -0.0117
  C  C445  1  0.510700  0.807900  0.646900  1.0  -0.0457
  C  C446  1  0.912800  0.465000  0.177500  1.0  -0.0369
  C  C447  1  0.092700  0.232800  0.907080  1.0  0.2087
  C  C448  1  0.457600  0.058900  0.454210  1.0  0.2326
  C  C449  1  0.965900  0.211800  0.368920  1.0  0.1888
  C  C450  1  0.228400  0.341500  0.298410  1.0  -0.0071
  C  C451  1  0.117700  0.368900  0.298920  1.0  -0.0387
  C  C452  1  0.167200  0.694000  0.046340  1.0  0.2012
  C  C453  1  0.546000  0.433000  0.125470  1.0  -0.021
  C  C454  1  0.144600  0.807800  0.906210  1.0  -0.0309
  C  C455  1  0.042400  0.941100  0.954210  1.0  0.2325
  C  C456  1  0.989300  0.192100  0.146900  1.0  -0.046
  C  C457  1  0.394600  0.542700  0.012700  1.0  -0.0356
  C  C458  1  0.749400  0.386700  0.264100  1.0  0.2284
  C  C459  1  0.415000  0.021600  0.897970  1.0  0.2197
  C  C460  1  0.915000  0.478400  0.102030  1.0  0.2204
  C  C461  1  0.595400  0.466600  0.574900  1.0  -0.0116
  C  C462  1  0.957600  0.441100  0.545790  1.0  0.2344
  C  C463  1  0.318700  0.320700  0.825830  1.0  0.2067
  C  C464  1  0.564800  0.997400  0.684200  1.0  -0.0185
  C  C465  1  0.841900  0.303400  0.547390  1.0  0.2334
  C  C466  1  0.771600  0.841500  0.201590  1.0  -0.0081
  C  C467  1  0.523000  0.459500  0.782910  1.0  0.2334
  C  C468  1  0.538600  0.201400  0.297100  1.0  -0.0222
  C  C469  1  0.050300  0.771900  0.567100  1.0  -0.0157
  C  C470  1  0.829600  0.663900  0.244470  1.0  0.0174
  C  C471  1  0.461200  0.134900  0.155290  1.0  -0.0485
  C  C472  1  0.587200  0.535000  0.677500  1.0  -0.0379
  C  C473  1  0.170500  0.243400  0.711210  1.0  0.231
  C  C474  1  0.747500  0.114600  0.737680  1.0  0.2108
  C  C475  1  0.929600  0.282600  0.904720  1.0  -0.0196
  C  C476  1  0.600500  0.031100  0.795740  1.0  0.2414
  C  C477  1  0.907300  0.732800  0.592920  1.0  0.2093
  C  C478  1  0.048700  0.655000  0.245940  1.0  0.2081
  C  C479  1  0.399500  0.531100  0.704260  1.0  0.2417
  C  C480  1  0.684200  0.126200  0.354530  1.0  -0.0327
  C  C481  1  0.250600  0.886700  0.235900  1.0  0.2296
  C  C482  1  0.984400  0.652700  0.698230  1.0  -0.0482
  C  C483  1  0.042700  0.495300  0.522000  1.0  -0.0141
  C  C484  1  0.465900  0.288200  0.631080  1.0  0.1894
  C  C485  1  0.249400  0.113300  0.735900  1.0  0.2287
  C  C486  1  0.569500  0.938600  0.357330  1.0  0.0108
  C  C487  1  0.282600  0.936000  0.204600  1.0  -0.0532
  C  C488  1  0.247500  0.385400  0.262320  1.0  0.2107
  C  C489  1  0.542400  0.558900  0.045790  1.0  0.2334
  C  C490  1  0.902700  0.022900  0.895560  1.0  0.2274
  C  C491  1  0.042300  0.764900  0.786200  1.0  -0.0268
  C  C492  1  0.899500  0.968900  0.295740  1.0  0.2418
  C  C493  1  0.480300  0.637800  0.960180  1.0  -0.0352
  C  C494  1  0.750600  0.613300  0.764100  1.0  0.2296
  C  C495  1  0.651600  0.376800  0.049800  1.0  0.2153
  C  C496  1  0.977000  0.540500  0.282910  1.0  0.2341
  C  C497  1  0.100500  0.468900  0.204260  1.0  0.2416
  C  C498  1  0.015600  0.152700  0.801770  1.0  -0.0491
  C  C499  1  0.593000  0.759500  0.504800  1.0  0.169
  C  C500  1  0.451300  0.345000  0.745940  1.0  0.205
  C  C501  1  0.881500  0.674500  0.218630  1.0  -0.0211
  C  C502  1  0.105400  0.457300  0.512700  1.0  -0.0366
  C  C503  1  0.014000  0.538100  0.093400  1.0  -0.0214
  C  C504  1  0.651500  0.613000  0.335040  1.0  0.0086
  C  C505  1  0.668700  0.679500  0.319940  1.0  0.2182
  C  C506  1  0.570400  0.717400  0.404720  1.0  -0.0185
  C  C507  1  0.023000  0.040500  0.217090  1.0  0.2344
  C  C508  1  0.542700  0.004700  0.478000  1.0  -0.0166
  C  C509  1  0.569500  0.244300  0.969000  1.0  -0.0209
  C  C510  1  0.170400  0.163900  0.255530  1.0  0.0185
  C  C511  1  0.519700  0.137800  0.539820  1.0  -0.0346
  C  C512  1  0.402700  0.477100  0.104440  1.0  0.2268
  C  C513  1  0.409700  0.701500  0.974110  1.0  0.1902
  C  C514  1  0.182400  0.415400  0.634400  1.0  -0.0405
  C  C515  1  0.782600  0.564000  0.795400  1.0  -0.0555
  C  C516  1  0.019700  0.362200  0.460180  1.0  -0.0349
  C  C517  1  0.244100  0.869400  0.487400  1.0  0.0464
  C  C518  1  0.151600  0.123200  0.950200  1.0  0.2133
  C  C519  1  0.226300  0.912800  0.478600  1.0  -0.0356
  C  C520  1  0.329500  0.756600  0.211210  1.0  0.2306
  N  N521  1  0.450600  0.330950  0.829400  1.0  -0.4069
  N  N522  1  0.816600  0.583200  0.544040  1.0  -0.3778
  N  N523  1  0.777800  0.059460  0.350030  1.0  -0.4055
  N  N524  1  0.692100  0.577680  0.774770  1.0  -0.3828
  N  N525  1  0.935200  0.651210  0.262840  1.0  -0.4254
  N  N526  1  0.549300  0.077380  0.472560  1.0  -0.4036
  N  N527  1  0.872900  0.624110  0.775410  1.0  -0.4176
  N  N528  1  0.999400  0.455800  0.221910  1.0  -0.3469
  N  N529  1  0.040900  0.219760  0.820960  1.0  -0.4175
  N  N530  1  0.837300  0.033520  0.870990  1.0  -0.4404
  N  N531  1  0.223100  0.790350  0.928430  1.0  -0.3993
  N  N532  1  0.192100  0.922320  0.225230  1.0  -0.3826
  N  N533  1  0.037800  0.690440  0.058420  1.0  -0.4198
  N  N534  1  0.476500  0.742100  0.388210  1.0  -0.3644
  N  N535  1  0.036300  0.234400  0.004580  1.0  -0.3908
  N  N536  1  0.061800  0.473010  0.176550  1.0  -0.4194
  N  N537  1  0.022000  0.499800  0.288370  1.0  -0.4098
  N  N538  1  0.547500  0.678600  0.335060  1.0  -0.424
  N  N539  1  0.439800  0.660760  0.984000  1.0  -0.4133
  N  N540  1  0.766900  0.206780  0.154480  1.0  -0.3835
  N  N541  1  0.988200  0.568880  0.303990  1.0  -0.4069
  N  N542  1  0.276900  0.209650  0.428430  1.0  -0.4017
  N  N543  1  0.981400  0.682370  0.720700  1.0  -0.4027
  N  N544  1  0.183400  0.083200  0.955960  1.0  -0.3781
  N  N545  1  0.500600  0.544200  0.721910  1.0  -0.3472
  N  N546  1  0.499400  0.044200  0.778090  1.0  -0.3453
  N  N547  1  0.235400  0.859310  0.680810  1.0  -0.3821
  N  N548  1  0.683100  0.345800  0.031220  1.0  -0.3663
  N  N549  1  0.976400  0.169960  0.280530  1.0  -0.4092
  N  N550  1  0.044000  0.827410  0.947620  1.0  -0.4002
  N  N551  1  0.000600  0.955800  0.278090  1.0  -0.3454
  N  N552  1  0.957700  0.729540  0.781570  1.0  -0.4028
  N  N553  1  0.522000  0.000200  0.711630  1.0  -0.4096
  N  N554  1  0.473100  0.498860  0.609470  1.0  -0.4147
  N  N555  1  0.781300  0.128860  0.332930  1.0  -0.3995
  N  N556  1  0.189900  0.648910  0.775080  1.0  -0.4023
  N  N557  1  0.433000  0.705770  0.945440  1.0  -0.3891
  N  N558  1  0.764600  0.359310  0.819190  1.0  -0.3808
  N  N559  1  0.807900  0.422320  0.274770  1.0  -0.3826
  N  N560  1  0.222200  0.559460  0.149970  1.0  -0.4051
  N  N561  1  0.049300  0.422620  0.527440  1.0  -0.4034
  N  N562  1  0.959100  0.719760  0.679040  1.0  -0.4173
  N  N563  1  0.976500  0.757900  0.611790  1.0  -0.3652
  N  N564  1  0.733100  0.793220  0.654480  1.0  -0.3833
  N  N565  1  0.162100  0.994080  0.419120  1.0  -0.4142
  N  N566  1  0.127100  0.124110  0.724590  1.0  -0.42
  N  N567  1  0.553500  0.260100  0.064850  1.0  -0.4329
  N  N568  1  0.776900  0.290350  0.571570  1.0  -0.4019
  N  N569  1  0.946900  0.220460  0.340660  1.0  -0.4315
  N  N570  1  0.307900  0.077680  0.725230  1.0  -0.3819
  N  N571  1  0.337900  0.005920  0.919120  1.0  -0.415
  N  N572  1  0.962200  0.190440  0.441580  1.0  -0.4196
  N  N573  1  0.372900  0.875890  0.224590  1.0  -0.4189
  N  N574  1  0.450700  0.577380  0.027440  1.0  -0.4028
  N  N575  1  0.561800  0.026990  0.823450  1.0  -0.4192
  N  N576  1  0.722200  0.940540  0.850030  1.0  -0.4042
  N  N577  1  0.938200  0.973010  0.323450  1.0  -0.4195
  N  N578  1  0.960500  0.742370  0.117340  1.0  -0.3653
  N  N579  1  0.662100  0.505920  0.580880  1.0  -0.4132
  N  N580  1  0.049900  0.985710  0.957060  1.0  -0.4139
  N  N581  1  0.233100  0.706780  0.345520  1.0  -0.3837
  N  N582  1  0.067000  0.294230  0.445440  1.0  -0.3909
  N  N583  1  0.264600  0.140690  0.180810  1.0  -0.3812
  N  N584  1  0.718700  0.871140  0.832930  1.0  -0.3997
  N  N585  1  0.435200  0.848790  0.737160  1.0  -0.4242
  N  N586  1  0.720400  0.845440  0.959960  1.0  -0.3239
  N  N587  1  0.316600  0.916800  0.455960  1.0  -0.3779
  N  N588  1  0.450100  0.014290  0.457060  1.0  -0.4147
  N  N589  1  0.518600  0.317630  0.220700  1.0  -0.4031
  N  N590  1  0.481400  0.817630  0.279300  1.0  -0.4019
  N  N591  1  0.963700  0.734400  0.495420  1.0  -0.3916
  N  N592  1  0.476400  0.330040  0.719470  1.0  -0.4082
  N  N593  1  0.564800  0.348790  0.762840  1.0  -0.4249
  N  N594  1  0.478000  0.500200  0.788370  1.0  -0.4101
  N  N595  1  0.662400  0.744900  0.527180  1.0  -0.4007
  N  N596  1  0.462200  0.309560  0.558420  1.0  -0.4202
  N  N597  1  0.537800  0.809560  0.941580  1.0  -0.4195
  N  N598  1  0.011800  0.068880  0.196010  1.0  -0.4069
  N  N599  1  0.456000  0.172590  0.447620  1.0  -0.4013
  N  N600  1  0.523500  0.242100  0.111790  1.0  -0.3652
  N  N601  1  0.631700  0.101660  0.723860  1.0  -0.4166
  N  N602  1  0.542300  0.270460  0.281570  1.0  -0.4025
  N  N603  1  0.277800  0.440540  0.649970  1.0  -0.4047
  N  N604  1  0.053100  0.720460  0.159340  1.0  -0.431
  N  N605  1  0.053500  0.239900  0.935150  1.0  -0.4337
  N  N606  1  0.438200  0.526990  0.676550  1.0  -0.4187
  N  N607  1  0.950600  0.169050  0.170600  1.0  -0.407
  N  N608  1  0.326000  0.714510  0.202140  1.0  -0.4139
  N  N609  1  0.042300  0.229540  0.718430  1.0  -0.4031
  N  N610  1  0.218700  0.628860  0.167070  1.0  -0.3996
  N  N611  1  0.549900  0.514290  0.042940  1.0  -0.4141
  N  N612  1  0.956000  0.327410  0.552380  1.0  -0.4017
  N  N613  1  0.527300  0.457590  0.100930  1.0  -0.3953
  N  N614  1  0.779600  0.154560  0.459960  1.0  -0.3254
  N  N615  1  0.816900  0.654200  0.531220  1.0  -0.3656
  N  N616  1  0.460500  0.757630  0.882660  1.0  -0.367
  N  N617  1  0.810100  0.148910  0.724920  1.0  -0.4024
  N  N618  1  0.662700  0.966480  0.370990  1.0  -0.4412
  N  N619  1  0.023500  0.257900  0.888210  1.0  -0.3645
  N  N620  1  0.540900  0.280240  0.179040  1.0  -0.4174
  N  N621  1  0.368300  0.601660  0.776140  1.0  -0.4155
  N  N622  1  0.526900  0.998860  0.890530  1.0  -0.4145
  N  N623  1  0.952500  0.321400  0.835060  1.0  -0.4245
  N  N624  1  0.523600  0.830040  0.780530  1.0  -0.4093
  N  N625  1  0.279600  0.345440  0.540040  1.0  -0.3251
  N  N626  1  0.457700  0.770460  0.218430  1.0  -0.4031
  N  N627  1  0.553100  0.779540  0.840660  1.0  -0.4319
  N  N628  1  0.539500  0.257630  0.617340  1.0  -0.3661
  N  N629  1  0.459100  0.780240  0.320960  1.0  -0.4174
  N  N630  1  0.511800  0.431120  0.803990  1.0  -0.4081
  N  N631  1  0.488200  0.931120  0.696010  1.0  -0.4077
  N  N632  1  0.463700  0.765600  0.504580  1.0  -0.392
  N  N633  1  0.567000  0.205770  0.554560  1.0  -0.3883
  N  N634  1  0.049400  0.669050  0.329400  1.0  -0.4077
  N  N635  1  0.337300  0.466480  0.129010  1.0  -0.439
  N  N636  1  0.973100  0.001140  0.390530  1.0  -0.4147
  N  N637  1  0.549400  0.830950  0.670600  1.0  -0.4074
  N  N638  1  0.281300  0.371140  0.667070  1.0  -0.3999
  N  N639  1  0.039500  0.242370  0.382660  1.0  -0.367
  N  N640  1  0.972700  0.542410  0.600930  1.0  -0.3951
  N  N641  1  0.446900  0.279540  0.659340  1.0  -0.4318
  N  N642  1  0.162400  0.755100  0.472820  1.0  -0.4001
  N  N643  1  0.220400  0.654560  0.040040  1.0  -0.3238
  N  N644  1  0.939800  0.839240  0.016000  1.0  -0.4139
  N  N645  1  0.544000  0.672590  0.052380  1.0  -0.401
  N  N646  1  0.837600  0.255100  0.027180  1.0  -0.4003
  N  N647  1  0.735400  0.640690  0.319190  1.0  -0.3821
  N  N648  1  0.023600  0.669960  0.219470  1.0  -0.4088
  N  N649  1  0.826000  0.785490  0.797860  1.0  -0.4137
  N  N650  1  0.723100  0.709650  0.071570  1.0  -0.4005
  N  N651  1  0.536300  0.265600  0.995420  1.0  -0.3912
  N  N652  1  0.026900  0.501140  0.109470  1.0  -0.4131
  N  N653  1  0.950100  0.485710  0.542940  1.0  -0.4152
  N  N654  1  0.837900  0.494080  0.080880  1.0  -0.4142
  N  N655  1  0.064800  0.151210  0.237160  1.0  -0.424
  N  N656  1  0.472700  0.957590  0.399070  1.0  -0.3949
  N  N657  1  0.452500  0.178600  0.164940  1.0  -0.4243
  N  N658  1  0.174000  0.285490  0.702140  1.0  -0.4132
  N  N659  1  0.131700  0.398340  0.276140  1.0  -0.4158
  N  N660  1  0.868300  0.898340  0.223860  1.0  -0.4153
  N  N661  1  0.162700  0.533520  0.629010  1.0  -0.4413
  N  N662  1  0.950700  0.922620  0.972560  1.0  -0.4032
  N  N663  1  0.683400  0.416800  0.044040  1.0  -0.3785
  N  N664  1  0.946500  0.739900  0.564850  1.0  -0.4334
  N  N665  1  0.689900  0.851090  0.224920  1.0  -0.4021
  N  N666  1  0.978000  0.999800  0.211630  1.0  -0.4098
  N  N667  1  0.674000  0.214510  0.297860  1.0  -0.4137
  N  N668  1  0.627100  0.375890  0.275410  1.0  -0.4189
  N  N669  1  0.266900  0.293220  0.845520  1.0  -0.3837
  N  N670  1  0.337600  0.244900  0.972820  1.0  -0.3992
  N  N671  1  0.933000  0.794230  0.054560  1.0  -0.3891
  N  N672  1  0.560200  0.160760  0.516000  1.0  -0.4139
  N  N673  1  0.018600  0.182370  0.779300  1.0  -0.4024
  N  N674  1  0.183100  0.154200  0.968780  1.0  -0.3666
  N  N675  1  0.310100  0.351090  0.275080  1.0  -0.4022
  N  N676  1  0.060200  0.339240  0.484000  1.0  -0.4128
  N  N677  1  0.027300  0.042410  0.899070  1.0  -0.3949
  N  N678  1  0.446500  0.760100  0.435150  1.0  -0.4344
  N  N679  1  0.316900  0.845800  0.468780  1.0  -0.3656
  N  N680  1  0.047500  0.821400  0.664940  1.0  -0.4248
