# generated using pymatgen
data_CdH5C11O4
_symmetry_space_group_name_H-M   'P 1'
_cell_length_a   8.71730000
_cell_length_b   19.42880000
_cell_length_c   9.65580000
_cell_angle_alpha   90.00000000
_cell_angle_beta   97.17000000
_cell_angle_gamma   90.00000000
_symmetry_Int_Tables_number   1
_chemical_formula_structural   CdH5C11O4
_chemical_formula_sum   'Cd4 H20 C44 O16'
_cell_volume   1622.58248245
_cell_formula_units_Z   4
loop_
 _symmetry_equiv_pos_site_id
 _symmetry_equiv_pos_as_xyz
  1  'x, y, z'
loop_
 _atom_site_type_symbol
 _atom_site_label
 _atom_site_symmetry_multiplicity
 _atom_site_fract_x
 _atom_site_fract_y
 _atom_site_fract_z
 _atom_site_occupancy
 _atom_site_charge
  Cd  Cd1  1  0.248100  0.730260  0.558940  1.0  0.9036
  Cd  Cd2  1  0.751900  0.230260  0.941060  1.0  0.9054
  Cd  Cd3  1  0.751900  0.269740  0.441060  1.0  0.9015
  Cd  Cd4  1  0.248100  0.769740  0.058940  1.0  0.9006
  H  H5  1  0.778500  0.042700  0.580200  1.0  0.1231
  H  H6  1  0.563900  0.781600  0.598800  1.0  0.1218
  H  H7  1  0.753400  0.838600  0.495600  1.0  0.1239
  H  H8  1  0.800500  0.976700  0.812400  1.0  0.1268
  H  H9  1  0.616900  0.915900  0.921100  1.0  0.1207
  H  H10  1  0.221500  0.542700  0.919800  1.0  0.1232
  H  H11  1  0.436100  0.281600  0.901200  1.0  0.1217
  H  H12  1  0.246600  0.338600  0.004400  1.0  0.1234
  H  H13  1  0.199500  0.476700  0.687600  1.0  0.126
  H  H14  1  0.383100  0.415900  0.578900  1.0  0.1206
  H  H15  1  0.221500  0.957300  0.419800  1.0  0.1227
  H  H16  1  0.436100  0.218400  0.401200  1.0  0.1217
  H  H17  1  0.246600  0.161400  0.504400  1.0  0.1235
  H  H18  1  0.199500  0.023300  0.187600  1.0  0.1264
  H  H19  1  0.383100  0.084100  0.078900  1.0  0.121
  H  H20  1  0.778500  0.457300  0.080200  1.0  0.123
  H  H21  1  0.563900  0.718400  0.098800  1.0  0.1221
  H  H22  1  0.753400  0.661400  0.995600  1.0  0.1241
  H  H23  1  0.800500  0.523300  0.312400  1.0  0.1256
  H  H24  1  0.616900  0.584100  0.421100  1.0  0.1204
  C  C25  1  0.041300  0.930300  0.522800  1.0  -0.1042
  C  C26  1  0.906200  0.955600  0.571400  1.0  1e-04
  C  C27  1  0.868900  0.025100  0.547300  1.0  -0.0492
  C  C28  1  0.102900  0.858000  0.549700  1.0  0.7225
  C  C29  1  0.570200  0.843800  0.770300  1.0  -0.1044
  C  C30  1  0.612700  0.820900  0.643000  1.0  -0.0409
  C  C31  1  0.724600  0.855200  0.581300  1.0  -0.097
  C  C32  1  0.797100  0.914300  0.643000  1.0  0.0813
  C  C33  1  0.754000  0.936600  0.769100  1.0  -0.1208
  C  C34  1  0.642700  0.900800  0.833300  1.0  -0.0597
  C  C35  1  0.451400  0.804500  0.840500  1.0  0.7274
  C  C36  1  0.958700  0.430300  0.977200  1.0  -0.1048
  C  C37  1  0.093800  0.455600  0.928600  1.0  0.0004
  C  C38  1  0.131100  0.525100  0.952700  1.0  -0.0489
  C  C39  1  0.897100  0.358000  0.950300  1.0  0.722
  C  C40  1  0.429800  0.343800  0.729700  1.0  -0.1048
  C  C41  1  0.387300  0.320900  0.857000  1.0  -0.0411
  C  C42  1  0.275400  0.355200  0.918700  1.0  -0.0956
  C  C43  1  0.202900  0.414300  0.857000  1.0  0.0807
  C  C44  1  0.246000  0.436600  0.730900  1.0  -0.1221
  C  C45  1  0.357300  0.400800  0.666667  1.0  -0.057
  C  C46  1  0.548600  0.304500  0.659500  1.0  0.7285
  C  C47  1  0.958700  0.069700  0.477200  1.0  -0.1041
  C  C48  1  0.093800  0.044400  0.428600  1.0  0.0005
  C  C49  1  0.131100  0.974900  0.452700  1.0  -0.049
  C  C50  1  0.897100  0.142000  0.450300  1.0  0.7206
  C  C51  1  0.429800  0.156200  0.229700  1.0  -0.1049
  C  C52  1  0.387300  0.179100  0.357000  1.0  -0.0407
  C  C53  1  0.275400  0.144800  0.418700  1.0  -0.0964
  C  C54  1  0.202900  0.085700  0.357000  1.0  0.0808
  C  C55  1  0.246000  0.063400  0.230900  1.0  -0.1205
  C  C56  1  0.357300  0.099200  0.166700  1.0  -0.0582
  C  C57  1  0.548600  0.195500  0.159500  1.0  0.7293
  C  C58  1  0.041300  0.569700  0.022800  1.0  -0.1035
  C  C59  1  0.906200  0.544400  0.071400  1.0  0.0003
  C  C60  1  0.868900  0.474900  0.047300  1.0  -0.0489
  C  C61  1  0.102900  0.642000  0.049700  1.0  0.7213
  C  C62  1  0.570200  0.656200  0.270300  1.0  -0.1049
  C  C63  1  0.612700  0.679100  0.143000  1.0  -0.0403
  C  C64  1  0.724600  0.644800  0.081300  1.0  -0.0966
  C  C65  1  0.797100  0.585700  0.143000  1.0  0.0815
  C  C66  1  0.754000  0.563400  0.269100  1.0  -0.1194
  C  C67  1  0.642700  0.599200  0.333333  1.0  -0.0585
  C  C68  1  0.451400  0.695500  0.340500  1.0  0.7276
  O  O69  1  0.199000  0.836600  0.471000  1.0  -0.6166
  O  O70  1  0.061900  0.821700  0.644900  1.0  -0.596
  O  O71  1  0.435500  0.822100  0.963900  1.0  -0.5879
  O  O72  1  0.375700  0.757700  0.775300  1.0  -0.6765
  O  O73  1  0.801000  0.336600  0.029000  1.0  -0.6159
  O  O74  1  0.938100  0.321700  0.855100  1.0  -0.5965
  O  O75  1  0.564500  0.322100  0.536100  1.0  -0.5847
  O  O76  1  0.624300  0.257700  0.724700  1.0  -0.6785
  O  O77  1  0.801000  0.163400  0.529000  1.0  -0.616
  O  O78  1  0.938100  0.178300  0.355100  1.0  -0.5957
  O  O79  1  0.564500  0.177900  0.036100  1.0  -0.5845
  O  O80  1  0.624300  0.242300  0.224700  1.0  -0.6772
  O  O81  1  0.199000  0.663400  0.971000  1.0  -0.6162
  O  O82  1  0.061900  0.678300  0.144900  1.0  -0.5966
  O  O83  1  0.435500  0.677900  0.463900  1.0  -0.5865
  O  O84  1  0.375700  0.742300  0.275300  1.0  -0.676
