# generated using pymatgen
data_CdH11C9N2O3
_symmetry_space_group_name_H-M   'P 1'
_cell_length_a   6.19830000
_cell_length_b   15.00700000
_cell_length_c   16.53170000
_cell_angle_alpha   90.00000000
_cell_angle_beta   90.00000000
_cell_angle_gamma   90.00000000
_symmetry_Int_Tables_number   1
_chemical_formula_structural   CdH11C9N2O3
_chemical_formula_sum   'Cd4 H44 C36 N8 O12'
_cell_volume   1537.74382070
_cell_formula_units_Z   4
loop_
 _symmetry_equiv_pos_site_id
 _symmetry_equiv_pos_as_xyz
  1  'x, y, z'
loop_
 _atom_site_type_symbol
 _atom_site_label
 _atom_site_symmetry_multiplicity
 _atom_site_fract_x
 _atom_site_fract_y
 _atom_site_fract_z
 _atom_site_occupancy
 _atom_site_charge
  Cd  Cd1  1  0.592730  0.291660  0.355350  1.0  0.8509
  Cd  Cd2  1  0.407270  0.791660  0.144650  1.0  0.851
  Cd  Cd3  1  0.907270  0.708340  0.855350  1.0  0.853
  Cd  Cd4  1  0.092730  0.208340  0.644650  1.0  0.8517
  H  H5  1  0.636800  0.108100  0.252300  1.0  0.0605
  H  H6  1  0.464600  0.298700  0.680500  1.0  0.2148
  H  H7  1  0.092700  0.026100  0.745400  1.0  0.0502
  H  H8  1  0.592700  0.473900  0.254600  1.0  0.0504
  H  H9  1  0.413000  0.156000  0.453100  1.0  0.3584
  H  H10  1  0.097900  0.473300  0.626500  1.0  0.0561
  H  H11  1  0.044500  0.387100  0.397000  1.0  0.0489
  H  H12  1  0.118600  0.452200  0.533800  1.0  0.095
  H  H13  1  0.803200  0.591400  0.212000  1.0  0.0941
  H  H14  1  0.381400  0.547800  0.033800  1.0  0.0937
  H  H15  1  0.881400  0.952200  0.966200  1.0  0.0949
  H  H16  1  0.535400  0.798700  0.819500  1.0  0.2167
  H  H17  1  0.548200  0.924800  0.890600  1.0  0.054
  H  H18  1  0.696800  0.408600  0.712000  1.0  0.0938
  H  H19  1  0.597900  0.026700  0.373500  1.0  0.0563
  H  H20  1  0.218900  0.676800  0.293700  1.0  0.1014
  H  H21  1  0.964600  0.201300  0.319500  1.0  0.2147
  H  H22  1  0.774000  0.002100  0.645200  1.0  0.0966
  H  H23  1  0.402100  0.526700  0.126500  1.0  0.0603
  H  H24  1  0.136800  0.391900  0.747700  1.0  0.0608
  H  H25  1  0.281100  0.323200  0.793700  1.0  0.1025
  H  H26  1  0.718900  0.823200  0.706300  1.0  0.1006
  H  H27  1  0.407300  0.973900  0.245400  1.0  0.0508
  H  H28  1  0.274000  0.497900  0.354800  1.0  0.0967
  H  H29  1  0.196800  0.091400  0.288000  1.0  0.0937
  H  H30  1  0.303200  0.908600  0.788000  1.0  0.0942
  H  H31  1  0.087000  0.844000  0.953100  1.0  0.3594
  H  H32  1  0.035400  0.701300  0.180500  1.0  0.2149
  H  H33  1  0.951800  0.075200  0.390600  1.0  0.0534
  H  H34  1  0.913000  0.344000  0.546900  1.0  0.3573
  H  H35  1  0.587000  0.656000  0.046900  1.0  0.357
  H  H36  1  0.726000  0.997900  0.145200  1.0  0.0965
  H  H37  1  0.902100  0.973300  0.873500  1.0  0.0604
  H  H38  1  0.048200  0.575200  0.109400  1.0  0.0539
  H  H39  1  0.781100  0.176800  0.206300  1.0  0.1002
  H  H40  1  0.455500  0.612900  0.897000  1.0  0.0492
  H  H41  1  0.955500  0.887100  0.103000  1.0  0.049
  H  H42  1  0.226000  0.502100  0.854800  1.0  0.0967
  H  H43  1  0.451800  0.424800  0.609400  1.0  0.0542
  H  H44  1  0.544500  0.112900  0.603000  1.0  0.0497
  H  H45  1  0.363200  0.608100  0.247700  1.0  0.0632
  H  H46  1  0.618600  0.047800  0.466200  1.0  0.095
  H  H47  1  0.863200  0.891900  0.752300  1.0  0.066
  H  H48  1  0.907300  0.526100  0.754600  1.0  0.0507
  C  C49  1  0.731600  0.479200  0.275300  1.0  0.1562
  C  C50  1  0.118400  0.425800  0.587400  1.0  0.0509
  C  C51  1  0.003400  0.927500  0.141700  1.0  0.1534
  C  C52  1  0.890100  0.178700  0.472200  1.0  0.6235
  C  C53  1  0.718100  0.867900  0.748700  1.0  -0.1057
  C  C54  1  0.881600  0.925800  0.912600  1.0  0.0502
  C  C55  1  0.660700  0.879500  0.897000  1.0  0.0145
  C  C56  1  0.635300  0.005300  0.666500  1.0  -0.2316
  C  C57  1  0.496600  0.072500  0.641700  1.0  0.1544
  C  C58  1  0.642100  0.450100  0.748400  1.0  -0.251
  C  C59  1  0.381600  0.574200  0.087400  1.0  0.0479
  C  C60  1  0.432000  0.442900  0.777300  1.0  0.112
  C  C61  1  0.142100  0.049900  0.251600  1.0  -0.2516
  C  C62  1  0.357900  0.950100  0.751600  1.0  -0.2505
  C  C63  1  0.932000  0.057100  0.222700  1.0  0.1107
  C  C64  1  0.068000  0.557100  0.277300  1.0  0.1118
  C  C65  1  0.568000  0.942900  0.722700  1.0  0.1106
  C  C66  1  0.864700  0.994700  0.166500  1.0  -0.2302
  C  C67  1  0.339300  0.379500  0.603000  1.0  0.0135
  C  C68  1  0.364700  0.505300  0.833500  1.0  -0.2241
  C  C69  1  0.857900  0.549900  0.248400  1.0  -0.2503
  C  C70  1  0.135300  0.494700  0.333500  1.0  -0.2256
  C  C71  1  0.268400  0.979200  0.224700  1.0  0.156
  C  C72  1  0.218100  0.632100  0.251300  1.0  -0.1043
  C  C73  1  0.109900  0.678700  0.027800  1.0  0.6215
  C  C74  1  0.618400  0.074200  0.412600  1.0  0.0508
  C  C75  1  0.231600  0.020800  0.724700  1.0  0.1549
  C  C76  1  0.281900  0.367900  0.751300  1.0  -0.1035
  C  C77  1  0.390100  0.321300  0.527800  1.0  0.6217
  C  C78  1  0.996600  0.427500  0.358300  1.0  0.154
  C  C79  1  0.160700  0.620500  0.103000  1.0  0.0143
  C  C80  1  0.609900  0.821300  0.972200  1.0  0.6234
  C  C81  1  0.839300  0.120500  0.397000  1.0  0.0147
  C  C82  1  0.503400  0.572500  0.858300  1.0  0.1544
  C  C83  1  0.768400  0.520800  0.775300  1.0  0.1561
  C  C84  1  0.781900  0.132100  0.248700  1.0  -0.1039
  N  N85  1  0.798000  0.418400  0.329000  1.0  -0.3731
  N  N86  1  0.702000  0.581600  0.829000  1.0  -0.3729
  N  N87  1  0.668300  0.823700  0.825100  1.0  -0.4012
  N  N88  1  0.298000  0.081600  0.671000  1.0  -0.3732
  N  N89  1  0.331700  0.323700  0.674900  1.0  -0.4
  N  N90  1  0.168300  0.676300  0.174900  1.0  -0.3995
  N  N91  1  0.831700  0.176300  0.325100  1.0  -0.3986
  N  N92  1  0.202000  0.918400  0.171000  1.0  -0.3711
  O  O93  1  0.139800  0.760500  0.034700  1.0  -0.6425
  O  O94  1  0.053800  0.864200  0.906500  1.0  -0.5809
  O  O95  1  0.449800  0.361100  0.465300  1.0  -0.6164
  O  O96  1  0.446200  0.135800  0.406500  1.0  -0.5808
  O  O97  1  0.639800  0.739500  0.965300  1.0  -0.6421
  O  O98  1  0.550200  0.861100  0.034700  1.0  -0.615
  O  O99  1  0.553800  0.635800  0.093500  1.0  -0.5772
  O  O100  1  0.360200  0.239500  0.534700  1.0  -0.6423
  O  O101  1  0.949800  0.138900  0.534700  1.0  -0.6158
  O  O102  1  0.050200  0.638900  0.965300  1.0  -0.617
  O  O103  1  0.946200  0.364200  0.593500  1.0  -0.5803
  O  O104  1  0.860200  0.260500  0.465300  1.0  -0.6425
