# generated using pymatgen
data_CdN4
_symmetry_space_group_name_H-M   'P 1'
_cell_length_a   8.11600000
_cell_length_b   8.11600000
_cell_length_c   14.72100000
_cell_angle_alpha   90.00000000
_cell_angle_beta   90.00000000
_cell_angle_gamma   90.00000000
_symmetry_Int_Tables_number   1
_chemical_formula_structural   CdN4
_chemical_formula_sum   'Cd4 N16'
_cell_volume   969.66426178
_cell_formula_units_Z   4
loop_
 _symmetry_equiv_pos_site_id
 _symmetry_equiv_pos_as_xyz
  1  'x, y, z'
loop_
 _atom_site_type_symbol
 _atom_site_label
 _atom_site_symmetry_multiplicity
 _atom_site_fract_x
 _atom_site_fract_y
 _atom_site_fract_z
 _atom_site_occupancy
 _atom_site_charge
  Cd  Cd1  1  0.000000  0.250000  0.375000  1.0  0.8489
  Cd  Cd2  1  0.500000  0.750000  0.875000  1.0  0.8489
  Cd  Cd3  1  0.000000  0.750000  0.625000  1.0  0.8489
  Cd  Cd4  1  0.500000  0.250000  0.125000  1.0  0.8489
  N  N5  1  0.000000  0.451500  0.473000  1.0  -0.2132
  N  N6  1  0.500000  0.951500  0.973000  1.0  -0.2132
  N  N7  1  0.500000  0.548500  0.973000  1.0  -0.2146
  N  N8  1  0.000000  0.048500  0.473000  1.0  -0.2146
  N  N9  1  0.798500  0.750000  0.723000  1.0  -0.2112
  N  N10  1  0.701500  0.250000  0.223000  1.0  -0.2109
  N  N11  1  0.500000  0.451500  0.027000  1.0  -0.2122
  N  N12  1  0.000000  0.951500  0.527000  1.0  -0.2122
  N  N13  1  0.000000  0.548500  0.527000  1.0  -0.2137
  N  N14  1  0.500000  0.048500  0.027000  1.0  -0.2137
  N  N15  1  0.701500  0.750000  0.777000  1.0  -0.2109
  N  N16  1  0.798500  0.250000  0.277000  1.0  -0.2109
  N  N17  1  0.201500  0.250000  0.277000  1.0  -0.2114
  N  N18  1  0.298500  0.750000  0.777000  1.0  -0.2114
  N  N19  1  0.298500  0.250000  0.223000  1.0  -0.2108
  N  N20  1  0.201500  0.750000  0.723000  1.0  -0.2105
