# generated using pymatgen
data_CuH20(C7N6)2
_symmetry_space_group_name_H-M   'P 1'
_cell_length_a   14.17400000
_cell_length_b   15.45560000
_cell_length_c   15.45560000
_cell_angle_alpha   68.91040000
_cell_angle_beta   72.20010000
_cell_angle_gamma   107.80000000
_symmetry_Int_Tables_number   1
_chemical_formula_structural   CuH20(C7N6)2
_chemical_formula_sum   'Cu3 H60 C42 N36'
_cell_volume   2658.19371937
_cell_formula_units_Z   3
loop_
 _symmetry_equiv_pos_site_id
 _symmetry_equiv_pos_as_xyz
  1  'x, y, z'
loop_
 _atom_site_type_symbol
 _atom_site_label
 _atom_site_symmetry_multiplicity
 _atom_site_fract_x
 _atom_site_fract_y
 _atom_site_fract_z
 _atom_site_occupancy
 _atom_site_charge
  Cu  Cu1  1  0.000000  0.000000  0.500000  1.0  0.3293
  Cu  Cu2  1  0.500000  0.500000  0.500000  1.0  0.3293
  Cu  Cu3  1  0.000000  0.500000  0.000000  1.0  0.3293
  H  H4  1  0.922400  0.584800  0.594700  1.0  0.1087
  H  H5  1  0.484900  0.475100  0.868900  1.0  0.0702
  H  H6  1  0.557100  0.503800  0.272900  1.0  0.0731
  H  H7  1  0.077600  0.415200  0.405300  1.0  0.106
  H  H8  1  0.222000  0.124600  0.300300  1.0  0.1266
  H  H9  1  0.990200  0.344000  0.524900  1.0  0.0746
  H  H10  1  0.646200  0.131100  0.344000  1.0  0.0729
  H  H11  1  0.895900  0.667600  0.909600  1.0  0.0981
  H  H12  1  0.442900  0.496200  0.727100  1.0  0.0735
  H  H13  1  0.522800  0.882900  0.620200  1.0  0.0846
  H  H14  1  0.477200  0.117100  0.379800  1.0  0.0817
  H  H15  1  0.097400  0.575100  0.124600  1.0  0.1318
  H  H16  1  0.337600  0.820500  0.584800  1.0  0.1054
  H  H17  1  0.194500  0.090400  0.577200  1.0  0.0982
  H  H18  1  0.830000  0.272900  0.223300  1.0  0.0747
  H  H19  1  0.575700  0.802100  0.493500  1.0  0.0798
  H  H20  1  0.485100  0.278300  0.385900  1.0  0.0825
  H  H21  1  0.522300  0.300300  0.575100  1.0  0.1345
  H  H22  1  0.639900  0.496900  0.882900  1.0  0.0792
  H  H23  1  0.206800  0.335800  0.278300  1.0  0.0805
  H  H24  1  0.266800  0.379800  0.507700  1.0  0.0698
  H  H25  1  0.053300  0.223300  0.503800  1.0  0.0739
  H  H26  1  0.773600  0.704400  0.802100  1.0  0.0788
  H  H27  1  0.514900  0.721700  0.614100  1.0  0.0819
  H  H28  1  0.793200  0.664200  0.721700  1.0  0.0796
  H  H29  1  0.930800  0.506500  0.295600  1.0  0.0802
  H  H30  1  0.037200  0.512800  0.574000  1.0  0.0922
  H  H31  1  0.170000  0.727100  0.776700  1.0  0.0735
  H  H32  1  0.517100  0.594700  0.820500  1.0  0.1021
  H  H33  1  0.143000  0.620200  0.496900  1.0  0.0819
  H  H34  1  0.424300  0.197900  0.506500  1.0  0.0803
  H  H35  1  0.774500  0.507700  0.112500  1.0  0.0722
  H  H36  1  0.946700  0.776700  0.496200  1.0  0.0732
  H  H37  1  0.524400  0.913200  0.512800  1.0  0.094
  H  H38  1  0.902600  0.424900  0.875400  1.0  0.1327
  H  H39  1  0.225500  0.492300  0.887500  1.0  0.0712
  H  H40  1  0.662400  0.179500  0.415200  1.0  0.1052
  H  H41  1  0.104100  0.332400  0.090400  1.0  0.099
  H  H42  1  0.113000  0.887500  0.620200  1.0  0.0707
  H  H43  1  0.805500  0.909600  0.422800  1.0  0.0996
  H  H44  1  0.388800  0.426000  0.086800  1.0  0.0947
  H  H45  1  0.515100  0.524900  0.131100  1.0  0.0736
  H  H46  1  0.069200  0.493500  0.704400  1.0  0.0773
  H  H47  1  0.228300  0.422800  0.667600  1.0  0.1001
  H  H48  1  0.360100  0.503100  0.117100  1.0  0.0794
  H  H49  1  0.871000  0.385900  0.335800  1.0  0.0783
  H  H50  1  0.857000  0.379800  0.503100  1.0  0.082
  H  H51  1  0.778000  0.875400  0.699700  1.0  0.1269
  H  H52  1  0.129000  0.614100  0.664200  1.0  0.0778
  H  H53  1  0.482900  0.405300  0.179500  1.0  0.1031
  H  H54  1  0.887000  0.112500  0.379800  1.0  0.0704
  H  H55  1  0.962800  0.487200  0.426000  1.0  0.0924
  H  H56  1  0.475600  0.086800  0.487200  1.0  0.097
  H  H57  1  0.611200  0.574000  0.913200  1.0  0.098
  H  H58  1  0.477700  0.699700  0.424900  1.0  0.1334
  H  H59  1  0.009800  0.656000  0.475100  1.0  0.0747
  H  H60  1  0.226400  0.295600  0.197900  1.0  0.0803
  H  H61  1  0.771700  0.577200  0.332400  1.0  0.1009
  H  H62  1  0.353800  0.868900  0.656000  1.0  0.0749
  H  H63  1  0.733200  0.620200  0.492300  1.0  0.0694
  C  C64  1  0.924000  0.156000  0.400200  1.0  0.1722
  C  C65  1  0.270000  0.495000  0.615000  1.0  0.1221
  C  C66  1  0.768000  0.443800  0.156000  1.0  0.1708
  C  C67  1  0.923000  0.418000  0.436000  1.0  -0.2146
  C  C68  1  0.889000  0.480000  0.872000  1.0  0.2529
  C  C69  1  0.006100  0.210100  0.474400  1.0  0.1514
  C  C70  1  0.225000  0.110000  0.505000  1.0  0.1231
  C  C71  1  0.634000  0.180000  0.365000  1.0  -0.1486
  C  C72  1  0.409000  0.648000  0.480000  1.0  0.2561
  C  C73  1  0.993900  0.789900  0.525600  1.0  0.1506
  C  C74  1  0.505000  0.146000  0.418000  1.0  -0.2191
  C  C75  1  0.123000  0.563000  0.641000  1.0  -0.0027
  C  C76  1  0.115000  0.385000  0.110000  1.0  0.1241
  C  C77  1  0.111000  0.520000  0.128000  1.0  0.2541
  C  C78  1  0.001000  0.635000  0.545000  1.0  -0.1527
  C  C79  1  0.641000  0.564000  0.854000  1.0  -0.2206
  C  C80  1  0.440000  0.204000  0.437000  1.0  -0.0027
  C  C81  1  0.519500  0.525600  0.684500  1.0  0.1526
  C  C82  1  0.359000  0.436000  0.146000  1.0  -0.2179
  C  C83  1  0.796000  0.315500  0.210100  1.0  0.1471
  C  C84  1  0.560000  0.796000  0.563000  1.0  -0.0025
  C  C85  1  0.077000  0.582000  0.564000  1.0  -0.2144
  C  C86  1  0.239000  0.128000  0.352000  1.0  0.259
  C  C87  1  0.366000  0.820000  0.635000  1.0  -0.1494
  C  C88  1  0.454000  0.455000  0.180000  1.0  -0.1481
  C  C89  1  0.885000  0.615000  0.890000  1.0  0.1226
  C  C90  1  0.204000  0.684500  0.789900  1.0  0.1477
  C  C91  1  0.324200  0.400200  0.443800  1.0  0.1737
  C  C92  1  0.764000  0.641000  0.796000  1.0  -0.0061
  C  C93  1  0.236000  0.359000  0.204000  1.0  -0.0067
  C  C94  1  0.730000  0.505000  0.385000  1.0  0.1215
  C  C95  1  0.761000  0.872000  0.648000  1.0  0.2613
  C  C96  1  0.877000  0.437000  0.359000  1.0  -0.0025
  C  C97  1  0.232000  0.556200  0.844000  1.0  0.1663
  C  C98  1  0.495000  0.854000  0.582000  1.0  -0.2176
  C  C99  1  0.999000  0.365000  0.455000  1.0  -0.1496
  C  C100  1  0.775000  0.890000  0.495000  1.0  0.1226
  C  C101  1  0.675800  0.599800  0.556200  1.0  0.1732
  C  C102  1  0.076000  0.844000  0.599800  1.0  0.1686
  C  C103  1  0.591000  0.352000  0.520000  1.0  0.2552
  C  C104  1  0.480500  0.474400  0.315500  1.0  0.1545
  C  C105  1  0.546000  0.545000  0.820000  1.0  -0.1506
  N  N106  1  0.831000  0.516000  0.824000  1.0  -0.2925
  N  N107  1  0.169000  0.484000  0.176000  1.0  -0.2969
  N  N108  1  0.560300  0.534300  0.593000  1.0  -0.442
  N  N109  1  0.685000  0.340000  0.484000  1.0  -0.2922
  N  N110  1  0.846700  0.407000  0.127300  1.0  -0.4427
  N  N111  1  0.590500  0.559400  0.711100  1.0  0.0338
  N  N112  1  0.771000  0.434000  0.401000  1.0  0.0675
  N  N113  1  0.031100  0.729500  0.559400  1.0  0.0333
  N  N114  1  0.974000  0.127300  0.465700  1.0  -0.4412
  N  N115  1  0.409500  0.440600  0.288900  1.0  0.0323
  N  N116  1  0.683000  0.375000  0.254000  1.0  -0.3989
  N  N117  1  0.172000  0.401000  0.165000  1.0  0.0694
  N  N118  1  0.836100  0.913800  0.544000  1.0  -0.3497
  N  N119  1  0.163900  0.086200  0.456000  1.0  -0.3518
  N  N120  1  0.619900  0.456000  0.457800  1.0  -0.3509
  N  N121  1  0.026000  0.872700  0.534300  1.0  -0.4419
  N  N122  1  0.692000  0.629000  0.625000  1.0  -0.3987
  N  N123  1  0.968900  0.270500  0.440600  1.0  0.033
  N  N124  1  0.380100  0.544000  0.542200  1.0  -0.3505
  N  N125  1  0.655000  0.824000  0.660000  1.0  -0.2907
  N  N126  1  0.663000  0.835000  0.566000  1.0  0.068
  N  N127  1  0.315000  0.660000  0.516000  1.0  -0.2927
  N  N128  1  0.698400  0.288900  0.270500  1.0  0.0336
  N  N129  1  0.077700  0.457800  0.086200  1.0  -0.3542
  N  N130  1  0.937000  0.254000  0.371000  1.0  -0.4
  N  N131  1  0.308000  0.371000  0.375000  1.0  -0.3976
  N  N132  1  0.301600  0.711100  0.729500  1.0  0.0363
  N  N133  1  0.922300  0.542200  0.913800  1.0  -0.3507
  N  N134  1  0.345000  0.176000  0.340000  1.0  -0.2939
  N  N135  1  0.063000  0.746000  0.629000  1.0  -0.3986
  N  N136  1  0.229000  0.566000  0.599000  1.0  0.0676
  N  N137  1  0.337000  0.165000  0.434000  1.0  0.0687
  N  N138  1  0.828000  0.599000  0.835000  1.0  0.0696
  N  N139  1  0.439700  0.465700  0.407000  1.0  -0.4411
  N  N140  1  0.317000  0.625000  0.746000  1.0  -0.3989
  N  N141  1  0.153300  0.593000  0.872700  1.0  -0.4427
