# generated using pymatgen
data_Cd3H36(C17O4)4
_symmetry_space_group_name_H-M   'P 1'
_cell_length_a   15.85550000
_cell_length_b   28.67700000
_cell_length_c   21.40180000
_cell_angle_alpha   90.00000000
_cell_angle_beta   90.00000000
_cell_angle_gamma   90.00000000
_symmetry_Int_Tables_number   1
_chemical_formula_structural   Cd3H36(C17O4)4
_chemical_formula_sum   'Cd12 H144 C272 O64'
_cell_volume   9731.14535161
_cell_formula_units_Z   4
loop_
 _symmetry_equiv_pos_site_id
 _symmetry_equiv_pos_as_xyz
  1  'x, y, z'
loop_
 _atom_site_type_symbol
 _atom_site_label
 _atom_site_symmetry_multiplicity
 _atom_site_fract_x
 _atom_site_fract_y
 _atom_site_fract_z
 _atom_site_occupancy
 _atom_site_charge
  Cd  Cd1  1  0.971550  0.295370  0.260100  1.0  1.0659
  Cd  Cd2  1  0.239100  0.246740  0.737370  1.0  0.88
  Cd  Cd3  1  0.028450  0.295370  0.739900  1.0  1.0653
  Cd  Cd4  1  0.486090  0.208620  0.243130  1.0  1.0639
  Cd  Cd5  1  0.760900  0.246740  0.262630  1.0  0.8798
  Cd  Cd6  1  0.028450  0.704630  0.760100  1.0  1.0656
  Cd  Cd7  1  0.760900  0.753260  0.237370  1.0  0.8819
  Cd  Cd8  1  0.486090  0.791380  0.256870  1.0  1.0633
  Cd  Cd9  1  0.513910  0.208620  0.756870  1.0  1.0628
  Cd  Cd10  1  0.971550  0.704630  0.239900  1.0  1.0663
  Cd  Cd11  1  0.513910  0.791380  0.743130  1.0  1.0632
  Cd  Cd12  1  0.239100  0.753260  0.762630  1.0  0.8814
  H  H13  1  0.689100  0.484300  0.323300  1.0  0.138
  H  H14  1  0.070700  0.084200  0.377500  1.0  0.1161
  H  H15  1  0.592800  0.401200  0.189400  1.0  0.0983
  H  H16  1  0.801900  0.972700  0.826700  1.0  0.1408
  H  H17  1  0.861300  0.074100  0.101900  1.0  0.131
  H  H18  1  0.144000  0.575700  0.323000  1.0  0.1241
  H  H19  1  0.865000  0.099000  0.485500  1.0  0.1224
  H  H20  1  0.034800  0.004700  0.895200  1.0  0.1125
  H  H21  1  0.597900  0.611400  0.463000  1.0  0.1241
  H  H22  1  0.378000  0.611600  0.015000  1.0  0.1232
  H  H23  1  0.954700  0.842300  0.835500  1.0  0.1181
  H  H24  1  0.163100  0.169000  0.561600  1.0  0.1233
  H  H25  1  0.341100  0.076100  0.823300  1.0  0.1269
  H  H26  1  0.163100  0.831000  0.938400  1.0  0.1231
  H  H27  1  0.126400  0.094100  0.679600  1.0  0.1085
  H  H28  1  0.648400  0.407400  0.673000  1.0  0.1005
  H  H29  1  0.856000  0.575700  0.677000  1.0  0.1237
  H  H30  1  0.341100  0.923900  0.676700  1.0  0.1266
  H  H31  1  0.763600  0.641100  0.828000  1.0  0.1231
  H  H32  1  0.010700  0.920200  0.742900  1.0  0.1089
  H  H33  1  0.865000  0.901000  0.014500  1.0  0.1221
  H  H34  1  0.526400  0.496100  0.606100  1.0  0.1141
  H  H35  1  0.198100  0.972700  0.173300  1.0  0.1396
  H  H36  1  0.236400  0.358900  0.328000  1.0  0.1236
  H  H37  1  0.641300  0.316700  0.564200  1.0  0.1307
  H  H38  1  0.232700  0.977700  0.680800  1.0  0.1199
  H  H39  1  0.761600  0.868400  0.664100  1.0  0.1159
  H  H40  1  0.836900  0.169000  0.438400  1.0  0.1231
  H  H41  1  0.120700  0.915200  0.334600  1.0  0.1152
  H  H42  1  0.138700  0.074100  0.898100  1.0  0.1318
  H  H43  1  0.238400  0.131600  0.164100  1.0  0.1164
  H  H44  1  0.430500  0.417400  0.627800  1.0  0.1091
  H  H45  1  0.704700  0.349900  0.201900  1.0  0.1179
  H  H46  1  0.648400  0.592600  0.827000  1.0  0.1007
  H  H47  1  0.590500  0.318800  0.089600  1.0  0.1256
  H  H48  1  0.197000  0.566600  0.833400  1.0  0.1209
  H  H49  1  0.954700  0.157700  0.664500  1.0  0.1179
  H  H50  1  0.310900  0.484300  0.676700  1.0  0.1393
  H  H51  1  0.590500  0.681200  0.410400  1.0  0.125
  H  H52  1  0.358700  0.683300  0.064200  1.0  0.1315
  H  H53  1  0.767300  0.022300  0.180800  1.0  0.1201
  H  H54  1  0.295300  0.650100  0.701900  1.0  0.118
  H  H55  1  0.597900  0.388600  0.037000  1.0  0.1237
  H  H56  1  0.989300  0.920200  0.257100  1.0  0.1091
  H  H57  1  0.836900  0.831000  0.061600  1.0  0.1228
  H  H58  1  0.554300  0.654700  0.176600  1.0  0.1132
  H  H59  1  0.070700  0.915800  0.122500  1.0  0.1168
  H  H60  1  0.473600  0.503900  0.106100  1.0  0.1141
  H  H61  1  0.704700  0.650100  0.298100  1.0  0.1179
  H  H62  1  0.592800  0.598800  0.310600  1.0  0.1014
  H  H63  1  0.232500  0.147400  0.682800  1.0  0.114
  H  H64  1  0.684800  0.923200  0.826200  1.0  0.1162
  H  H65  1  0.873600  0.094100  0.320400  1.0  0.1084
  H  H66  1  0.841000  0.139900  0.159900  1.0  0.1051
  H  H67  1  0.879300  0.084800  0.834600  1.0  0.1152
  H  H68  1  0.378300  0.571900  0.388100  1.0  0.132
  H  H69  1  0.256800  0.475400  0.179700  1.0  0.1222
  H  H70  1  0.315200  0.923200  0.173800  1.0  0.1163
  H  H71  1  0.658900  0.923900  0.323300  1.0  0.1272
  H  H72  1  0.856000  0.424300  0.823000  1.0  0.1236
  H  H73  1  0.626200  0.640700  0.668000  1.0  0.1086
  H  H74  1  0.445700  0.345300  0.676600  1.0  0.1129
  H  H75  1  0.236400  0.641100  0.172000  1.0  0.1233
  H  H76  1  0.622000  0.611600  0.985000  1.0  0.1229
  H  H77  1  0.256800  0.524600  0.320300  1.0  0.1217
  H  H78  1  0.430500  0.582600  0.872200  1.0  0.1091
  H  H79  1  0.743200  0.524600  0.679700  1.0  0.1213
  H  H80  1  0.626200  0.359300  0.832000  1.0  0.1094
  H  H81  1  0.934200  0.188800  0.891900  1.0  0.1248
  H  H82  1  0.351600  0.592600  0.173000  1.0  0.0994
  H  H83  1  0.801900  0.027300  0.673300  1.0  0.1407
  H  H84  1  0.159000  0.860100  0.659900  1.0  0.1058
  H  H85  1  0.841000  0.860100  0.340100  1.0  0.1056
  H  H86  1  0.034800  0.995300  0.604800  1.0  0.1112
  H  H87  1  0.197000  0.433400  0.666667  1.0  0.1204
  H  H88  1  0.126400  0.905900  0.820400  1.0  0.1076
  H  H89  1  0.767300  0.977700  0.319200  1.0  0.1207
  H  H90  1  0.743200  0.475400  0.820300  1.0  0.1213
  H  H91  1  0.526700  0.580300  0.755400  1.0  0.1096
  H  H92  1  0.445700  0.654700  0.823400  1.0  0.1136
  H  H93  1  0.526700  0.419700  0.744600  1.0  0.1103
  H  H94  1  0.402100  0.611400  0.537000  1.0  0.1243
  H  H95  1  0.929300  0.084200  0.622500  1.0  0.1133
  H  H96  1  0.120700  0.084800  0.165400  1.0  0.1161
  H  H97  1  0.407200  0.401200  0.810600  1.0  0.1017
  H  H98  1  0.409500  0.681200  0.589600  1.0  0.1255
  H  H99  1  0.934200  0.811200  0.608100  1.0  0.1239
  H  H100  1  0.378000  0.388400  0.485000  1.0  0.1234
  H  H101  1  0.689100  0.515700  0.176700  1.0  0.1386
  H  H102  1  0.873600  0.905900  0.179600  1.0  0.1091
  H  H103  1  0.378300  0.428100  0.111900  1.0  0.1319
  H  H104  1  0.554300  0.345300  0.323400  1.0  0.1137
  H  H105  1  0.085300  0.876300  0.454000  1.0  0.121
  H  H106  1  0.767500  0.852600  0.182800  1.0  0.1135
  H  H107  1  0.569500  0.417400  0.372200  1.0  0.1095
  H  H108  1  0.315200  0.076800  0.326200  1.0  0.1167
  H  H109  1  0.929300  0.915800  0.877500  1.0  0.1158
  H  H110  1  0.965200  0.995300  0.395200  1.0  0.1125
  H  H111  1  0.569500  0.582600  0.127800  1.0  0.1101
  H  H112  1  0.658900  0.076100  0.176700  1.0  0.1266
  H  H113  1  0.473600  0.496100  0.393900  1.0  0.1152
  H  H114  1  0.135000  0.099000  0.514500  1.0  0.1219
  H  H115  1  0.989300  0.079800  0.242900  1.0  0.1091
  H  H116  1  0.914700  0.876300  0.546000  1.0  0.1211
  H  H117  1  0.684800  0.076800  0.673800  1.0  0.1153
  H  H118  1  0.526400  0.503900  0.893900  1.0  0.1147
  H  H119  1  0.144000  0.424300  0.177000  1.0  0.1237
  H  H120  1  0.473300  0.419700  0.255400  1.0  0.11
  H  H121  1  0.351600  0.407400  0.327000  1.0  0.1007
  H  H122  1  0.407200  0.598800  0.689400  1.0  0.0984
  H  H123  1  0.641300  0.683300  0.935800  1.0  0.1305
  H  H124  1  0.473300  0.580300  0.244600  1.0  0.1091
  H  H125  1  0.232700  0.022300  0.819200  1.0  0.1206
  H  H126  1  0.409500  0.318800  0.910400  1.0  0.1251
  H  H127  1  0.803000  0.566600  0.166600  1.0  0.1205
  H  H128  1  0.861300  0.925900  0.398100  1.0  0.131
  H  H129  1  0.085300  0.123700  0.046000  1.0  0.1213
  H  H130  1  0.238400  0.868400  0.335900  1.0  0.116
  H  H131  1  0.373800  0.640700  0.332000  1.0  0.1083
  H  H132  1  0.138700  0.925900  0.601900  1.0  0.1314
  H  H133  1  0.914700  0.123700  0.954000  1.0  0.1211
  H  H134  1  0.761600  0.131600  0.835900  1.0  0.1164
  H  H135  1  0.310900  0.515700  0.823300  1.0  0.1384
  H  H136  1  0.763600  0.358900  0.672000  1.0  0.123
  H  H137  1  0.767500  0.147400  0.317200  1.0  0.1144
  H  H138  1  0.010700  0.079800  0.757100  1.0  0.1091
  H  H139  1  0.373800  0.359300  0.168000  1.0  0.1083
  H  H140  1  0.295300  0.349900  0.798100  1.0  0.1185
  H  H141  1  0.621700  0.571900  0.611900  1.0  0.1318
  H  H142  1  0.045300  0.157700  0.335500  1.0  0.1184
  H  H143  1  0.621700  0.428100  0.888100  1.0  0.1314
  H  H144  1  0.879300  0.915200  0.665400  1.0  0.1155
  H  H145  1  0.622000  0.388400  0.515000  1.0  0.1228
  H  H146  1  0.358700  0.316700  0.435800  1.0  0.1314
  H  H147  1  0.198100  0.027300  0.326700  1.0  0.1389
  H  H148  1  0.135000  0.901000  0.985500  1.0  0.1219
  H  H149  1  0.803000  0.433400  0.333400  1.0  0.1208
  H  H150  1  0.045300  0.842300  0.164500  1.0  0.1184
  H  H151  1  0.402100  0.388600  0.963000  1.0  0.1244
  H  H152  1  0.159000  0.139900  0.840100  1.0  0.106
  H  H153  1  0.232500  0.852600  0.817200  1.0  0.1142
  H  H154  1  0.965200  0.004700  0.104800  1.0  0.111
  H  H155  1  0.065800  0.811200  0.391900  1.0  0.1243
  H  H156  1  0.065800  0.188800  0.108100  1.0  0.1244
  C  C157  1  0.723800  0.078450  0.706200  1.0  -0.0301
  C  C158  1  0.746200  0.548500  0.709000  1.0  -0.0941
  C  C159  1  0.363900  0.844870  0.742800  1.0  0.714
  C  C160  1  0.372300  0.446900  0.743770  1.0  0.0623
  C  C161  1  0.918600  0.216530  0.351200  1.0  0.7654
  C  C162  1  0.526000  0.714020  0.669400  1.0  0.6947
  C  C163  1  0.289100  0.890270  0.254000  1.0  -0.1003
  C  C164  1  0.372300  0.553100  0.756230  1.0  0.0626
  C  C165  1  0.012700  0.037520  0.531510  1.0  0.0169
  C  C166  1  0.492800  0.460630  0.032570  1.0  0.0346
  C  C167  1  0.145400  0.947210  0.253500  1.0  0.0489
  C  C168  1  0.413600  0.379940  0.452400  1.0  -0.08
  C  C169  1  0.253800  0.451500  0.209000  1.0  -0.0963
  C  C170  1  0.065600  0.213130  0.818440  1.0  0.7223
  C  C171  1  0.050400  0.170990  0.860300  1.0  -0.1288
  C  C172  1  0.490800  0.545460  0.031690  1.0  0.0181
  C  C173  1  0.239900  0.426690  0.694800  1.0  -0.0342
  C  C174  1  0.543800  0.323170  0.625460  1.0  -0.1097
  C  C175  1  0.205300  0.048950  0.294800  1.0  -0.1334
  C  C176  1  0.978700  0.995230  0.437500  1.0  -0.0777
  C  C177  1  0.472970  0.547850  0.246430  1.0  -0.1564
  C  C178  1  0.963600  0.126470  0.930300  1.0  -0.0669
  C  C179  1  0.413600  0.620060  0.047600  1.0  -0.0746
  C  C180  1  0.205300  0.951050  0.205200  1.0  -0.1305
  C  C181  1  0.581700  0.635150  0.640700  1.0  -0.0104
  C  C182  1  0.710900  0.890270  0.746000  1.0  -0.1007
  C  C183  1  0.702900  0.080200  0.205000  1.0  -0.0381
  C  C184  1  0.159300  0.083130  0.198100  1.0  -0.1189
  C  C185  1  0.760100  0.573310  0.194800  1.0  -0.0398
  C  C186  1  0.448000  0.382680  0.937160  1.0  -0.0967
  C  C187  1  0.024300  0.165920  0.106100  1.0  -0.0479
  C  C188  1  0.081400  0.783470  0.851200  1.0  0.7652
  C  C189  1  0.480300  0.668530  0.366500  1.0  -0.1484
  C  C190  1  0.509400  0.584420  0.568500  1.0  0.0893
  C  C191  1  0.527030  0.452150  0.746430  1.0  -0.1558
  C  C192  1  0.298200  0.623270  0.726200  1.0  -0.0124
  C  C193  1  0.638700  0.143210  0.754400  1.0  0.7067
  C  C194  1  0.097300  0.097060  0.897500  1.0  -0.1514
  C  C195  1  0.010500  0.953130  0.532180  1.0  -0.0287
  C  C196  1  0.759200  0.381910  0.702400  1.0  -0.0254
  C  C197  1  0.949600  0.829010  0.360300  1.0  -0.1326
  C  C198  1  0.963600  0.873530  0.569700  1.0  -0.0667
  C  C199  1  0.365900  0.592610  0.719200  1.0  -0.1079
  C  C200  1  0.975600  0.101400  0.609100  1.0  -0.104
  C  C201  1  0.036400  0.873530  0.430300  1.0  -0.0685
  C  C202  1  0.480300  0.331470  0.133500  1.0  -0.1497
  C  C203  1  0.450200  0.524160  0.752480  1.0  0.0166
  C  C204  1  0.472400  0.602920  0.885600  1.0  -0.0996
  C  C205  1  0.554200  0.723450  0.844600  1.0  0.7387
  C  C206  1  0.276200  0.921550  0.206200  1.0  -0.0295
  C  C207  1  0.159300  0.916870  0.301900  1.0  -0.1189
  C  C208  1  0.634100  0.407390  0.219200  1.0  -0.1071
  C  C209  1  0.549800  0.475840  0.252480  1.0  0.018
  C  C210  1  0.515900  0.503560  0.936600  1.0  -0.0753
  C  C211  1  0.975600  0.898600  0.890900  1.0  -0.1044
  C  C212  1  0.636100  0.844870  0.257200  1.0  0.7113
  C  C213  1  0.029100  0.083360  0.563170  1.0  0.072
  C  C214  1  0.418300  0.364850  0.140700  1.0  -0.0108
  C  C215  1  0.975700  0.834080  0.606100  1.0  -0.0463
  C  C216  1  0.066300  0.975380  0.252030  1.0  -0.0022
  C  C217  1  0.526000  0.285980  0.830600  1.0  0.6928
  C  C218  1  0.527600  0.602920  0.114400  1.0  -0.101
  C  C219  1  0.484100  0.496440  0.436600  1.0  -0.0757
  C  C220  1  0.701800  0.376730  0.226200  1.0  -0.0151
  C  C221  1  0.690400  0.411260  0.702900  1.0  -0.1102
  C  C222  1  0.481700  0.353510  0.644160  1.0  -0.0398
  C  C223  1  0.361300  0.143210  0.245600  1.0  0.7069
  C  C224  1  0.232000  0.047980  0.792630  1.0  -0.0907
  C  C225  1  0.552000  0.382680  0.062840  1.0  -0.0894
  C  C226  1  0.933700  0.975380  0.747970  1.0  -0.0034
  C  C227  1  0.896500  0.645860  0.752500  1.0  0.6766
  C  C228  1  0.918600  0.783470  0.148800  1.0  0.765
  C  C229  1  0.232400  0.877130  0.788870  1.0  -0.0594
  C  C230  1  0.991800  0.145370  0.635200  1.0  -0.0446
  C  C231  1  0.235700  0.613750  0.769200  1.0  -0.1324
  C  C232  1  0.970900  0.916640  0.063170  1.0  0.0724
  C  C233  1  0.527600  0.397080  0.385600  1.0  -0.1036
  C  C234  1  0.099000  0.110040  0.545500  1.0  -0.1055
  C  C235  1  0.490600  0.584420  0.431500  1.0  0.0896
  C  C236  1  0.023400  0.909010  0.568030  1.0  0.0818
  C  C237  1  0.165100  0.053820  0.750600  1.0  0.0356
  C  C238  1  0.115300  0.847710  0.926800  1.0  -0.068
  C  C239  1  0.884700  0.847710  0.073200  1.0  -0.0676
  C  C240  1  0.524000  0.410150  0.565830  1.0  0.0478
  C  C241  1  0.185000  0.578690  0.292200  1.0  -0.0525
  C  C242  1  0.554200  0.276550  0.655400  1.0  0.7396
  C  C243  1  0.794700  0.951050  0.794800  1.0  -0.1336
  C  C244  1  0.911350  0.024020  0.248590  1.0  0.0177
  C  C245  1  0.065600  0.786870  0.681560  1.0  0.7251
  C  C246  1  0.890700  0.863490  0.362700  1.0  -0.0303
  C  C247  1  0.230000  0.111250  0.197400  1.0  -0.0289
  C  C248  1  0.088650  0.975980  0.748590  1.0  0.0194
  C  C249  1  0.253800  0.548500  0.291000  1.0  -0.0942
  C  C250  1  0.021300  0.004770  0.937500  1.0  -0.0742
  C  C251  1  0.445800  0.276550  0.344600  1.0  0.7381
  C  C252  1  0.109300  0.863490  0.637300  1.0  -0.029
  C  C253  1  0.239900  0.573310  0.805200  1.0  -0.0405
  C  C254  1  0.627700  0.553100  0.243770  1.0  0.0632
  C  C255  1  0.901000  0.889960  0.045500  1.0  -0.1134
  C  C256  1  0.490600  0.415580  0.068500  1.0  0.09
  C  C257  1  0.987300  0.037520  0.468490  1.0  0.0171
  C  C258  1  0.097300  0.902940  0.602500  1.0  -0.1488
  C  C259  1  0.604700  0.524480  0.751990  1.0  0.0431
  C  C260  1  0.023400  0.090990  0.931970  1.0  0.0805
  C  C261  1  0.770000  0.888750  0.697400  1.0  -0.0288
  C  C262  1  0.524000  0.589850  0.934170  1.0  0.0477
  C  C263  1  0.527030  0.547850  0.753570  1.0  -0.1563
  C  C264  1  0.232400  0.122870  0.711130  1.0  -0.0618
  C  C265  1  0.854600  0.052790  0.753500  1.0  0.048
  C  C266  1  0.549800  0.524160  0.247520  1.0  0.0175
  C  C267  1  0.230000  0.888750  0.302600  1.0  -0.0287
  C  C268  1  0.598100  0.663560  0.923100  1.0  -0.0694
  C  C269  1  0.509200  0.545460  0.968310  1.0  0.0185
  C  C270  1  0.012700  0.962480  0.968490  1.0  0.0166
  C  C271  1  0.949600  0.170990  0.139700  1.0  -0.1296
  C  C272  1  0.297100  0.119230  0.754700  1.0  -0.135
  C  C273  1  0.024300  0.834080  0.393900  1.0  -0.0462
  C  C274  1  0.702900  0.919800  0.295000  1.0  -0.0428
  C  C275  1  0.276200  0.078450  0.293800  1.0  -0.0299
  C  C276  1  0.476000  0.410150  0.434170  1.0  0.0478
  C  C277  1  0.767600  0.877130  0.211130  1.0  -0.0571
  C  C278  1  0.298200  0.376730  0.773800  1.0  -0.0116
  C  C279  1  0.177900  0.386740  0.252700  1.0  -0.1185
  C  C280  1  0.474000  0.714020  0.330600  1.0  0.6936
  C  C281  1  0.690400  0.588740  0.797100  1.0  -0.1102
  C  C282  1  0.365900  0.407390  0.780800  1.0  -0.1069
  C  C283  1  0.235700  0.386250  0.730800  1.0  -0.133
  C  C284  1  0.933700  0.024620  0.752030  1.0  -0.0033
  C  C285  1  0.938200  0.170340  0.382000  1.0  -0.0809
  C  C286  1  0.764300  0.386250  0.269200  1.0  -0.1334
  C  C287  1  0.854600  0.947210  0.746500  1.0  0.0484
  C  C288  1  0.989500  0.046870  0.032180  1.0  -0.0287
  C  C289  1  0.970900  0.083360  0.436830  1.0  0.0725
  C  C290  1  0.476000  0.589850  0.065830  1.0  0.0467
  C  C291  1  0.682300  0.553000  0.752400  1.0  0.0548
  C  C292  1  0.746200  0.451500  0.791000  1.0  -0.0933
  C  C293  1  0.547900  0.340740  0.094510  1.0  -0.0681
  C  C294  1  0.902700  0.902940  0.397500  1.0  -0.1488
  C  C295  1  0.361300  0.856790  0.254400  1.0  0.7071
  C  C296  1  0.586400  0.379940  0.547600  1.0  -0.0731
  C  C297  1  0.456200  0.676830  0.125460  1.0  -0.1078
  C  C298  1  0.759200  0.618090  0.797600  1.0  -0.0248
  C  C299  1  0.518300  0.646490  0.144160  1.0  -0.0397
  C  C300  1  0.989400  0.952540  0.254000  1.0  -0.1311
  C  C301  1  0.024400  0.898600  0.109100  1.0  -0.1044
  C  C302  1  0.840700  0.916870  0.698100  1.0  -0.1168
  C  C303  1  0.638700  0.856790  0.745600  1.0  0.707
  C  C304  1  0.768000  0.047980  0.207370  1.0  -0.0904
  C  C305  1  0.794700  0.048950  0.705200  1.0  -0.1298
  C  C306  1  0.081400  0.216530  0.648800  1.0  0.7653
  C  C307  1  0.024400  0.101400  0.390900  1.0  -0.1035
  C  C308  1  0.837000  0.645940  0.223400  1.0  0.6929
  C  C309  1  0.472970  0.452150  0.253570  1.0  -0.1556
  C  C310  1  0.421500  0.406430  0.107900  1.0  -0.1406
  C  C311  1  0.760100  0.426690  0.305200  1.0  -0.0402
  C  C312  1  0.578500  0.406430  0.892100  1.0  -0.1393
  C  C313  1  0.066300  0.024620  0.247970  1.0  -0.0021
  C  C314  1  0.010600  0.952540  0.746000  1.0  -0.1315
  C  C315  1  0.989400  0.047460  0.246000  1.0  -0.131
  C  C316  1  0.834900  0.946180  0.250600  1.0  0.0371
  C  C317  1  0.445800  0.723450  0.155400  1.0  0.7399
  C  C318  1  0.702900  0.880770  0.254700  1.0  -0.1362
  C  C319  1  0.317700  0.553000  0.247600  1.0  0.0536
  C  C320  1  0.890700  0.136510  0.137300  1.0  -0.0309
  C  C321  1  0.934400  0.786870  0.318440  1.0  0.725
  C  C322  1  0.884700  0.152290  0.426800  1.0  -0.0704
  C  C323  1  0.682300  0.447000  0.747600  1.0  0.0547
  C  C324  1  0.840700  0.083130  0.801900  1.0  -0.1169
  C  C325  1  0.109300  0.136510  0.862700  1.0  -0.0316
  C  C326  1  0.297100  0.880770  0.745300  1.0  -0.1349
  C  C327  1  0.008200  0.854630  0.135200  1.0  -0.042
  C  C328  1  0.317700  0.447000  0.252400  1.0  0.0535
  C  C329  1  0.163000  0.645940  0.776600  1.0  0.6931
  C  C330  1  0.395300  0.524480  0.248010  1.0  0.042
  C  C331  1  0.701800  0.623270  0.273800  1.0  -0.0138
  C  C332  1  0.289100  0.109730  0.246000  1.0  -0.1012
  C  C333  1  0.297100  0.919800  0.705000  1.0  -0.0415
  C  C334  1  0.691900  0.457340  0.299100  1.0  -0.0715
  C  C335  1  0.911350  0.975980  0.251410  1.0  0.0181
  C  C336  1  0.581700  0.364850  0.859300  1.0  -0.0093
  C  C337  1  0.421500  0.593570  0.392100  1.0  -0.1445
  C  C338  1  0.989500  0.953130  0.467820  1.0  -0.0284
  C  C339  1  0.401900  0.663560  0.076900  1.0  -0.0733
  C  C340  1  0.308100  0.457340  0.700900  1.0  -0.0716
  C  C341  1  0.177900  0.613260  0.247300  1.0  -0.1177
  C  C342  1  0.088650  0.024020  0.751410  1.0  0.0191
  C  C343  1  0.490800  0.454540  0.468310  1.0  0.0188
  C  C344  1  0.519700  0.331470  0.866500  1.0  -0.1487
  C  C345  1  0.975700  0.165920  0.893900  1.0  -0.047
  C  C346  1  0.896500  0.354140  0.747500  1.0  0.6767
  C  C347  1  0.448000  0.617320  0.562840  1.0  -0.0921
  C  C348  1  0.767600  0.122870  0.288870  1.0  -0.0588
  C  C349  1  0.815000  0.578690  0.707800  1.0  -0.0537
  C  C350  1  0.061800  0.170340  0.618000  1.0  -0.083
  C  C351  1  0.507200  0.539370  0.532570  1.0  0.035
  C  C352  1  0.987300  0.962480  0.031510  1.0  0.0165
  C  C353  1  0.021300  0.995230  0.562500  1.0  -0.0767
  C  C354  1  0.309600  0.411260  0.297100  1.0  -0.112
  C  C355  1  0.831300  0.909170  0.209400  1.0  -0.1171
  C  C356  1  0.509200  0.454540  0.531690  1.0  0.0189
  C  C357  1  0.240800  0.381910  0.297600  1.0  -0.0213
  C  C358  1  0.518300  0.353510  0.355840  1.0  -0.0381
  C  C359  1  0.627700  0.446900  0.256230  1.0  0.0633
  C  C360  1  0.050400  0.829010  0.639700  1.0  -0.1339
  C  C361  1  0.822100  0.386740  0.747300  1.0  -0.1167
  C  C362  1  0.010600  0.047460  0.754000  1.0  -0.1316
  C  C363  1  0.834900  0.053820  0.249400  1.0  0.0372
  C  C364  1  0.519700  0.668530  0.633500  1.0  -0.148
  C  C365  1  0.515900  0.496440  0.563400  1.0  -0.0763
  C  C366  1  0.309600  0.588740  0.202900  1.0  -0.1111
  C  C367  1  0.395300  0.475520  0.251990  1.0  0.0427
  C  C368  1  0.115300  0.152290  0.573200  1.0  -0.072
  C  C369  1  0.822100  0.613260  0.752700  1.0  -0.1161
  C  C370  1  0.578500  0.593570  0.607900  1.0  -0.1389
  C  C371  1  0.145400  0.052790  0.246500  1.0  0.0488
  C  C372  1  0.103500  0.645860  0.247500  1.0  0.6755
  C  C373  1  0.099000  0.889960  0.954500  1.0  -0.1068
  C  C374  1  0.991800  0.854630  0.864800  1.0  -0.0429
  C  C375  1  0.185000  0.421310  0.207800  1.0  -0.0524
  C  C376  1  0.481700  0.646490  0.855840  1.0  -0.0405
  C  C377  1  0.163000  0.354060  0.723400  1.0  0.6921
  C  C378  1  0.764300  0.613750  0.230800  1.0  -0.1337
  C  C379  1  0.418300  0.635150  0.359300  1.0  -0.0117
  C  C380  1  0.452100  0.659260  0.594510  1.0  -0.0662
  C  C381  1  0.902700  0.097060  0.102500  1.0  -0.1509
  C  C382  1  0.815000  0.421310  0.792200  1.0  -0.0534
  C  C383  1  0.934400  0.213130  0.181560  1.0  0.7224
  C  C384  1  0.636100  0.155130  0.242800  1.0  0.7116
  C  C385  1  0.010500  0.046870  0.967820  1.0  -0.0285
  C  C386  1  0.168700  0.909170  0.790600  1.0  -0.1157
  C  C387  1  0.474000  0.285980  0.169400  1.0  0.6953
  C  C388  1  0.604700  0.475520  0.748010  1.0  0.0441
  C  C389  1  0.976600  0.090990  0.068030  1.0  0.0804
  C  C390  1  0.401900  0.336440  0.423100  1.0  -0.0702
  C  C391  1  0.768000  0.952020  0.292630  1.0  -0.0902
  C  C392  1  0.363900  0.155130  0.757200  1.0  0.7135
  C  C393  1  0.634100  0.592610  0.280800  1.0  -0.1063
  C  C394  1  0.472400  0.397080  0.614400  1.0  -0.1007
  C  C395  1  0.232000  0.952020  0.707370  1.0  -0.0906
  C  C396  1  0.976600  0.909010  0.431970  1.0  0.0809
  C  C397  1  0.008200  0.145370  0.364800  1.0  -0.0437
  C  C398  1  0.168700  0.090830  0.709400  1.0  -0.1157
  C  C399  1  0.598100  0.336440  0.576900  1.0  -0.0704
  C  C400  1  0.978700  0.004770  0.062500  1.0  -0.0768
  C  C401  1  0.165100  0.946180  0.749400  1.0  0.0361
  C  C402  1  0.723800  0.921550  0.793800  1.0  -0.0301
  C  C403  1  0.061800  0.829660  0.882000  1.0  -0.0791
  C  C404  1  0.240800  0.618090  0.202400  1.0  -0.0226
  C  C405  1  0.831300  0.090830  0.290600  1.0  -0.1174
  C  C406  1  0.507200  0.460630  0.967430  1.0  0.0347
  C  C407  1  0.308100  0.542660  0.799100  1.0  -0.0727
  C  C408  1  0.103500  0.354140  0.252500  1.0  0.6775
  C  C409  1  0.552000  0.617320  0.437160  1.0  -0.0968
  C  C410  1  0.484100  0.503560  0.063400  1.0  -0.0777
  C  C411  1  0.938200  0.829660  0.118000  1.0  -0.0798
  C  C412  1  0.770000  0.111250  0.802600  1.0  -0.0309
  C  C413  1  0.450200  0.475840  0.747520  1.0  0.0167
  C  C414  1  0.837000  0.354060  0.276600  1.0  0.6937
  C  C415  1  0.901000  0.110040  0.454500  1.0  -0.1055
  C  C416  1  0.547900  0.659260  0.405490  1.0  -0.0663
  C  C417  1  0.036400  0.126470  0.069700  1.0  -0.066
  C  C418  1  0.297100  0.080200  0.795000  1.0  -0.0363
  C  C419  1  0.456200  0.323170  0.374540  1.0  -0.1088
  C  C420  1  0.452100  0.340740  0.905490  1.0  -0.0659
  C  C421  1  0.509400  0.415580  0.931500  1.0  0.0897
  C  C422  1  0.543800  0.676830  0.874540  1.0  -0.1071
  C  C423  1  0.492800  0.539370  0.467430  1.0  0.035
  C  C424  1  0.029100  0.916640  0.936830  1.0  0.0733
  C  C425  1  0.710900  0.109730  0.754000  1.0  -0.1003
  C  C426  1  0.586400  0.620060  0.952400  1.0  -0.0798
  C  C427  1  0.702900  0.119230  0.245300  1.0  -0.1363
  C  C428  1  0.691900  0.542660  0.200900  1.0  -0.0722
  O  O429  1  0.568600  0.146280  0.214040  1.0  -0.5732
  O  O430  1  0.103800  0.363380  0.687370  1.0  -0.6453
  O  O431  1  0.950050  0.643140  0.710300  1.0  -0.5951
  O  O432  1  0.990600  0.755330  0.318140  1.0  -0.6173
  O  O433  1  0.163750  0.316840  0.757600  1.0  -0.6383
  O  O434  1  0.413600  0.278940  0.202680  1.0  -0.6527
  O  O435  1  0.375600  0.166250  0.199400  1.0  -0.5449
  O  O436  1  0.376850  0.743850  0.154080  1.0  -0.4725
  O  O437  1  0.009400  0.244670  0.818140  1.0  -0.6202
  O  O438  1  0.098300  0.323900  0.296310  1.0  -0.6127
  O  O439  1  0.465700  0.743170  0.664440  1.0  -0.6048
  O  O440  1  0.098300  0.676100  0.203690  1.0  -0.6167
  O  O441  1  0.896200  0.636620  0.187370  1.0  -0.6458
  O  O442  1  0.488450  0.740290  0.819160  1.0  -0.6287
  O  O443  1  0.406400  0.854100  0.205600  1.0  -0.6729
  O  O444  1  0.351040  0.194360  0.731550  1.0  -0.6788
  O  O445  1  0.844800  0.229730  0.349100  1.0  -0.7012
  O  O446  1  0.049950  0.356860  0.210300  1.0  -0.5934
  O  O447  1  0.593600  0.854100  0.794400  1.0  -0.6728
  O  O448  1  0.376850  0.256150  0.345920  1.0  -0.4704
  O  O449  1  0.844800  0.770270  0.150900  1.0  -0.7035
  O  O450  1  0.896200  0.363380  0.312630  1.0  -0.6443
  O  O451  1  0.836250  0.683160  0.257600  1.0  -0.6385
  O  O452  1  0.568600  0.853720  0.285960  1.0  -0.5732
  O  O453  1  0.009400  0.755330  0.681860  1.0  -0.617
  O  O454  1  0.163750  0.683160  0.742400  1.0  -0.6401
  O  O455  1  0.511550  0.740290  0.180840  1.0  -0.6271
  O  O456  1  0.868300  0.212150  0.212430  1.0  -0.6226
  O  O457  1  0.465700  0.256830  0.835560  1.0  -0.603
  O  O458  1  0.511550  0.259710  0.319160  1.0  -0.6266
  O  O459  1  0.624400  0.833750  0.699400  1.0  -0.5409
  O  O460  1  0.901700  0.676100  0.796310  1.0  -0.6144
  O  O461  1  0.901700  0.323900  0.703690  1.0  -0.6161
  O  O462  1  0.375600  0.833750  0.300600  1.0  -0.5398
  O  O463  1  0.406400  0.145900  0.294400  1.0  -0.6713
  O  O464  1  0.431400  0.146280  0.785960  1.0  -0.5711
  O  O465  1  0.534300  0.743170  0.335560  1.0  -0.6038
  O  O466  1  0.155200  0.770270  0.849100  1.0  -0.7037
  O  O467  1  0.623150  0.743850  0.845920  1.0  -0.4728
  O  O468  1  0.868300  0.787850  0.287570  1.0  -0.6227
  O  O469  1  0.990600  0.244670  0.181860  1.0  -0.618
  O  O470  1  0.131700  0.212150  0.787570  1.0  -0.6232
  O  O471  1  0.019000  0.761740  0.829000  1.0  -0.6067
  O  O472  1  0.049950  0.643140  0.289700  1.0  -0.5928
  O  O473  1  0.648960  0.194360  0.268450  1.0  -0.6783
  O  O474  1  0.836250  0.316840  0.242400  1.0  -0.6402
  O  O475  1  0.586400  0.721060  0.702680  1.0  -0.6539
  O  O476  1  0.586400  0.278940  0.797320  1.0  -0.654
  O  O477  1  0.534300  0.256830  0.164440  1.0  -0.6037
  O  O478  1  0.950050  0.356860  0.789700  1.0  -0.5931
  O  O479  1  0.351040  0.805640  0.768450  1.0  -0.6781
  O  O480  1  0.431400  0.853720  0.714040  1.0  -0.5727
  O  O481  1  0.593600  0.145900  0.705600  1.0  -0.6715
  O  O482  1  0.981000  0.761740  0.171000  1.0  -0.6043
  O  O483  1  0.648960  0.805640  0.231550  1.0  -0.6812
  O  O484  1  0.488450  0.259710  0.680840  1.0  -0.6278
  O  O485  1  0.413600  0.721060  0.297320  1.0  -0.6535
  O  O486  1  0.103800  0.636620  0.812630  1.0  -0.6436
  O  O487  1  0.019000  0.238260  0.671000  1.0  -0.6071
  O  O488  1  0.131700  0.787850  0.712430  1.0  -0.6237
  O  O489  1  0.981000  0.238260  0.329000  1.0  -0.606
  O  O490  1  0.623150  0.256150  0.654080  1.0  -0.471
  O  O491  1  0.155200  0.229730  0.650900  1.0  -0.7038
  O  O492  1  0.624400  0.166250  0.800600  1.0  -0.5438
