# generated using pymatgen
data_Zn3H29C55O14
_symmetry_space_group_name_H-M   'P 1'
_cell_length_a   15.82250000
_cell_length_b   16.81960000
_cell_length_c   28.47600000
_cell_angle_alpha   96.70000000
_cell_angle_beta   100.22100000
_cell_angle_gamma   109.59700000
_symmetry_Int_Tables_number   1
_chemical_formula_structural   Zn3H29C55O14
_chemical_formula_sum   'Zn12 H116 C220 O56'
_cell_volume   6897.96471821
_cell_formula_units_Z   4
loop_
 _symmetry_equiv_pos_site_id
 _symmetry_equiv_pos_as_xyz
  1  'x, y, z'
loop_
 _atom_site_type_symbol
 _atom_site_label
 _atom_site_symmetry_multiplicity
 _atom_site_fract_x
 _atom_site_fract_y
 _atom_site_fract_z
 _atom_site_occupancy
 _atom_site_charge
  Zn  Zn1  1  0.725410  0.764940  0.225520  1.0  0.9422
  Zn  Zn2  1  0.711830  0.591830  0.882560  1.0  1.0522
  Zn  Zn3  1  0.257540  0.173820  0.406920  1.0  1.126
  Zn  Zn4  1  0.926880  0.740620  0.289240  1.0  1.0714
  Zn  Zn5  1  0.742460  0.826180  0.593080  1.0  1.1216
  Zn  Zn6  1  0.827980  0.025480  0.689680  1.0  1.093
  Zn  Zn7  1  0.352960  0.594930  0.210570  1.0  1.0659
  Zn  Zn8  1  0.288170  0.408170  0.117440  1.0  1.0519
  Zn  Zn9  1  0.172020  0.974520  0.310320  1.0  1.0962
  Zn  Zn10  1  0.274590  0.235060  0.774480  1.0  0.9526
  Zn  Zn11  1  0.647040  0.405070  0.789430  1.0  1.0665
  Zn  Zn12  1  0.073120  0.259380  0.710760  1.0  1.0728
  H  H13  1  0.231900  0.990800  0.027800  1.0  0.1064
  H  H14  1  0.329000  0.487300  0.464800  1.0  0.151
  H  H15  1  0.237900  0.088000  0.863000  1.0  0.1336
  H  H16  1  0.791600  0.400600  0.222100  1.0  0.0965
  H  H17  1  0.483500  0.286200  0.355400  1.0  0.117
  H  H18  1  0.208400  0.599400  0.777900  1.0  0.0963
  H  H19  1  0.403300  0.054900  0.262800  1.0  0.1353
  H  H20  1  0.612800  0.483800  0.130400  1.0  0.1248
  H  H21  1  0.540600  0.958300  0.170400  1.0  0.1183
  H  H22  1  0.155800  0.608800  0.139900  1.0  0.1123
  H  H23  1  0.573000  0.177600  0.937500  1.0  0.1304
  H  H24  1  0.204300  0.620600  0.966500  1.0  0.1207
  H  H25  1  0.098200  0.823600  0.389600  1.0  0.1085
  H  H26  1  0.762900  0.873500  0.939000  1.0  0.1189
  H  H27  1  0.000600  0.681000  0.690000  1.0  0.1286
  H  H28  1  0.663500  0.111800  0.965500  1.0  0.1148
  H  H29  1  0.459400  0.041700  0.829600  1.0  0.1173
  H  H30  1  0.789000  0.467100  0.978800  1.0  0.1155
  H  H31  1  0.808900  0.289500  0.787100  1.0  0.1277
  H  H32  1  0.047400  0.446700  0.505900  1.0  0.1016
  H  H33  1  0.855200  0.385800  0.130500  1.0  0.1227
  H  H34  1  0.256800  0.035500  0.504300  1.0  0.1145
  H  H35  1  0.844200  0.391200  0.860100  1.0  0.1131
  H  H36  1  0.537400  0.904100  0.015800  1.0  0.102
  H  H37  1  0.336500  0.888200  0.034500  1.0  0.1173
  H  H38  1  0.534700  0.767200  0.984100  1.0  0.0946
  H  H39  1  0.921500  0.674800  0.529100  1.0  0.0864
  H  H40  1  0.120300  0.477600  0.822000  1.0  0.0868
  H  H41  1  0.191100  0.710500  0.212900  1.0  0.124
  H  H42  1  0.242400  0.056400  0.694600  1.0  0.1418
  H  H43  1  0.243500  0.560400  0.601400  1.0  0.1356
  H  H44  1  0.727500  0.159800  0.283100  1.0  0.0922
  H  H45  1  0.007000  0.018900  0.398800  1.0  0.128
  H  H46  1  0.698900  0.391600  0.497300  1.0  0.1159
  H  H47  1  0.989000  0.563800  0.604600  1.0  0.126
  H  H48  1  0.999400  0.319000  0.310000  1.0  0.1287
  H  H49  1  0.762100  0.912000  0.137000  1.0  0.133
  H  H50  1  0.524100  0.258900  0.192700  1.0  0.1361
  H  H51  1  0.035700  0.275400  0.148600  1.0  0.1296
  H  H52  1  0.011000  0.436200  0.395400  1.0  0.1262
  H  H53  1  0.438700  0.940700  0.875100  1.0  0.1265
  H  H54  1  0.596700  0.945100  0.737200  1.0  0.1353
  H  H55  1  0.779900  0.015900  0.089800  1.0  0.1319
  H  H56  1  0.082600  0.732500  0.442100  1.0  0.1135
  H  H57  1  0.938900  0.722600  0.167900  1.0  0.1137
  H  H58  1  0.755400  0.058400  0.443500  1.0  0.1198
  H  H59  1  0.460400  0.892100  0.762900  1.0  0.1031
  H  H60  1  0.743200  0.964500  0.495700  1.0  0.1152
  H  H61  1  0.190200  0.922400  0.764700  1.0  0.112
  H  H62  1  0.904100  0.473600  0.772300  1.0  0.132
  H  H63  1  0.692900  0.202500  0.130300  1.0  0.0892
  H  H64  1  0.964300  0.724600  0.851400  1.0  0.131
  H  H65  1  0.106800  0.256300  0.334400  1.0  0.1305
  H  H66  1  0.516500  0.713800  0.644600  1.0  0.1165
  H  H67  1  0.387200  0.516200  0.869600  1.0  0.1233
  H  H68  1  0.671000  0.512700  0.535200  1.0  0.1513
  H  H69  1  0.465300  0.232800  0.015900  1.0  0.0945
  H  H70  1  0.272500  0.840200  0.716900  1.0  0.0919
  H  H71  1  0.583400  0.344400  0.085100  1.0  0.095
  H  H72  1  0.962700  0.447300  0.642900  1.0  0.1271
  H  H73  1  0.624200  0.564700  0.256000  1.0  0.1337
  H  H74  1  0.219700  0.451800  0.642200  1.0  0.1275
  H  H75  1  0.088100  0.374600  0.907200  1.0  0.1231
  H  H76  1  0.809800  0.077600  0.235300  1.0  0.1116
  H  H77  1  0.061100  0.277400  0.832100  1.0  0.1126
  H  H78  1  0.817100  0.314300  0.519100  1.0  0.1011
  H  H79  1  0.889700  0.273200  0.372300  1.0  0.0668
  H  H80  1  0.144800  0.614200  0.869500  1.0  0.1228
  H  H81  1  0.272600  0.505100  0.727100  1.0  0.1143
  H  H82  1  0.427000  0.822400  0.062500  1.0  0.129
  H  H83  1  0.996600  0.146700  0.439000  1.0  0.1326
  H  H84  1  0.301100  0.608400  0.502700  1.0  0.1155
  H  H85  1  0.037200  0.528200  0.742600  1.0  0.1277
  H  H86  1  0.962800  0.471800  0.257400  1.0  0.129
  H  H87  1  0.780300  0.548200  0.357800  1.0  0.1262
  H  H88  1  0.220100  0.984100  0.910200  1.0  0.1324
  H  H89  1  0.037300  0.552700  0.357100  1.0  0.1268
  H  H90  1  0.795700  0.379400  0.033500  1.0  0.1204
  H  H91  1  0.952600  0.553300  0.494100  1.0  0.1013
  H  H92  1  0.375800  0.435300  0.744000  1.0  0.1321
  H  H93  1  0.901800  0.176400  0.610400  1.0  0.1103
  H  H94  1  0.993000  0.981100  0.601200  1.0  0.1277
  H  H95  1  0.081800  0.986200  0.743900  1.0  0.1328
  H  H96  1  0.608200  0.340900  0.321200  1.0  0.1285
  H  H97  1  0.727400  0.494900  0.272900  1.0  0.1132
  H  H98  1  0.237100  0.126500  0.061000  1.0  0.1194
  H  H99  1  0.427700  0.342300  0.174900  1.0  0.1026
  H  H100  1  0.307100  0.797500  0.869700  1.0  0.0897
  H  H101  1  0.757600  0.943600  0.305400  1.0  0.1402
  H  H102  1  0.910700  0.223100  0.183000  1.0  0.1223
  H  H103  1  0.917400  0.267500  0.557900  1.0  0.108
  H  H104  1  0.391800  0.659100  0.678800  1.0  0.1293
  H  H105  1  0.258100  0.928600  0.652100  1.0  0.1304
  H  H106  1  0.893200  0.743700  0.665600  1.0  0.1304
  H  H107  1  0.211000  0.532900  0.021200  1.0  0.1161
  H  H108  1  0.572300  0.657700  0.825100  1.0  0.1021
  H  H109  1  0.416600  0.655600  0.914900  1.0  0.0944
  H  H110  1  0.426600  0.734700  0.116100  1.0  0.1175
  H  H111  1  0.182900  0.685700  0.480900  1.0  0.1005
  H  H112  1  0.475900  0.741100  0.807300  1.0  0.1365
  H  H113  1  0.561300  0.059300  0.124900  1.0  0.1225
  H  H114  1  0.911900  0.625400  0.092800  1.0  0.123
  H  H115  1  0.768100  0.009200  0.972200  1.0  0.1063
  H  H116  1  0.078500  0.325200  0.470900  1.0  0.0869
  H  H117  1  0.462600  0.095900  0.984200  1.0  0.1018
  H  H118  1  0.573400  0.265300  0.883900  1.0  0.1163
  H  H119  1  0.539600  0.107900  0.237100  1.0  0.1032
  H  H120  1  0.756500  0.439600  0.398600  1.0  0.1354
  H  H121  1  0.110300  0.726800  0.627700  1.0  0.0662
  H  H122  1  0.741900  0.071400  0.347900  1.0  0.1317
  H  H123  1  0.089300  0.776900  0.817000  1.0  0.1214
  H  H124  1  0.095900  0.526400  0.227700  1.0  0.1315
  H  H125  1  0.918200  0.013800  0.256100  1.0  0.1333
  H  H126  1  0.879700  0.522400  0.178000  1.0  0.0871
  H  H127  1  0.003400  0.853300  0.561000  1.0  0.1336
  H  H128  1  0.244600  0.941600  0.556500  1.0  0.1201
  C  C129  1  0.328400  0.955200  0.896300  1.0  0.2572
  C  C130  1  0.318000  0.782500  0.978900  1.0  0.0491
  C  C131  1  0.559500  0.842800  0.681400  1.0  -0.0948
  C  C132  1  0.315300  0.725500  0.009600  1.0  0.0132
  C  C133  1  0.470500  0.858700  0.736700  1.0  -0.1136
  C  C134  1  0.629700  0.364300  0.238800  1.0  -0.0104
  C  C135  1  0.655900  0.975900  0.999100  1.0  -0.0139
  C  C136  1  0.947700  0.282600  0.190200  1.0  -0.098
  C  C137  1  0.834100  0.311300  0.488700  1.0  -0.1048
  C  C138  1  0.324100  0.574700  0.104500  1.0  0.5329
  C  C139  1  0.350900  0.128900  0.813400  1.0  0.6933
  C  C140  1  0.187200  0.537500  0.611200  1.0  -0.1476
  C  C141  1  0.334500  0.929600  0.975200  1.0  0.0675
  C  C142  1  0.803900  0.007300  0.587700  1.0  0.5924
  C  C143  1  0.222500  0.650400  0.764700  1.0  -0.1302
  C  C144  1  0.677700  0.250400  0.266400  1.0  0.1632
  C  C145  1  0.745400  0.447200  0.503400  1.0  -0.1024
  C  C146  1  0.155000  0.622600  0.532200  1.0  0.0729
  C  C147  1  0.665500  0.070400  0.024800  1.0  0.0666
  C  C148  1  0.694600  0.250400  0.070800  1.0  0.0086
  C  C149  1  0.041300  0.619500  0.102000  1.0  -0.054
  C  C150  1  0.216900  0.922200  0.522700  1.0  -0.1072
  C  C151  1  0.885200  0.361500  0.857400  1.0  -0.0684
  C  C152  1  0.797300  0.611100  0.534800  1.0  -0.0512
  C  C153  1  0.980700  0.435300  0.236500  1.0  -0.1061
  C  C154  1  0.952400  0.776600  0.685900  1.0  -0.0622
  C  C155  1  0.615300  0.284800  0.914800  1.0  -0.1174
  C  C156  1  0.305400  0.749600  0.929200  1.0  0.0078
  C  C157  1  0.456800  0.682000  0.793200  1.0  -0.1087
  C  C158  1  0.079500  0.367600  0.668600  1.0  0.6135
  C  C159  1  0.180200  0.510400  0.841600  1.0  -0.1115
  C  C160  1  0.384700  0.715200  0.085200  1.0  -0.1174
  C  C161  1  0.019300  0.564700  0.763500  1.0  -0.1044
  C  C162  1  0.665200  0.463700  0.255900  1.0  -0.0955
  C  C163  1  0.322300  0.749600  0.733600  1.0  0.1649
  C  C164  1  0.882700  0.207700  0.547700  1.0  -0.1929
  C  C165  1  0.926400  0.259300  0.802600  1.0  -0.0523
  C  C166  1  0.281500  0.039300  0.024700  1.0  -0.0661
  C  C167  1  0.529500  0.141300  0.263300  1.0  -0.1148
  C  C168  1  0.971000  0.646000  0.114500  1.0  -0.0732
  C  C169  1  0.942400  0.532800  0.780600  1.0  -0.0512
  C  C170  1  0.845000  0.377400  0.467800  1.0  0.0735
  C  C171  1  0.861200  0.213100  0.423700  1.0  0.0787
  C  C172  1  0.753500  0.522400  0.157900  1.0  -0.0474
  C  C173  1  0.172500  0.543200  0.509000  1.0  0.016
  C  C174  1  0.572100  0.281300  0.314600  1.0  -0.1824
  C  C175  1  0.130100  0.888800  0.745700  1.0  -0.1206
  C  C176  1  0.827500  0.456800  0.491000  1.0  0.0159
  C  C177  1  0.980100  0.527000  0.365500  1.0  -0.1087
  C  C178  1  0.052300  0.717400  0.809800  1.0  -0.1002
  C  C179  1  0.680300  0.371700  0.928500  1.0  -0.0881
  C  C180  1  0.894200  0.543800  0.501500  1.0  -0.0648
  C  C181  1  0.865700  0.359400  0.422500  1.0  0.0598
  C  C182  1  0.196100  0.992700  0.412300  1.0  0.5965
  C  C183  1  0.057600  0.467200  0.219400  1.0  -0.0554
  C  C184  1  0.947600  0.109100  0.413200  1.0  -0.1257
  C  C185  1  0.427900  0.718700  0.685400  1.0  -0.1794
  C  C186  1  0.449900  0.108500  0.278700  1.0  -0.116
  C  C187  1  0.355000  0.290100  0.063600  1.0  0.672
  C  C188  1  0.583600  0.815800  0.980500  1.0  -0.0498
  C  C189  1  0.331000  0.873400  0.000600  1.0  -0.0929
  C  C190  1  0.925300  0.342100  0.221800  1.0  0.0266
  C  C191  1  0.645000  0.709900  0.936400  1.0  0.6715
  C  C192  1  0.326200  0.897100  0.925200  1.0  0.1129
  C  C193  1  0.394200  0.495700  0.754000  1.0  -0.0851
  C  C194  1  0.398600  0.972000  0.871900  1.0  -0.1445
  C  C195  1  0.979100  0.688100  0.828800  1.0  -0.0821
  C  C196  1  0.154000  0.767700  0.530900  1.0  0.0445
  C  C197  1  0.202700  0.388900  0.465200  1.0  -0.0531
  C  C198  1  0.663200  0.465200  0.130500  1.0  -0.0375
  C  C199  1  0.134300  0.640600  0.577500  1.0  0.0585
  C  C200  1  0.723100  0.944400  0.134000  1.0  -0.1495
  C  C201  1  0.416400  0.184200  0.019500  1.0  -0.0514
  C  C202  1  0.684700  0.274500  0.990400  1.0  0.0115
  C  C203  1  0.048000  0.970500  0.611800  1.0  -0.0175
  C  C204  1  0.909500  0.189300  0.756300  1.0  0.6326
  C  C205  1  0.825900  0.241700  0.259100  1.0  0.2073
  C  C206  1  0.777500  0.349600  0.235300  1.0  -0.1314
  C  C207  1  0.819800  0.489600  0.158400  1.0  -0.1121
  C  C208  1  0.195300  0.019000  0.667900  1.0  -0.0642
  C  C209  1  0.047600  0.223400  0.314100  1.0  -0.0653
  C  C210  1  0.920500  0.632400  0.331400  1.0  0.6118
  C  C211  1  0.406300  0.781100  0.716200  1.0  0.0406
  C  C212  1  0.360800  0.127900  0.338700  1.0  0.592
  C  C213  1  0.873900  0.157200  0.576700  1.0  -0.12
  C  C214  1  0.156600  0.688900  0.759900  1.0  0.1602
  C  C215  1  0.671600  0.044800  0.103700  1.0  0.2578
  C  C216  1  0.774700  0.024700  0.506100  1.0  -0.0778
  C  C217  1  0.196000  0.596500  0.870500  1.0  -0.0517
  C  C218  1  0.836100  0.168900  0.496900  1.0  0.022
  C  C219  1  0.649100  0.871100  0.186600  1.0  0.6929
  C  C220  1  0.035100  0.539900  0.612300  1.0  -0.1588
  C  C221  1  0.589800  0.972400  0.154300  1.0  -0.1147
  C  C222  1  0.675900  0.425300  0.895500  1.0  0.5341
  C  C223  1  0.485900  0.368400  0.197300  1.0  -0.0654
  C  C224  1  0.182800  0.935400  0.444300  1.0  -0.1215
  C  C225  1  0.732100  0.002900  0.106900  1.0  -0.1208
  C  C226  1  0.174100  0.758300  0.740900  1.0  0.2075
  C  C227  1  0.078000  0.404800  0.187400  1.0  -0.1301
  C  C228  1  0.863700  0.300700  0.811000  1.0  -0.0746
  C  C229  1  0.783100  0.077800  0.477300  1.0  -0.1105
  C  C230  1  0.833500  0.560700  0.829000  1.0  0.5575
  C  C231  1  0.922000  0.595200  0.812600  1.0  -0.1303
  C  C232  1  0.985400  0.259200  0.300400  1.0  -0.1356
  C  C233  1  0.869900  0.111200  0.254300  1.0  -0.1193
  C  C234  1  0.614900  0.235500  0.944200  1.0  -0.1147
  C  C235  1  0.138800  0.786900  0.576300  1.0  0.0799
  C  C236  1  0.718500  0.960700  0.975300  1.0  -0.0654
  C  C237  1  0.090500  0.810700  0.243700  1.0  0.6304
  C  C238  1  0.319700  0.628300  0.071500  1.0  -0.0894
  C  C239  1  0.118200  0.034900  0.651000  1.0  -0.0986
  C  C240  1  0.225300  0.975300  0.493900  1.0  -0.0736
  C  C241  1  0.165900  0.688700  0.511300  1.0  -0.1041
  C  C242  1  0.895500  0.202900  0.270400  1.0  0.0241
  C  C243  1  0.304300  0.679200  0.752300  1.0  0.2279
  C  C244  1  0.883000  0.427100  0.398900  1.0  0.1071
  C  C245  1  0.512700  0.451900  0.219400  1.0  -0.1271
  C  C246  1  0.585400  0.900500  0.000900  1.0  -0.1093
  C  C247  1  0.932300  0.073500  0.266500  1.0  -0.0738
  C  C248  1  0.770900  0.613100  0.191700  1.0  0.6373
  C  C249  1  0.669000  0.126600  0.999400  1.0  -0.0892
  C  C250  1  0.117000  0.572900  0.601100  1.0  0.1098
  C  C251  1  0.370300  0.635700  0.761200  1.0  -0.0106
  C  C252  1  0.130000  0.873100  0.602200  1.0  -0.0541
  C  C253  1  0.501400  0.750500  0.666900  1.0  -0.0402
  C  C254  1  0.797500  0.061700  0.358000  1.0  -0.0539
  C  C255  1  0.272200  0.478300  0.474000  1.0  -0.0509
  C  C256  1  0.173000  0.474700  0.633600  1.0  -0.0991
  C  C257  1  0.988300  0.706200  0.161500  1.0  -0.068
  C  C258  1  0.450900  0.501300  0.210100  1.0  0.4947
  C  C259  1  0.910600  0.908900  0.688000  1.0  0.523
  C  C260  1  0.647000  0.800100  0.956200  1.0  -0.0672
  C  C261  1  0.812800  0.462500  0.388800  1.0  -0.1482
  C  C262  1  0.029000  0.354000  0.885500  1.0  -0.0714
  C  C263  1  0.873800  0.277800  0.402900  1.0  -0.1303
  C  C264  1  0.549100  0.498700  0.789900  1.0  0.4958
  C  C265  1  0.727800  0.521700  0.526000  1.0  -0.0497
  C  C266  1  0.104500  0.797100  0.729600  1.0  0.0227
  C  C267  1  0.276900  0.055600  0.866000  1.0  -0.1562
  C  C268  1  0.353000  0.199900  0.043800  1.0  -0.0683
  C  C269  1  0.639200  0.872100  0.661300  1.0  0.5922
  C  C270  1  0.073600  0.740700  0.197400  1.0  -0.0513
  C  C271  1  0.202500  0.938300  0.642000  1.0  -0.0488
  C  C272  1  0.312000  0.810900  0.903700  1.0  -0.1182
  C  C273  1  0.089400  0.091100  0.312000  1.0  0.5219
  C  C274  1  0.605800  0.504300  0.246000  1.0  -0.0851
  C  C275  1  0.117300  0.792300  0.452300  1.0  -0.1927
  C  C276  1  0.284600  0.123500  0.045400  1.0  -0.0995
  C  C277  1  0.644800  0.378400  0.102200  1.0  -0.0856
  C  C278  1  0.114800  0.638500  0.142600  1.0  -0.0684
  C  C279  1  0.414600  0.099500  0.999100  1.0  -0.1116
  C  C280  1  0.014600  0.740800  0.699600  1.0  -0.1349
  C  C281  1  0.975200  0.444800  0.945500  1.0  0.5145
  C  C282  1  0.742400  0.211700  0.270800  1.0  -0.1272
  C  C283  1  0.804000  0.403500  0.129500  1.0  -0.0528
  C  C284  1  0.875100  0.619200  0.523400  1.0  -0.0693
  C  C285  1  0.843400  0.311100  0.240100  1.0  0.1615
  C  C286  1  0.011700  0.293800  0.838500  1.0  -0.069
  C  C287  1  0.827000  0.525300  0.366400  1.0  -0.1024
  C  C288  1  0.888500  0.876700  0.322600  1.0  0.632
  C  C289  1  0.817200  0.064600  0.555700  1.0  -0.1239
  C  C290  1  0.067700  0.926500  0.733500  1.0  -0.0733
  C  C291  1  0.881800  0.965100  0.349000  1.0  -0.0968
  C  C292  1  0.846000  0.232300  0.469100  1.0  0.0455
  C  C293  1  0.344100  0.024100  0.000900  1.0  -0.0153
  C  C294  1  0.550100  0.891500  0.721300  1.0  -0.1168
  C  C295  1  0.166500  0.439300  0.171000  1.0  0.555
  C  C296  1  0.653200  0.933400  0.157900  1.0  0.1298
  C  C297  1  0.246500  0.477600  0.842100  1.0  -0.0479
  C  C298  1  0.248700  0.640100  0.996600  1.0  -0.1042
  C  C299  1  0.804700  0.981000  0.332100  1.0  -0.062
  C  C300  1  0.964900  0.460100  0.387700  1.0  -0.1524
  C  C301  1  0.514100  0.631600  0.802700  1.0  -0.0648
  C  C302  1  0.410200  0.027600  0.845700  1.0  -0.1149
  C  C303  1  0.229100  0.386900  0.808300  1.0  0.6386
  C  C304  1  0.024800  0.555200  0.054500  1.0  0.5167
  C  C305  1  0.111500  0.123300  0.677400  1.0  0.6322
  C  C306  1  0.126100  0.842800  0.423300  1.0  -0.1192
  C  C307  1  0.981300  0.872400  0.704500  1.0  -0.1401
  C  C308  1  0.870000  0.126900  0.397800  1.0  -0.0539
  C  C309  1  0.713700  0.344700  0.099600  1.0  -0.0558
  C  C310  1  0.440500  0.157200  0.318600  1.0  -0.0861
  C  C311  1  0.346800  0.066600  0.842100  1.0  0.1297
  C  C312  1  0.355200  0.621600  0.897800  1.0  -0.0785
  C  C313  1  0.593700  0.218900  0.283800  1.0  0.0407
  C  C314  1  0.052400  0.890900  0.586800  1.0  -0.1312
  C  C315  1  0.126200  0.722200  0.597100  1.0  -0.127
  C  C316  1  0.695700  0.320800  0.247700  1.0  0.2285
  C  C317  1  0.251900  0.591100  0.027500  1.0  -0.0953
  C  C318  1  0.018700  0.127600  0.295500  1.0  -0.14
  C  C319  1  0.091400  0.441700  0.644900  1.0  -0.0311
  C  C320  1  0.257600  0.788300  0.729200  1.0  -0.1278
  C  C321  1  0.682000  0.217500  0.021100  1.0  0.05
  C  C322  1  0.688000  0.189100  0.096300  1.0  -0.1178
  C  C323  1  0.124900  0.380800  0.476600  1.0  -0.0687
  C  C324  1  0.774000  0.689600  0.555400  1.0  0.6164
  C  C325  1  0.385100  0.764500  0.055800  1.0  -0.114
  C  C326  1  0.958700  0.380500  0.898000  1.0  -0.0564
  C  C327  1  0.751300  0.359900  0.003400  1.0  -0.1034
  C  C328  1  0.267900  0.997100  0.893100  1.0  -0.1229
  C  C329  1  0.286300  0.655300  0.900400  1.0  -0.0548
  C  C330  1  0.543200  0.318000  0.206800  1.0  -0.1065
  C  C331  1  0.601400  0.028000  0.128100  1.0  -0.1508
  C  C332  1  0.136300  0.699300  0.189000  1.0  -0.0749
  C  C333  1  0.748100  0.408900  0.972500  1.0  -0.0955
  C  C334  1  0.498600  0.249500  0.333100  1.0  -0.0421
  C  C335  1  0.334800  0.536300  0.744100  1.0  -0.0963
  C  C336  1  0.074700  0.657900  0.778200  1.0  0.0254
  C  C337  1  0.105800  0.456200  0.498500  1.0  -0.067
  C  C338  1  0.226000  0.310400  0.444600  1.0  0.6169
  C  C339  1  0.020900  0.311900  0.171200  1.0  -0.0805
  C  C340  1  0.715400  0.876500  0.954600  1.0  -0.1002
  C  C341  1  0.163900  0.831100  0.503100  1.0  0.022
  C  C342  1  0.487300  0.548100  0.780600  1.0  -0.1267
  C  C343  1  0.254600  0.552800  0.496600  1.0  -0.1022
  C  C344  1  0.673800  0.102900  0.074800  1.0  0.1138
  C  C345  1  0.336800  0.534800  0.869500  1.0  -0.0371
  C  C346  1  0.952000  0.029500  0.388200  1.0  -0.0181
  C  C347  1  0.908600  0.558300  0.355100  1.0  -0.03
  C  C348  1  0.019900  0.473000  0.634500  1.0  -0.1147
  O  O349  1  0.703200  0.947100  0.687400  1.0  -0.6625
  O  O350  1  0.162000  0.171600  0.718200  1.0  -0.7347
  O  O351  1  0.286600  0.353900  0.811200  1.0  -0.5584
  O  O352  1  0.639900  0.825300  0.622700  1.0  -0.6259
  O  O353  1  0.146900  0.342800  0.676600  1.0  -0.5605
  O  O354  1  0.367300  0.453800  0.183500  1.0  -0.6902
  O  O355  1  0.036200  0.808300  0.268300  1.0  -0.6202
  O  O356  1  0.010200  0.582700  0.014400  1.0  -0.5674
  O  O357  1  0.360100  0.174700  0.377300  1.0  -0.6243
  O  O358  1  0.004700  0.342800  0.679000  1.0  -0.6099
  O  O359  1  0.015400  0.473300  0.046700  1.0  -0.5827
  O  O360  1  0.047400  0.140400  0.658300  1.0  -0.5345
  O  O361  1  0.175900  0.235100  0.445000  1.0  -0.6021
  O  O362  1  0.707300  0.685500  0.569400  1.0  -0.5535
  O  O363  1  0.586200  0.642300  0.938900  1.0  -0.4138
  O  O364  1  0.710900  0.843200  0.190100  1.0  -0.5575
  O  O365  1  0.069400  0.010300  0.291700  1.0  -0.5507
  O  O366  1  0.289100  0.156800  0.809900  1.0  -0.5567
  O  O367  1  0.820500  0.053200  0.632050  1.0  -0.5999
  O  O368  1  0.582800  0.851200  0.205000  1.0  -0.4441
  O  O369  1  0.853100  0.657200  0.323400  1.0  -0.5607
  O  O370  1  0.708300  0.704000  0.914300  1.0  -0.5958
  O  O371  1  0.989800  0.417300  0.985600  1.0  -0.5639
  O  O372  1  0.165300  0.146500  0.345100  1.0  -0.6679
  O  O373  1  0.834700  0.853500  0.654900  1.0  -0.6679
  O  O374  1  0.777800  0.925900  0.569050  1.0  -0.5989
  O  O375  1  0.824100  0.764900  0.555000  1.0  -0.6036
  O  O376  1  0.478000  0.586200  0.228900  1.0  -0.588
  O  O377  1  0.851200  0.653300  0.223400  1.0  -0.6207
  O  O378  1  0.522000  0.413800  0.771100  1.0  -0.5858
  O  O379  1  0.296800  0.052900  0.312600  1.0  -0.6626
  O  O380  1  0.984600  0.526700  0.953300  1.0  -0.5851
  O  O381  1  0.417200  0.148800  0.795000  1.0  -0.4424
  O  O382  1  0.413800  0.357700  0.061100  1.0  -0.4148
  O  O383  1  0.952600  0.859600  0.341700  1.0  -0.5379
  O  O384  1  0.148800  0.346700  0.776600  1.0  -0.6208
  O  O385  1  0.930600  0.989700  0.708300  1.0  -0.5529
  O  O386  1  0.835600  0.128800  0.741700  1.0  -0.5892
  O  O387  1  0.963800  0.191700  0.731700  1.0  -0.6195
  O  O388  1  0.360600  0.617000  0.148100  1.0  -0.6146
  O  O389  1  0.632700  0.546200  0.816500  1.0  -0.6911
  O  O390  1  0.995300  0.657200  0.321000  1.0  -0.6091
  O  O391  1  0.179500  0.946800  0.367950  1.0  -0.5984
  O  O392  1  0.713400  0.646100  0.188800  1.0  -0.5562
  O  O393  1  0.291700  0.296000  0.085700  1.0  -0.5941
  O  O394  1  0.639400  0.383000  0.851900  1.0  -0.6126
  O  O395  1  0.222200  0.074100  0.430950  1.0  -0.5994
  O  O396  1  0.284700  0.489900  0.083210  1.0  -0.5636
  O  O397  1  0.177800  0.378000  0.139800  1.0  -0.566
  O  O398  1  0.838000  0.828400  0.281800  1.0  -0.7323
  O  O399  1  0.715300  0.510100  0.916790  1.0  -0.5673
  O  O400  1  0.784600  0.479500  0.813000  1.0  -0.6063
  O  O401  1  0.164400  0.871200  0.258300  1.0  -0.5903
  O  O402  1  0.292700  0.314500  0.430600  1.0  -0.5529
  O  O403  1  0.215400  0.520500  0.187000  1.0  -0.6051
  O  O404  1  0.822200  0.622000  0.860200  1.0  -0.5655
