# generated using pymatgen
data_Zn3H38C64(NO3)4
_symmetry_space_group_name_H-M   'P 1'
_cell_length_a   10.11700000
_cell_length_b   29.53900000
_cell_length_c   29.55600000
_cell_angle_alpha   91.44600000
_cell_angle_beta   93.32100000
_cell_angle_gamma   91.61500000
_symmetry_Int_Tables_number   1
_chemical_formula_structural   Zn3H38C64(NO3)4
_chemical_formula_sum   'Zn12 H152 C256 N16 O48'
_cell_volume   8811.16316062
_cell_formula_units_Z   4
loop_
 _symmetry_equiv_pos_site_id
 _symmetry_equiv_pos_as_xyz
  1  'x, y, z'
loop_
 _atom_site_type_symbol
 _atom_site_label
 _atom_site_symmetry_multiplicity
 _atom_site_fract_x
 _atom_site_fract_y
 _atom_site_fract_z
 _atom_site_occupancy
 _atom_site_charge
  Zn  Zn1  1  0.899400  0.232060  0.775740  1.0  1.0839
  Zn  Zn2  1  0.258680  0.406000  0.593590  1.0  0.9322
  Zn  Zn3  1  0.267180  0.038570  0.596770  1.0  0.9479
  Zn  Zn4  1  0.604710  0.227660  0.766480  1.0  1.0739
  Zn  Zn5  1  0.236000  0.404680  0.962250  1.0  0.848
  Zn  Zn6  1  0.247670  0.051750  0.948880  1.0  0.9163
  Zn  Zn7  1  0.100600  0.767940  0.224250  1.0  1.0768
  Zn  Zn8  1  0.741320  0.594000  0.406410  1.0  0.9318
  Zn  Zn9  1  0.732820  0.961430  0.403230  1.0  0.9456
  Zn  Zn10  1  0.752330  0.948250  0.051120  1.0  0.9158
  Zn  Zn11  1  0.764000  0.595320  0.037750  1.0  0.8483
  Zn  Zn12  1  0.395290  0.772340  0.233520  1.0  1.0829
  H  H13  1  0.122700  0.789200  0.758100  1.0  0.0946
  H  H14  1  0.377000  0.026600  0.042200  1.0  0.0803
  H  H15  1  0.249100  0.573500  0.594600  1.0  0.0964
  H  H16  1  0.542000  0.130400  0.871700  1.0  0.115
  H  H17  1  0.089600  0.138400  0.075800  1.0  0.1456
  H  H18  1  0.133400  0.958400  0.974200  1.0  0.091
  H  H19  1  0.360700  0.498100  0.984900  1.0  0.0859
  H  H20  1  0.040500  0.146600  0.140900  1.0  0.1056
  H  H21  1  0.154000  0.075000  0.367500  1.0  0.1179
  H  H22  1  0.131100  0.290100  0.477600  1.0  0.1261
  H  H23  1  0.354600  0.217600  0.358000  1.0  0.0883
  H  H24  1  0.347400  0.633400  0.926300  1.0  0.122
  H  H25  1  0.430900  0.952200  0.591600  1.0  0.0842
  H  H26  1  0.568500  0.329100  0.669200  1.0  0.1107
  H  H27  1  0.453000  0.859800  0.850400  1.0  0.0865
  H  H28  1  0.159500  0.015200  0.500600  1.0  0.0771
  H  H29  1  0.745900  0.046500  0.953300  1.0  0.0867
  H  H30  1  0.381000  0.130000  0.251100  1.0  0.1146
  H  H31  1  0.042400  0.186900  0.208800  1.0  0.094
  H  H32  1  0.439600  0.823100  0.657800  1.0  0.1057
  H  H33  1  0.103500  0.523100  0.858100  1.0  0.1539
  H  H34  1  0.352100  0.150100  0.483300  1.0  0.1044
  H  H35  1  0.124700  0.751000  0.868700  1.0  0.111
  H  H36  1  0.433100  0.882300  0.623700  1.0  0.1107
  H  H37  1  0.773700  0.034600  0.590400  1.0  0.1012
  H  H38  1  0.459900  0.791500  0.812100  1.0  0.1043
  H  H39  1  0.389400  0.278600  0.145400  1.0  0.1171
  H  H40  1  0.371300  0.181000  0.424900  1.0  0.1261
  H  H41  1  0.294400  0.399200  0.428200  1.0  0.0872
  H  H42  1  0.401900  0.316300  0.090300  1.0  0.1099
  H  H43  1  0.941400  0.127300  0.871000  1.0  0.1125
  H  H44  1  0.293800  0.123800  0.553500  1.0  0.096
  H  H45  1  0.093700  0.908100  0.677500  1.0  0.1469
  H  H46  1  0.341100  0.355800  0.369700  1.0  0.1075
  H  H47  1  0.378000  0.238600  0.211900  1.0  0.1143
  H  H48  1  0.391800  0.520700  0.708900  1.0  0.1195
  H  H49  1  0.365600  0.700900  0.887200  1.0  0.0944
  H  H50  1  0.166400  0.697000  0.684700  1.0  0.0895
  H  H51  1  0.915900  0.329700  0.880500  1.0  0.107
  H  H52  1  0.358100  0.048300  0.117900  1.0  0.1086
  H  H53  1  0.586000  0.120000  0.670500  1.0  0.1015
  H  H54  1  0.357400  0.450500  0.675000  1.0  0.0836
  H  H55  1  0.403500  0.352800  0.022900  1.0  0.0731
  H  H56  1  0.031100  0.282800  0.408000  1.0  0.1079
  H  H57  1  0.140000  0.112800  0.300000  1.0  0.1081
  H  H58  1  0.155000  0.883500  0.951600  1.0  0.109
  H  H59  1  0.378900  0.089100  0.182400  1.0  0.1094
  H  H60  1  0.060500  0.344300  0.175500  1.0  0.1097
  H  H61  1  0.212500  0.499700  0.565000  1.0  0.0737
  H  H62  1  0.314500  0.430900  0.501200  1.0  0.0725
  H  H63  1  0.126100  0.819900  0.909400  1.0  0.1153
  H  H64  1  0.148300  0.644600  0.781900  1.0  0.0962
  H  H65  1  0.472400  0.657800  0.764600  1.0  0.0982
  H  H66  1  0.181000  0.044300  0.428900  1.0  0.1214
  H  H67  1  0.986000  0.123800  0.672200  1.0  0.118
  H  H68  1  0.051100  0.303200  0.241000  1.0  0.0892
  H  H69  1  0.110600  0.113000  0.002800  1.0  0.0872
  H  H70  1  0.074400  0.380600  0.117200  1.0  0.1011
  H  H71  1  0.117500  0.856300  0.720600  1.0  0.1162
  H  H72  1  0.396700  0.925400  0.857600  1.0  0.117
  H  H73  1  0.964500  0.333400  0.674000  1.0  0.1071
  H  H74  1  0.451300  0.756900  0.699200  1.0  0.0903
  H  H75  1  0.131600  0.577600  0.819100  1.0  0.1174
  H  H76  1  0.344800  0.312700  0.303700  1.0  0.1016
  H  H77  1  0.479000  0.590700  0.723000  1.0  0.1159
  H  H78  1  0.079500  0.413400  0.047700  1.0  0.0814
  H  H79  1  0.142300  0.327600  0.548300  1.0  0.1012
  H  H80  1  0.517400  0.328600  0.877800  1.0  0.1099
  H  H81  1  0.028500  0.240000  0.339300  1.0  0.1089
  H  H82  1  0.118500  0.451300  0.890200  1.0  0.0771
  H  H83  1  0.732000  0.410100  0.967300  1.0  0.0966
  H  H84  1  0.090600  0.976400  0.640400  1.0  0.0704
  H  H85  1  0.361100  0.568400  0.953700  1.0  0.1041
  H  H86  1  0.762600  0.413100  0.588200  1.0  0.101
  H  H87  1  0.380000  0.998000  0.883500  1.0  0.1064
  H  H88  1  0.167500  0.629600  0.643400  1.0  0.1113
  H  H89  1  0.705600  0.600800  0.571800  1.0  0.0866
  H  H90  1  0.685500  0.569100  0.498800  1.0  0.0738
  H  H91  1  0.875300  0.249000  0.131300  1.0  0.1104
  H  H92  1  0.882500  0.143700  0.279400  1.0  0.116
  H  H93  1  0.638900  0.431600  0.046300  1.0  0.1036
  H  H94  1  0.268000  0.589900  0.032700  1.0  0.0971
  H  H95  1  0.622000  0.761400  0.788100  1.0  0.1132
  H  H96  1  0.645400  0.782400  0.642000  1.0  0.0871
  H  H97  1  0.621100  0.910900  0.817600  1.0  0.1099
  H  H98  1  0.596500  0.647200  0.977100  1.0  0.0737
  H  H99  1  0.658900  0.644200  0.630300  1.0  0.1072
  H  H100  1  0.896500  0.476900  0.141900  1.0  0.1556
  H  H101  1  0.620000  0.002000  0.116500  1.0  0.1062
  H  H102  1  0.920500  0.586600  0.952300  1.0  0.0815
  H  H103  1  0.877300  0.210800  0.241900  1.0  0.0948
  H  H104  1  0.845000  0.116500  0.048400  1.0  0.1076
  H  H105  1  0.860000  0.887200  0.700000  1.0  0.1082
  H  H106  1  0.706200  0.876200  0.446500  1.0  0.0963
  H  H107  1  0.414000  0.880000  0.329500  1.0  0.1013
  H  H108  1  0.910400  0.861600  0.924200  1.0  0.1444
  H  H109  1  0.598100  0.683700  0.909700  1.0  0.1112
  H  H110  1  0.619000  0.870000  0.748900  1.0  0.1155
  H  H111  1  0.084100  0.670300  0.119500  1.0  0.1077
  H  H112  1  0.939500  0.655700  0.824500  1.0  0.1096
  H  H113  1  0.237400  0.586900  0.411800  1.0  0.1003
  H  H114  1  0.925600  0.619400  0.882800  1.0  0.1012
  H  H115  1  0.458000  0.869600  0.128300  1.0  0.1153
  H  H116  1  0.881500  0.548700  0.109800  1.0  0.0766
  H  H117  1  0.840500  0.984800  0.499400  1.0  0.0767
  H  H118  1  0.623000  0.973400  0.957800  1.0  0.0803
  H  H119  1  0.634400  0.299100  0.112800  1.0  0.0945
  H  H120  1  0.971500  0.760000  0.660700  1.0  0.1093
  H  H121  1  0.866600  0.041600  0.025800  1.0  0.0908
  H  H122  1  0.647900  0.849900  0.516700  1.0  0.1037
  H  H123  1  0.851700  0.355400  0.218100  1.0  0.0968
  H  H124  1  0.547000  0.140200  0.149600  1.0  0.0869
  H  H125  1  0.846000  0.925000  0.632500  1.0  0.1174
  H  H126  1  0.868900  0.709900  0.522400  1.0  0.126
  H  H127  1  0.566900  0.117700  0.376300  1.0  0.1111
  H  H128  1  0.889400  0.887000  0.997200  1.0  0.0865
  H  H129  1  0.652600  0.366600  0.073700  1.0  0.1217
  H  H130  1  0.787500  0.500300  0.435000  1.0  0.0723
  H  H131  1  0.639300  0.501900  0.015100  1.0  0.0855
  H  H132  1  0.254100  0.953500  0.046700  1.0  0.0861
  H  H133  1  0.968900  0.717200  0.592000  1.0  0.1086
  H  H134  1  0.959500  0.853400  0.859100  1.0  0.1058
  H  H135  1  0.750900  0.426500  0.405400  1.0  0.0975
  H  H136  1  0.655200  0.687300  0.696300  1.0  0.1022
  H  H137  1  0.058600  0.872700  0.129000  1.0  0.1124
  H  H138  1  0.608200  0.479300  0.291100  1.0  0.119
  H  H139  1  0.833600  0.303000  0.315300  1.0  0.091
  H  H140  1  0.431500  0.670900  0.330800  1.0  0.1109
  H  H141  1  0.610600  0.721400  0.854600  1.0  0.1177
  H  H142  1  0.642600  0.549500  0.325000  1.0  0.0843
  H  H143  1  0.906300  0.091900  0.322500  1.0  0.1449
  H  H144  1  0.560400  0.176900  0.342200  1.0  0.1053
  H  H145  1  0.832500  0.370400  0.356600  1.0  0.1112
  H  H146  1  0.909400  0.023600  0.359600  1.0  0.0702
  H  H147  1  0.527600  0.342200  0.235400  1.0  0.0976
  H  H148  1  0.482600  0.671400  0.122200  1.0  0.1099
  H  H149  1  0.603300  0.074600  0.142400  1.0  0.1168
  H  H150  1  0.035500  0.666667  0.326000  1.0  0.1072
  H  H151  1  0.014000  0.876200  0.327800  1.0  0.1178
  H  H152  1  0.873900  0.180100  0.090600  1.0  0.1147
  H  H153  1  0.868400  0.422400  0.180900  1.0  0.1178
  H  H154  1  0.628700  0.819000  0.575100  1.0  0.1246
  H  H155  1  0.819000  0.955700  0.571100  1.0  0.1199
  H  H156  1  0.641900  0.951700  0.882100  1.0  0.1082
  H  H157  1  0.857700  0.672400  0.451700  1.0  0.1007
  H  H158  1  0.226300  0.965400  0.409600  1.0  0.1008
  H  H159  1  0.948900  0.696800  0.759000  1.0  0.0893
  H  H160  1  0.521000  0.409300  0.277000  1.0  0.1167
  H  H161  1  0.540100  0.208500  0.187900  1.0  0.1043
  H  H162  1  0.957600  0.813100  0.791200  1.0  0.0942
  H  H163  1  0.569100  0.047800  0.408400  1.0  0.0862
  H  H164  1  0.548700  0.243100  0.300800  1.0  0.0907
  C  C165  1  0.113200  0.144100  0.162400  1.0  -0.188
  C  C166  1  0.483700  0.388770  0.944780  1.0  0.6603
  C  C167  1  0.185200  0.835600  0.714900  1.0  -0.1492
  C  C168  1  0.190500  0.796200  0.738300  1.0  -0.1458
  C  C169  1  0.278700  0.331400  0.364400  1.0  -0.1133
  C  C170  1  0.020400  0.056790  0.611640  1.0  0.6711
  C  C171  1  0.191300  0.773470  0.864010  1.0  -0.153
  C  C172  1  0.777200  0.058300  0.612800  1.0  -0.0487
  C  C173  1  0.224700  0.316000  0.153650  1.0  -0.0228
  C  C174  1  0.297600  0.723870  0.759700  1.0  0.0198
  C  C175  1  0.785900  0.128060  0.677240  1.0  -0.1753
  C  C176  1  0.232700  0.342600  0.111720  1.0  0.0574
  C  C177  1  0.163000  0.099800  0.026480  1.0  0.1663
  C  C178  1  0.096300  0.289000  0.387000  1.0  -0.1804
  C  C179  1  0.902500  0.111280  0.661190  1.0  -0.0034
  C  C180  1  0.255200  0.383200  0.451700  1.0  -0.1769
  C  C181  1  0.972800  0.391910  0.946300  1.0  0.6778
  C  C182  1  0.275400  0.846010  0.683200  1.0  0.048
  C  C183  1  0.314200  0.557100  0.656300  1.0  0.088
  C  C184  1  0.863200  0.083040  0.914220  1.0  -0.1749
  C  C185  1  0.215200  0.061800  0.454600  1.0  -0.1359
  C  C186  1  0.224400  0.097040  0.106770  1.0  0.0227
  C  C187  1  0.307000  0.502500  0.958000  1.0  0.1583
  C  C188  1  0.319900  0.675520  0.872700  1.0  -0.1327
  C  C189  1  0.258300  0.124120  0.404160  1.0  0.0279
  C  C190  1  0.189000  0.951480  0.950300  1.0  0.1547
  C  C191  1  0.119900  0.297500  0.221300  1.0  -0.1277
  C  C192  1  0.311100  0.259500  0.204300  1.0  -0.1256
  C  C193  1  0.333200  0.476300  0.658200  1.0  0.1525
  C  C194  1  0.605200  0.371690  0.925540  1.0  -0.1625
  C  C195  1  0.208900  0.264700  0.232730  1.0  0.0467
  C  C196  1  0.239900  0.597430  0.876100  1.0  0.0113
  C  C197  1  0.142800  0.373000  0.097900  1.0  -0.1797
  C  C198  1  0.308400  0.544700  0.938900  1.0  -0.1564
  C  C199  1  0.275700  0.895310  0.901830  1.0  0.0779
  C  C200  1  0.332900  0.358200  0.042000  1.0  0.1759
  C  C201  1  0.412600  0.611700  0.715300  1.0  -0.1827
  C  C202  1  0.517800  0.391260  0.606370  1.0  0.6822
  C  C203  1  0.744400  0.068880  0.930770  1.0  -0.0809
  C  C204  1  0.168200  0.475900  0.904600  1.0  0.1539
  C  C205  1  0.283600  0.722050  0.804700  1.0  -0.0082
  C  C206  1  0.767200  0.290760  0.712110  1.0  0.7102
  C  C207  1  0.882000  0.376290  0.628380  1.0  -0.1503
  C  C208  1  0.281100  0.305600  0.325000  1.0  -0.0977
  C  C209  1  0.236100  0.171300  0.321550  1.0  0.0828
  C  C210  1  0.183800  0.127500  0.325850  1.0  -0.1429
  C  C211  1  0.147700  0.393400  0.056300  1.0  0.1496
  C  C212  1  0.269400  0.402300  0.497300  1.0  0.2011
  C  C213  1  0.623500  0.118370  0.882720  1.0  0.0112
  C  C214  1  0.645500  0.374720  0.625490  1.0  -0.1393
  C  C215  1  0.741800  0.133220  0.865620  1.0  -0.1497
  C  C216  1  0.265200  0.101700  0.447900  1.0  0.2328
  C  C217  1  0.387800  0.797400  0.830400  1.0  -0.1903
  C  C218  1  0.096000  0.262600  0.345900  1.0  -0.1491
  C  C219  1  0.187300  0.322500  0.396400  1.0  0.0528
  C  C220  1  0.716300  0.323980  0.872890  1.0  -0.1677
  C  C221  1  0.763400  0.391010  0.610980  1.0  -0.013
  C  C222  1  0.836400  0.340630  0.891790  1.0  -0.0052
  C  C223  1  0.150000  0.115100  0.070100  1.0  -0.2331
  C  C224  1  0.208500  0.042800  0.498000  1.0  0.1102
  C  C225  1  0.500000  0.069120  0.935810  1.0  0.6941
  C  C226  1  0.306600  0.121600  0.484800  1.0  -0.1324
  C  C227  1  0.860700  0.116130  0.881990  1.0  0.0234
  C  C228  1  0.192700  0.345700  0.441300  1.0  0.0926
  C  C229  1  0.267200  0.679370  0.829200  1.0  0.054
  C  C230  1  0.229800  0.634800  0.668400  1.0  -0.1497
  C  C231  1  0.666100  0.108780  0.659990  1.0  -0.0108
  C  C232  1  0.843700  0.372710  0.926640  1.0  -0.1464
  C  C233  1  0.882300  0.343650  0.661570  1.0  -0.0083
  C  C234  1  0.727700  0.388020  0.943310  1.0  -0.0018
  C  C235  1  0.312100  0.110420  0.187000  1.0  -0.1075
  C  C236  1  0.740700  0.169350  0.829850  1.0  0.7086
  C  C237  1  0.286100  0.764630  0.833400  1.0  0.05
  C  C238  1  0.528300  0.053790  0.610230  1.0  0.6647
  C  C239  1  0.288600  0.103800  0.527700  1.0  0.1065
  C  C240  1  0.215900  0.116800  0.152620  1.0  0.0504
  C  C241  1  0.332600  0.336200  0.082400  1.0  -0.2113
  C  C242  1  0.768200  0.326300  0.676560  1.0  -0.1525
  C  C243  1  0.660000  0.074620  0.628760  1.0  -0.1477
  C  C244  1  0.228000  0.674700  0.693500  1.0  -0.1241
  C  C245  1  0.352400  0.518200  0.679000  1.0  -0.2315
  C  C246  1  0.162600  0.519400  0.883800  1.0  -0.149
  C  C247  1  0.989900  0.063580  0.931400  1.0  0.6629
  C  C248  1  0.312100  0.683330  0.730800  1.0  0.0374
  C  C249  1  0.269400  0.548700  0.613400  1.0  -0.1848
  C  C250  1  0.114300  0.167900  0.203200  1.0  -0.1327
  C  C251  1  0.712800  0.290120  0.833260  1.0  0.7269
  C  C252  1  0.363200  0.902100  0.629300  1.0  -0.2049
  C  C253  1  0.173800  0.342900  0.523000  1.0  0.143
  C  C254  1  0.600900  0.339900  0.890360  1.0  0.0015
  C  C255  1  0.322500  0.601700  0.679300  1.0  0.0388
  C  C256  1  0.181100  0.602380  0.833300  1.0  -0.1412
  C  C257  1  0.293000  0.766320  0.733700  1.0  0.1313
  C  C258  1  0.649000  0.341290  0.658910  1.0  -0.02
  C  C259  1  0.321200  0.167290  0.399790  1.0  -0.1634
  C  C260  1  0.310200  0.189030  0.360030  1.0  -0.1398
  C  C261  1  0.264900  0.888880  0.657000  1.0  0.0825
  C  C262  1  0.192700  0.642200  0.810900  1.0  -0.1473
  C  C263  1  0.125700  0.322500  0.182200  1.0  -0.1469
  C  C264  1  0.307000  0.063000  0.094930  1.0  -0.1745
  C  C265  1  0.381000  0.776900  0.703800  1.0  -0.1404
  C  C266  1  0.165700  0.958100  0.638200  1.0  0.1454
  C  C267  1  0.204800  0.239700  0.275870  1.0  -0.0066
  C  C268  1  0.160700  0.320900  0.480500  1.0  -0.1952
  C  C269  1  0.218200  0.195000  0.277820  1.0  0.0146
  C  C270  1  0.008800  0.394630  0.611030  1.0  0.7039
  C  C271  1  0.191500  0.814820  0.888200  1.0  -0.1223
  C  C272  1  0.895600  0.076100  0.628990  1.0  -0.1519
  C  C273  1  0.790500  0.167190  0.711340  1.0  0.7212
  C  C274  1  0.192400  0.269700  0.316060  1.0  0.015
  C  C275  1  0.342500  0.931470  0.882100  1.0  -0.1728
  C  C276  1  0.313000  0.134660  0.228320  1.0  -0.1489
  C  C277  1  0.408200  0.651700  0.740300  1.0  -0.1322
  C  C278  1  0.319400  0.283800  0.164800  1.0  -0.1496
  C  C279  1  0.236600  0.553820  0.899400  1.0  0.1144
  C  C280  1  0.166200  0.916400  0.660100  1.0  -0.1719
  C  C281  1  0.251000  0.503700  0.594900  1.0  0.1672
  C  C282  1  0.216700  0.165100  0.236310  1.0  0.0488
  C  C283  1  0.360500  0.943600  0.609800  1.0  0.1511
  C  C284  1  0.285700  0.848240  0.881500  1.0  0.0349
  C  C285  1  0.624600  0.085500  0.916280  1.0  -0.1636
  C  C286  1  0.308500  0.635150  0.896400  1.0  -0.144
  C  C287  1  0.316800  0.049500  0.049310  1.0  0.1693
  C  C288  1  0.384000  0.837900  0.853700  1.0  -0.1226
  C  C289  1  0.331600  0.974530  0.897120  1.0  0.1467
  C  C290  1  0.373700  0.816700  0.678500  1.0  -0.1433
  C  C291  1  0.193100  0.104600  0.366090  1.0  -0.1536
  C  C292  1  0.200700  0.906640  0.936450  1.0  -0.1739
  C  C293  1  0.471700  0.946210  0.389770  1.0  0.6633
  C  C294  1  0.117700  0.656350  0.338430  1.0  0.0088
  C  C295  1  0.809500  0.203800  0.261700  1.0  -0.1505
  C  C296  1  0.104400  0.923900  0.371010  1.0  -0.1526
  C  C297  1  0.837400  0.480600  0.116200  1.0  -0.1473
  C  C298  1  0.874300  0.677500  0.817800  1.0  -0.1464
  C  C299  1  0.691500  0.364850  0.103600  1.0  -0.1431
  C  C300  1  0.010100  0.936420  0.068600  1.0  0.6599
  C  C301  1  0.666800  0.523700  0.341800  1.0  0.1502
  C  C302  1  0.394800  0.628310  0.074460  1.0  -0.1626
  C  C303  1  0.834300  0.041900  0.361800  1.0  0.1453
  C  C304  1  0.734800  0.898300  0.552100  1.0  0.2327
  C  C305  1  0.711400  0.896200  0.472300  1.0  0.1057
  C  C306  1  0.118000  0.623710  0.371620  1.0  -0.1501
  C  C307  1  0.376500  0.881630  0.117280  1.0  0.0114
  C  C308  1  0.730600  0.597700  0.502700  1.0  0.2008
  C  C309  1  0.591800  0.348300  0.259700  1.0  -0.1364
  C  C310  1  0.833800  0.083600  0.339900  1.0  -0.1708
  C  C311  1  0.375400  0.914500  0.083720  1.0  -0.1641
  C  C312  1  0.163600  0.659370  0.108210  1.0  -0.0055
  C  C313  1  0.795200  0.760300  0.724130  1.0  -0.0062
  C  C314  1  0.716400  0.277950  0.195300  1.0  -0.0082
  C  C315  1  0.904000  0.737400  0.654100  1.0  -0.1487
  C  C316  1  0.799300  0.093360  0.063550  1.0  -0.1736
  C  C317  1  0.677500  0.398300  0.320700  1.0  0.0387
  C  C318  1  0.232800  0.709240  0.287890  1.0  0.7098
  C  C319  1  0.272300  0.611980  0.056690  1.0  -0.0022
  C  C320  1  0.775600  0.902960  0.893230  1.0  0.0221
  C  C321  1  0.772000  0.325300  0.306500  1.0  -0.1263
  C  C322  1  0.885700  0.832100  0.796800  1.0  -0.1348
  C  C323  1  0.222800  0.941700  0.387200  1.0  -0.0495
  C  C324  1  0.784800  0.938200  0.545400  1.0  -0.1337
  C  C325  1  0.287200  0.709880  0.166740  1.0  0.7267
  C  C326  1  0.693000  0.497500  0.042000  1.0  0.1583
  C  C327  1  0.340000  0.925380  0.371240  1.0  -0.1473
  C  C328  1  0.283700  0.676020  0.127110  1.0  -0.1675
  C  C329  1  0.886800  0.855900  0.837600  1.0  -0.188
  C  C330  1  0.724300  0.104690  0.098170  1.0  0.0781
  C  C331  1  0.636800  0.097900  0.370700  1.0  -0.2051
  C  C332  1  0.718900  0.694400  0.675000  1.0  -0.0955
  C  C333  1  0.991200  0.605370  0.388970  1.0  0.7014
  C  C334  1  0.806900  0.895400  0.633910  1.0  -0.1517
  C  C335  1  0.763400  0.446180  0.100600  1.0  0.115
  C  C336  1  0.693400  0.878400  0.515200  1.0  -0.131
  C  C337  1  0.791100  0.735300  0.767270  1.0  0.0459
  C  C338  1  0.667100  0.641800  0.958000  1.0  0.1751
  C  C339  1  0.812700  0.677500  0.603600  1.0  0.0519
  C  C340  1  0.685800  0.442900  0.343700  1.0  0.0876
  C  C341  1  0.680100  0.324480  0.127300  1.0  -0.1306
  C  C342  1  0.587400  0.388300  0.284700  1.0  -0.1826
  C  C343  1  0.760100  0.402570  0.123900  1.0  0.0103
  C  C344  1  0.691600  0.455300  0.061100  1.0  -0.1563
  C  C345  1  0.668400  0.025470  0.102880  1.0  0.1473
  C  C346  1  0.816200  0.872500  0.674150  1.0  -0.1389
  C  C347  1  0.231800  0.673700  0.323440  1.0  -0.1517
  C  C348  1  0.687900  0.889580  0.813000  1.0  -0.1061
  C  C349  1  0.619000  0.223100  0.296200  1.0  -0.1366
  C  C350  1  0.741700  0.875880  0.595840  1.0  0.0289
  C  C351  1  0.689800  0.810970  0.639970  1.0  -0.1396
  C  C352  1  0.667400  0.663800  0.917600  1.0  -0.2139
  C  C353  1  0.784100  0.883200  0.847380  1.0  0.0495
  C  C354  1  0.707000  0.233680  0.266300  1.0  0.1312
  C  C355  1  0.721300  0.668600  0.635600  1.0  -0.1142
  C  C356  1  0.850000  0.884900  0.929900  1.0  -0.2327
  C  C357  1  0.749000  0.496300  0.405100  1.0  0.1653
  C  C358  1  0.516300  0.611230  0.055220  1.0  0.6592
  C  C359  1  0.808500  0.185180  0.111800  1.0  -0.122
  C  C360  1  0.680600  0.716200  0.835200  1.0  -0.1485
  C  C361  1  0.857200  0.627000  0.902100  1.0  -0.1779
  C  C362  1  0.763900  0.828700  0.678450  1.0  0.0827
  C  C363  1  0.735100  0.111120  0.343000  1.0  0.0817
  C  C364  1  0.657500  0.068530  0.117900  1.0  -0.1698
  C  C365  1  0.139300  0.883870  0.118010  1.0  0.0227
  C  C366  1  0.687000  0.865340  0.771680  1.0  -0.1483
  C  C367  1  0.616000  0.162100  0.146300  1.0  -0.1204
  C  C368  1  0.209500  0.832810  0.288660  1.0  0.7199
  C  C369  1  0.612200  0.202600  0.169600  1.0  -0.1873
  C  C370  1  0.259300  0.830650  0.170150  1.0  0.7092
  C  C371  1  0.713900  0.235370  0.166600  1.0  0.0517
  C  C372  1  0.807600  0.730300  0.683940  1.0  0.0125
  C  C373  1  0.500000  0.930880  0.064190  1.0  0.693
  C  C374  1  0.767300  0.657400  0.888280  1.0  0.0574
  C  C375  1  0.903700  0.711000  0.613000  1.0  -0.18
  C  C376  1  0.258200  0.866780  0.134380  1.0  -0.1504
  C  C377  1  0.826200  0.657100  0.477000  1.0  0.1435
  C  C378  1  0.097500  0.888720  0.338810  1.0  -0.0035
  C  C379  1  0.354500  0.625280  0.374510  1.0  -0.1392
  C  C380  1  0.818900  0.397620  0.166700  1.0  -0.1459
  C  C381  1  0.730600  0.451300  0.386600  1.0  -0.1853
  C  C382  1  0.683200  0.950500  0.950690  1.0  0.1699
  C  C383  1  0.837000  0.900200  0.973520  1.0  0.1668
  C  C384  1  0.687900  0.316670  0.269200  1.0  0.0373
  C  C385  1  0.732800  0.320630  0.170800  1.0  0.0542
  C  C386  1  0.775300  0.684000  0.846350  1.0  -0.0236
  C  C387  1  0.814800  0.164400  0.285100  1.0  -0.1479
  C  C388  1  0.688900  0.740500  0.795700  1.0  -0.1182
  C  C389  1  0.770200  0.365200  0.331600  1.0  -0.1504
  C  C390  1  0.351000  0.658710  0.341090  1.0  -0.0201
  C  C391  1  0.807300  0.654300  0.558700  1.0  0.096
  C  C392  1  0.783300  0.834900  0.763690  1.0  0.0499
  C  C393  1  0.744800  0.616800  0.548300  1.0  -0.1749
  C  C394  1  0.027200  0.608090  0.053700  1.0  0.6768
  C  C395  1  0.255600  0.931120  0.069230  1.0  -0.0821
  C  C396  1  0.702400  0.276130  0.240300  1.0  0.0191
  C  C397  1  0.333900  0.891220  0.340010  1.0  -0.0098
  C  C398  1  0.880100  0.702500  0.778700  1.0  -0.1275
  C  C399  1  0.808700  0.226530  0.135990  1.0  -0.1508
  C  C400  1  0.639500  0.056400  0.390200  1.0  0.1508
  C  C401  1  0.807300  0.357800  0.189100  1.0  -0.1448
  C  C402  1  0.647600  0.481800  0.321000  1.0  -0.2315
  C  C403  1  0.831800  0.524100  0.095400  1.0  0.1544
  C  C404  1  0.626300  0.183300  0.321500  1.0  -0.1426
  C  C405  1  0.811000  0.048520  0.049700  1.0  0.154
  C  C406  1  0.839300  0.679100  0.519500  1.0  -0.1969
  C  C407  1  0.156300  0.627290  0.073360  1.0  -0.1461
  C  C408  1  0.979600  0.943210  0.388360  1.0  0.6731
  C  C409  1  0.781800  0.805000  0.722180  1.0  0.0144
  C  C410  1  0.852300  0.606600  0.943700  1.0  0.1498
  C  C411  1  0.791500  0.957200  0.502000  1.0  0.109
  C  C412  1  0.136800  0.916960  0.085780  1.0  -0.1763
  C  C413  1  0.693000  0.937000  0.905070  1.0  -0.175
  C  C414  1  0.714300  0.151760  0.118500  1.0  0.034
  C  C415  1  0.724600  0.153990  0.316800  1.0  0.0477
  C  C416  1  0.236600  0.608990  0.389020  1.0  -0.012
  C  C417  1  0.482200  0.608740  0.393630  1.0  0.6845
  C  C418  1  0.678800  0.832710  0.600210  1.0  -0.1633
  C  C419  1  0.399100  0.660100  0.109640  1.0  -0.0006
  C  C420  1  0.214100  0.871940  0.322760  1.0  -0.1775
  N  N421  1  0.244900  0.067650  0.015680  1.0  -0.332
  N  N422  1  0.265100  0.061020  0.533460  1.0  -0.2556
  N  N423  1  0.253700  0.985100  0.930990  1.0  -0.3361
  N  N424  1  0.235100  0.468670  0.940630  1.0  -0.2828
  N  N425  1  0.230400  0.385800  0.529770  1.0  -0.2105
  N  N426  1  0.262700  0.972640  0.615200  1.0  -0.3086
  N  N427  1  0.241300  0.386510  0.027980  1.0  -0.323
  N  N428  1  0.282900  0.469730  0.616210  1.0  -0.2485
  N  N429  1  0.734900  0.938980  0.466540  1.0  -0.259
  N  N430  1  0.755100  0.932350  0.984320  1.0  -0.3309
  N  N431  1  0.717100  0.530270  0.383790  1.0  -0.2501
  N  N432  1  0.769600  0.614200  0.470230  1.0  -0.2104
  N  N433  1  0.737300  0.027360  0.384800  1.0  -0.3084
  N  N434  1  0.758700  0.613490  0.972020  1.0  -0.3245
  N  N435  1  0.764900  0.531330  0.059370  1.0  -0.2838
  N  N436  1  0.746300  0.014900  0.069010  1.0  -0.3373
  O  O437  1  0.076700  0.375310  0.931400  1.0  -0.5943
  O  O438  1  0.680000  0.180680  0.721860  1.0  -0.6178
  O  O439  1  0.372200  0.370480  0.930440  1.0  -0.5817
  O  O440  1  0.425500  0.068080  0.627370  1.0  -0.5933
  O  O441  1  0.986900  0.030450  0.957340  1.0  -0.5988
  O  O442  1  0.851300  0.183670  0.818640  1.0  -0.618
  O  O443  1  0.877600  0.278730  0.728000  1.0  -0.5893
  O  O444  1  0.629200  0.181900  0.814750  1.0  -0.5875
  O  O445  1  0.009100  0.027850  0.579320  1.0  -0.5776
  O  O446  1  0.114900  0.376360  0.625250  1.0  -0.5815
  O  O447  1  0.130700  0.070830  0.630150  1.0  -0.5753
  O  O448  1  0.602300  0.276700  0.816500  1.0  -0.5866
  O  O449  1  0.654800  0.276640  0.722790  1.0  -0.6021
  O  O450  1  0.005100  0.425560  0.583620  1.0  -0.5575
  O  O451  1  0.391300  0.083520  0.918310  1.0  -0.5988
  O  O452  1  0.977300  0.422300  0.976180  1.0  -0.5658
  O  O453  1  0.513500  0.418960  0.575980  1.0  -0.5449
  O  O454  1  0.900300  0.182290  0.726490  1.0  -0.581
  O  O455  1  0.491900  0.419860  0.974590  1.0  -0.5966
  O  O456  1  0.506600  0.042760  0.968120  1.0  -0.5788
  O  O457  1  0.823400  0.278060  0.821310  1.0  -0.6145
  O  O458  1  0.412500  0.374630  0.621710  1.0  -0.5886
  O  O459  1  0.095800  0.082160  0.918100  1.0  -0.5872
  O  O460  1  0.526000  0.023980  0.579280  1.0  -0.5703
  O  O461  1  0.923300  0.624690  0.068600  1.0  -0.5939
  O  O462  1  0.099700  0.817710  0.273510  1.0  -0.5803
  O  O463  1  0.587500  0.625370  0.378290  1.0  -0.5885
  O  O464  1  0.627800  0.629520  0.069560  1.0  -0.583
  O  O465  1  0.176600  0.721940  0.178690  1.0  -0.6171
  O  O466  1  0.904200  0.917840  0.081900  1.0  -0.5866
  O  O467  1  0.869300  0.929170  0.369850  1.0  -0.5756
  O  O468  1  0.345200  0.723360  0.277210  1.0  -0.6031
  O  O469  1  0.574500  0.931920  0.372630  1.0  -0.592
  O  O470  1  0.474000  0.976020  0.420720  1.0  -0.5697
  O  O471  1  0.370800  0.818100  0.185250  1.0  -0.5883
  O  O472  1  0.122400  0.721270  0.272000  1.0  -0.5888
  O  O473  1  0.013100  0.969550  0.042660  1.0  -0.5994
  O  O474  1  0.608700  0.916480  0.081690  1.0  -0.5989
  O  O475  1  0.148700  0.816330  0.181360  1.0  -0.6185
  O  O476  1  0.493400  0.957240  0.031880  1.0  -0.5797
  O  O477  1  0.486500  0.581040  0.424020  1.0  -0.5452
  O  O478  1  0.320000  0.819320  0.278140  1.0  -0.6181
  O  O479  1  0.397700  0.723300  0.183500  1.0  -0.5855
  O  O480  1  0.994900  0.574440  0.416380  1.0  -0.5584
  O  O481  1  0.508100  0.580140  0.025410  1.0  -0.5968
  O  O482  1  0.990900  0.972150  0.420680  1.0  -0.5779
  O  O483  1  0.022700  0.577700  0.023820  1.0  -0.5655
  O  O484  1  0.885100  0.623640  0.374750  1.0  -0.5832
