# generated using pymatgen
data_Fe5P6H3(O6F)4
_symmetry_space_group_name_H-M   'P 1'
_cell_length_a   9.67000000
_cell_length_b   15.61800000
_cell_length_c   22.56300000
_cell_angle_alpha   90.00000000
_cell_angle_beta   90.82000000
_cell_angle_gamma   90.00000000
_symmetry_Int_Tables_number   1
_chemical_formula_structural   Fe5P6H3(O6F)4
_chemical_formula_sum   'Fe20 P24 H12 O96 F16'
_cell_volume   3407.25201722
_cell_formula_units_Z   4
loop_
 _symmetry_equiv_pos_site_id
 _symmetry_equiv_pos_as_xyz
  1  'x, y, z'
loop_
 _atom_site_type_symbol
 _atom_site_label
 _atom_site_symmetry_multiplicity
 _atom_site_fract_x
 _atom_site_fract_y
 _atom_site_fract_z
 _atom_site_occupancy
 _atom_site_charge
  Fe  Fe1  1  0.509570  0.103490  0.200520  1.0  1.529
  Fe  Fe2  1  0.775910  0.227100  0.279030  1.0  1.4832
  Fe  Fe3  1  0.725820  0.389690  0.154610  1.0  1.2037
  Fe  Fe4  1  0.389810  0.438680  0.084070  1.0  1.1764
  Fe  Fe5  1  0.216190  0.969780  0.256680  1.0  1.4894
  Fe  Fe6  1  0.990430  0.603490  0.299480  1.0  1.528
  Fe  Fe7  1  0.724090  0.727100  0.220970  1.0  1.4815
  Fe  Fe8  1  0.774180  0.889690  0.345390  1.0  1.2061
  Fe  Fe9  1  0.110190  0.938680  0.415930  1.0  1.1737
  Fe  Fe10  1  0.283810  0.469780  0.243320  1.0  1.4911
  Fe  Fe11  1  0.490430  0.896510  0.799480  1.0  1.528
  Fe  Fe12  1  0.224090  0.772900  0.720970  1.0  1.4817
  Fe  Fe13  1  0.274180  0.610310  0.845390  1.0  1.2058
  Fe  Fe14  1  0.610190  0.561320  0.915930  1.0  1.1797
  Fe  Fe15  1  0.783810  0.030220  0.743320  1.0  1.4908
  Fe  Fe16  1  0.009570  0.396510  0.700520  1.0  1.5289
  Fe  Fe17  1  0.275910  0.272900  0.779030  1.0  1.4834
  Fe  Fe18  1  0.225820  0.110310  0.654610  1.0  1.2039
  Fe  Fe19  1  0.889810  0.061320  0.584070  1.0  1.1783
  Fe  Fe20  1  0.716190  0.530220  0.756680  1.0  1.4891
  P  P21  1  0.274600  0.007700  0.117970  1.0  1.758
  P  P22  1  0.794800  0.186600  0.144140  1.0  1.8666
  P  P23  1  0.495100  0.314600  0.206770  1.0  1.7803
  P  P24  1  0.679300  0.415300  0.014390  1.0  1.8675
  P  P25  1  0.538900  0.904930  0.243840  1.0  1.8
  P  P26  1  0.953500  0.059100  0.323220  1.0  1.7949
  P  P27  1  0.225400  0.507700  0.382030  1.0  1.7578
  P  P28  1  0.705200  0.686600  0.355860  1.0  1.8653
  P  P29  1  0.004900  0.814600  0.293230  1.0  1.7791
  P  P30  1  0.820700  0.915300  0.485610  1.0  1.8675
  P  P31  1  0.961100  0.404930  0.256160  1.0  1.801
  P  P32  1  0.546500  0.559100  0.176780  1.0  1.7956
  P  P33  1  0.725400  0.992300  0.882030  1.0  1.7581
  P  P34  1  0.205200  0.813400  0.855860  1.0  1.8662
  P  P35  1  0.504900  0.685400  0.793230  1.0  1.7791
  P  P36  1  0.320700  0.584700  0.985610  1.0  1.8665
  P  P37  1  0.461100  0.095070  0.756160  1.0  1.8008
  P  P38  1  0.046500  0.940900  0.676780  1.0  1.7944
  P  P39  1  0.774600  0.492300  0.617970  1.0  1.758
  P  P40  1  0.294800  0.313400  0.644140  1.0  1.8671
  P  P41  1  0.995100  0.185400  0.706770  1.0  1.78
  P  P42  1  0.179300  0.084700  0.514390  1.0  1.8671
  P  P43  1  0.038900  0.595070  0.743840  1.0  1.7999
  P  P44  1  0.453500  0.440900  0.823220  1.0  1.7935
  H  H45  1  0.142700  0.089100  0.078300  1.0  0.5031
  H  H46  1  0.856700  0.132700  0.068000  1.0  0.498
  H  H47  1  0.725500  0.293100  0.009900  1.0  0.5284
  H  H48  1  0.357300  0.589100  0.421700  1.0  0.5034
  H  H49  1  0.643300  0.632700  0.432000  1.0  0.5011
  H  H50  1  0.774500  0.793100  0.490100  1.0  0.5278
  H  H51  1  0.857300  0.910900  0.921700  1.0  0.5062
  H  H52  1  0.143300  0.867300  0.932000  1.0  0.5013
  H  H53  1  0.274500  0.706900  0.990100  1.0  0.5307
  H  H54  1  0.642700  0.410900  0.578300  1.0  0.5058
  H  H55  1  0.356700  0.367300  0.568000  1.0  0.4982
  H  H56  1  0.225500  0.206900  0.509900  1.0  0.5323
  O  O57  1  0.382900  0.075600  0.134400  1.0  -0.773
  O  O58  1  0.583200  0.984900  0.208100  1.0  -0.7008
  O  O59  1  0.654900  0.138800  0.143000  1.0  -0.7908
  O  O60  1  0.434700  0.224700  0.202800  1.0  -0.7273
  O  O61  1  0.898200  0.151800  0.326300  1.0  -0.7499
  O  O62  1  0.864000  0.186400  0.205000  1.0  -0.7429
  O  O63  1  0.592800  0.825500  0.210500  1.0  -0.738
  O  O64  1  0.648700  0.313100  0.229500  1.0  -0.8609
  O  O65  1  0.596100  0.906700  0.307600  1.0  -0.7377
  O  O66  1  0.748500  0.437500  0.075800  1.0  -0.7167
  O  O67  1  0.834000  0.997700  0.306500  1.0  -0.7423
  O  O68  1  0.779400  0.275900  0.118200  1.0  -0.7645
  O  O69  1  0.509700  0.358100  0.144800  1.0  -0.8553
  O  O70  1  0.010300  0.038100  0.385800  1.0  -0.7298
  O  O71  1  0.523100  0.404300  0.023900  1.0  -0.7787
  O  O72  1  0.714600  0.491000  0.973600  1.0  -0.7403
  O  O73  1  0.380900  0.897600  0.246400  1.0  -0.7733
  O  O74  1  0.181500  0.986900  0.170700  1.0  -0.7429
  O  O75  1  0.406600  0.368100  0.248000  1.0  -0.699
  O  O76  1  0.069400  0.053600  0.277200  1.0  -0.7462
  O  O77  1  0.338600  0.928200  0.091800  1.0  -0.5225
  O  O78  1  0.180700  0.045400  0.066700  1.0  -0.6053
  O  O79  1  0.891400  0.133700  0.101400  1.0  -0.6192
  O  O80  1  0.738600  0.333400  0.987400  1.0  -0.5453
  O  O81  1  0.117100  0.575600  0.365600  1.0  -0.7741
  O  O82  1  0.916800  0.484900  0.291900  1.0  -0.7001
  O  O83  1  0.845100  0.638800  0.357000  1.0  -0.7909
  O  O84  1  0.065300  0.724700  0.297200  1.0  -0.7277
  O  O85  1  0.601800  0.651800  0.173700  1.0  -0.752
  O  O86  1  0.636000  0.686400  0.295000  1.0  -0.7429
  O  O87  1  0.907200  0.325500  0.289500  1.0  -0.7404
  O  O88  1  0.851300  0.813100  0.270500  1.0  -0.8624
  O  O89  1  0.903900  0.406700  0.192400  1.0  -0.7366
  O  O90  1  0.751500  0.937500  0.424200  1.0  -0.7145
  O  O91  1  0.666000  0.497700  0.193500  1.0  -0.7432
  O  O92  1  0.720600  0.775900  0.381800  1.0  -0.7657
  O  O93  1  0.990300  0.858100  0.355200  1.0  -0.855
  O  O94  1  0.489700  0.538100  0.114200  1.0  -0.7308
  O  O95  1  0.976900  0.904300  0.476100  1.0  -0.7789
  O  O96  1  0.785400  0.991000  0.526400  1.0  -0.7405
  O  O97  1  0.119100  0.397600  0.253600  1.0  -0.772
  O  O98  1  0.318500  0.486900  0.329300  1.0  -0.7445
  O  O99  1  0.093400  0.868100  0.252000  1.0  -0.6983
  O  O100  1  0.430600  0.553600  0.222800  1.0  -0.7467
  O  O101  1  0.161400  0.428200  0.408200  1.0  -0.5241
  O  O102  1  0.319300  0.545400  0.433300  1.0  -0.6044
  O  O103  1  0.608600  0.633700  0.398600  1.0  -0.6211
  O  O104  1  0.761400  0.833400  0.512600  1.0  -0.5462
  O  O105  1  0.617100  0.924400  0.865600  1.0  -0.7731
  O  O106  1  0.416800  0.015100  0.791900  1.0  -0.7007
  O  O107  1  0.345100  0.861200  0.857000  1.0  -0.7929
  O  O108  1  0.565300  0.775300  0.797200  1.0  -0.7275
  O  O109  1  0.101800  0.848200  0.673700  1.0  -0.7499
  O  O110  1  0.136000  0.813600  0.795000  1.0  -0.7432
  O  O111  1  0.407200  0.174500  0.789500  1.0  -0.7391
  O  O112  1  0.351300  0.686900  0.770500  1.0  -0.8624
  O  O113  1  0.403900  0.093300  0.692400  1.0  -0.7369
  O  O114  1  0.251500  0.562500  0.924200  1.0  -0.7147
  O  O115  1  0.166000  0.002300  0.693500  1.0  -0.7426
  O  O116  1  0.220600  0.724100  0.881800  1.0  -0.7653
  O  O117  1  0.490300  0.641900  0.855200  1.0  -0.855
  O  O118  1  0.989700  0.961900  0.614200  1.0  -0.7303
  O  O119  1  0.476900  0.595700  0.976100  1.0  -0.778
  O  O120  1  0.285400  0.509000  0.026400  1.0  -0.7403
  O  O121  1  0.619100  0.102400  0.753600  1.0  -0.7723
  O  O122  1  0.818500  0.013100  0.829300  1.0  -0.7442
  O  O123  1  0.593400  0.631900  0.752000  1.0  -0.699
  O  O124  1  0.930600  0.946400  0.722800  1.0  -0.746
  O  O125  1  0.661400  0.071800  0.908200  1.0  -0.5201
  O  O126  1  0.819300  0.954600  0.933300  1.0  -0.6078
  O  O127  1  0.108600  0.866300  0.898600  1.0  -0.6218
  O  O128  1  0.261400  0.666667  0.012600  1.0  -0.5468
  O  O129  1  0.882900  0.424400  0.634400  1.0  -0.7726
  O  O130  1  0.083200  0.515100  0.708100  1.0  -0.7015
  O  O131  1  0.154900  0.361200  0.643000  1.0  -0.794
  O  O132  1  0.934700  0.275300  0.702800  1.0  -0.7269
  O  O133  1  0.398200  0.348200  0.826300  1.0  -0.7502
  O  O134  1  0.364000  0.313600  0.705000  1.0  -0.7428
  O  O135  1  0.092800  0.674500  0.710500  1.0  -0.7365
  O  O136  1  0.148700  0.186900  0.729500  1.0  -0.8611
  O  O137  1  0.096100  0.593300  0.807600  1.0  -0.7377
  O  O138  1  0.248500  0.062500  0.575800  1.0  -0.7167
  O  O139  1  0.334000  0.502300  0.806500  1.0  -0.7424
  O  O140  1  0.279400  0.224100  0.618200  1.0  -0.765
  O  O141  1  0.009700  0.141900  0.644800  1.0  -0.8546
  O  O142  1  0.510300  0.461900  0.885800  1.0  -0.7297
  O  O143  1  0.023100  0.095700  0.523900  1.0  -0.778
  O  O144  1  0.214600  0.009000  0.473600  1.0  -0.7406
  O  O145  1  0.880900  0.602400  0.746400  1.0  -0.7732
  O  O146  1  0.681500  0.513100  0.670700  1.0  -0.7429
  O  O147  1  0.906600  0.131900  0.748000  1.0  -0.6985
  O  O148  1  0.569400  0.446400  0.777200  1.0  -0.7462
  O  O149  1  0.838600  0.571800  0.591800  1.0  -0.5206
  O  O150  1  0.680700  0.454600  0.566700  1.0  -0.6089
  O  O151  1  0.391400  0.366300  0.601400  1.0  -0.6205
  O  O152  1  0.238600  0.166600  0.487400  1.0  -0.5458
  F  F153  1  0.632400  0.136200  0.268600  1.0  -0.4862
  F  F154  1  0.353300  0.070500  0.257300  1.0  -0.4943
  F  F155  1  0.687800  0.263800  0.351100  1.0  -0.4103
  F  F156  1  0.243300  0.955300  0.346200  1.0  -0.4775
  F  F157  1  0.867600  0.636200  0.231400  1.0  -0.4887
  F  F158  1  0.146700  0.570500  0.242700  1.0  -0.496
  F  F159  1  0.812200  0.763800  0.148900  1.0  -0.4179
  F  F160  1  0.256700  0.455300  0.153800  1.0  -0.4784
  F  F161  1  0.367600  0.863800  0.731400  1.0  -0.4882
  F  F162  1  0.646700  0.929500  0.742700  1.0  -0.4973
  F  F163  1  0.312200  0.736200  0.648900  1.0  -0.415
  F  F164  1  0.756700  0.044700  0.653800  1.0  -0.4781
  F  F165  1  0.132400  0.363800  0.768600  1.0  -0.4862
  F  F166  1  0.853300  0.429500  0.757300  1.0  -0.4954
  F  F167  1  0.187800  0.236200  0.851100  1.0  -0.4135
  F  F168  1  0.743300  0.544700  0.846200  1.0  -0.4777
