# generated using pymatgen
data_CdCo2H44C68N20(ClO4)2
_symmetry_space_group_name_H-M   'P 1'
_cell_length_a   9.15610000
_cell_length_b   28.10780000
_cell_length_c   28.10780000
_cell_angle_alpha   88.47980000
_cell_angle_beta   80.62620000
_cell_angle_gamma   80.62600000
_symmetry_Int_Tables_number   1
_chemical_formula_structural   CdCo2H44C68N20(ClO4)2
_chemical_formula_sum   'Cd4 Co8 H176 C272 N80 Cl8 O32'
_cell_volume   7041.85956898
_cell_formula_units_Z   4
loop_
 _symmetry_equiv_pos_site_id
 _symmetry_equiv_pos_as_xyz
  1  'x, y, z'
loop_
 _atom_site_type_symbol
 _atom_site_label
 _atom_site_symmetry_multiplicity
 _atom_site_fract_x
 _atom_site_fract_y
 _atom_site_fract_z
 _atom_site_occupancy
 _atom_site_charge
  Cd  Cd1  1  0.000000  0.000000  0.500000  1.0  0.8505
  Cd  Cd2  1  0.000000  0.000000  0.000000  1.0  0.8523
  Cd  Cd3  1  0.000000  0.500000  0.000000  1.0  0.8523
  Cd  Cd4  1  0.500000  0.500000  0.500000  1.0  0.8523
  Co  Co5  1  0.920020  0.731590  0.513610  1.0  0.515
  Co  Co6  1  0.651610  0.013610  0.268410  1.0  0.516
  Co  Co7  1  0.665220  0.768410  0.986390  1.0  0.515
  Co  Co8  1  0.079980  0.268410  0.486390  1.0  0.5158
  Co  Co9  1  0.334780  0.231590  0.013610  1.0  0.5151
  Co  Co10  1  0.433630  0.486390  0.231590  1.0  0.5157
  Co  Co11  1  0.348390  0.986390  0.731590  1.0  0.516
  Co  Co12  1  0.566370  0.513610  0.768410  1.0  0.5161
  H  H13  1  0.570400  0.296800  0.310800  1.0  0.1122
  H  H14  1  0.005500  0.532100  0.884700  1.0  0.0541
  H  H15  1  0.742900  0.057500  0.073700  1.0  0.0648
  H  H16  1  0.750000  0.447400  0.545600  1.0  0.0564
  H  H17  1  0.381300  0.326300  0.656300  1.0  0.1029
  H  H18  1  0.474700  0.350800  0.860400  1.0  0.0859
  H  H19  1  0.757000  0.947400  0.045600  1.0  0.0553
  H  H20  1  0.325200  0.689800  0.520200  1.0  0.1018
  H  H21  1  0.665800  0.876100  0.061900  1.0  0.1069
  H  H22  1  0.332300  0.474600  0.604200  1.0  0.0862
  H  H23  1  0.535900  0.393300  0.086100  1.0  0.1109
  H  H24  1  0.063500  0.604200  0.025400  1.0  0.0873
  H  H25  1  0.338900  0.197000  0.239800  1.0  0.0978
  H  H26  1  0.525300  0.649200  0.139600  1.0  0.0883
  H  H27  1  0.070800  0.413900  0.393300  1.0  0.111
  H  H28  1  0.599900  0.355800  0.702800  1.0  0.1107
  H  H29  1  0.284600  0.791400  0.949800  1.0  0.1282
  H  H30  1  0.717400  0.334000  0.112200  1.0  0.1041
  H  H31  1  0.185900  0.149200  0.639600  1.0  0.0867
  H  H32  1  0.077700  0.032100  0.384700  1.0  0.054
  H  H33  1  0.495400  0.068400  0.858000  1.0  0.1185
  H  H34  1  0.514400  0.284500  0.593700  1.0  0.0938
  H  H35  1  0.515300  0.106700  0.413900  1.0  0.1108
  H  H36  1  0.051400  0.612200  0.666000  1.0  0.1044
  H  H37  1  0.077300  0.117300  0.312900  1.0  0.0734
  H  H38  1  0.985000  0.979800  0.689800  1.0  0.1016
  H  H39  1  0.992500  0.617300  0.812900  1.0  0.0715
  H  H40  1  0.076000  0.449800  0.208600  1.0  0.1277
  H  H41  1  0.436200  0.642000  0.068400  1.0  0.1167
  H  H42  1  0.194600  0.812900  0.882700  1.0  0.0729
  H  H43  1  0.891900  0.593700  0.215500  1.0  0.0979
  H  H44  1  0.103800  0.623900  0.438100  1.0  0.1063
  H  H45  1  0.474200  0.291400  0.449800  1.0  0.13
  H  H46  1  0.789100  0.162000  0.311800  1.0  0.0674
  H  H47  1  0.421300  0.239800  0.303000  1.0  0.0952
  H  H48  1  0.563800  0.358000  0.931600  1.0  0.1166
  H  H49  1  0.870500  0.643800  0.348800  1.0  0.0756
  H  H50  1  0.199600  0.426300  0.057500  1.0  0.0648
  H  H51  1  0.899100  0.311800  0.338000  1.0  0.0682
  H  H52  1  0.048900  0.188200  0.162000  1.0  0.0673
  H  H53  1  0.037600  0.343700  0.826300  1.0  0.1023
  H  H54  1  0.535900  0.739800  0.803000  1.0  0.0958
  H  H55  1  0.287700  0.977400  0.288000  1.0  0.0833
  H  H56  1  0.234400  0.050200  0.291400  1.0  0.1277
  H  H57  1  0.514300  0.848800  0.356200  1.0  0.0748
  H  H58  1  0.088900  0.974600  0.104200  1.0  0.0877
  H  H59  1  0.210900  0.838000  0.688200  1.0  0.0677
  H  H60  1  0.955700  0.202800  0.644200  1.0  0.1118
  H  H61  1  0.158500  0.144200  0.797200  1.0  0.1117
  H  H62  1  0.019700  0.993300  0.183500  1.0  0.0843
  H  H63  1  0.924000  0.550200  0.791400  1.0  0.1287
  H  H64  1  0.374100  0.442500  0.426300  1.0  0.0656
  H  H65  1  0.272300  0.061900  0.623900  1.0  0.1074
  H  H66  1  0.845400  0.479800  0.189800  1.0  0.1024
  H  H67  1  0.015000  0.020200  0.310200  1.0  0.1017
  H  H68  1  0.174500  0.639600  0.350800  1.0  0.0862
  H  H69  1  0.390200  0.687100  0.617300  1.0  0.0727
  H  H70  1  0.881200  0.689200  0.796800  1.0  0.1122
  H  H71  1  0.250000  0.552600  0.454400  1.0  0.055
  H  H72  1  0.330700  0.918800  0.846600  1.0  0.1012
  H  H73  1  0.462400  0.615300  0.532100  1.0  0.0541
  H  H74  1  0.890200  0.115300  0.032100  1.0  0.0538
  H  H75  1  0.802600  0.954400  0.447400  1.0  0.0548
  H  H76  1  0.353400  0.142000  0.568400  1.0  0.1188
  H  H77  1  0.197400  0.045600  0.552600  1.0  0.0555
  H  H78  1  0.053100  0.522600  0.212000  1.0  0.0826
  H  H79  1  0.661100  0.803000  0.760200  1.0  0.0974
  H  H80  1  0.335100  0.139600  0.850800  1.0  0.0856
  H  H81  1  0.922300  0.967900  0.615300  1.0  0.0539
  H  H82  1  0.646600  0.858000  0.431600  1.0  0.1185
  H  H83  1  0.035200  0.810200  0.979800  1.0  0.1023
  H  H84  1  0.704400  0.545600  0.052600  1.0  0.0549
  H  H85  1  0.109800  0.884700  0.967900  1.0  0.0544
  H  H86  1  0.625900  0.557500  0.573700  1.0  0.0645
  H  H87  1  0.424300  0.288000  0.522600  1.0  0.0822
  H  H88  1  0.378000  0.086100  0.106700  1.0  0.1112
  H  H89  1  0.177300  0.153400  0.418800  1.0  0.1002
  H  H90  1  0.765600  0.949800  0.708600  1.0  0.1285
  H  H91  1  0.201100  0.906300  0.284500  1.0  0.097
  H  H92  1  0.922700  0.882700  0.687100  1.0  0.0736
  H  H93  1  0.987000  0.316500  0.993300  1.0  0.0832
  H  H94  1  0.464100  0.606700  0.913900  1.0  0.1109
  H  H95  1  0.750500  0.653400  0.918800  1.0  0.1021
  H  H96  1  0.734900  0.212000  0.977400  1.0  0.0824
  H  H97  1  0.100900  0.688200  0.662000  1.0  0.0684
  H  H98  1  0.118800  0.310800  0.203200  1.0  0.1121
  H  H99  1  0.575700  0.712000  0.477400  1.0  0.0822
  H  H100  1  0.609800  0.312900  0.382700  1.0  0.0721
  H  H101  1  0.596100  0.581200  0.653400  1.0  0.1006
  H  H102  1  0.962400  0.656300  0.173700  1.0  0.1027
  H  H103  1  0.525800  0.708600  0.550200  1.0  0.1285
  H  H104  1  0.796800  0.183500  0.506700  1.0  0.0844
  H  H105  1  0.948600  0.387800  0.334000  1.0  0.1042
  H  H106  1  0.669300  0.081200  0.153400  1.0  0.1009
  H  H107  1  0.822700  0.846600  0.581200  1.0  0.1003
  H  H108  1  0.170400  0.112200  0.166000  1.0  0.105
  H  H109  1  0.715400  0.208600  0.050200  1.0  0.1288
  H  H110  1  0.464100  0.260200  0.197000  1.0  0.0966
  H  H111  1  0.203200  0.816500  0.493300  1.0  0.0855
  H  H112  1  0.578700  0.760200  0.697000  1.0  0.0952
  H  H113  1  0.504600  0.931600  0.142000  1.0  0.1179
  H  H114  1  0.541900  0.561900  0.123900  1.0  0.1071
  H  H115  1  0.537600  0.384700  0.467900  1.0  0.0538
  H  H116  1  0.257100  0.942500  0.926300  1.0  0.065
  H  H117  1  0.936500  0.395800  0.974600  1.0  0.0855
  H  H118  1  0.275700  0.303000  0.260200  1.0  0.0964
  H  H119  1  0.485600  0.715500  0.406300  1.0  0.0953
  H  H120  1  0.707600  0.156300  0.673700  1.0  0.1034
  H  H121  1  0.132800  0.189200  0.296800  1.0  0.1127
  H  H122  1  0.265100  0.788000  0.022600  1.0  0.0831
  H  H123  1  0.805400  0.187100  0.117300  1.0  0.0722
  H  H124  1  0.816600  0.926300  0.557500  1.0  0.0651
  H  H125  1  0.219300  0.651200  0.143800  1.0  0.0761
  H  H126  1  0.841500  0.855800  0.202800  1.0  0.1118
  H  H127  1  0.911100  0.025400  0.895800  1.0  0.0879
  H  H128  1  0.237100  0.662000  0.811800  1.0  0.0671
  H  H129  1  0.863900  0.173700  0.843700  1.0  0.1009
  H  H130  1  0.363100  0.856200  0.151200  1.0  0.0745
  H  H131  1  0.336400  0.834000  0.612200  1.0  0.1045
  H  H132  1  0.896200  0.376100  0.561900  1.0  0.1067
  H  H133  1  0.674800  0.310200  0.479800  1.0  0.1024
  H  H134  1  0.108100  0.406300  0.784500  1.0  0.0969
  H  H135  1  0.618700  0.673700  0.343700  1.0  0.1015
  H  H136  1  0.964800  0.189800  0.020200  1.0  0.1022
  H  H137  1  0.929200  0.586100  0.606700  1.0  0.111
  H  H138  1  0.282600  0.666000  0.887800  1.0  0.104
  H  H139  1  0.798900  0.093700  0.715500  1.0  0.0964
  H  H140  1  0.292400  0.843700  0.326300  1.0  0.1015
  H  H141  1  0.829600  0.887800  0.834000  1.0  0.1047
  H  H142  1  0.667700  0.525400  0.395800  1.0  0.0871
  H  H143  1  0.806900  0.104200  0.525400  1.0  0.087
  H  H144  1  0.136100  0.826300  0.156300  1.0  0.1009
  H  H145  1  0.334200  0.123900  0.938100  1.0  0.107
  H  H146  1  0.780700  0.348800  0.856200  1.0  0.0752
  H  H147  1  0.697300  0.702800  0.144200  1.0  0.1115
  H  H148  1  0.429600  0.703200  0.689200  1.0  0.1119
  H  H149  1  0.243000  0.052600  0.954400  1.0  0.0555
  H  H150  1  0.322000  0.796800  0.810800  1.0  0.1112
  H  H151  1  0.400100  0.644200  0.297200  1.0  0.1108
  H  H152  1  0.867200  0.810800  0.703200  1.0  0.1127
  H  H153  1  0.129500  0.356200  0.651200  1.0  0.0754
  H  H154  1  0.295600  0.454400  0.947400  1.0  0.053
  H  H155  1  0.951100  0.811800  0.838000  1.0  0.0679
  H  H156  1  0.946900  0.477400  0.788000  1.0  0.0831
  H  H157  1  0.403900  0.418800  0.346600  1.0  0.101
  H  H158  1  0.921800  0.431600  0.642000  1.0  0.1194
  H  H159  1  0.485700  0.151200  0.643800  1.0  0.076
  H  H160  1  0.814100  0.850800  0.360400  1.0  0.0861
  H  H161  1  0.980300  0.006700  0.816500  1.0  0.084
  H  H162  1  0.044300  0.797200  0.355800  1.0  0.1118
  H  H163  1  0.994500  0.467900  0.115300  1.0  0.0539
  H  H164  1  0.193100  0.895800  0.474600  1.0  0.0882
  H  H165  1  0.249500  0.346600  0.081200  1.0  0.1018
  H  H166  1  0.800400  0.573700  0.942500  1.0  0.065
  H  H167  1  0.696500  0.506700  0.316500  1.0  0.0848
  H  H168  1  0.762900  0.338000  0.188200  1.0  0.0679
  H  H169  1  0.183400  0.073700  0.442500  1.0  0.0658
  H  H170  1  0.724300  0.697000  0.739800  1.0  0.0962
  H  H171  1  0.303500  0.493300  0.683500  1.0  0.0836
  H  H172  1  0.302700  0.297200  0.855800  1.0  0.1119
  H  H173  1  0.013000  0.683500  0.006700  1.0  0.0828
  H  H174  1  0.825500  0.360400  0.649200  1.0  0.0856
  H  H175  1  0.078200  0.568400  0.358000  1.0  0.1188
  H  H176  1  0.154600  0.520200  0.810200  1.0  0.1033
  H  H177  1  0.678000  0.203200  0.189200  1.0  0.1115
  H  H178  1  0.484700  0.893300  0.586100  1.0  0.1112
  H  H179  1  0.727700  0.938100  0.376100  1.0  0.1074
  H  H180  1  0.636900  0.143800  0.848800  1.0  0.0746
  H  H181  1  0.107400  0.784500  0.093700  1.0  0.097
  H  H182  1  0.458100  0.438100  0.876100  1.0  0.1071
  H  H183  1  0.712300  0.022600  0.712000  1.0  0.0812
  H  H184  1  0.892600  0.215500  0.906300  1.0  0.0966
  H  H185  1  0.664900  0.860400  0.149200  1.0  0.0868
  H  H186  1  0.007500  0.382700  0.187100  1.0  0.0721
  H  H187  1  0.663600  0.166000  0.387800  1.0  0.1039
  H  H188  1  0.622000  0.913900  0.893300  1.0  0.1113
  C  C189  1  0.609500  0.382800  0.488000  1.0  0.1957
  C  C190  1  0.151200  0.033000  0.581000  1.0  0.1914
  C  C191  1  0.342200  0.859000  0.632600  1.0  -0.1639
  C  C192  1  0.186100  0.355200  0.058600  1.0  -0.1704
  C  C193  1  0.165200  0.168300  0.613300  1.0  -0.1004
  C  C194  1  0.913400  0.450300  0.802900  1.0  -0.1406
  C  C195  1  0.306600  0.637900  0.822900  1.0  -0.0584
  C  C196  1  0.775600  0.769500  0.074100  1.0  0.574
  C  C197  1  0.186600  0.505400  0.837400  1.0  -0.2518
  C  C198  1  0.153800  0.403600  0.044600  1.0  0.1363
  C  C199  1  0.512200  0.248600  0.167000  1.0  0.1587
  C  C200  1  0.450200  0.954400  0.324800  1.0  0.5876
  C  C201  1  0.997100  0.614000  0.003800  1.0  0.1615
  C  C202  1  0.625200  0.398800  0.207400  1.0  0.1573
  C  C203  1  0.734800  0.533000  0.081000  1.0  0.1913
  C  C204  1  0.813400  0.494600  0.162600  1.0  -0.2512
  C  C205  1  0.803800  0.094200  0.243000  1.0  0.5012
  C  C206  1  0.102000  0.096400  0.455400  1.0  0.1358
  C  C207  1  0.848800  0.967000  0.419000  1.0  0.1905
  C  C208  1  0.440600  0.605800  0.883000  1.0  -0.1033
  C  C209  1  0.081900  0.380100  0.206100  1.0  -0.1011
  C  C210  1  0.572200  0.748600  0.667000  1.0  0.1598
  C  C211  1  0.339600  0.842600  0.124200  1.0  0.1387
  C  C212  1  0.234900  0.195000  0.534400  1.0  0.1595
  C  C213  1  0.032300  0.338300  0.007700  1.0  -0.1513
  C  C214  1  0.716300  0.197100  0.950300  1.0  -0.1401
  C  C215  1  0.168100  0.119900  0.293900  1.0  -0.1022
  C  C216  1  0.988800  0.591900  0.198500  1.0  -0.0804
  C  C217  1  0.099900  0.144800  0.441400  1.0  -0.171
  C  C218  1  0.196300  0.162300  0.283100  1.0  -0.112
  C  C219  1  0.541300  0.558600  0.644800  1.0  -0.1726
  C  C220  1  0.661100  0.220000  0.079800  1.0  -0.1753
  C  C221  1  0.013300  0.821700  0.539500  1.0  0.2492
  C  C222  1  0.345600  0.299000  0.883400  1.0  -0.1218
  C  C223  1  0.497900  0.664500  0.071500  1.0  -0.1076
  C  C224  1  0.796600  0.334800  0.523000  1.0  0.2149
  C  C225  1  0.339900  0.200000  0.487800  1.0  0.5584
  C  C226  1  0.460100  0.012200  0.200000  1.0  0.5701
  C  C227  1  0.885100  0.114000  0.503800  1.0  0.1589
  C  C228  1  0.583700  0.422900  0.730300  1.0  0.196
  C  C229  1  0.536200  0.124200  0.657400  1.0  0.1341
  C  C230  1  0.342300  0.323200  0.628200  1.0  -0.1387
  C  C231  1  0.481900  0.139300  0.028900  1.0  0.4173
  C  C232  1  0.665500  0.128200  0.676800  1.0  -0.1479
  C  C233  1  0.999100  0.003800  0.886000  1.0  0.1602
  C  C234  1  0.006600  0.230300  0.577100  1.0  0.1986
  C  C235  1  0.976000  0.292600  0.398800  1.0  0.1537
  C  C236  1  0.758700  0.876600  0.042800  1.0  -0.2385
  C  C237  1  0.815800  0.919000  0.033000  1.0  0.1879
  C  C238  1  0.502100  0.335500  0.928500  1.0  -0.109
  C  C239  1  0.363700  0.302900  0.549700  1.0  -0.1381
  C  C240  1  0.007700  0.012000  0.382800  1.0  0.1971
  C  C241  1  0.621200  0.528900  0.860700  1.0  0.4232
  C  C242  1  0.666200  0.359000  0.132600  1.0  -0.1635
  C  C243  1  0.812700  0.198500  0.908100  1.0  -0.0774
  C  C244  1  0.740900  0.920200  0.720000  1.0  -0.1748
  C  C245  1  0.712000  0.206100  0.119900  1.0  -0.104
  C  C246  1  0.801600  0.044600  0.096400  1.0  0.1386
  C  C247  1  0.267400  0.862100  0.677100  1.0  -0.0586
  C  C248  1  0.028000  0.201000  0.616600  1.0  -0.1259
  C  C249  1  0.644600  0.383400  0.701000  1.0  -0.1222
  C  C250  1  0.141700  0.337700  0.216900  1.0  -0.1127
  C  C251  1  0.666667  0.049700  0.697100  1.0  -0.1476
  C  C252  1  0.370600  0.507700  0.661700  1.0  -0.1493
  C  C253  1  0.230700  0.534400  0.305000  1.0  0.1601
  C  C254  1  0.011200  0.408100  0.801500  1.0  -0.0768
  C  C255  1  0.898000  0.903600  0.544600  1.0  0.1363
  C  C256  1  0.187300  0.801500  0.091900  1.0  -0.0812
  C  C257  1  0.259100  0.079800  0.280000  1.0  -0.1763
  C  C258  1  0.236900  0.077100  0.769700  1.0  0.195
  C  C259  1  0.472300  0.700000  0.987800  1.0  0.5622
  C  C260  1  0.172300  0.487800  0.300000  1.0  0.5601
  C  C261  1  0.874500  0.678300  0.960500  1.0  0.2488
  C  C262  1  0.390500  0.617200  0.512000  1.0  0.1954
  C  C263  1  0.102000  0.257000  0.094200  1.0  0.5015
  C  C264  1  0.429400  0.894200  0.617000  1.0  -0.1
  C  C265  1  0.870500  0.822900  0.862100  1.0  -0.0588
  C  C266  1  0.900100  0.855200  0.558600  1.0  -0.1718
  C  C267  1  0.902500  0.488000  0.117200  1.0  0.1949
  C  C268  1  0.538000  0.293900  0.380100  1.0  -0.106
  C  C269  1  0.203400  0.665200  0.477000  1.0  0.2152
  C  C270  1  0.635300  0.542800  0.123400  1.0  -0.2359
  C  C271  1  0.918100  0.619900  0.793900  1.0  -0.1017
  C  C272  1  0.568000  0.069500  0.351100  1.0  0.2747
  C  C273  1  0.125500  0.321700  0.039500  1.0  0.2487
  C  C274  1  0.229400  0.545600  0.175200  1.0  0.5875
  C  C275  1  0.024000  0.162600  0.005400  1.0  -0.253
  C  C276  1  0.765100  0.805000  0.465600  1.0  0.1555
  C  C277  1  0.198500  0.042800  0.623400  1.0  -0.2375
  C  C278  1  0.378800  0.471100  0.139300  1.0  0.4237
  C  C279  1  0.595400  0.175200  0.954400  1.0  0.5872
  C  C280  1  0.510800  0.971100  0.639300  1.0  0.4189
  C  C281  1  0.283700  0.802900  0.049700  1.0  -0.1398
  C  C282  1  0.442600  0.455400  0.403600  1.0  0.136
  C  C283  1  0.268600  0.898800  0.707400  1.0  0.156
  C  C284  1  0.362500  0.148900  0.069500  1.0  0.2755
  C  C285  1  0.024000  0.707400  0.601200  1.0  0.1554
  C  C286  1  0.720800  0.091900  0.698500  1.0  -0.085
  C  C287  1  0.229000  0.116600  0.799000  1.0  -0.1223
  C  C288  1  0.279200  0.908100  0.301500  1.0  -0.0819
  C  C289  1  0.657700  0.676800  0.371800  1.0  -0.1405
  C  C290  1  0.733900  0.835500  0.428500  1.0  -0.1106
  C  C291  1  0.080900  0.351100  0.430500  1.0  0.2748
  C  C292  1  0.308000  0.662600  0.505400  1.0  -0.2525
  C  C293  1  0.383400  0.081700  0.249900  1.0  0.5189
  C  C294  1  0.462000  0.706100  0.619900  1.0  -0.1014
  C  C295  1  0.162400  0.571500  0.335500  1.0  -0.1093
  C  C296  1  0.967700  0.661700  0.992300  1.0  -0.1504
  C  C297  1  0.184200  0.081000  0.967000  1.0  0.1889
  C  C298  1  0.479400  0.716900  0.662300  1.0  -0.1133
  C  C299  1  0.545100  0.574100  0.230500  1.0  0.5685
  C  C300  1  0.463800  0.875800  0.342600  1.0  0.1353
  C  C301  1  0.858300  0.662300  0.783100  1.0  -0.11
  C  C302  1  0.364700  0.457200  0.876600  1.0  -0.2356
  C  C303  1  0.846200  0.596400  0.955400  1.0  0.1366
  C  C304  1  0.637500  0.851100  0.930500  1.0  0.2734
  C  C305  1  0.570600  0.105800  0.383000  1.0  -0.0998
  C  C306  1  0.553200  0.668300  0.113300  1.0  -0.0993
  C  C307  1  0.040000  0.992300  0.838300  1.0  -0.1491
  C  C308  1  0.831900  0.880100  0.706100  1.0  -0.1002
  C  C309  1  0.118900  0.420200  0.220000  1.0  -0.1748
  C  C310  1  0.755300  0.058600  0.144800  1.0  -0.1729
  C  C311  1  0.775000  0.675200  0.454400  1.0  0.5882
  C  C312  1  0.201200  0.132600  0.141000  1.0  -0.1616
  C  C313  1  0.359000  0.594200  0.743000  1.0  0.5023
  C  C314  1  0.769300  0.465600  0.695000  1.0  0.1566
  C  C315  1  0.793700  0.176800  0.871800  1.0  -0.1421
  C  C316  1  0.086600  0.549700  0.197100  1.0  -0.1411
  C  C317  1  0.986700  0.178300  0.460500  1.0  0.249
  C  C318  1  0.636300  0.697100  0.450300  1.0  -0.1397
  C  C319  1  0.732200  0.419000  0.533000  1.0  0.1885
  C  C320  1  0.029400  0.994600  0.662600  1.0  -0.2518
  C  C321  1  0.288000  0.793900  0.880100  1.0  -0.1024
  C  C322  1  0.196200  0.905800  0.757000  1.0  0.5022
  C  C323  1  0.454900  0.425900  0.769500  1.0  0.5704
  C  C324  1  0.182200  0.624200  0.157400  1.0  0.1326
  C  C325  1  0.693400  0.362100  0.177100  1.0  -0.0589
  C  C326  1  0.002900  0.386000  0.996200  1.0  0.161
  C  C327  1  0.970500  0.371800  0.823200  1.0  -0.1431
  C  C328  1  0.334500  0.871800  0.323200  1.0  -0.1485
  C  C329  1  0.993400  0.769700  0.422900  1.0  0.1967
  C  C330  1  0.416300  0.577100  0.269700  1.0  0.1952
  C  C331  1  0.518100  0.860700  0.971100  1.0  0.4176
  C  C332  1  0.225000  0.324800  0.545600  1.0  0.5892
  C  C333  1  0.129500  0.177100  0.137900  1.0  -0.0606
  C  C334  1  0.974800  0.367400  0.359000  1.0  -0.1609
  C  C335  1  0.446800  0.331700  0.886700  1.0  -0.0996
  C  C336  1  0.267800  0.581000  0.467000  1.0  0.1882
  C  C337  1  0.813900  0.644800  0.941400  1.0  -0.1728
  C  C338  1  0.358600  0.783100  0.837700  1.0  -0.1134
  C  C339  1  0.000900  0.996200  0.114000  1.0  0.1617
  C  C340  1  0.660100  0.800000  0.512200  1.0  0.5627
  C  C341  1  0.465100  0.749900  0.918300  1.0  0.5155
  C  C342  1  0.206300  0.823200  0.128200  1.0  -0.1488
  C  C343  1  0.193600  0.342600  0.624200  1.0  0.1358
  C  C344  1  0.198400  0.955400  0.903600  1.0  0.138
  C  C345  1  0.666500  0.886700  0.168300  1.0  -0.0976
  C  C346  1  0.458700  0.441400  0.355200  1.0  -0.1698
  C  C347  1  0.953600  0.617000  0.605800  1.0  -0.1004
  C  C348  1  0.366700  0.249900  0.418300  1.0  0.5152
  C  C349  1  0.025200  0.632600  0.641000  1.0  -0.1614
  C  C350  1  0.953200  0.243000  0.405800  1.0  0.502
  C  C351  1  0.919100  0.648900  0.569500  1.0  0.2738
  C  C352  1  0.845600  0.834800  0.023000  1.0  0.2164
  C  C353  1  0.224400  0.230500  0.925900  1.0  0.572
  C  C354  1  0.633300  0.750100  0.581700  1.0  0.5154
  C  C355  1  0.611100  0.503800  0.386000  1.0  0.1617
  C  C356  1  0.178100  0.623400  0.457200  1.0  -0.2389
  C  C357  1  0.549800  0.045600  0.675200  1.0  0.5894
  C  C358  1  0.770600  0.454400  0.824800  1.0  0.5877
  C  C359  1  0.511400  0.569500  0.851100  1.0  0.2769
  C  C360  1  0.432000  0.930500  0.648900  1.0  0.2763
  C  C361  1  0.535700  0.695000  0.034400  1.0  0.1591
  C  C362  1  0.487800  0.751400  0.833000  1.0  0.1619
  C  C363  1  0.569400  0.928500  0.164500  1.0  -0.1091
  C  C364  1  0.534900  0.250100  0.081700  1.0  0.5176
  C  C365  1  0.419300  0.301500  0.591900  1.0  -0.0746
  C  C366  1  0.976000  0.837400  0.994600  1.0  -0.253
  C  C367  1  0.679200  0.833000  0.748600  1.0  0.1564
  C  C368  1  0.559400  0.394200  0.117000  1.0  -0.1041
  C  C369  1  0.154400  0.165200  0.977000  1.0  0.2162
  C  C370  1  0.731400  0.101200  0.292600  1.0  0.1566
  C  C371  1  0.333500  0.113300  0.831700  1.0  -0.0963
  C  C372  1  0.019700  0.882800  0.988000  1.0  0.1956
  C  C373  1  0.641000  0.405800  0.257000  1.0  0.5028
  C  C374  1  0.849900  0.639300  0.528900  1.0  0.4168
  C  C375  1  0.333800  0.641000  0.867400  1.0  -0.1639
  C  C376  1  0.121700  0.838300  0.507700  1.0  -0.157
  C  C377  1  0.388900  0.496200  0.614000  1.0  0.1617
  C  C378  1  0.241300  0.123400  0.957200  1.0  -0.2402
  C  C379  1  0.641400  0.216900  0.162300  1.0  -0.1107
  C  C380  1  0.785000  0.581700  0.749900  1.0  0.5211
  C  C381  1  0.837600  0.428500  0.664500  1.0  -0.1108
  C  C382  1  0.046400  0.383000  0.394200  1.0  -0.0995
  C  C383  1  0.960000  0.007700  0.161700  1.0  -0.1495
  C  C384  1  0.676400  0.883000  0.894200  1.0  -0.1002
  C  C385  1  0.944500  0.322900  0.362100  1.0  -0.0606
  C  C386  1  0.817800  0.375800  0.842600  1.0  0.1344
  C  C387  1  0.972000  0.799000  0.383400  1.0  -0.1193
  C  C388  1  0.527700  0.300000  0.012200  1.0  0.562
  C  C389  1  0.803700  0.837700  0.716900  1.0  -0.1128
  C  C390  1  0.488600  0.430500  0.148900  1.0  0.2776
  C  C391  1  0.055500  0.677100  0.637900  1.0  -0.06
  C  C392  1  0.881100  0.579800  0.780000  1.0  -0.1762
  C  C393  1  0.686000  0.730300  0.077100  1.0  0.2047
  C  C394  1  0.834800  0.831700  0.386700  1.0  -0.0971
  C  C395  1  0.429900  0.034400  0.805000  1.0  0.1607
  C  C396  1  0.557400  0.544600  0.596400  1.0  0.136
  C  C397  1  0.447200  0.539500  0.678300  1.0  0.252
  C  C398  1  0.404600  0.824800  0.045600  1.0  0.587
  C  C399  1  0.150300  0.074100  0.730500  1.0  0.5688
  C  C400  1  0.430600  0.071500  0.835500  1.0  -0.1114
  C  C401  1  0.654400  0.701000  0.116600  1.0  -0.1221
  C  C402  1  0.239200  0.333000  0.248600  1.0  0.1625
  C  C403  1  0.732600  0.137900  0.322900  1.0  -0.0591
  C  C404  1  0.319600  0.477000  0.834800  1.0  0.2156
  C  C405  1  0.763100  0.922900  0.230300  1.0  0.1955
  C  C406  1  0.097500  0.512000  0.882800  1.0  0.1942
  C  C407  1  0.244700  0.941400  0.855200  1.0  -0.1722
  C  C408  1  0.221500  0.613300  0.331700  1.0  -0.0945
  C  C409  1  0.266100  0.164500  0.571500  1.0  -0.1089
  C  C410  1  0.114900  0.886000  0.496200  1.0  0.1603
  C  C411  1  0.552800  0.460500  0.321700  1.0  0.2529
  C  C412  1  0.570100  0.965600  0.195000  1.0  0.1581
  C  C413  1  0.801500  0.957200  0.376600  1.0  -0.2361
  C  C414  1  0.878300  0.161700  0.492300  1.0  -0.153
  C  C415  1  0.680400  0.523000  0.165200  1.0  0.2158
  C  C416  1  0.265200  0.467000  0.919000  1.0  0.1915
  C  C417  1  0.427800  0.251400  0.333000  1.0  0.161
  C  C418  1  0.798800  0.867400  0.859000  1.0  -0.1611
  C  C419  1  0.692000  0.337400  0.494600  1.0  -0.253
  C  C420  1  0.333400  0.950300  0.302900  1.0  -0.1411
  C  C421  1  0.320800  0.167000  0.251400  1.0  0.1616
  C  C422  1  0.832600  0.792600  0.898800  1.0  0.1563
  C  C423  1  0.046800  0.757000  0.594200  1.0  0.5012
  C  C424  1  0.657800  0.141000  0.367400  1.0  -0.1609
  C  C425  1  0.215000  0.418300  0.250100  1.0  0.5184
  C  C426  1  0.898000  0.743000  0.905800  1.0  0.4997
  C  C427  1  0.314000  0.269700  0.922900  1.0  0.1967
  C  C428  1  0.778500  0.386700  0.668300  1.0  -0.0956
  C  C429  1  0.821900  0.376600  0.542800  1.0  -0.2382
  C  C430  1  0.980300  0.117200  0.012000  1.0  0.1954
  C  C431  1  0.806400  0.657400  0.375800  1.0  0.1345
  C  C432  1  0.460900  0.280000  0.420200  1.0  -0.177
  C  C433  1  0.629400  0.492300  0.338300  1.0  -0.1488
  C  C434  1  0.992300  0.988000  0.617200  1.0  0.1971
  C  C435  1  0.880800  0.269500  0.574100  1.0  0.5692
  C  C436  1  0.131400  0.023000  0.665200  1.0  0.2159
  C  C437  1  0.029500  0.628200  0.176800  1.0  -0.1479
  C  C438  1  0.338900  0.780000  0.920200  1.0  -0.1749
  C  C439  1  0.165000  0.960500  0.821700  1.0  0.2526
  C  C440  1  0.119200  0.730500  0.425900  1.0  0.569
  C  C441  1  0.849700  0.925900  0.269500  1.0  0.5698
  C  C442  1  0.580700  0.698500  0.408100  1.0  -0.0789
  C  C443  1  0.827700  0.512200  0.700000  1.0  0.5607
  C  C444  1  0.539900  0.987800  0.800000  1.0  0.5657
  C  C445  1  0.835000  0.039500  0.178300  1.0  0.251
  C  C446  1  0.489200  0.028900  0.360700  1.0  0.42
  C  C447  1  0.150100  0.360700  0.471100  1.0  0.4191
  C  C448  1  0.167400  0.207400  0.101200  1.0  0.1557
  C  C449  1  0.374800  0.601200  0.792600  1.0  0.1568
  C  C450  1  0.539100  0.720000  0.579800  1.0  -0.1757
  C  C451  1  0.760800  0.667000  0.751400  1.0  0.1604
  C  C452  1  0.771000  0.883400  0.201000  1.0  -0.1233
  C  C453  1  0.323600  0.117000  0.105800  1.0  -0.0989
  C  C454  1  0.616600  0.918300  0.750100  1.0  0.5174
  C  C455  1  0.868600  0.977000  0.334800  1.0  0.2162
  C  C456  1  0.464300  0.305000  0.965600  1.0  0.1593
  C  C457  1  0.355400  0.616600  0.299000  1.0  -0.1211
  C  C458  1  0.970600  0.005400  0.337400  1.0  -0.2508
  C  C459  1  0.660400  0.157400  0.875800  1.0  0.1394
  C  C460  1  0.520600  0.283100  0.337700  1.0  -0.111
  N  N461  1  0.351400  0.538400  0.273400  1.0  -0.2957
  N  N462  1  0.515400  0.960200  0.765000  1.0  -0.3319
  N  N463  1  0.484600  0.039800  0.235000  1.0  -0.3333
  N  N464  1  0.577900  0.530000  0.210000  1.0  -0.4449
  N  N465  1  0.163700  0.323400  0.504800  1.0  -0.3743
  N  N466  1  0.889800  0.773400  0.461600  1.0  -0.2948
  N  N467  1  0.259400  0.460200  0.265000  1.0  -0.3318
  N  N468  1  0.340200  0.236400  0.375200  1.0  -0.4265
  N  N469  1  0.110200  0.226600  0.538400  1.0  -0.2958
  N  N470  1  0.648600  0.461600  0.726600  1.0  -0.2956
  N  N471  1  0.513800  0.916200  0.342200  1.0  -0.3052
  N  N472  1  0.996200  0.082100  0.485500  1.0  -0.3188
  N  N473  1  0.564600  0.450600  0.272800  1.0  -0.366
  N  N474  1  0.107900  0.710000  0.470000  1.0  -0.4464
  N  N475  1  0.836300  0.676600  0.495200  1.0  -0.3752
  N  N476  1  0.727800  0.416200  0.842200  1.0  -0.3034
  N  N477  1  0.144000  0.342200  0.583800  1.0  -0.3032
  N  N478  1  0.984800  0.227200  0.450600  1.0  -0.366
  N  N479  1  0.481700  0.514500  0.582100  1.0  -0.3189
  N  N480  1  0.423400  0.124800  0.236400  1.0  -0.4309
  N  N481  1  0.373800  0.577900  0.492100  1.0  -0.328
  N  N482  1  0.015200  0.772800  0.549400  1.0  -0.3672
  N  N483  1  0.865900  0.507900  0.077900  1.0  -0.3314
  N  N484  1  0.056200  0.077900  0.992100  1.0  -0.3294
  N  N485  1  0.491900  0.176600  0.995200  1.0  -0.3757
  N  N486  1  0.663200  0.961600  0.226600  1.0  -0.2956
  N  N487  1  0.212100  0.210000  0.970000  1.0  -0.4431
  N  N488  1  0.715400  0.808900  0.932900  1.0  -0.2612
  N  N489  1  0.817900  0.970000  0.290000  1.0  -0.4448
  N  N490  1  0.524400  0.735000  0.960200  1.0  -0.3337
  N  N491  1  0.957200  0.691100  0.567100  1.0  -0.261
  N  N492  1  0.048300  0.007900  0.577900  1.0  -0.3333
  N  N493  1  0.892100  0.290000  0.530000  1.0  -0.4463
  N  N494  1  0.487100  0.004800  0.676600  1.0  -0.3749
  N  N495  1  0.508100  0.823400  0.004800  1.0  -0.376
  N  N496  1  0.003800  0.917900  0.514500  1.0  -0.32
  N  N497  1  0.435400  0.549400  0.727200  1.0  -0.3661
  N  N498  1  0.182100  0.030000  0.710000  1.0  -0.4451
  N  N499  1  0.284600  0.191100  0.067100  1.0  -0.2617
  N  N500  1  0.422100  0.470000  0.790000  1.0  -0.4453
  N  N501  1  0.331500  0.504800  0.176600  1.0  -0.3745
  N  N502  1  0.518300  0.485500  0.417900  1.0  -0.3176
  N  N503  1  0.475600  0.265000  0.039800  1.0  -0.3333
  N  N504  1  0.351700  0.932900  0.691100  1.0  -0.2617
  N  N505  1  0.134100  0.492100  0.922100  1.0  -0.3309
  N  N506  1  0.668500  0.495200  0.823400  1.0  -0.3728
  N  N507  1  0.943800  0.922100  0.007900  1.0  -0.3298
  N  N508  1  0.451800  0.263600  0.124800  1.0  -0.4292
  N  N509  1  0.787900  0.790000  0.030000  1.0  -0.4453
  N  N510  1  0.659800  0.763600  0.624800  1.0  -0.4316
  N  N511  1  0.570000  0.157800  0.916200  1.0  -0.2995
  N  N512  1  0.512900  0.995200  0.323400  1.0  -0.3749
  N  N513  1  0.524300  0.432900  0.191100  1.0  -0.2615
  N  N514  1  0.624800  0.726600  0.038400  1.0  -0.2954
  N  N515  1  0.475700  0.567100  0.808900  1.0  -0.2629
  N  N516  1  0.951700  0.992100  0.422100  1.0  -0.3307
  N  N517  1  0.272200  0.583800  0.157800  1.0  -0.2996
  N  N518  1  0.162600  0.272800  0.049400  1.0  -0.368
  N  N519  1  0.548200  0.736400  0.875200  1.0  -0.4295
  N  N520  1  0.788000  0.049400  0.227200  1.0  -0.3668
  N  N521  1  0.280400  0.235000  0.460200  1.0  -0.333
  N  N522  1  0.284600  0.375200  0.263600  1.0  -0.4297
  N  N523  1  0.719600  0.765000  0.539800  1.0  -0.3339
  N  N524  1  0.921700  0.014500  0.082100  1.0  -0.3184
  N  N525  1  0.626200  0.422100  0.507900  1.0  -0.3291
  N  N526  1  0.936200  0.582100  0.985500  1.0  -0.3192
  N  N527  1  0.430000  0.842200  0.083800  1.0  -0.3054
  N  N528  1  0.078300  0.985500  0.917900  1.0  -0.3168
  N  N529  1  0.740600  0.539800  0.735000  1.0  -0.3322
  N  N530  1  0.837400  0.727200  0.950600  1.0  -0.3667
  N  N531  1  0.375200  0.273400  0.961600  1.0  -0.2946
  N  N532  1  0.648300  0.067100  0.308900  1.0  -0.2645
  N  N533  1  0.042800  0.308900  0.432900  1.0  -0.2618
  N  N534  1  0.856000  0.657800  0.416200  1.0  -0.3022
  N  N535  1  0.576600  0.875200  0.763600  1.0  -0.4283
  N  N536  1  0.715400  0.624800  0.736400  1.0  -0.4272
  N  N537  1  0.063800  0.417900  0.014500  1.0  -0.3208
  N  N538  1  0.486200  0.083800  0.657800  1.0  -0.3018
  N  N539  1  0.336800  0.038400  0.773400  1.0  -0.2943
  N  N540  1  0.212000  0.950600  0.772800  1.0  -0.3667
  Cl  Cl541  1  0.215200  0.518500  0.027700  1.0  -0.5569
  Cl  Cl542  1  0.242900  0.972300  0.018500  1.0  -0.555
  Cl  Cl543  1  0.733700  0.527700  0.481500  1.0  -0.557
  Cl  Cl544  1  0.266300  0.472300  0.518500  1.0  -0.5559
  Cl  Cl545  1  0.738600  0.018500  0.527700  1.0  -0.5558
  Cl  Cl546  1  0.757100  0.027700  0.981500  1.0  -0.556
  Cl  Cl547  1  0.261400  0.981500  0.472300  1.0  -0.556
  Cl  Cl548  1  0.784800  0.481500  0.972300  1.0  -0.5553
  O  O549  1  0.201900  0.399700  0.475100  1.0  -0.5702
  O  O550  1  0.827600  0.781500  0.109300  1.0  -0.5479
  O  O551  1  0.936900  0.890700  0.281500  1.0  -0.5488
  O  O552  1  0.576700  0.100300  0.024900  1.0  -0.5715
  O  O553  1  0.781600  0.281500  0.609300  1.0  -0.5507
  O  O554  1  0.279800  0.623000  0.721000  1.0  -0.4622
  O  O555  1  0.063400  0.478100  0.327300  1.0  -0.538
  O  O556  1  0.398400  0.024900  0.399700  1.0  -0.5723
  O  O557  1  0.601600  0.975100  0.600300  1.0  -0.5715
  O  O558  1  0.368800  0.021900  0.172700  1.0  -0.54
  O  O559  1  0.677000  0.524900  0.899700  1.0  -0.5733
  O  O560  1  0.097200  0.779000  0.623000  1.0  -0.4629
  O  O561  1  0.631200  0.978100  0.827300  1.0  -0.5381
  O  O562  1  0.936600  0.521900  0.672700  1.0  -0.5402
  O  O563  1  0.423300  0.899700  0.975100  1.0  -0.5694
  O  O564  1  0.063100  0.109300  0.718500  1.0  -0.5492
  O  O565  1  0.123800  0.877000  0.779000  1.0  -0.4613
  O  O566  1  0.458500  0.172700  0.478100  1.0  -0.5381
  O  O567  1  0.609300  0.327300  0.021900  1.0  -0.5383
  O  O568  1  0.323000  0.475100  0.100300  1.0  -0.571
  O  O569  1  0.798100  0.600300  0.524900  1.0  -0.5718
  O  O570  1  0.390900  0.390700  0.781500  1.0  -0.5495
  O  O571  1  0.541500  0.827300  0.521900  1.0  -0.5368
  O  O572  1  0.720200  0.377000  0.279000  1.0  -0.4624
  O  O573  1  0.876200  0.123000  0.221000  1.0  -0.4621
  O  O574  1  0.609100  0.609300  0.218500  1.0  -0.548
  O  O575  1  0.218400  0.718500  0.390700  1.0  -0.5482
  O  O576  1  0.902800  0.221000  0.377000  1.0  -0.4637
  O  O577  1  0.390700  0.672700  0.978100  1.0  -0.5374
  O  O578  1  0.172400  0.218500  0.890700  1.0  -0.5482
  O  O579  1  0.999200  0.721000  0.877000  1.0  -0.462
  O  O580  1  0.000800  0.279000  0.123000  1.0  -0.4619
