# generated using pymatgen
data_Dy2H42(C23O6)3
_symmetry_space_group_name_H-M   'P 1'
_cell_length_a   19.12370000
_cell_length_b   14.46030000
_cell_length_c   30.62470000
_cell_angle_alpha   90.00000000
_cell_angle_beta   90.00000000
_cell_angle_gamma   90.00000000
_symmetry_Int_Tables_number   1
_chemical_formula_structural   Dy2H42(C23O6)3
_chemical_formula_sum   'Dy8 H168 C276 O72'
_cell_volume   8468.78423741
_cell_formula_units_Z   4
loop_
 _symmetry_equiv_pos_site_id
 _symmetry_equiv_pos_as_xyz
  1  'x, y, z'
loop_
 _atom_site_type_symbol
 _atom_site_label
 _atom_site_symmetry_multiplicity
 _atom_site_fract_x
 _atom_site_fract_y
 _atom_site_fract_z
 _atom_site_occupancy
 _atom_site_charge
  Dy  Dy1  1  0.358920  0.537130  0.536610  1.0  2.2827
  Dy  Dy2  1  0.313810  0.474680  0.412360  1.0  2.2758
  Dy  Dy3  1  0.641080  0.462870  0.036610  1.0  2.2817
  Dy  Dy4  1  0.686190  0.525320  0.912360  1.0  2.2757
  Dy  Dy5  1  0.858920  0.962870  0.536610  1.0  2.2813
  Dy  Dy6  1  0.813810  0.025320  0.412360  1.0  2.2761
  Dy  Dy7  1  0.141080  0.037130  0.036610  1.0  2.2812
  Dy  Dy8  1  0.186190  0.974680  0.912360  1.0  2.2764
  H  H9  1  0.400800  0.777100  0.512600  1.0  0.3575
  H  H10  1  0.601600  0.988300  0.425900  1.0  0.379
  H  H11  1  0.242300  0.226000  0.435300  1.0  0.4469
  H  H12  1  0.071700  0.012900  0.520100  1.0  0.3997
  H  H13  1  0.295700  0.641700  0.330400  1.0  0.3819
  H  H14  1  0.250000  0.956900  0.150500  1.0  0.384
  H  H15  1  0.370700  0.755500  0.371500  1.0  0.0912
  H  H16  1  0.383700  0.863100  0.310500  1.0  0.1085
  H  H17  1  0.401700  0.010000  0.285800  1.0  0.117
  H  H18  1  0.422700  0.129400  0.335400  1.0  0.1078
  H  H19  1  0.437000  0.100100  0.407900  1.0  0.1234
  H  H20  1  0.438400  0.070400  0.472100  1.0  0.1125
  H  H21  1  0.405200  0.007900  0.508200  1.0  0.112
  H  H22  1  0.417300  0.019300  0.572700  1.0  0.1273
  H  H23  1  0.436100  0.034600  0.644600  1.0  0.1031
  H  H24  1  0.547200  0.028500  0.674400  1.0  0.1246
  H  H25  1  0.640400  0.004600  0.630300  1.0  0.1018
  H  H26  1  0.689900  0.987200  0.557400  1.0  0.1081
  H  H27  1  0.310400  0.258200  0.574600  1.0  0.096
  H  H28  1  0.305000  0.151300  0.635400  1.0  0.1147
  H  H29  1  0.287600  0.006000  0.662100  1.0  0.1148
  H  H30  1  0.261100  0.884800  0.614100  1.0  0.103
  H  H31  1  0.240900  0.911800  0.543900  1.0  0.1232
  H  H32  1  0.236000  0.937900  0.478500  1.0  0.1315
  H  H33  1  0.271900  0.997000  0.442200  1.0  0.1113
  H  H34  1  0.263200  0.006300  0.376600  1.0  0.1082
  H  H35  1  0.249700  0.982800  0.303700  1.0  0.0996
  H  H36  1  0.139000  0.975700  0.271800  1.0  0.1244
  H  H37  1  0.042300  0.988300  0.315900  1.0  0.1027
  H  H38  1  0.989200  0.005600  0.386700  1.0  0.1083
  H  H39  1  0.401800  0.487600  0.227600  1.0  0.1093
  H  H40  1  0.424500  0.518000  0.149100  1.0  0.1187
  H  H41  1  0.415800  0.614800  0.089600  1.0  0.1305
  H  H42  1  0.365800  0.757100  0.097700  1.0  0.0995
  H  H43  1  0.320400  0.807700  0.162200  1.0  0.1133
  H  H44  1  0.260600  0.813900  0.273700  1.0  0.1173
  H  H45  1  0.302500  0.856800  0.234800  1.0  0.118
  H  H46  1  0.179700  0.695700  0.282300  1.0  0.1001
  H  H47  1  0.082100  0.608900  0.296400  1.0  0.1069
  H  H48  1  0.984000  0.621800  0.253200  1.0  0.1077
  H  H49  1  0.985200  0.717200  0.193800  1.0  0.0941
  H  H50  1  0.043500  0.829200  0.146700  1.0  0.1041
  H  H51  1  0.599200  0.222900  0.012600  1.0  0.3564
  H  H52  1  0.398400  0.011700  0.925900  1.0  0.3811
  H  H53  1  0.757700  0.774000  0.935300  1.0  0.4483
  H  H54  1  0.928300  0.987100  0.020100  1.0  0.4
  H  H55  1  0.704300  0.358300  0.830400  1.0  0.381
  H  H56  1  0.750000  0.043100  0.650500  1.0  0.3848
  H  H57  1  0.629300  0.244500  0.871500  1.0  0.0911
  H  H58  1  0.616300  0.136900  0.810500  1.0  0.1085
  H  H59  1  0.598300  0.990000  0.785800  1.0  0.1176
  H  H60  1  0.577300  0.870600  0.835400  1.0  0.1075
  H  H61  1  0.563000  0.899900  0.907900  1.0  0.1221
  H  H62  1  0.561600  0.929600  0.972100  1.0  0.11
  H  H63  1  0.594800  0.992100  0.008200  1.0  0.1122
  H  H64  1  0.582700  0.980700  0.072700  1.0  0.1279
  H  H65  1  0.563900  0.965400  0.144600  1.0  0.1023
  H  H66  1  0.452800  0.971500  0.174400  1.0  0.124
  H  H67  1  0.359600  0.995400  0.130300  1.0  0.1008
  H  H68  1  0.310100  0.012800  0.057400  1.0  0.1081
  H  H69  1  0.689600  0.741800  0.074600  1.0  0.0956
  H  H70  1  0.695000  0.848700  0.135400  1.0  0.1151
  H  H71  1  0.712400  0.994000  0.162100  1.0  0.1184
  H  H72  1  0.738900  0.115200  0.114100  1.0  0.1017
  H  H73  1  0.759100  0.088200  0.043900  1.0  0.1222
  H  H74  1  0.764000  0.062100  0.978500  1.0  0.1299
  H  H75  1  0.728100  0.003000  0.942200  1.0  0.1108
  H  H76  1  0.736800  0.993700  0.876600  1.0  0.107
  H  H77  1  0.750300  0.017200  0.803700  1.0  0.0997
  H  H78  1  0.861000  0.024300  0.771800  1.0  0.1238
  H  H79  1  0.957700  0.011700  0.815900  1.0  0.1027
  H  H80  1  0.010800  0.994400  0.886700  1.0  0.1084
  H  H81  1  0.598200  0.512400  0.727600  1.0  0.1098
  H  H82  1  0.575500  0.482000  0.649100  1.0  0.1194
  H  H83  1  0.584200  0.385200  0.589600  1.0  0.1306
  H  H84  1  0.634200  0.242900  0.597700  1.0  0.0995
  H  H85  1  0.679600  0.192300  0.662200  1.0  0.1133
  H  H86  1  0.739400  0.186100  0.773700  1.0  0.1162
  H  H87  1  0.697500  0.143200  0.734800  1.0  0.1193
  H  H88  1  0.820300  0.304300  0.782300  1.0  0.0994
  H  H89  1  0.917900  0.391100  0.796400  1.0  0.107
  H  H90  1  0.016000  0.378200  0.753200  1.0  0.1071
  H  H91  1  0.014800  0.282800  0.693800  1.0  0.0942
  H  H92  1  0.956500  0.170800  0.646700  1.0  0.1036
  H  H93  1  0.900800  0.722900  0.512600  1.0  0.3582
  H  H94  1  0.101600  0.511700  0.425900  1.0  0.3788
  H  H95  1  0.742300  0.274000  0.435300  1.0  0.4477
  H  H96  1  0.571700  0.487100  0.520100  1.0  0.3997
  H  H97  1  0.795700  0.858300  0.330400  1.0  0.3814
  H  H98  1  0.750000  0.543100  0.150500  1.0  0.3846
  H  H99  1  0.870700  0.744500  0.371500  1.0  0.0915
  H  H100  1  0.883700  0.636900  0.310500  1.0  0.1089
  H  H101  1  0.901700  0.490000  0.285800  1.0  0.1175
  H  H102  1  0.922700  0.370600  0.335400  1.0  0.107
  H  H103  1  0.937000  0.399900  0.407900  1.0  0.1229
  H  H104  1  0.938400  0.429600  0.472100  1.0  0.1106
  H  H105  1  0.905200  0.492100  0.508200  1.0  0.1117
  H  H106  1  0.917300  0.480700  0.572700  1.0  0.1276
  H  H107  1  0.936100  0.465400  0.644600  1.0  0.1026
  H  H108  1  0.047200  0.471500  0.674400  1.0  0.1241
  H  H109  1  0.140400  0.495400  0.630300  1.0  0.1015
  H  H110  1  0.189900  0.512800  0.557400  1.0  0.1082
  H  H111  1  0.810400  0.241800  0.574600  1.0  0.096
  H  H112  1  0.805000  0.348700  0.635400  1.0  0.1154
  H  H113  1  0.787600  0.494000  0.662100  1.0  0.1146
  H  H114  1  0.761100  0.615200  0.614100  1.0  0.1027
  H  H115  1  0.740900  0.588200  0.543900  1.0  0.1223
  H  H116  1  0.736000  0.562100  0.478500  1.0  0.1316
  H  H117  1  0.771900  0.503000  0.442200  1.0  0.1112
  H  H118  1  0.763200  0.493700  0.376600  1.0  0.1081
  H  H119  1  0.749700  0.517200  0.303700  1.0  0.0997
  H  H120  1  0.639000  0.524300  0.271800  1.0  0.1246
  H  H121  1  0.542300  0.511700  0.315900  1.0  0.1028
  H  H122  1  0.489200  0.494400  0.386700  1.0  0.1082
  H  H123  1  0.901800  0.012400  0.227600  1.0  0.1093
  H  H124  1  0.924500  0.982000  0.149100  1.0  0.119
  H  H125  1  0.915800  0.885200  0.089600  1.0  0.1304
  H  H126  1  0.865800  0.742900  0.097700  1.0  0.0996
  H  H127  1  0.820400  0.692300  0.162200  1.0  0.113
  H  H128  1  0.760600  0.686100  0.273700  1.0  0.1171
  H  H129  1  0.802500  0.643200  0.234800  1.0  0.1186
  H  H130  1  0.679700  0.804300  0.282300  1.0  0.1002
  H  H131  1  0.582100  0.891100  0.296400  1.0  0.1068
  H  H132  1  0.484000  0.878200  0.253200  1.0  0.1072
  H  H133  1  0.485200  0.782800  0.193800  1.0  0.0943
  H  H134  1  0.543500  0.670800  0.146700  1.0  0.1031
  H  H135  1  0.099200  0.277100  0.012600  1.0  0.3566
  H  H136  1  0.898400  0.488300  0.925900  1.0  0.3812
  H  H137  1  0.257700  0.726000  0.935300  1.0  0.4462
  H  H138  1  0.428300  0.512900  0.020100  1.0  0.4004
  H  H139  1  0.204300  0.141700  0.830400  1.0  0.3815
  H  H140  1  0.250000  0.456900  0.650500  1.0  0.3843
  H  H141  1  0.129300  0.255500  0.871500  1.0  0.0909
  H  H142  1  0.116300  0.363100  0.810500  1.0  0.1081
  H  H143  1  0.098300  0.510000  0.785800  1.0  0.117
  H  H144  1  0.077300  0.629400  0.835400  1.0  0.1081
  H  H145  1  0.063000  0.600100  0.907900  1.0  0.1229
  H  H146  1  0.061600  0.570400  0.972100  1.0  0.113
  H  H147  1  0.094800  0.507900  0.008200  1.0  0.1123
  H  H148  1  0.082700  0.519300  0.072700  1.0  0.128
  H  H149  1  0.063900  0.534600  0.144600  1.0  0.1028
  H  H150  1  0.952800  0.528500  0.174400  1.0  0.1245
  H  H151  1  0.859600  0.504600  0.130300  1.0  0.1017
  H  H152  1  0.810100  0.487200  0.057400  1.0  0.1082
  H  H153  1  0.189600  0.758200  0.074600  1.0  0.096
  H  H154  1  0.195000  0.651300  0.135400  1.0  0.1147
  H  H155  1  0.212400  0.506000  0.162100  1.0  0.1184
  H  H156  1  0.238900  0.384800  0.114100  1.0  0.1015
  H  H157  1  0.259100  0.411800  0.043900  1.0  0.123
  H  H158  1  0.264000  0.437900  0.978500  1.0  0.1303
  H  H159  1  0.228100  0.497000  0.942200  1.0  0.1104
  H  H160  1  0.236800  0.506300  0.876600  1.0  0.1076
  H  H161  1  0.250300  0.482800  0.803700  1.0  0.0998
  H  H162  1  0.361000  0.475700  0.771800  1.0  0.1238
  H  H163  1  0.457700  0.488300  0.815900  1.0  0.1024
  H  H164  1  0.510800  0.505600  0.886700  1.0  0.1082
  H  H165  1  0.098200  0.987600  0.727600  1.0  0.109
  H  H166  1  0.075500  0.018000  0.649100  1.0  0.1185
  H  H167  1  0.084200  0.114800  0.589600  1.0  0.1305
  H  H168  1  0.134200  0.257100  0.597700  1.0  0.0996
  H  H169  1  0.179600  0.307700  0.662200  1.0  0.1135
  H  H170  1  0.239400  0.313900  0.773700  1.0  0.1166
  H  H171  1  0.197500  0.356800  0.734800  1.0  0.119
  H  H172  1  0.320300  0.195700  0.782300  1.0  0.0989
  H  H173  1  0.417900  0.108900  0.796400  1.0  0.1051
  H  H174  1  0.516000  0.121800  0.753200  1.0  0.1076
  H  H175  1  0.514800  0.217200  0.693800  1.0  0.0941
  H  H176  1  0.456500  0.329200  0.646700  1.0  0.1041
  C  C177  1  0.405300  0.849000  0.464190  1.0  0.2628
  C  C178  1  0.384600  0.780100  0.434120  1.0  -0.1412
  C  C179  1  0.382500  0.801500  0.391370  1.0  -0.0594
  C  C180  1  0.397500  0.890300  0.375730  1.0  0.0118
  C  C181  1  0.393500  0.910300  0.330200  1.0  -0.2012
  C  C182  1  0.403900  0.997400  0.315550  1.0  -0.1009
  C  C183  1  0.418100  0.069100  0.345600  1.0  -0.0794
  C  C184  1  0.425300  0.052100  0.389060  1.0  -0.1711
  C  C185  1  0.414930  0.960300  0.406030  1.0  0.0136
  C  C186  1  0.421170  0.938100  0.450990  1.0  0.0108
  C  C187  1  0.440500  0.009600  0.485470  1.0  -0.212
  C  C188  1  0.511000  0.998900  0.506690  1.0  0.0233
  C  C189  1  0.519900  0.006500  0.553310  1.0  -0.025
  C  C190  1  0.462800  0.017700  0.583270  1.0  -0.1651
  C  C191  1  0.474200  0.025900  0.626100  1.0  -0.0936
  C  C192  1  0.541000  0.022100  0.644400  1.0  -0.1578
  C  C193  1  0.596000  0.009100  0.618110  1.0  -0.1129
  C  C194  1  0.588300  0.001800  0.571800  1.0  0.0157
  C  C195  1  0.645600  0.990600  0.544960  1.0  -0.0954
  C  C196  1  0.639200  0.984400  0.500220  1.0  -0.2
  C  C197  1  0.570900  0.992900  0.481500  1.0  0.205
  C  C198  1  0.365800  0.683700  0.448980  1.0  0.7369
  C  C199  1  0.702400  0.976700  0.472780  1.0  0.6884
  C  C200  1  0.267500  0.158700  0.482550  1.0  0.1444
  C  C201  1  0.289500  0.230900  0.512720  1.0  -0.169
  C  C202  1  0.296700  0.211400  0.555620  1.0  -0.0816
  C  C203  1  0.283900  0.121500  0.572550  1.0  -0.0272
  C  C204  1  0.292500  0.103600  0.616590  1.0  -0.1487
  C  C205  1  0.282700  0.017600  0.632300  1.0  -0.1063
  C  C206  1  0.265100  0.944800  0.603400  1.0  -0.1162
  C  C207  1  0.254500  0.960600  0.561700  1.0  -0.1412
  C  C208  1  0.262900  0.050700  0.542710  1.0  -0.0056
  C  C209  1  0.253600  0.070300  0.497520  1.0  -0.0071
  C  C210  1  0.235200  0.997600  0.464060  1.0  -0.2606
  C  C211  1  0.165700  0.006700  0.440550  1.0  0.0007
  C  C212  1  0.159300  0.003200  0.394250  1.0  -0.0253
  C  C213  1  0.218400  0.000000  0.365200  1.0  -0.1598
  C  C214  1  0.210200  0.987900  0.321200  1.0  -0.098
  C  C215  1  0.143900  0.983100  0.301800  1.0  -0.1542
  C  C216  1  0.086600  0.989800  0.328400  1.0  -0.0832
  C  C217  1  0.092300  0.998800  0.373950  1.0  0.0279
  C  C218  1  0.033000  0.004700  0.400010  1.0  -0.0791
  C  C219  1  0.036900  0.009200  0.444660  1.0  -0.2277
  C  C220  1  0.103000  0.007400  0.464620  1.0  0.2564
  C  C221  1  0.305900  0.327700  0.497270  1.0  0.6884
  C  C222  1  0.971600  0.009600  0.471240  1.0  0.7253
  C  C223  1  0.319700  0.657200  0.273170  1.0  0.1962
  C  C224  1  0.354200  0.570000  0.269450  1.0  -0.177
  C  C225  1  0.379900  0.544800  0.230140  1.0  -0.0827
  C  C226  1  0.374800  0.601200  0.193050  1.0  0.0334
  C  C227  1  0.402700  0.575200  0.152070  1.0  -0.091
  C  C228  1  0.398300  0.632900  0.116620  1.0  -0.1869
  C  C229  1  0.367600  0.718000  0.121810  1.0  -0.111
  C  C230  1  0.339600  0.748700  0.160200  1.0  -0.1705
  C  C231  1  0.340300  0.688000  0.197590  1.0  0.0078
  C  C232  1  0.311700  0.716100  0.237550  1.0  0.0054
  C  C233  1  0.271700  0.806300  0.242980  1.0  -0.1791
  C  C234  1  0.204500  0.815500  0.216920  1.0  -0.0123
  C  C235  1  0.144800  0.759200  0.227080  1.0  0.0443
  C  C236  1  0.141400  0.700100  0.263750  1.0  -0.1277
  C  C237  1  0.082400  0.648800  0.272560  1.0  -0.1017
  C  C238  1  0.023900  0.655800  0.246600  1.0  -0.1421
  C  C239  1  0.024800  0.712800  0.211300  1.0  -0.1097
  C  C240  1  0.083800  0.764800  0.200620  1.0  0.0233
  C  C241  1  0.082700  0.826600  0.164590  1.0  -0.0942
  C  C242  1  0.138900  0.882400  0.155940  1.0  -0.2407
  C  C243  1  0.199100  0.878600  0.183460  1.0  0.2104
  C  C244  1  0.364900  0.504800  0.307470  1.0  0.7
  C  C245  1  0.136300  0.943000  0.116680  1.0  0.6729
  C  C246  1  0.594700  0.151000  0.964190  1.0  0.2636
  C  C247  1  0.615400  0.219900  0.934120  1.0  -0.1401
  C  C248  1  0.617500  0.198500  0.891370  1.0  -0.0578
  C  C249  1  0.602500  0.109700  0.875730  1.0  0.0112
  C  C250  1  0.606500  0.089700  0.830200  1.0  -0.2016
  C  C251  1  0.596100  0.002600  0.815550  1.0  -0.0998
  C  C252  1  0.581900  0.930900  0.845600  1.0  -0.0872
  C  C253  1  0.574700  0.947900  0.889060  1.0  -0.1742
  C  C254  1  0.585070  0.039700  0.906030  1.0  0.012
  C  C255  1  0.578830  0.061900  0.950990  1.0  0.0123
  C  C256  1  0.559500  0.990400  0.985470  1.0  -0.2127
  C  C257  1  0.489000  0.001100  0.006690  1.0  0.0217
  C  C258  1  0.480100  0.993500  0.053310  1.0  -0.0243
  C  C259  1  0.537200  0.982300  0.083270  1.0  -0.1632
  C  C260  1  0.525800  0.974100  0.126100  1.0  -0.0917
  C  C261  1  0.459000  0.977900  0.144400  1.0  -0.1592
  C  C262  1  0.404000  0.990900  0.118110  1.0  -0.1166
  C  C263  1  0.411700  0.998200  0.071800  1.0  0.0149
  C  C264  1  0.354400  0.009400  0.044960  1.0  -0.0951
  C  C265  1  0.360800  0.015600  0.000220  1.0  -0.1991
  C  C266  1  0.429100  0.007100  0.981500  1.0  0.2059
  C  C267  1  0.634200  0.316300  0.948980  1.0  0.736
  C  C268  1  0.297600  0.023300  0.972780  1.0  0.6911
  C  C269  1  0.732500  0.841300  0.982550  1.0  0.1526
  C  C270  1  0.710500  0.769100  0.012720  1.0  -0.1684
  C  C271  1  0.703300  0.788600  0.055620  1.0  -0.0786
  C  C272  1  0.716100  0.878500  0.072550  1.0  -0.027
  C  C273  1  0.707500  0.896400  0.116590  1.0  -0.1497
  C  C274  1  0.717300  0.982400  0.132300  1.0  -0.1068
  C  C275  1  0.734900  0.055200  0.103400  1.0  -0.1123
  C  C276  1  0.745500  0.039400  0.061700  1.0  -0.1348
  C  C277  1  0.737100  0.949300  0.042710  1.0  -0.0058
  C  C278  1  0.746400  0.929700  0.997520  1.0  -0.0065
  C  C279  1  0.764800  0.002400  0.964060  1.0  -0.262
  C  C280  1  0.834300  0.993300  0.940550  1.0  0.0007
  C  C281  1  0.840700  0.996800  0.894250  1.0  -0.025
  C  C282  1  0.781600  0.000000  0.865200  1.0  -0.1601
  C  C283  1  0.789800  0.012100  0.821200  1.0  -0.0959
  C  C284  1  0.856100  0.016900  0.801800  1.0  -0.1523
  C  C285  1  0.913400  0.010200  0.828400  1.0  -0.0818
  C  C286  1  0.907700  0.001200  0.873950  1.0  0.0277
  C  C287  1  0.967000  0.995300  0.900010  1.0  -0.0764
  C  C288  1  0.963100  0.990800  0.944660  1.0  -0.2284
  C  C289  1  0.897000  0.992600  0.964620  1.0  0.2561
  C  C290  1  0.694100  0.672300  0.997270  1.0  0.689
  C  C291  1  0.028400  0.990400  0.971240  1.0  0.7255
  C  C292  1  0.680300  0.342800  0.773170  1.0  0.1962
  C  C293  1  0.645800  0.430000  0.769450  1.0  -0.1761
  C  C294  1  0.620100  0.455200  0.730140  1.0  -0.0777
  C  C295  1  0.625200  0.398800  0.693050  1.0  0.0289
  C  C296  1  0.597300  0.424800  0.652070  1.0  -0.0913
  C  C297  1  0.601700  0.367100  0.616620  1.0  -0.1888
  C  C298  1  0.632400  0.282000  0.621810  1.0  -0.1098
  C  C299  1  0.660400  0.251300  0.660200  1.0  -0.1697
  C  C300  1  0.659700  0.312000  0.697590  1.0  0.0069
  C  C301  1  0.688300  0.283900  0.737550  1.0  0.0053
  C  C302  1  0.728300  0.193700  0.742980  1.0  -0.1698
  C  C303  1  0.795500  0.184500  0.716920  1.0  -0.0122
  C  C304  1  0.855200  0.240800  0.727080  1.0  0.0433
  C  C305  1  0.858600  0.299900  0.763750  1.0  -0.1228
  C  C306  1  0.917600  0.351200  0.772560  1.0  -0.1
  C  C307  1  0.976100  0.344200  0.746600  1.0  -0.1424
  C  C308  1  0.975200  0.287200  0.711300  1.0  -0.1098
  C  C309  1  0.916200  0.235200  0.700620  1.0  0.025
  C  C310  1  0.917300  0.173400  0.664590  1.0  -0.0964
  C  C311  1  0.861100  0.117600  0.655940  1.0  -0.2406
  C  C312  1  0.800900  0.121400  0.683460  1.0  0.2088
  C  C313  1  0.635100  0.495200  0.807470  1.0  0.6977
  C  C314  1  0.863700  0.057000  0.616680  1.0  0.6737
  C  C315  1  0.905300  0.651000  0.464190  1.0  0.2631
  C  C316  1  0.884600  0.719900  0.434120  1.0  -0.1403
  C  C317  1  0.882500  0.698500  0.391370  1.0  -0.0589
  C  C318  1  0.897500  0.609700  0.375730  1.0  0.0112
  C  C319  1  0.893500  0.589700  0.330200  1.0  -0.2014
  C  C320  1  0.903900  0.502600  0.315550  1.0  -0.1008
  C  C321  1  0.918100  0.430900  0.345600  1.0  -0.0799
  C  C322  1  0.925300  0.447900  0.389060  1.0  -0.1738
  C  C323  1  0.914930  0.539700  0.406030  1.0  0.0132
  C  C324  1  0.921170  0.561900  0.450990  1.0  0.0112
  C  C325  1  0.940500  0.490400  0.485470  1.0  -0.2113
  C  C326  1  0.011000  0.501100  0.506690  1.0  0.023
  C  C327  1  0.019900  0.493500  0.553310  1.0  -0.0245
  C  C328  1  0.962800  0.482300  0.583270  1.0  -0.1651
  C  C329  1  0.974200  0.474100  0.626100  1.0  -0.0981
  C  C330  1  0.041000  0.477900  0.644400  1.0  -0.1577
  C  C331  1  0.096000  0.490900  0.618110  1.0  -0.1145
  C  C332  1  0.088300  0.498200  0.571800  1.0  0.0161
  C  C333  1  0.145600  0.509400  0.544960  1.0  -0.0948
  C  C334  1  0.139200  0.515600  0.500220  1.0  -0.1994
  C  C335  1  0.070900  0.507100  0.481500  1.0  0.2044
  C  C336  1  0.865800  0.816300  0.448980  1.0  0.7364
  C  C337  1  0.202400  0.523300  0.472780  1.0  0.6876
  C  C338  1  0.767500  0.341300  0.482550  1.0  0.1451
  C  C339  1  0.789500  0.269100  0.512720  1.0  -0.1687
  C  C340  1  0.796700  0.288600  0.555620  1.0  -0.0802
  C  C341  1  0.783900  0.378500  0.572550  1.0  -0.0271
  C  C342  1  0.792500  0.396400  0.616590  1.0  -0.1503
  C  C343  1  0.782700  0.482400  0.632300  1.0  -0.105
  C  C344  1  0.765100  0.555200  0.603400  1.0  -0.1138
  C  C345  1  0.754500  0.539400  0.561700  1.0  -0.1356
  C  C346  1  0.762900  0.449300  0.542710  1.0  -0.0062
  C  C347  1  0.753600  0.429700  0.497520  1.0  -0.0067
  C  C348  1  0.735200  0.502400  0.464060  1.0  -0.2603
  C  C349  1  0.665700  0.493300  0.440550  1.0  0.0006
  C  C350  1  0.659300  0.496800  0.394250  1.0  -0.0252
  C  C351  1  0.718400  0.500000  0.365200  1.0  -0.1607
  C  C352  1  0.710200  0.512100  0.321200  1.0  -0.0948
  C  C353  1  0.643900  0.516900  0.301800  1.0  -0.1537
  C  C354  1  0.586600  0.510200  0.328400  1.0  -0.0832
  C  C355  1  0.592300  0.501200  0.373950  1.0  0.0273
  C  C356  1  0.533000  0.495300  0.400010  1.0  -0.0791
  C  C357  1  0.536900  0.490800  0.444660  1.0  -0.2275
  C  C358  1  0.603000  0.492600  0.464620  1.0  0.2561
  C  C359  1  0.805900  0.172300  0.497270  1.0  0.6894
  C  C360  1  0.471600  0.490400  0.471240  1.0  0.7251
  C  C361  1  0.819700  0.842800  0.273170  1.0  0.1965
  C  C362  1  0.854200  0.930000  0.269450  1.0  -0.176
  C  C363  1  0.879900  0.955200  0.230140  1.0  -0.0835
  C  C364  1  0.874800  0.898800  0.193050  1.0  0.0326
  C  C365  1  0.902700  0.924800  0.152070  1.0  -0.0838
  C  C366  1  0.898300  0.867100  0.116620  1.0  -0.1849
  C  C367  1  0.867600  0.782000  0.121810  1.0  -0.1107
  C  C368  1  0.839600  0.751300  0.160200  1.0  -0.1698
  C  C369  1  0.840300  0.812000  0.197590  1.0  0.0084
  C  C370  1  0.811700  0.783900  0.237550  1.0  0.0063
  C  C371  1  0.771700  0.693700  0.242980  1.0  -0.1694
  C  C372  1  0.704500  0.684500  0.216920  1.0  -0.0127
  C  C373  1  0.644800  0.740800  0.227080  1.0  0.0445
  C  C374  1  0.641400  0.799900  0.263750  1.0  -0.1283
  C  C375  1  0.582400  0.851200  0.272560  1.0  -0.1006
  C  C376  1  0.523900  0.844200  0.246600  1.0  -0.1429
  C  C377  1  0.524800  0.787200  0.211300  1.0  -0.1092
  C  C378  1  0.583800  0.735200  0.200620  1.0  0.0231
  C  C379  1  0.582700  0.673400  0.164590  1.0  -0.0926
  C  C380  1  0.638900  0.617600  0.155940  1.0  -0.2413
  C  C381  1  0.699100  0.621400  0.183460  1.0  0.209
  C  C382  1  0.864900  0.995200  0.307470  1.0  0.7
  C  C383  1  0.636300  0.557000  0.116680  1.0  0.6742
  C  C384  1  0.094700  0.349000  0.964190  1.0  0.2658
  C  C385  1  0.115400  0.280100  0.934120  1.0  -0.141
  C  C386  1  0.117500  0.301500  0.891370  1.0  -0.0588
  C  C387  1  0.102500  0.390300  0.875730  1.0  0.0113
  C  C388  1  0.106500  0.410300  0.830200  1.0  -0.2011
  C  C389  1  0.096100  0.497400  0.815550  1.0  -0.1074
  C  C390  1  0.081900  0.569100  0.845600  1.0  -0.088
  C  C391  1  0.074700  0.552100  0.889060  1.0  -0.1716
  C  C392  1  0.085070  0.460300  0.906030  1.0  0.0121
  C  C393  1  0.078830  0.438100  0.950990  1.0  0.0123
  C  C394  1  0.059500  0.509600  0.985470  1.0  -0.209
  C  C395  1  0.989000  0.498900  0.006690  1.0  0.0218
  C  C396  1  0.980100  0.506500  0.053310  1.0  -0.0246
  C  C397  1  0.037200  0.517700  0.083270  1.0  -0.1642
  C  C398  1  0.025800  0.525900  0.126100  1.0  -0.0909
  C  C399  1  0.959000  0.522100  0.144400  1.0  -0.159
  C  C400  1  0.904000  0.509100  0.118110  1.0  -0.1133
  C  C401  1  0.911700  0.501800  0.071800  1.0  0.0147
  C  C402  1  0.854400  0.490600  0.044960  1.0  -0.0951
  C  C403  1  0.860800  0.484400  0.000220  1.0  -0.1995
  C  C404  1  0.929100  0.492900  0.981500  1.0  0.2043
  C  C405  1  0.134200  0.183700  0.948980  1.0  0.7369
  C  C406  1  0.797600  0.476700  0.972780  1.0  0.692
  C  C407  1  0.232500  0.658700  0.982550  1.0  0.1508
  C  C408  1  0.210500  0.730900  0.012720  1.0  -0.1687
  C  C409  1  0.203300  0.711400  0.055620  1.0  -0.0807
  C  C410  1  0.216100  0.621500  0.072550  1.0  -0.0272
  C  C411  1  0.207500  0.603600  0.116590  1.0  -0.1481
  C  C412  1  0.217300  0.517600  0.132300  1.0  -0.1076
  C  C413  1  0.234900  0.444800  0.103400  1.0  -0.1165
  C  C414  1  0.245500  0.460600  0.061700  1.0  -0.1341
  C  C415  1  0.237100  0.550700  0.042710  1.0  -0.0067
  C  C416  1  0.246400  0.570300  0.997520  1.0  -0.0068
  C  C417  1  0.264800  0.497600  0.964060  1.0  -0.261
  C  C418  1  0.334300  0.506700  0.940550  1.0  0.0008
  C  C419  1  0.340700  0.503200  0.894250  1.0  -0.0251
  C  C420  1  0.281600  0.500000  0.865200  1.0  -0.1604
  C  C421  1  0.289800  0.487900  0.821200  1.0  -0.1016
  C  C422  1  0.356100  0.483100  0.801800  1.0  -0.152
  C  C423  1  0.413400  0.489800  0.828400  1.0  -0.0824
  C  C424  1  0.407700  0.498800  0.873950  1.0  0.0279
  C  C425  1  0.467000  0.504700  0.900010  1.0  -0.0771
  C  C426  1  0.463100  0.509200  0.944660  1.0  -0.2285
  C  C427  1  0.397000  0.507400  0.964620  1.0  0.2564
  C  C428  1  0.194100  0.827700  0.997270  1.0  0.6883
  C  C429  1  0.528400  0.509600  0.971240  1.0  0.7334
  C  C430  1  0.180300  0.157200  0.773170  1.0  0.196
  C  C431  1  0.145800  0.070000  0.769450  1.0  -0.177
  C  C432  1  0.120100  0.044800  0.730140  1.0  -0.0782
  C  C433  1  0.125200  0.101200  0.693050  1.0  0.0307
  C  C434  1  0.097300  0.075200  0.652070  1.0  -0.0903
  C  C435  1  0.101700  0.132900  0.616620  1.0  -0.1878
  C  C436  1  0.132400  0.218000  0.621810  1.0  -0.1099
  C  C437  1  0.160400  0.248700  0.660200  1.0  -0.171
  C  C438  1  0.159700  0.188000  0.697590  1.0  0.0063
  C  C439  1  0.188300  0.216100  0.737550  1.0  0.0045
  C  C440  1  0.228300  0.306300  0.742980  1.0  -0.179
  C  C441  1  0.295500  0.315500  0.716920  1.0  -0.0126
  C  C442  1  0.355200  0.259200  0.727080  1.0  0.0434
  C  C443  1  0.358600  0.200100  0.763750  1.0  -0.1331
  C  C444  1  0.417600  0.148800  0.772560  1.0  -0.1009
  C  C445  1  0.476100  0.155800  0.746600  1.0  -0.1408
  C  C446  1  0.475200  0.212800  0.711300  1.0  -0.1104
  C  C447  1  0.416200  0.264800  0.700620  1.0  0.025
  C  C448  1  0.417300  0.326600  0.664590  1.0  -0.094
  C  C449  1  0.361100  0.382400  0.655940  1.0  -0.2408
  C  C450  1  0.300900  0.378600  0.683460  1.0  0.2102
  C  C451  1  0.135100  0.004800  0.807470  1.0  0.699
  C  C452  1  0.363700  0.443000  0.616680  1.0  0.6718
  O  O453  1  0.337000  0.631390  0.420850  1.0  -0.6584
  O  O454  1  0.379560  0.660300  0.487540  1.0  -0.6623
  O  O455  1  0.409750  0.831600  0.508000  1.0  -0.5018
  O  O456  1  0.762600  0.970600  0.489480  1.0  -0.8076
  O  O457  1  0.696960  0.980200  0.431300  1.0  -0.6949
  O  O458  1  0.563140  0.993400  0.437560  1.0  -0.4917
  O  O459  1  0.332010  0.381500  0.523310  1.0  -0.656
  O  O460  1  0.292650  0.346300  0.456660  1.0  -0.6215
  O  O461  1  0.261270  0.175800  0.438960  1.0  -0.5104
  O  O462  1  0.912960  0.019900  0.452960  1.0  -0.8091
  O  O463  1  0.975050  0.998400  0.511700  1.0  -0.6621
  O  O464  1  0.110050  0.005700  0.508710  1.0  -0.4936
  O  O465  1  0.392600  0.430500  0.301770  1.0  -0.4565
  O  O466  1  0.340200  0.532800  0.344550  1.0  -0.6881
  O  O467  1  0.294100  0.685100  0.313250  1.0  -0.5426
  O  O468  1  0.083060  0.946200  0.093730  1.0  -0.6418
  O  O469  1  0.190570  0.990500  0.106180  1.0  -0.6451
  O  O470  1  0.253020  0.936900  0.175510  1.0  -0.5433
  O  O471  1  0.663000  0.368610  0.920850  1.0  -0.6578
  O  O472  1  0.620440  0.339700  0.987540  1.0  -0.6621
  O  O473  1  0.590250  0.168400  0.008000  1.0  -0.5048
  O  O474  1  0.237400  0.029400  0.989480  1.0  -0.8066
  O  O475  1  0.303040  0.019800  0.931300  1.0  -0.6945
  O  O476  1  0.436860  0.006600  0.937560  1.0  -0.4936
  O  O477  1  0.667990  0.618500  0.023310  1.0  -0.6582
  O  O478  1  0.707350  0.653700  0.956660  1.0  -0.62
  O  O479  1  0.738730  0.824200  0.938960  1.0  -0.5048
  O  O480  1  0.087040  0.980100  0.952960  1.0  -0.8102
  O  O481  1  0.024950  0.001600  0.011700  1.0  -0.6621
  O  O482  1  0.889950  0.994300  0.008710  1.0  -0.4922
  O  O483  1  0.607400  0.569500  0.801770  1.0  -0.4565
  O  O484  1  0.659800  0.467200  0.844550  1.0  -0.6893
  O  O485  1  0.705900  0.314900  0.813250  1.0  -0.545
  O  O486  1  0.916940  0.053800  0.593730  1.0  -0.6396
  O  O487  1  0.809430  0.009500  0.606180  1.0  -0.649
  O  O488  1  0.746980  0.063100  0.675510  1.0  -0.5451
  O  O489  1  0.837000  0.868610  0.420850  1.0  -0.6579
  O  O490  1  0.879560  0.839700  0.487540  1.0  -0.6629
  O  O491  1  0.909750  0.668400  0.508000  1.0  -0.5033
  O  O492  1  0.262600  0.529400  0.489480  1.0  -0.8081
  O  O493  1  0.196960  0.519800  0.431300  1.0  -0.6948
  O  O494  1  0.063140  0.506600  0.437560  1.0  -0.492
  O  O495  1  0.832010  0.118500  0.523310  1.0  -0.6564
  O  O496  1  0.792650  0.153700  0.456660  1.0  -0.6216
  O  O497  1  0.761270  0.324200  0.438960  1.0  -0.5063
  O  O498  1  0.412960  0.480100  0.452960  1.0  -0.8098
  O  O499  1  0.475050  0.501600  0.511700  1.0  -0.6621
  O  O500  1  0.610050  0.494300  0.508710  1.0  -0.4941
  O  O501  1  0.892600  0.069500  0.301770  1.0  -0.4567
  O  O502  1  0.840200  0.967200  0.344550  1.0  -0.6887
  O  O503  1  0.794100  0.814900  0.313250  1.0  -0.5463
  O  O504  1  0.583060  0.553800  0.093730  1.0  -0.6384
  O  O505  1  0.690570  0.509500  0.106180  1.0  -0.6455
  O  O506  1  0.753020  0.563100  0.175510  1.0  -0.5447
  O  O507  1  0.163000  0.131390  0.920850  1.0  -0.6586
  O  O508  1  0.120440  0.160300  0.987540  1.0  -0.6614
  O  O509  1  0.090250  0.331600  0.008000  1.0  -0.5015
  O  O510  1  0.737400  0.470600  0.989480  1.0  -0.8066
  O  O511  1  0.803040  0.480200  0.931300  1.0  -0.6946
  O  O512  1  0.936860  0.493400  0.937560  1.0  -0.4934
  O  O513  1  0.167990  0.881500  0.023310  1.0  -0.6583
  O  O514  1  0.207350  0.846300  0.956660  1.0  -0.6194
  O  O515  1  0.238730  0.675800  0.938960  1.0  -0.5087
  O  O516  1  0.587040  0.519900  0.952960  1.0  -0.8099
  O  O517  1  0.524950  0.498400  0.011700  1.0  -0.6603
  O  O518  1  0.389950  0.505700  0.008710  1.0  -0.4927
  O  O519  1  0.107400  0.930500  0.801770  1.0  -0.4575
  O  O520  1  0.159800  0.032800  0.844550  1.0  -0.6886
  O  O521  1  0.205900  0.185100  0.813250  1.0  -0.5423
  O  O522  1  0.416940  0.446200  0.593730  1.0  -0.6423
  O  O523  1  0.309430  0.490500  0.606180  1.0  -0.6451
  O  O524  1  0.246980  0.436900  0.675510  1.0  -0.5442
