# generated using pymatgen
data_Zn5P5H17C18(NO4)5
_symmetry_space_group_name_H-M   'P 1'
_cell_length_a   5.12420000
_cell_length_b   25.06410000
_cell_length_c   27.18770000
_cell_angle_alpha   90.00000000
_cell_angle_beta   90.94000000
_cell_angle_gamma   90.00000000
_symmetry_Int_Tables_number   1
_chemical_formula_structural   Zn5P5H17C18(NO4)5
_chemical_formula_sum   'Zn20 P20 H68 C72 N20 O80'
_cell_volume   3491.34049639
_cell_formula_units_Z   4
loop_
 _symmetry_equiv_pos_site_id
 _symmetry_equiv_pos_as_xyz
  1  'x, y, z'
loop_
 _atom_site_type_symbol
 _atom_site_label
 _atom_site_symmetry_multiplicity
 _atom_site_fract_x
 _atom_site_fract_y
 _atom_site_fract_z
 _atom_site_occupancy
 _atom_site_charge
  Zn  Zn1  1  0.403630  0.287250  0.361190  1.0  0.9595
  Zn  Zn2  1  0.897100  0.108670  0.374890  1.0  1.0777
  Zn  Zn3  1  0.265540  0.060070  0.283230  1.0  1.0664
  Zn  Zn4  1  0.827790  0.960380  0.211560  1.0  1.1324
  Zn  Zn5  1  0.733190  0.000860  0.434410  1.0  1.0161
  Zn  Zn6  1  0.096370  0.787250  0.138810  1.0  0.9595
  Zn  Zn7  1  0.602900  0.608670  0.125110  1.0  1.0771
  Zn  Zn8  1  0.234460  0.560070  0.216770  1.0  1.0712
  Zn  Zn9  1  0.672210  0.460380  0.288440  1.0  1.1327
  Zn  Zn10  1  0.766810  0.500860  0.065590  1.0  1.0157
  Zn  Zn11  1  0.596370  0.712750  0.638810  1.0  0.9537
  Zn  Zn12  1  0.102900  0.891330  0.625110  1.0  1.0773
  Zn  Zn13  1  0.734460  0.939930  0.716770  1.0  1.069
  Zn  Zn14  1  0.172210  0.039620  0.788440  1.0  1.1329
  Zn  Zn15  1  0.266810  0.999140  0.565590  1.0  1.016
  Zn  Zn16  1  0.903630  0.212750  0.861190  1.0  0.9599
  Zn  Zn17  1  0.397100  0.391330  0.874890  1.0  1.078
  Zn  Zn18  1  0.765540  0.439930  0.783230  1.0  1.0664
  Zn  Zn19  1  0.327790  0.539620  0.711560  1.0  1.1325
  Zn  Zn20  1  0.233190  0.499140  0.934410  1.0  1.0163
  P  P21  1  0.391600  0.165110  0.341260  1.0  1.6914
  P  P22  1  0.303200  0.019810  0.175760  1.0  1.8285
  P  P23  1  0.581800  0.857010  0.161080  1.0  1.856
  P  P24  1  0.789200  0.000710  0.320350  1.0  1.7152
  P  P25  1  0.786800  0.936580  0.532350  1.0  1.7504
  P  P26  1  0.108400  0.665110  0.158740  1.0  1.6907
  P  P27  1  0.196800  0.519810  0.324240  1.0  1.8294
  P  P28  1  0.918200  0.357010  0.338920  1.0  1.8511
  P  P29  1  0.710800  0.500710  0.179650  1.0  1.7158
  P  P30  1  0.713200  0.436580  0.967650  1.0  1.7508
  P  P31  1  0.608400  0.834890  0.658740  1.0  1.6906
  P  P32  1  0.696800  0.980190  0.824240  1.0  1.8294
  P  P33  1  0.418200  0.142990  0.838920  1.0  1.851
  P  P34  1  0.210800  0.999290  0.679650  1.0  1.716
  P  P35  1  0.213200  0.063420  0.467650  1.0  1.7486
  P  P36  1  0.891600  0.334890  0.841260  1.0  1.6912
  P  P37  1  0.803200  0.480190  0.675760  1.0  1.8287
  P  P38  1  0.081800  0.642990  0.661080  1.0  1.8519
  P  P39  1  0.289200  0.499290  0.820350  1.0  1.7155
  P  P40  1  0.286800  0.563420  0.032350  1.0  1.7488
  H  H41  1  0.202100  0.070700  0.109600  1.0  0.4798
  H  H42  1  0.480800  0.916900  0.098300  1.0  0.3407
  H  H43  1  0.008300  0.205100  0.682300  1.0  0.3046
  H  H44  1  0.153900  0.345600  0.754100  1.0  0.2678
  H  H45  1  0.861800  0.071300  0.622000  1.0  0.3922
  H  H46  1  0.978900  0.233900  0.418500  1.0  0.0761
  H  H47  1  0.876100  0.213500  0.497200  1.0  0.1295
  H  H48  1  0.481900  0.299800  0.543700  1.0  0.1264
  H  H49  1  0.579000  0.316600  0.462200  1.0  0.0936
  H  H50  1  0.520900  0.344600  0.626100  1.0  0.1374
  H  H51  1  0.207200  0.380200  0.675900  1.0  0.1068
  H  H52  1  0.389700  0.279600  0.782300  1.0  0.1032
  H  H53  1  0.716500  0.242000  0.736200  1.0  0.1331
  H  H54  1  0.354400  0.157100  0.694300  1.0  0.1183
  H  H55  1  0.682900  0.094200  0.697200  1.0  0.1235
  H  H56  1  0.756300  0.102000  0.553800  1.0  0.1239
  H  H57  1  0.434000  0.165900  0.547800  1.0  0.1102
  H  H58  1  0.297900  0.570700  0.390400  1.0  0.4826
  H  H59  1  0.019200  0.416900  0.401700  1.0  0.3417
  H  H60  1  0.491700  0.705100  0.817700  1.0  0.306
  H  H61  1  0.346100  0.845600  0.745900  1.0  0.2678
  H  H62  1  0.638200  0.571300  0.878000  1.0  0.3919
  H  H63  1  0.521100  0.733900  0.081500  1.0  0.0763
  H  H64  1  0.623900  0.713500  0.002800  1.0  0.13
  H  H65  1  0.018100  0.799800  0.956300  1.0  0.1266
  H  H66  1  0.921000  0.816600  0.037800  1.0  0.0941
  H  H67  1  0.979100  0.844600  0.873900  1.0  0.1364
  H  H68  1  0.292800  0.880200  0.824100  1.0  0.1056
  H  H69  1  0.110300  0.779600  0.717700  1.0  0.1054
  H  H70  1  0.783500  0.742000  0.763800  1.0  0.1311
  H  H71  1  0.145600  0.657100  0.805700  1.0  0.1202
  H  H72  1  0.817100  0.594200  0.802800  1.0  0.1237
  H  H73  1  0.743700  0.602000  0.946200  1.0  0.1226
  H  H74  1  0.066000  0.665900  0.952200  1.0  0.1095
  H  H75  1  0.797900  0.929300  0.890400  1.0  0.4817
  H  H76  1  0.519200  0.083100  0.901700  1.0  0.3426
  H  H77  1  0.991700  0.794900  0.317700  1.0  0.3056
  H  H78  1  0.846100  0.654400  0.245900  1.0  0.2686
  H  H79  1  0.138200  0.928700  0.378000  1.0  0.3922
  H  H80  1  0.021100  0.766100  0.581500  1.0  0.0764
  H  H81  1  0.123900  0.786500  0.502800  1.0  0.1297
  H  H82  1  0.518100  0.700200  0.456300  1.0  0.1267
  H  H83  1  0.421000  0.683400  0.537800  1.0  0.0947
  H  H84  1  0.479100  0.655400  0.373900  1.0  0.1368
  H  H85  1  0.792800  0.619800  0.324100  1.0  0.1055
  H  H86  1  0.610300  0.720400  0.217700  1.0  0.1057
  H  H87  1  0.283500  0.758000  0.263800  1.0  0.1332
  H  H88  1  0.645600  0.842900  0.305700  1.0  0.1208
  H  H89  1  0.317100  0.905800  0.302800  1.0  0.1239
  H  H90  1  0.243700  0.898000  0.446200  1.0  0.1224
  H  H91  1  0.566000  0.834100  0.452200  1.0  0.1095
  H  H92  1  0.702100  0.429300  0.609600  1.0  0.4775
  H  H93  1  0.980800  0.583100  0.598300  1.0  0.341
  H  H94  1  0.508300  0.294900  0.182300  1.0  0.305
  H  H95  1  0.653900  0.154400  0.254100  1.0  0.267
  H  H96  1  0.361800  0.428700  0.122000  1.0  0.3915
  H  H97  1  0.478900  0.266100  0.918500  1.0  0.0764
  H  H98  1  0.376100  0.286500  0.997200  1.0  0.1294
  H  H99  1  0.981900  0.200200  0.043700  1.0  0.1266
  H  H100  1  0.079000  0.183400  0.962200  1.0  0.0952
  H  H101  1  0.020900  0.155400  0.126100  1.0  0.1376
  H  H102  1  0.707200  0.119800  0.175900  1.0  0.1061
  H  H103  1  0.889700  0.220400  0.282300  1.0  0.1043
  H  H104  1  0.216500  0.258000  0.236200  1.0  0.134
  H  H105  1  0.854400  0.342900  0.194300  1.0  0.1166
  H  H106  1  0.182900  0.405800  0.197200  1.0  0.1235
  H  H107  1  0.256300  0.398000  0.053800  1.0  0.1235
  H  H108  1  0.934000  0.334100  0.047800  1.0  0.1103
  C  C109  1  0.085200  0.246800  0.443900  1.0  0.1892
  C  C110  1  0.019500  0.235100  0.491100  1.0  -0.1671
  C  C111  1  0.165200  0.255300  0.529500  1.0  0.0528
  C  C112  1  0.377100  0.285700  0.518700  1.0  -0.1467
  C  C113  1  0.435300  0.295400  0.469300  1.0  0.1767
  C  C114  1  0.084700  0.246700  0.581000  1.0  -0.0124
  C  C115  1  0.852400  0.265100  0.644300  1.0  0.3832
  C  C116  1  0.163600  0.211800  0.619000  1.0  -0.0008
  C  C117  1  0.653800  0.288900  0.675600  1.0  -0.0016
  C  C118  1  0.496900  0.331100  0.657600  1.0  -0.0642
  C  C119  1  0.309500  0.351900  0.687200  1.0  0.0452
  C  C120  1  0.419100  0.292200  0.750600  1.0  0.0927
  C  C121  1  0.614000  0.269400  0.723400  1.0  -0.1465
  C  C122  1  0.362000  0.170600  0.620900  1.0  0.0511
  C  C123  1  0.436700  0.147100  0.665500  1.0  -0.1225
  C  C124  1  0.631400  0.109100  0.667200  1.0  0.0656
  C  C125  1  0.675100  0.113900  0.582100  1.0  0.0927
  C  C126  1  0.482900  0.152300  0.578500  1.0  -0.1287
  C  C127  1  0.414800  0.746800  0.056100  1.0  0.1878
  C  C128  1  0.480500  0.735100  0.008900  1.0  -0.1704
  C  C129  1  0.334800  0.755300  0.970500  1.0  0.0518
  C  C130  1  0.122900  0.785700  0.981300  1.0  -0.147
  C  C131  1  0.064700  0.795400  0.030700  1.0  0.1757
  C  C132  1  0.415300  0.746700  0.919000  1.0  -0.0135
  C  C133  1  0.647600  0.765100  0.855700  1.0  0.3812
  C  C134  1  0.336400  0.711800  0.881000  1.0  -0.004
  C  C135  1  0.846200  0.788900  0.824400  1.0  -0.0023
  C  C136  1  0.003100  0.831100  0.842400  1.0  -0.0637
  C  C137  1  0.190500  0.851900  0.812800  1.0  0.0492
  C  C138  1  0.080900  0.792200  0.749400  1.0  0.0916
  C  C139  1  0.886000  0.769400  0.776600  1.0  -0.1456
  C  C140  1  0.138000  0.670600  0.879100  1.0  0.0527
  C  C141  1  0.063300  0.647100  0.834500  1.0  -0.1221
  C  C142  1  0.868600  0.609100  0.832800  1.0  0.064
  C  C143  1  0.824900  0.613900  0.917900  1.0  0.0898
  C  C144  1  0.017100  0.652300  0.921500  1.0  -0.1299
  C  C145  1  0.914800  0.753200  0.556100  1.0  0.1877
  C  C146  1  0.980500  0.764900  0.508900  1.0  -0.1704
  C  C147  1  0.834800  0.744700  0.470500  1.0  0.046
  C  C148  1  0.622900  0.714300  0.481300  1.0  -0.1472
  C  C149  1  0.564700  0.704600  0.530700  1.0  0.1783
  C  C150  1  0.915300  0.753300  0.419000  1.0  -0.0138
  C  C151  1  0.147600  0.734900  0.355700  1.0  0.3819
  C  C152  1  0.836400  0.788200  0.381000  1.0  -0.0036
  C  C153  1  0.346200  0.711100  0.324400  1.0  -0.002
  C  C154  1  0.503100  0.668900  0.342400  1.0  -0.0638
  C  C155  1  0.690500  0.648100  0.312800  1.0  0.0467
  C  C156  1  0.580900  0.707800  0.249400  1.0  0.0923
  C  C157  1  0.386000  0.730600  0.276600  1.0  -0.1452
  C  C158  1  0.638000  0.829400  0.379100  1.0  0.0527
  C  C159  1  0.563300  0.852900  0.334500  1.0  -0.1222
  C  C160  1  0.368600  0.890900  0.332800  1.0  0.0633
  C  C161  1  0.324900  0.886100  0.417900  1.0  0.0897
  C  C162  1  0.517100  0.847700  0.421500  1.0  -0.1295
  C  C163  1  0.585200  0.253200  0.943900  1.0  0.1912
  C  C164  1  0.519500  0.264900  0.991100  1.0  -0.1678
  C  C165  1  0.665200  0.244700  0.029500  1.0  0.0521
  C  C166  1  0.877100  0.214300  0.018700  1.0  -0.1475
  C  C167  1  0.935300  0.204600  0.969300  1.0  0.1756
  C  C168  1  0.584700  0.253300  0.081000  1.0  -0.0133
  C  C169  1  0.352400  0.234900  0.144300  1.0  0.3806
  C  C170  1  0.663600  0.288200  0.119000  1.0  -0.0031
  C  C171  1  0.153800  0.211100  0.175600  1.0  -0.0013
  C  C172  1  0.996900  0.168900  0.157600  1.0  -0.0709
  C  C173  1  0.809500  0.148100  0.187200  1.0  0.0435
  C  C174  1  0.919100  0.207800  0.250600  1.0  0.0918
  C  C175  1  0.114000  0.230600  0.223400  1.0  -0.1456
  C  C176  1  0.862000  0.329400  0.120900  1.0  0.0505
  C  C177  1  0.936700  0.352900  0.165500  1.0  -0.1236
  C  C178  1  0.131400  0.390900  0.167200  1.0  0.065
  C  C179  1  0.175100  0.386100  0.082100  1.0  0.0911
  C  C180  1  0.982900  0.347700  0.078500  1.0  -0.1339
  N  N181  1  0.292700  0.275600  0.432100  1.0  -0.3139
  N  N182  1  0.893300  0.279800  0.597900  1.0  -0.4376
  N  N183  1  0.009000  0.224240  0.658360  1.0  -0.3253
  N  N184  1  0.271100  0.331800  0.732700  1.0  -0.1524
  N  N185  1  0.746000  0.093800  0.625700  1.0  -0.3671
  N  N186  1  0.207300  0.775600  0.067900  1.0  -0.3133
  N  N187  1  0.606700  0.779800  0.902100  1.0  -0.4296
  N  N188  1  0.491000  0.724240  0.841640  1.0  -0.3258
  N  N189  1  0.228900  0.831800  0.767300  1.0  -0.1507
  N  N190  1  0.754000  0.593800  0.874300  1.0  -0.3682
  N  N191  1  0.707300  0.724400  0.567900  1.0  -0.3128
  N  N192  1  0.106700  0.720200  0.402100  1.0  -0.4399
  N  N193  1  0.991000  0.775760  0.341640  1.0  -0.3258
  N  N194  1  0.728900  0.668200  0.267300  1.0  -0.1513
  N  N195  1  0.254000  0.906200  0.374300  1.0  -0.3688
  N  N196  1  0.792700  0.224400  0.932100  1.0  -0.3167
  N  N197  1  0.393300  0.220200  0.097900  1.0  -0.4393
  N  N198  1  0.509000  0.275760  0.158360  1.0  -0.3237
  N  N199  1  0.771100  0.168200  0.232700  1.0  -0.1523
  N  N200  1  0.246000  0.406200  0.125700  1.0  -0.3676
  O  O201  1  0.501100  0.220430  0.331390  1.0  -0.8202
  O  O202  1  0.411600  0.132060  0.293570  1.0  -0.8579
  O  O203  1  0.550800  0.136410  0.382560  1.0  -0.8118
  O  O204  1  0.109000  0.168120  0.357830  1.0  -0.8038
  O  O205  1  0.193100  0.057200  0.214010  1.0  -0.8195
  O  O206  1  0.263900  0.046700  0.123750  1.0  -0.7479
  O  O207  1  0.155400  0.966520  0.174790  1.0  -0.7935
  O  O208  1  0.595700  0.012090  0.181170  1.0  -0.8318
  O  O209  1  0.432800  0.896800  0.125500  1.0  -0.6035
  O  O210  1  0.795800  0.833250  0.130000  1.0  -0.83
  O  O211  1  0.388000  0.814990  0.178410  1.0  -0.7973
  O  O212  1  0.686900  0.887680  0.205390  1.0  -0.779
  O  O213  1  0.915700  0.966770  0.280880  1.0  -0.8188
  O  O214  1  0.835200  0.973310  0.370560  1.0  -0.7769
  O  O215  1  0.934800  0.056420  0.321120  1.0  -0.8814
  O  O216  1  0.500500  0.008900  0.312010  1.0  -0.8388
  O  O217  1  0.855200  0.946580  0.479320  1.0  -0.8306
  O  O218  1  0.647700  0.880500  0.534270  1.0  -0.6217
  O  O219  1  0.047300  0.931660  0.562980  1.0  -0.8999
  O  O220  1  0.622000  0.979580  0.555520  1.0  -0.8482
  O  O221  1  0.998900  0.720430  0.168610  1.0  -0.8204
  O  O222  1  0.088400  0.632060  0.206430  1.0  -0.8566
  O  O223  1  0.949200  0.636410  0.117440  1.0  -0.8112
  O  O224  1  0.391000  0.668120  0.142170  1.0  -0.8046
  O  O225  1  0.306900  0.557200  0.285990  1.0  -0.8209
  O  O226  1  0.236100  0.546700  0.376250  1.0  -0.7454
  O  O227  1  0.344600  0.466520  0.325210  1.0  -0.7933
  O  O228  1  0.904300  0.512090  0.318830  1.0  -0.8316
  O  O229  1  0.067200  0.396800  0.374500  1.0  -0.603
  O  O230  1  0.704200  0.333250  0.370000  1.0  -0.8297
  O  O231  1  0.112000  0.314990  0.321590  1.0  -0.799
  O  O232  1  0.813100  0.387680  0.294610  1.0  -0.779
  O  O233  1  0.584300  0.466770  0.219120  1.0  -0.8171
  O  O234  1  0.664800  0.473310  0.129440  1.0  -0.7768
  O  O235  1  0.565200  0.556420  0.178880  1.0  -0.8806
  O  O236  1  0.999500  0.508900  0.187990  1.0  -0.8401
  O  O237  1  0.644800  0.446580  0.020680  1.0  -0.8316
  O  O238  1  0.852300  0.380500  0.965730  1.0  -0.6217
  O  O239  1  0.452700  0.431660  0.937020  1.0  -0.8997
  O  O240  1  0.878000  0.479580  0.944480  1.0  -0.8471
  O  O241  1  0.498900  0.779570  0.668610  1.0  -0.8204
  O  O242  1  0.588400  0.867940  0.706430  1.0  -0.8568
  O  O243  1  0.449200  0.863590  0.617440  1.0  -0.8109
  O  O244  1  0.891000  0.831880  0.642170  1.0  -0.8043
  O  O245  1  0.806900  0.942800  0.785990  1.0  -0.8234
  O  O246  1  0.736100  0.953300  0.876250  1.0  -0.7437
  O  O247  1  0.844600  0.033480  0.825210  1.0  -0.7939
  O  O248  1  0.404300  0.987910  0.818830  1.0  -0.8318
  O  O249  1  0.567200  0.103200  0.874500  1.0  -0.6007
  O  O250  1  0.204200  0.166750  0.870000  1.0  -0.8304
  O  O251  1  0.612000  0.185010  0.821590  1.0  -0.7979
  O  O252  1  0.313100  0.112320  0.794610  1.0  -0.7787
  O  O253  1  0.084300  0.033230  0.719120  1.0  -0.8172
  O  O254  1  0.164800  0.026690  0.629440  1.0  -0.7763
  O  O255  1  0.065200  0.943580  0.678880  1.0  -0.8807
  O  O256  1  0.499500  0.991100  0.687990  1.0  -0.8405
  O  O257  1  0.144800  0.053420  0.520680  1.0  -0.8317
  O  O258  1  0.352300  0.119500  0.465730  1.0  -0.6206
  O  O259  1  0.952700  0.068340  0.437020  1.0  -0.8994
  O  O260  1  0.378000  0.020420  0.444480  1.0  -0.8472
  O  O261  1  0.001100  0.279570  0.831390  1.0  -0.8201
  O  O262  1  0.911600  0.367940  0.793570  1.0  -0.8571
  O  O263  1  0.050800  0.363590  0.882560  1.0  -0.8118
  O  O264  1  0.609000  0.331880  0.857830  1.0  -0.8038
  O  O265  1  0.693100  0.442800  0.714010  1.0  -0.8217
  O  O266  1  0.763900  0.453300  0.623750  1.0  -0.747
  O  O267  1  0.655400  0.533480  0.674790  1.0  -0.7937
  O  O268  1  0.095700  0.487910  0.681170  1.0  -0.8321
  O  O269  1  0.932800  0.603200  0.625500  1.0  -0.6025
  O  O270  1  0.295800  0.666750  0.630000  1.0  -0.8307
  O  O271  1  0.888000  0.685010  0.678410  1.0  -0.7959
  O  O272  1  0.186900  0.612320  0.705390  1.0  -0.7788
  O  O273  1  0.415700  0.533230  0.780880  1.0  -0.8185
  O  O274  1  0.335200  0.526690  0.870560  1.0  -0.7764
  O  O275  1  0.434800  0.443580  0.821120  1.0  -0.8814
  O  O276  1  0.000500  0.491100  0.812010  1.0  -0.8391
  O  O277  1  0.355200  0.553420  0.979320  1.0  -0.8311
  O  O278  1  0.147700  0.619500  0.034270  1.0  -0.6206
  O  O279  1  0.547300  0.568340  0.062980  1.0  -0.8996
  O  O280  1  0.122000  0.520420  0.055520  1.0  -0.8484
