# generated using pymatgen
data_Mn3H15(C15O8)2
_symmetry_space_group_name_H-M   'P 1'
_cell_length_a   28.10500000
_cell_length_b   28.10500000
_cell_length_c   14.59800000
_cell_angle_alpha   90.00000000
_cell_angle_beta   90.00000000
_cell_angle_gamma   120.00000000
_symmetry_Int_Tables_number   1
_chemical_formula_structural   Mn3H15(C15O8)2
_chemical_formula_sum   'Mn18 H90 C180 O96'
_cell_volume   9985.99099913
_cell_formula_units_Z   6
loop_
 _symmetry_equiv_pos_site_id
 _symmetry_equiv_pos_as_xyz
  1  'x, y, z'
loop_
 _atom_site_type_symbol
 _atom_site_label
 _atom_site_symmetry_multiplicity
 _atom_site_fract_x
 _atom_site_fract_y
 _atom_site_fract_z
 _atom_site_occupancy
 _atom_site_charge
  Mn  Mn1  1  0.311730  0.155860  0.025180  1.0  1.1343
  Mn  Mn2  1  0.451730  0.225860  0.932610  1.0  1.1353
  Mn  Mn3  1  0.421180  0.210590  0.186070  1.0  1.1359
  Mn  Mn4  1  0.844140  0.155870  0.025180  1.0  1.1363
  Mn  Mn5  1  0.774140  0.225870  0.932610  1.0  1.1365
  Mn  Mn6  1  0.789410  0.210590  0.186070  1.0  1.1338
  Mn  Mn7  1  0.844130  0.688270  0.025180  1.0  1.1355
  Mn  Mn8  1  0.774130  0.548270  0.932610  1.0  1.1368
  Mn  Mn9  1  0.789410  0.578820  0.186070  1.0  1.136
  Mn  Mn10  1  0.155860  0.311730  0.974820  1.0  1.1347
  Mn  Mn11  1  0.225860  0.451730  0.067390  1.0  1.1361
  Mn  Mn12  1  0.210590  0.421180  0.813930  1.0  1.1361
  Mn  Mn13  1  0.155870  0.844140  0.974820  1.0  1.1387
  Mn  Mn14  1  0.225870  0.774140  0.067390  1.0  1.1351
  Mn  Mn15  1  0.210590  0.789410  0.813930  1.0  1.1361
  Mn  Mn16  1  0.688270  0.844130  0.974820  1.0  1.1371
  Mn  Mn17  1  0.548270  0.774130  0.067390  1.0  1.135
  Mn  Mn18  1  0.578820  0.789410  0.813930  1.0  1.1359
  H  H19  1  0.413000  0.319800  0.745500  1.0  0.1364
  H  H20  1  0.312800  0.380100  0.690200  1.0  0.1384
  H  H21  1  0.273800  0.269300  0.887300  1.0  0.1084
  H  H22  1  0.386800  0.443900  0.630800  1.0  0.0717
  H  H23  1  0.369200  0.404100  0.545800  1.0  0.0765
  H  H24  1  0.457200  0.486700  0.715800  1.0  0.0917
  H  H25  1  0.364600  0.494900  0.775300  1.0  0.1348
  H  H26  1  0.680200  0.093200  0.745500  1.0  0.1377
  H  H27  1  0.619900  0.932700  0.690200  1.0  0.1352
  H  H28  1  0.730700  0.004500  0.887300  1.0  0.1084
  H  H29  1  0.556100  0.942900  0.630800  1.0  0.0709
  H  H30  1  0.595900  0.965100  0.545800  1.0  0.0767
  H  H31  1  0.513300  0.970500  0.715800  1.0  0.0911
  H  H32  1  0.505100  0.869700  0.775300  1.0  0.1344
  H  H33  1  0.906800  0.587000  0.745500  1.0  0.1368
  H  H34  1  0.067300  0.687200  0.690200  1.0  0.1369
  H  H35  1  0.995500  0.726200  0.887300  1.0  0.1079
  H  H36  1  0.057100  0.613200  0.630800  1.0  0.071
  H  H37  1  0.034900  0.630800  0.545800  1.0  0.0783
  H  H38  1  0.029500  0.542800  0.715800  1.0  0.091
  H  H39  1  0.130300  0.635400  0.775300  1.0  0.1352
  H  H40  1  0.319800  0.413000  0.254500  1.0  0.1375
  H  H41  1  0.380100  0.312800  0.309800  1.0  0.1375
  H  H42  1  0.269300  0.273800  0.112700  1.0  0.108
  H  H43  1  0.443900  0.386800  0.369200  1.0  0.0697
  H  H44  1  0.404100  0.369200  0.454200  1.0  0.0768
  H  H45  1  0.486700  0.457200  0.284200  1.0  0.0907
  H  H46  1  0.494900  0.364600  0.224700  1.0  0.1345
  H  H47  1  0.093200  0.680200  0.254500  1.0  0.1364
  H  H48  1  0.932700  0.619900  0.309800  1.0  0.1385
  H  H49  1  0.004500  0.730700  0.112700  1.0  0.1088
  H  H50  1  0.942900  0.556100  0.369200  1.0  0.0713
  H  H51  1  0.965100  0.595900  0.454200  1.0  0.0753
  H  H52  1  0.970500  0.513300  0.284200  1.0  0.0906
  H  H53  1  0.869700  0.505100  0.224700  1.0  0.1344
  H  H54  1  0.587000  0.906800  0.254500  1.0  0.1373
  H  H55  1  0.687200  0.067300  0.309800  1.0  0.1355
  H  H56  1  0.726200  0.995500  0.112700  1.0  0.109
  H  H57  1  0.613200  0.057100  0.369200  1.0  0.0704
  H  H58  1  0.630800  0.034900  0.454200  1.0  0.0755
  H  H59  1  0.542800  0.029500  0.284200  1.0  0.0904
  H  H60  1  0.635400  0.130300  0.224700  1.0  0.1337
  H  H61  1  0.587000  0.680200  0.254500  1.0  0.137
  H  H62  1  0.687200  0.619900  0.309800  1.0  0.1379
  H  H63  1  0.726200  0.730700  0.112700  1.0  0.1086
  H  H64  1  0.613200  0.556100  0.369200  1.0  0.0716
  H  H65  1  0.630800  0.595900  0.454200  1.0  0.0768
  H  H66  1  0.542800  0.513300  0.284200  1.0  0.0912
  H  H67  1  0.635400  0.505100  0.224700  1.0  0.1341
  H  H68  1  0.319800  0.906800  0.254500  1.0  0.1371
  H  H69  1  0.380100  0.067300  0.309800  1.0  0.1368
  H  H70  1  0.269300  0.995500  0.112700  1.0  0.1087
  H  H71  1  0.443900  0.057100  0.369200  1.0  0.0708
  H  H72  1  0.404100  0.034900  0.454200  1.0  0.0761
  H  H73  1  0.486700  0.029500  0.284200  1.0  0.0902
  H  H74  1  0.494900  0.130300  0.224700  1.0  0.1341
  H  H75  1  0.093200  0.413000  0.254500  1.0  0.1368
  H  H76  1  0.932700  0.312800  0.309800  1.0  0.1375
  H  H77  1  0.004500  0.273800  0.112700  1.0  0.1083
  H  H78  1  0.942900  0.386800  0.369200  1.0  0.0697
  H  H79  1  0.965100  0.369200  0.454200  1.0  0.0773
  H  H80  1  0.970500  0.457200  0.284200  1.0  0.0908
  H  H81  1  0.869700  0.364600  0.224700  1.0  0.1348
  H  H82  1  0.680200  0.587000  0.745500  1.0  0.1368
  H  H83  1  0.619900  0.687200  0.690200  1.0  0.1369
  H  H84  1  0.730700  0.726200  0.887300  1.0  0.1081
  H  H85  1  0.556100  0.613200  0.630800  1.0  0.0712
  H  H86  1  0.595900  0.630800  0.545800  1.0  0.0769
  H  H87  1  0.513300  0.542800  0.715800  1.0  0.0908
  H  H88  1  0.505100  0.635400  0.775300  1.0  0.1351
  H  H89  1  0.906800  0.319800  0.745500  1.0  0.1369
  H  H90  1  0.067300  0.380100  0.690200  1.0  0.138
  H  H91  1  0.995500  0.269300  0.887300  1.0  0.1083
  H  H92  1  0.057100  0.443900  0.630800  1.0  0.0721
  H  H93  1  0.034900  0.404100  0.545800  1.0  0.0761
  H  H94  1  0.029500  0.486700  0.715800  1.0  0.0918
  H  H95  1  0.130300  0.494900  0.775300  1.0  0.1347
  H  H96  1  0.413000  0.093200  0.745500  1.0  0.137
  H  H97  1  0.312800  0.932700  0.690200  1.0  0.1356
  H  H98  1  0.273800  0.004500  0.887300  1.0  0.1082
  H  H99  1  0.386800  0.942900  0.630800  1.0  0.071
  H  H100  1  0.369200  0.965100  0.545800  1.0  0.0753
  H  H101  1  0.457200  0.970500  0.715800  1.0  0.0906
  H  H102  1  0.364600  0.869700  0.775300  1.0  0.1344
  H  H103  1  0.402700  0.597300  0.988500  1.0  0.1328
  H  H104  1  0.402700  0.805400  0.988500  1.0  0.1335
  H  H105  1  0.194600  0.597300  0.988500  1.0  0.1324
  H  H106  1  0.597300  0.402700  0.011500  1.0  0.132
  H  H107  1  0.805400  0.402700  0.011500  1.0  0.1322
  H  H108  1  0.597300  0.194600  0.011500  1.0  0.133
  C  C109  1  0.359800  0.252400  0.876600  1.0  0.7462
  C  C110  1  0.345000  0.287700  0.824300  1.0  -0.1983
  C  C111  1  0.381000  0.320700  0.757000  1.0  -0.0746
  C  C112  1  0.368900  0.355600  0.706300  1.0  0.2882
  C  C113  1  0.321400  0.357300  0.723800  1.0  -0.1671
  C  C114  1  0.286700  0.323600  0.793200  1.0  -0.1332
  C  C115  1  0.297800  0.290800  0.841300  1.0  0.0328
  C  C116  1  0.235100  0.327500  0.813900  1.0  0.7538
  C  C117  1  0.397900  0.423700  0.590700  1.0  0.0661
  C  C118  1  0.452000  0.462800  0.543400  1.0  0.0104
  C  C119  1  0.388900  0.527800  0.804000  1.0  -0.0641
  C  C120  1  0.376400  0.541300  0.888500  1.0  -0.0835
  C  C121  1  0.319700  0.501800  0.932400  1.0  0.7039
  C  C122  1  0.747600  0.107400  0.876600  1.0  0.7471
  C  C123  1  0.712300  0.057300  0.824300  1.0  -0.198
  C  C124  1  0.679300  0.060300  0.757000  1.0  -0.0735
  C  C125  1  0.644400  0.013300  0.706300  1.0  0.29
  C  C126  1  0.642700  0.964100  0.723800  1.0  -0.1667
  C  C127  1  0.676400  0.963100  0.793200  1.0  -0.1303
  C  C128  1  0.709200  0.007000  0.841300  1.0  0.0342
  C  C129  1  0.672500  0.907600  0.813900  1.0  0.752
  C  C130  1  0.576300  0.974200  0.590700  1.0  0.0643
  C  C131  1  0.537200  0.989200  0.543400  1.0  0.0106
  C  C132  1  0.472200  0.861100  0.804000  1.0  -0.065
  C  C133  1  0.458700  0.835100  0.888500  1.0  -0.0821
  C  C134  1  0.498200  0.817900  0.932400  1.0  0.7022
  C  C135  1  0.892600  0.640200  0.876600  1.0  0.7452
  C  C136  1  0.942700  0.655000  0.824300  1.0  -0.1968
  C  C137  1  0.939700  0.619000  0.757000  1.0  -0.0724
  C  C138  1  0.986700  0.631100  0.706300  1.0  0.2897
  C  C139  1  0.035900  0.678600  0.723800  1.0  -0.1656
  C  C140  1  0.036900  0.713300  0.793200  1.0  -0.1296
  C  C141  1  0.993000  0.702200  0.841300  1.0  0.032
  C  C142  1  0.092400  0.764900  0.813900  1.0  0.7547
  C  C143  1  0.025800  0.602100  0.590700  1.0  0.0645
  C  C144  1  0.010800  0.548000  0.543400  1.0  0.0109
  C  C145  1  0.138900  0.611100  0.804000  1.0  -0.0671
  C  C146  1  0.164900  0.623600  0.888500  1.0  -0.0849
  C  C147  1  0.182100  0.680300  0.932400  1.0  0.7042
  C  C148  1  0.252400  0.359800  0.123400  1.0  0.7439
  C  C149  1  0.287700  0.345000  0.175700  1.0  -0.1965
  C  C150  1  0.320700  0.381000  0.243000  1.0  -0.0729
  C  C151  1  0.355600  0.368900  0.293700  1.0  0.2895
  C  C152  1  0.357300  0.321400  0.276200  1.0  -0.1661
  C  C153  1  0.323600  0.286700  0.206800  1.0  -0.1306
  C  C154  1  0.290800  0.297800  0.158700  1.0  0.0313
  C  C155  1  0.327500  0.235100  0.186100  1.0  0.7516
  C  C156  1  0.423700  0.397900  0.409300  1.0  0.0639
  C  C157  1  0.462800  0.452000  0.456600  1.0  0.0113
  C  C158  1  0.527800  0.388900  0.196000  1.0  -0.0656
  C  C159  1  0.541300  0.376400  0.111500  1.0  -0.0832
  C  C160  1  0.501800  0.319700  0.067600  1.0  0.7025
  C  C161  1  0.107400  0.747600  0.123400  1.0  0.7456
  C  C162  1  0.057300  0.712300  0.175700  1.0  -0.1979
  C  C163  1  0.060300  0.679300  0.243000  1.0  -0.0749
  C  C164  1  0.013300  0.644400  0.293700  1.0  0.288
  C  C165  1  0.964100  0.642700  0.276200  1.0  -0.1675
  C  C166  1  0.963100  0.676400  0.206800  1.0  -0.1319
  C  C167  1  0.007000  0.709200  0.158700  1.0  0.0323
  C  C168  1  0.907600  0.672500  0.186100  1.0  0.7539
  C  C169  1  0.974200  0.576300  0.409300  1.0  0.0659
  C  C170  1  0.989200  0.537200  0.456600  1.0  0.0106
  C  C171  1  0.861100  0.472200  0.196000  1.0  -0.0652
  C  C172  1  0.835100  0.458700  0.111500  1.0  -0.0849
  C  C173  1  0.817900  0.498200  0.067600  1.0  0.7032
  C  C174  1  0.640200  0.892600  0.123400  1.0  0.7467
  C  C175  1  0.655000  0.942700  0.175700  1.0  -0.1979
  C  C176  1  0.619000  0.939700  0.243000  1.0  -0.0716
  C  C177  1  0.631100  0.986700  0.293700  1.0  0.2887
  C  C178  1  0.678600  0.035900  0.276200  1.0  -0.1673
  C  C179  1  0.713300  0.036900  0.206800  1.0  -0.1311
  C  C180  1  0.702200  0.993000  0.158700  1.0  0.0336
  C  C181  1  0.764900  0.092400  0.186100  1.0  0.7512
  C  C182  1  0.602100  0.025800  0.409300  1.0  0.0641
  C  C183  1  0.548000  0.010800  0.456600  1.0  0.0105
  C  C184  1  0.611100  0.138900  0.196000  1.0  -0.0649
  C  C185  1  0.623600  0.164900  0.111500  1.0  -0.081
  C  C186  1  0.680300  0.182100  0.067600  1.0  0.7011
  C  C187  1  0.640200  0.747600  0.123400  1.0  0.7459
  C  C188  1  0.655000  0.712300  0.175700  1.0  -0.1975
  C  C189  1  0.619000  0.679300  0.243000  1.0  -0.075
  C  C190  1  0.631100  0.644400  0.293700  1.0  0.2889
  C  C191  1  0.678600  0.642700  0.276200  1.0  -0.1688
  C  C192  1  0.713300  0.676400  0.206800  1.0  -0.1311
  C  C193  1  0.702200  0.709200  0.158700  1.0  0.0328
  C  C194  1  0.764900  0.672500  0.186100  1.0  0.7528
  C  C195  1  0.602100  0.576300  0.409300  1.0  0.0643
  C  C196  1  0.548000  0.537200  0.456600  1.0  0.0116
  C  C197  1  0.611100  0.472200  0.196000  1.0  -0.0646
  C  C198  1  0.623600  0.458700  0.111500  1.0  -0.0844
  C  C199  1  0.680300  0.498200  0.067600  1.0  0.7025
  C  C200  1  0.252400  0.892600  0.123400  1.0  0.7475
  C  C201  1  0.287700  0.942700  0.175700  1.0  -0.198
  C  C202  1  0.320700  0.939700  0.243000  1.0  -0.0724
  C  C203  1  0.355600  0.986700  0.293700  1.0  0.289
  C  C204  1  0.357300  0.035900  0.276200  1.0  -0.1656
  C  C205  1  0.323600  0.036900  0.206800  1.0  -0.1303
  C  C206  1  0.290800  0.993000  0.158700  1.0  0.0341
  C  C207  1  0.327500  0.092400  0.186100  1.0  0.7526
  C  C208  1  0.423700  0.025800  0.409300  1.0  0.0655
  C  C209  1  0.462800  0.010800  0.456600  1.0  0.0107
  C  C210  1  0.527800  0.138900  0.196000  1.0  -0.0668
  C  C211  1  0.541300  0.164900  0.111500  1.0  -0.0831
  C  C212  1  0.501800  0.182100  0.067600  1.0  0.7022
  C  C213  1  0.107400  0.359800  0.123400  1.0  0.7447
  C  C214  1  0.057300  0.345000  0.175700  1.0  -0.1961
  C  C215  1  0.060300  0.381000  0.243000  1.0  -0.0731
  C  C216  1  0.013300  0.368900  0.293700  1.0  0.2883
  C  C217  1  0.964100  0.321400  0.276200  1.0  -0.167
  C  C218  1  0.963100  0.286700  0.206800  1.0  -0.131
  C  C219  1  0.007000  0.297800  0.158700  1.0  0.0325
  C  C220  1  0.907600  0.235100  0.186100  1.0  0.7516
  C  C221  1  0.974200  0.397900  0.409300  1.0  0.0645
  C  C222  1  0.989200  0.452000  0.456600  1.0  0.0114
  C  C223  1  0.861100  0.388900  0.196000  1.0  -0.0661
  C  C224  1  0.835100  0.376400  0.111500  1.0  -0.0829
  C  C225  1  0.817900  0.319700  0.067600  1.0  0.7014
  C  C226  1  0.747600  0.640200  0.876600  1.0  0.7448
  C  C227  1  0.712300  0.655000  0.824300  1.0  -0.1966
  C  C228  1  0.679300  0.619000  0.757000  1.0  -0.0728
  C  C229  1  0.644400  0.631100  0.706300  1.0  0.2888
  C  C230  1  0.642700  0.678600  0.723800  1.0  -0.1668
  C  C231  1  0.676400  0.713300  0.793200  1.0  -0.1302
  C  C232  1  0.709200  0.702200  0.841300  1.0  0.0335
  C  C233  1  0.672500  0.764900  0.813900  1.0  0.7543
  C  C234  1  0.576300  0.602100  0.590700  1.0  0.0649
  C  C235  1  0.537200  0.548000  0.543400  1.0  0.0108
  C  C236  1  0.472200  0.611100  0.804000  1.0  -0.067
  C  C237  1  0.458700  0.623600  0.888500  1.0  -0.0855
  C  C238  1  0.498200  0.680300  0.932400  1.0  0.7025
  C  C239  1  0.892600  0.252400  0.876600  1.0  0.747
  C  C240  1  0.942700  0.287700  0.824300  1.0  -0.1981
  C  C241  1  0.939700  0.320700  0.757000  1.0  -0.0752
  C  C242  1  0.986700  0.355600  0.706300  1.0  0.2889
  C  C243  1  0.035900  0.357300  0.723800  1.0  -0.1682
  C  C244  1  0.036900  0.323600  0.793200  1.0  -0.1312
  C  C245  1  0.993000  0.290800  0.841300  1.0  0.0332
  C  C246  1  0.092400  0.327500  0.813900  1.0  0.7523
  C  C247  1  0.025800  0.423700  0.590700  1.0  0.0647
  C  C248  1  0.010800  0.462800  0.543400  1.0  0.0113
  C  C249  1  0.138900  0.527800  0.804000  1.0  -0.0639
  C  C250  1  0.164900  0.541300  0.888500  1.0  -0.083
  C  C251  1  0.182100  0.501800  0.932400  1.0  0.7038
  C  C252  1  0.359800  0.107400  0.876600  1.0  0.7479
  C  C253  1  0.345000  0.057300  0.824300  1.0  -0.1973
  C  C254  1  0.381000  0.060300  0.757000  1.0  -0.0733
  C  C255  1  0.368900  0.013300  0.706300  1.0  0.2906
  C  C256  1  0.321400  0.964100  0.723800  1.0  -0.1653
  C  C257  1  0.286700  0.963100  0.793200  1.0  -0.1306
  C  C258  1  0.297800  0.007000  0.841300  1.0  0.0339
  C  C259  1  0.235100  0.907600  0.813900  1.0  0.7517
  C  C260  1  0.397900  0.974200  0.590700  1.0  0.0648
  C  C261  1  0.452000  0.989200  0.543400  1.0  0.0105
  C  C262  1  0.388900  0.861100  0.804000  1.0  -0.0661
  C  C263  1  0.376400  0.835100  0.888500  1.0  -0.084
  C  C264  1  0.319700  0.817900  0.932400  1.0  0.7031
  C  C265  1  0.489310  0.510690  0.587100  1.0  0.0208
  C  C266  1  0.478850  0.521150  0.683500  1.0  0.0902
  C  C267  1  0.436970  0.563030  0.764600  1.0  0.2792
  C  C268  1  0.411160  0.588840  0.931400  1.0  0.0065
  C  C269  1  0.489310  0.978620  0.587100  1.0  0.0207
  C  C270  1  0.478850  0.957700  0.683500  1.0  0.0918
  C  C271  1  0.436970  0.873940  0.764600  1.0  0.2794
  C  C272  1  0.411160  0.822320  0.931400  1.0  0.007
  C  C273  1  0.021380  0.510690  0.587100  1.0  0.0208
  C  C274  1  0.042300  0.521150  0.683500  1.0  0.0906
  C  C275  1  0.126060  0.563030  0.764600  1.0  0.2799
  C  C276  1  0.177680  0.588840  0.931400  1.0  0.0067
  C  C277  1  0.510690  0.489310  0.412900  1.0  0.0205
  C  C278  1  0.521150  0.478850  0.316500  1.0  0.0915
  C  C279  1  0.563030  0.436970  0.235400  1.0  0.2793
  C  C280  1  0.588840  0.411160  0.068600  1.0  0.007
  C  C281  1  0.978620  0.489310  0.412900  1.0  0.0205
  C  C282  1  0.957700  0.478850  0.316500  1.0  0.0911
  C  C283  1  0.873940  0.436970  0.235400  1.0  0.2791
  C  C284  1  0.822320  0.411160  0.068600  1.0  0.0082
  C  C285  1  0.510690  0.021380  0.412900  1.0  0.0206
  C  C286  1  0.521150  0.042300  0.316500  1.0  0.0933
  C  C287  1  0.563030  0.126060  0.235400  1.0  0.2792
  C  C288  1  0.588840  0.177680  0.068600  1.0  0.0079
  O  O289  1  0.321000  0.215300  0.924600  1.0  -0.6946
  O  O290  1  0.406150  0.258890  0.870500  1.0  -0.6123
  O  O291  1  0.206140  0.299670  0.878600  1.0  -0.6282
  O  O292  1  0.225700  0.357600  0.762000  1.0  -0.6301
  O  O293  1  0.407620  0.386330  0.642200  1.0  -0.2629
  O  O294  1  0.290800  0.459800  0.881700  1.0  -0.6404
  O  O295  1  0.307140  0.507800  0.003600  1.0  -0.5602
  O  O296  1  0.784700  0.105700  0.924600  1.0  -0.6936
  O  O297  1  0.741110  0.147260  0.870500  1.0  -0.6123
  O  O298  1  0.700330  0.906470  0.878600  1.0  -0.6275
  O  O299  1  0.642400  0.868100  0.762000  1.0  -0.6303
  O  O300  1  0.613670  0.021290  0.642200  1.0  -0.2599
  O  O301  1  0.540200  0.831000  0.881700  1.0  -0.6421
  O  O302  1  0.492200  0.799340  0.003600  1.0  -0.5613
  O  O303  1  0.894300  0.679000  0.924600  1.0  -0.693
  O  O304  1  0.852740  0.593850  0.870500  1.0  -0.6126
  O  O305  1  0.093530  0.793860  0.878600  1.0  -0.631
  O  O306  1  0.131900  0.774300  0.762000  1.0  -0.6271
  O  O307  1  0.978710  0.592380  0.642200  1.0  -0.2623
  O  O308  1  0.169000  0.709200  0.881700  1.0  -0.6411
  O  O309  1  0.200660  0.692860  0.003600  1.0  -0.5596
  O  O310  1  0.215300  0.321000  0.075400  1.0  -0.693
  O  O311  1  0.258890  0.406150  0.129500  1.0  -0.6109
  O  O312  1  0.299670  0.206140  0.121400  1.0  -0.6292
  O  O313  1  0.357600  0.225700  0.238000  1.0  -0.6266
  O  O314  1  0.386330  0.407620  0.357800  1.0  -0.2619
  O  O315  1  0.459800  0.290800  0.118300  1.0  -0.6408
  O  O316  1  0.507800  0.307140  0.996400  1.0  -0.5594
  O  O317  1  0.105700  0.784700  0.075400  1.0  -0.6936
  O  O318  1  0.147260  0.741110  0.129500  1.0  -0.6112
  O  O319  1  0.906470  0.700330  0.121400  1.0  -0.6269
  O  O320  1  0.868100  0.642400  0.238000  1.0  -0.6296
  O  O321  1  0.021290  0.613670  0.357800  1.0  -0.262
  O  O322  1  0.831000  0.540200  0.118300  1.0  -0.6404
  O  O323  1  0.799340  0.492200  0.996400  1.0  -0.5593
  O  O324  1  0.679000  0.894300  0.075400  1.0  -0.6931
  O  O325  1  0.593850  0.852740  0.129500  1.0  -0.6107
  O  O326  1  0.793860  0.093530  0.121400  1.0  -0.6271
  O  O327  1  0.774300  0.131900  0.238000  1.0  -0.6298
  O  O328  1  0.592380  0.978710  0.357800  1.0  -0.2593
  O  O329  1  0.709200  0.169000  0.118300  1.0  -0.6426
  O  O330  1  0.692860  0.200660  0.996400  1.0  -0.5602
  O  O331  1  0.679000  0.784700  0.075400  1.0  -0.6917
  O  O332  1  0.593850  0.741110  0.129500  1.0  -0.6106
  O  O333  1  0.793860  0.700330  0.121400  1.0  -0.6269
  O  O334  1  0.774300  0.642400  0.238000  1.0  -0.628
  O  O335  1  0.592380  0.613670  0.357800  1.0  -0.2624
  O  O336  1  0.709200  0.540200  0.118300  1.0  -0.6394
  O  O337  1  0.692860  0.492200  0.996400  1.0  -0.5594
  O  O338  1  0.215300  0.894300  0.075400  1.0  -0.6953
  O  O339  1  0.258890  0.852740  0.129500  1.0  -0.6113
  O  O340  1  0.299670  0.093530  0.121400  1.0  -0.6301
  O  O341  1  0.357600  0.131900  0.238000  1.0  -0.6318
  O  O342  1  0.386330  0.978710  0.357800  1.0  -0.2596
  O  O343  1  0.459800  0.169000  0.118300  1.0  -0.6403
  O  O344  1  0.507800  0.200660  0.996400  1.0  -0.5599
  O  O345  1  0.105700  0.321000  0.075400  1.0  -0.6914
  O  O346  1  0.147260  0.406150  0.129500  1.0  -0.6116
  O  O347  1  0.906470  0.206140  0.121400  1.0  -0.6272
  O  O348  1  0.868100  0.225700  0.238000  1.0  -0.6269
  O  O349  1  0.021290  0.407620  0.357800  1.0  -0.2619
  O  O350  1  0.831000  0.290800  0.118300  1.0  -0.6423
  O  O351  1  0.799340  0.307140  0.996400  1.0  -0.5595
  O  O352  1  0.784700  0.679000  0.924600  1.0  -0.6914
  O  O353  1  0.741110  0.593850  0.870500  1.0  -0.6124
  O  O354  1  0.700330  0.793860  0.878600  1.0  -0.6293
  O  O355  1  0.642400  0.774300  0.762000  1.0  -0.6266
  O  O356  1  0.613670  0.592380  0.642200  1.0  -0.2625
  O  O357  1  0.540200  0.709200  0.881700  1.0  -0.6424
  O  O358  1  0.492200  0.692860  0.003600  1.0  -0.5608
  O  O359  1  0.894300  0.215300  0.924600  1.0  -0.6928
  O  O360  1  0.852740  0.258890  0.870500  1.0  -0.612
  O  O361  1  0.093530  0.299670  0.878600  1.0  -0.6278
  O  O362  1  0.131900  0.357600  0.762000  1.0  -0.6294
  O  O363  1  0.978710  0.386330  0.642200  1.0  -0.2638
  O  O364  1  0.169000  0.459800  0.881700  1.0  -0.6394
  O  O365  1  0.200660  0.507800  0.003600  1.0  -0.5598
  O  O366  1  0.321000  0.105700  0.924600  1.0  -0.6949
  O  O367  1  0.406150  0.147260  0.870500  1.0  -0.613
  O  O368  1  0.206140  0.906470  0.878600  1.0  -0.6306
  O  O369  1  0.225700  0.868100  0.762000  1.0  -0.6315
  O  O370  1  0.407620  0.021290  0.642200  1.0  -0.2599
  O  O371  1  0.290800  0.831000  0.881700  1.0  -0.6399
  O  O372  1  0.307140  0.799340  0.003600  1.0  -0.5604
  O  O373  1  0.398230  0.199110  0.047900  1.0  -0.8685
  O  O374  1  0.800890  0.199120  0.047900  1.0  -0.8684
  O  O375  1  0.800880  0.601770  0.047900  1.0  -0.8686
  O  O376  1  0.199110  0.398230  0.952100  1.0  -0.8682
  O  O377  1  0.199120  0.800890  0.952100  1.0  -0.8682
  O  O378  1  0.601770  0.800880  0.952100  1.0  -0.8681
  O  O379  1  0.449450  0.550550  0.677600  1.0  -0.2935
  O  O380  1  0.449450  0.898900  0.677600  1.0  -0.2932
  O  O381  1  0.101100  0.550550  0.677600  1.0  -0.296
  O  O382  1  0.550550  0.449450  0.322400  1.0  -0.2954
  O  O383  1  0.898900  0.449450  0.322400  1.0  -0.294
  O  O384  1  0.550550  0.101100  0.322400  1.0  -0.2944
