# generated using pymatgen
data_CoH19C23(NO3)2
_symmetry_space_group_name_H-M   'P 1'
_cell_length_a   13.62570000
_cell_length_b   25.26750000
_cell_length_c   16.81850000
_cell_angle_alpha   90.00000000
_cell_angle_beta   105.81500000
_cell_angle_gamma   90.00000000
_symmetry_Int_Tables_number   1
_chemical_formula_structural   CoH19C23(NO3)2
_chemical_formula_sum   'Co8 H152 C184 N16 O48'
_cell_volume   5571.21144062
_cell_formula_units_Z   8
loop_
 _symmetry_equiv_pos_site_id
 _symmetry_equiv_pos_as_xyz
  1  'x, y, z'
loop_
 _atom_site_type_symbol
 _atom_site_label
 _atom_site_symmetry_multiplicity
 _atom_site_fract_x
 _atom_site_fract_y
 _atom_site_fract_z
 _atom_site_occupancy
 _atom_site_charge
  Co  Co1  1  0.104810  0.281760  0.090940  1.0  0.9158
  Co  Co2  1  0.252950  0.244250  0.260470  1.0  0.9732
  Co  Co3  1  0.895190  0.781760  0.409060  1.0  0.9171
  Co  Co4  1  0.747050  0.744250  0.239530  1.0  0.9723
  Co  Co5  1  0.895190  0.718240  0.909060  1.0  0.9169
  Co  Co6  1  0.747050  0.755750  0.739530  1.0  0.9722
  Co  Co7  1  0.104810  0.218240  0.590940  1.0  0.9155
  Co  Co8  1  0.252950  0.255750  0.760470  1.0  0.973
  H  H9  1  0.898600  0.283200  0.688600  1.0  0.2859
  H  H10  1  0.433200  0.208900  0.163400  1.0  0.2807
  H  H11  1  0.923700  0.221400  0.985500  1.0  0.0791
  H  H12  1  0.831700  0.213400  0.848700  1.0  0.1186
  H  H13  1  0.017400  0.324800  0.792200  1.0  0.1168
  H  H14  1  0.103000  0.329700  0.930600  1.0  0.0817
  H  H15  1  0.851400  0.221500  0.579600  1.0  0.0804
  H  H16  1  0.758300  0.262300  0.563000  1.0  0.0941
  H  H17  1  0.641700  0.191300  0.546700  1.0  0.0685
  H  H18  1  0.734300  0.149800  0.566200  1.0  0.0776
  H  H19  1  0.781000  0.181600  0.446600  1.0  0.0692
  H  H20  1  0.683000  0.219300  0.425900  1.0  0.0649
  H  H21  1  0.575100  0.143500  0.403600  1.0  0.0698
  H  H22  1  0.673300  0.106000  0.424000  1.0  0.0995
  H  H23  1  0.717600  0.140800  0.305100  1.0  0.0773
  H  H24  1  0.610300  0.110600  0.280100  1.0  0.0846
  H  H25  1  0.529900  0.197300  0.280700  1.0  0.0992
  H  H26  1  0.639200  0.222800  0.286900  1.0  0.0918
  H  H27  1  0.560800  0.209600  0.004900  1.0  0.1202
  H  H28  1  0.475200  0.227500  0.868500  1.0  0.0701
  H  H29  1  0.211900  0.235100  0.920400  1.0  0.0756
  H  H30  1  0.287400  0.216000  0.057500  1.0  0.1152
  H  H31  1  0.969400  0.104400  0.147800  1.0  0.1025
  H  H32  1  0.985800  0.012800  0.138000  1.0  0.1121
  H  H33  1  0.259200  0.033500  0.088900  1.0  0.1332
  H  H34  1  0.244400  0.124900  0.103700  1.0  0.1002
  H  H35  1  0.974900  0.905700  0.038500  1.0  0.1154
  H  H36  1  0.891500  0.847900  0.107500  1.0  0.0998
  H  H37  1  0.097800  0.882500  0.324400  1.0  0.1029
  H  H38  1  0.181000  0.940200  0.255600  1.0  0.1134
  H  H39  1  0.181100  0.085700  0.365300  1.0  0.1027
  H  H40  1  0.214500  0.999100  0.412800  1.0  0.127
  H  H41  1  0.468800  0.997100  0.330700  1.0  0.1158
  H  H42  1  0.435400  0.084600  0.285300  1.0  0.0955
  H  H43  1  0.367900  0.887300  0.281600  1.0  0.1268
  H  H44  1  0.501300  0.834900  0.262900  1.0  0.1045
  H  H45  1  0.670600  0.872400  0.492700  1.0  0.0919
  H  H46  1  0.536000  0.924000  0.512100  1.0  0.1158
  H  H47  1  0.101400  0.783200  0.811400  1.0  0.2862
  H  H48  1  0.566800  0.708900  0.336600  1.0  0.2823
  H  H49  1  0.076300  0.721400  0.514500  1.0  0.0781
  H  H50  1  0.168300  0.713400  0.651300  1.0  0.1187
  H  H51  1  0.982600  0.824800  0.707800  1.0  0.1168
  H  H52  1  0.897000  0.829700  0.569400  1.0  0.0824
  H  H53  1  0.148600  0.721500  0.920400  1.0  0.0788
  H  H54  1  0.241700  0.762300  0.937000  1.0  0.0946
  H  H55  1  0.358300  0.691300  0.953300  1.0  0.0665
  H  H56  1  0.265700  0.649800  0.933800  1.0  0.0766
  H  H57  1  0.219000  0.681600  0.053400  1.0  0.0697
  H  H58  1  0.317000  0.719300  0.074100  1.0  0.0647
  H  H59  1  0.424900  0.643500  0.096400  1.0  0.069
  H  H60  1  0.326700  0.606000  0.076000  1.0  0.0974
  H  H61  1  0.282400  0.640800  0.194900  1.0  0.0776
  H  H62  1  0.389700  0.610600  0.219900  1.0  0.0858
  H  H63  1  0.470100  0.697300  0.219300  1.0  0.0988
  H  H64  1  0.360800  0.722800  0.213100  1.0  0.0923
  H  H65  1  0.439200  0.709600  0.495100  1.0  0.1207
  H  H66  1  0.524800  0.727500  0.631500  1.0  0.0707
  H  H67  1  0.788100  0.735100  0.579600  1.0  0.0763
  H  H68  1  0.712600  0.716000  0.442500  1.0  0.1148
  H  H69  1  0.030600  0.604400  0.352200  1.0  0.1025
  H  H70  1  0.014200  0.512800  0.362000  1.0  0.113
  H  H71  1  0.740800  0.533500  0.411100  1.0  0.133
  H  H72  1  0.755600  0.624900  0.396300  1.0  0.0999
  H  H73  1  0.025100  0.405700  0.461500  1.0  0.1148
  H  H74  1  0.108500  0.347900  0.392500  1.0  0.1
  H  H75  1  0.902200  0.382500  0.175600  1.0  0.1036
  H  H76  1  0.819000  0.440200  0.244400  1.0  0.1138
  H  H77  1  0.818900  0.585700  0.134700  1.0  0.1032
  H  H78  1  0.785500  0.499100  0.087200  1.0  0.1275
  H  H79  1  0.531200  0.497100  0.169300  1.0  0.1155
  H  H80  1  0.564600  0.584600  0.214700  1.0  0.0959
  H  H81  1  0.632100  0.387300  0.218400  1.0  0.1262
  H  H82  1  0.498700  0.334900  0.237100  1.0  0.1046
  H  H83  1  0.329400  0.372400  0.007300  1.0  0.0923
  H  H84  1  0.464000  0.424000  0.987900  1.0  0.1169
  H  H85  1  0.101400  0.716800  0.311400  1.0  0.2878
  H  H86  1  0.566800  0.791100  0.836600  1.0  0.2822
  H  H87  1  0.076300  0.778600  0.014500  1.0  0.0783
  H  H88  1  0.168300  0.786600  0.151300  1.0  0.1185
  H  H89  1  0.982600  0.675200  0.207800  1.0  0.1169
  H  H90  1  0.897000  0.670300  0.069400  1.0  0.0809
  H  H91  1  0.148600  0.778500  0.420400  1.0  0.0789
  H  H92  1  0.241700  0.737700  0.437000  1.0  0.0946
  H  H93  1  0.358300  0.808700  0.453300  1.0  0.0664
  H  H94  1  0.265700  0.850200  0.433800  1.0  0.0761
  H  H95  1  0.219000  0.818400  0.553400  1.0  0.069
  H  H96  1  0.317000  0.780700  0.574100  1.0  0.0652
  H  H97  1  0.424900  0.856500  0.596400  1.0  0.0691
  H  H98  1  0.326700  0.894000  0.576000  1.0  0.098
  H  H99  1  0.282400  0.859200  0.694900  1.0  0.0759
  H  H100  1  0.389700  0.889400  0.719900  1.0  0.0882
  H  H101  1  0.470100  0.802700  0.719300  1.0  0.0987
  H  H102  1  0.360800  0.777200  0.713100  1.0  0.0938
  H  H103  1  0.439200  0.790400  0.995100  1.0  0.1213
  H  H104  1  0.524800  0.772500  0.131500  1.0  0.0697
  H  H105  1  0.788100  0.764900  0.079600  1.0  0.0761
  H  H106  1  0.712600  0.784000  0.942500  1.0  0.1151
  H  H107  1  0.030600  0.895600  0.852200  1.0  0.1023
  H  H108  1  0.014200  0.987200  0.862000  1.0  0.1129
  H  H109  1  0.740800  0.966500  0.911100  1.0  0.1324
  H  H110  1  0.755600  0.875100  0.896300  1.0  0.1002
  H  H111  1  0.025100  0.094300  0.961500  1.0  0.1153
  H  H112  1  0.108500  0.152100  0.892500  1.0  0.0994
  H  H113  1  0.902200  0.117500  0.675600  1.0  0.1035
  H  H114  1  0.819000  0.059800  0.744400  1.0  0.114
  H  H115  1  0.818900  0.914300  0.634700  1.0  0.1034
  H  H116  1  0.785500  0.000900  0.587200  1.0  0.1274
  H  H117  1  0.531200  0.002900  0.669300  1.0  0.1152
  H  H118  1  0.564600  0.915400  0.714700  1.0  0.0956
  H  H119  1  0.632100  0.112700  0.718400  1.0  0.1268
  H  H120  1  0.498700  0.165100  0.737100  1.0  0.1051
  H  H121  1  0.329400  0.127600  0.507300  1.0  0.092
  H  H122  1  0.464000  0.076000  0.487900  1.0  0.1169
  H  H123  1  0.898600  0.216800  0.188600  1.0  0.2871
  H  H124  1  0.433200  0.291100  0.663400  1.0  0.2806
  H  H125  1  0.923700  0.278600  0.485500  1.0  0.0788
  H  H126  1  0.831700  0.286600  0.348700  1.0  0.1187
  H  H127  1  0.017400  0.175200  0.292200  1.0  0.1168
  H  H128  1  0.103000  0.170300  0.430600  1.0  0.0817
  H  H129  1  0.851400  0.278500  0.079600  1.0  0.0804
  H  H130  1  0.758300  0.237700  0.063000  1.0  0.094
  H  H131  1  0.641700  0.308700  0.046700  1.0  0.0684
  H  H132  1  0.734300  0.350200  0.066200  1.0  0.0758
  H  H133  1  0.781000  0.318400  0.946600  1.0  0.069
  H  H134  1  0.683000  0.280700  0.925900  1.0  0.0652
  H  H135  1  0.575100  0.356500  0.903600  1.0  0.0696
  H  H136  1  0.673300  0.394000  0.924000  1.0  0.0986
  H  H137  1  0.717600  0.359200  0.805100  1.0  0.0772
  H  H138  1  0.610300  0.389400  0.780100  1.0  0.0871
  H  H139  1  0.529900  0.302700  0.780700  1.0  0.0989
  H  H140  1  0.639200  0.277200  0.786900  1.0  0.0931
  H  H141  1  0.560800  0.290400  0.504900  1.0  0.1212
  H  H142  1  0.475200  0.272500  0.368500  1.0  0.0695
  H  H143  1  0.211900  0.264900  0.420400  1.0  0.0755
  H  H144  1  0.287400  0.284000  0.557500  1.0  0.1154
  H  H145  1  0.969400  0.395600  0.647800  1.0  0.1023
  H  H146  1  0.985800  0.487200  0.638000  1.0  0.1121
  H  H147  1  0.259200  0.466500  0.588900  1.0  0.1333
  H  H148  1  0.244400  0.375100  0.603700  1.0  0.1002
  H  H149  1  0.974900  0.594300  0.538500  1.0  0.1153
  H  H150  1  0.891500  0.652100  0.607500  1.0  0.0994
  H  H151  1  0.097800  0.617500  0.824400  1.0  0.1032
  H  H152  1  0.181000  0.559800  0.755600  1.0  0.1139
  H  H153  1  0.181100  0.414300  0.865300  1.0  0.1027
  H  H154  1  0.214500  0.500900  0.912800  1.0  0.127
  H  H155  1  0.468800  0.502900  0.830700  1.0  0.1159
  H  H156  1  0.435400  0.415400  0.785300  1.0  0.095
  H  H157  1  0.367900  0.612700  0.781600  1.0  0.1267
  H  H158  1  0.501300  0.665100  0.762900  1.0  0.1048
  H  H159  1  0.670600  0.627600  0.992700  1.0  0.0923
  H  H160  1  0.536000  0.576000  0.012100  1.0  0.1163
  C  C161  1  0.942780  0.242570  0.945370  1.0  0.1717
  C  C162  1  0.887670  0.237210  0.863920  1.0  -0.2237
  C  C163  1  0.915870  0.267500  0.804190  1.0  0.2265
  C  C164  1  0.997230  0.302920  0.830840  1.0  -0.2568
  C  C165  1  0.047580  0.305710  0.913480  1.0  0.1719
  C  C166  1  0.793380  0.230040  0.679390  1.0  0.518
  C  C167  1  0.782960  0.227520  0.587760  1.0  -0.2363
  C  C168  1  0.711400  0.184850  0.541620  1.0  -0.0882
  C  C169  1  0.710000  0.184850  0.450560  1.0  -0.1178
  C  C170  1  0.646200  0.140510  0.400010  1.0  -0.1227
  C  C171  1  0.646400  0.142090  0.308780  1.0  -0.0767
  C  C172  1  0.594800  0.191960  0.265990  1.0  -0.2318
  C  C173  1  0.572650  0.190090  0.173180  1.0  0.4901
  C  C174  1  0.433320  0.211870  0.047390  1.0  0.2468
  C  C175  1  0.489040  0.214810  0.989150  1.0  -0.2088
  C  C176  1  0.436910  0.225440  0.907870  1.0  0.1892
  C  C177  1  0.283570  0.229690  0.937830  1.0  0.1859
  C  C178  1  0.328050  0.218780  0.019950  1.0  -0.2703
  C  C179  1  0.089360  0.181460  0.129600  1.0  0.6358
  C  C180  1  0.105110  0.123520  0.126580  1.0  -0.1067
  C  C181  1  0.028570  0.089920  0.136490  1.0  -0.0233
  C  C182  1  0.037600  0.035710  0.130020  1.0  -0.134
  C  C183  1  0.123290  0.015170  0.111730  1.0  0.2451
  C  C184  1  0.200820  0.047960  0.101410  1.0  -0.1793
  C  C185  1  0.191380  0.102120  0.109640  1.0  -0.0415
  C  C186  1  0.084610  0.927700  0.141490  1.0  0.2616
  C  C187  1  0.999500  0.900870  0.096530  1.0  -0.215
  C  C188  1  0.950200  0.866710  0.137730  1.0  -0.0106
  C  C189  1  0.985870  0.859790  0.222660  1.0  -0.1379
  C  C190  1  0.072500  0.887230  0.266340  1.0  0.0041
  C  C191  1  0.122000  0.921370  0.225780  1.0  -0.2037
  C  C192  1  0.933060  0.823870  0.268230  1.0  0.6878
  C  C193  1  0.288160  0.150440  0.296330  1.0  0.6191
  C  C194  1  0.306450  0.094070  0.322090  1.0  -0.1268
  C  C195  1  0.240120  0.067970  0.359250  1.0  -0.0424
  C  C196  1  0.259610  0.016670  0.387320  1.0  -0.2195
  C  C197  1  0.346290  0.990830  0.377850  1.0  0.2214
  C  C198  1  0.411310  0.015380  0.338780  1.0  -0.0662
  C  C199  1  0.390840  0.067290  0.311560  1.0  -0.0722
  C  C200  1  0.442460  0.910910  0.397560  1.0  0.2881
  C  C201  1  0.430000  0.884450  0.324200  1.0  -0.2156
  C  C202  1  0.509100  0.853620  0.313300  1.0  -0.0225
  C  C203  1  0.599730  0.849750  0.375200  1.0  -0.1417
  C  C204  1  0.609300  0.875640  0.449400  1.0  0.0118
  C  C205  1  0.529900  0.906370  0.461020  1.0  -0.2122
  C  C206  1  0.686170  0.818060  0.361380  1.0  0.6777
  C  C207  1  0.057220  0.742570  0.554630  1.0  0.1719
  C  C208  1  0.112330  0.737210  0.636080  1.0  -0.2246
  C  C209  1  0.084130  0.767500  0.695810  1.0  0.2268
  C  C210  1  0.002770  0.802920  0.669160  1.0  -0.2611
  C  C211  1  0.952420  0.805710  0.586520  1.0  0.1721
  C  C212  1  0.206620  0.730040  0.820610  1.0  0.5177
  C  C213  1  0.217040  0.727520  0.912240  1.0  -0.2355
  C  C214  1  0.288600  0.684850  0.958380  1.0  -0.0886
  C  C215  1  0.290000  0.684850  0.049440  1.0  -0.1171
  C  C216  1  0.353800  0.640510  0.099990  1.0  -0.1225
  C  C217  1  0.353600  0.642090  0.191220  1.0  -0.0761
  C  C218  1  0.405200  0.691960  0.234010  1.0  -0.2313
  C  C219  1  0.427350  0.690090  0.326820  1.0  0.4899
  C  C220  1  0.566680  0.711870  0.452610  1.0  0.2469
  C  C221  1  0.510960  0.714810  0.510850  1.0  -0.208
  C  C222  1  0.563090  0.725440  0.592130  1.0  0.1896
  C  C223  1  0.716430  0.729690  0.562170  1.0  0.1845
  C  C224  1  0.671950  0.718780  0.480050  1.0  -0.2658
  C  C225  1  0.910640  0.681460  0.370400  1.0  0.6365
  C  C226  1  0.894890  0.623520  0.373420  1.0  -0.1042
  C  C227  1  0.971430  0.589920  0.363510  1.0  -0.0231
  C  C228  1  0.962400  0.535710  0.369980  1.0  -0.1296
  C  C229  1  0.876710  0.515170  0.388270  1.0  0.2454
  C  C230  1  0.799180  0.547960  0.398590  1.0  -0.18
  C  C231  1  0.808620  0.602120  0.390360  1.0  -0.0411
  C  C232  1  0.915390  0.427700  0.358510  1.0  0.2615
  C  C233  1  0.000500  0.400870  0.403470  1.0  -0.2131
  C  C234  1  0.049800  0.366710  0.362270  1.0  -0.0098
  C  C235  1  0.014130  0.359790  0.277340  1.0  -0.1372
  C  C236  1  0.927500  0.387230  0.233660  1.0  0.0054
  C  C237  1  0.878000  0.421370  0.274220  1.0  -0.2039
  C  C238  1  0.066940  0.323870  0.231770  1.0  0.6897
  C  C239  1  0.711840  0.650440  0.203670  1.0  0.619
  C  C240  1  0.693550  0.594070  0.177910  1.0  -0.1269
  C  C241  1  0.759880  0.567970  0.140750  1.0  -0.0425
  C  C242  1  0.740390  0.516670  0.112680  1.0  -0.2213
  C  C243  1  0.653710  0.490830  0.122150  1.0  0.2215
  C  C244  1  0.588690  0.515380  0.161220  1.0  -0.0667
  C  C245  1  0.609160  0.567290  0.188440  1.0  -0.0692
  C  C246  1  0.557540  0.410910  0.102440  1.0  0.289
  C  C247  1  0.570000  0.384450  0.175800  1.0  -0.2172
  C  C248  1  0.490900  0.353620  0.186700  1.0  -0.0237
  C  C249  1  0.400270  0.349750  0.124800  1.0  -0.1417
  C  C250  1  0.390700  0.375640  0.050600  1.0  0.0104
  C  C251  1  0.470100  0.406370  0.038980  1.0  -0.2117
  C  C252  1  0.313830  0.318060  0.138620  1.0  0.6772
  C  C253  1  0.057220  0.757430  0.054630  1.0  0.1719
  C  C254  1  0.112330  0.762790  0.136080  1.0  -0.2242
  C  C255  1  0.084130  0.732500  0.195810  1.0  0.2264
  C  C256  1  0.002770  0.697080  0.169160  1.0  -0.2591
  C  C257  1  0.952420  0.694290  0.086520  1.0  0.1711
  C  C258  1  0.206620  0.769960  0.320610  1.0  0.5182
  C  C259  1  0.217040  0.772480  0.412240  1.0  -0.237
  C  C260  1  0.288600  0.815150  0.458380  1.0  -0.0878
  C  C261  1  0.290000  0.815150  0.549440  1.0  -0.1172
  C  C262  1  0.353800  0.859490  0.599990  1.0  -0.1223
  C  C263  1  0.353600  0.857910  0.691220  1.0  -0.0793
  C  C264  1  0.405200  0.808040  0.734010  1.0  -0.2329
  C  C265  1  0.427350  0.809910  0.826820  1.0  0.4895
  C  C266  1  0.566680  0.788130  0.952610  1.0  0.2471
  C  C267  1  0.510960  0.785190  0.010850  1.0  -0.2081
  C  C268  1  0.563090  0.774560  0.092130  1.0  0.1893
  C  C269  1  0.716430  0.770310  0.062170  1.0  0.1845
  C  C270  1  0.671950  0.781220  0.980050  1.0  -0.2661
  C  C271  1  0.910640  0.818540  0.870400  1.0  0.6365
  C  C272  1  0.894890  0.876480  0.873420  1.0  -0.1049
  C  C273  1  0.971430  0.910080  0.863510  1.0  -0.0231
  C  C274  1  0.962400  0.964290  0.869980  1.0  -0.1294
  C  C275  1  0.876710  0.984830  0.888270  1.0  0.2453
  C  C276  1  0.799180  0.952040  0.898590  1.0  -0.1804
  C  C277  1  0.808620  0.897880  0.890360  1.0  -0.0409
  C  C278  1  0.915390  0.072300  0.858510  1.0  0.2613
  C  C279  1  0.000500  0.099130  0.903470  1.0  -0.2127
  C  C280  1  0.049800  0.133290  0.862270  1.0  -0.0097
  C  C281  1  0.014130  0.140210  0.777340  1.0  -0.1369
  C  C282  1  0.927500  0.112770  0.733660  1.0  0.0048
  C  C283  1  0.878000  0.078630  0.774220  1.0  -0.204
  C  C284  1  0.066940  0.176130  0.731770  1.0  0.6891
  C  C285  1  0.711840  0.849560  0.703670  1.0  0.6187
  C  C286  1  0.693550  0.905930  0.677910  1.0  -0.1266
  C  C287  1  0.759880  0.932030  0.640750  1.0  -0.0425
  C  C288  1  0.740390  0.983330  0.612680  1.0  -0.2213
  C  C289  1  0.653710  0.009170  0.622150  1.0  0.2217
  C  C290  1  0.588690  0.984620  0.661220  1.0  -0.0668
  C  C291  1  0.609160  0.932710  0.688440  1.0  -0.0692
  C  C292  1  0.557540  0.089090  0.602440  1.0  0.2893
  C  C293  1  0.570000  0.115550  0.675800  1.0  -0.2176
  C  C294  1  0.490900  0.146380  0.686700  1.0  -0.0231
  C  C295  1  0.400270  0.150250  0.624800  1.0  -0.1415
  C  C296  1  0.390700  0.124360  0.550600  1.0  0.0109
  C  C297  1  0.470100  0.093630  0.538980  1.0  -0.2116
  C  C298  1  0.313830  0.181940  0.638620  1.0  0.6771
  C  C299  1  0.942780  0.257430  0.445370  1.0  0.1716
  C  C300  1  0.887670  0.262790  0.363920  1.0  -0.2238
  C  C301  1  0.915870  0.232500  0.304190  1.0  0.226
  C  C302  1  0.997230  0.197080  0.330840  1.0  -0.2553
  C  C303  1  0.047580  0.194290  0.413480  1.0  0.1706
  C  C304  1  0.793380  0.269960  0.179390  1.0  0.5184
  C  C305  1  0.782960  0.272480  0.087760  1.0  -0.2376
  C  C306  1  0.711400  0.315150  0.041620  1.0  -0.0881
  C  C307  1  0.710000  0.315150  0.950560  1.0  -0.1187
  C  C308  1  0.646200  0.359490  0.900010  1.0  -0.1229
  C  C309  1  0.646400  0.357910  0.808780  1.0  -0.077
  C  C310  1  0.594800  0.308040  0.765990  1.0  -0.2331
  C  C311  1  0.572650  0.309910  0.673180  1.0  0.4896
  C  C312  1  0.433320  0.288130  0.547390  1.0  0.2465
  C  C313  1  0.489040  0.285190  0.489150  1.0  -0.2076
  C  C314  1  0.436910  0.274560  0.407870  1.0  0.1893
  C  C315  1  0.283570  0.270310  0.437830  1.0  0.1861
  C  C316  1  0.328050  0.281220  0.519950  1.0  -0.2708
  C  C317  1  0.089360  0.318540  0.629600  1.0  0.636
  C  C318  1  0.105110  0.376480  0.626580  1.0  -0.1076
  C  C319  1  0.028570  0.410080  0.636490  1.0  -0.0239
  C  C320  1  0.037600  0.464290  0.630020  1.0  -0.1346
  C  C321  1  0.123290  0.484830  0.611730  1.0  0.2458
  C  C322  1  0.200820  0.452040  0.601410  1.0  -0.1787
  C  C323  1  0.191380  0.397880  0.609640  1.0  -0.0413
  C  C324  1  0.084610  0.572300  0.641490  1.0  0.2615
  C  C325  1  0.999500  0.599130  0.596530  1.0  -0.2151
  C  C326  1  0.950200  0.633290  0.637730  1.0  -0.0094
  C  C327  1  0.985870  0.640210  0.722660  1.0  -0.1383
  C  C328  1  0.072500  0.612770  0.766340  1.0  0.004
  C  C329  1  0.122000  0.578630  0.725780  1.0  -0.2036
  C  C330  1  0.933060  0.676130  0.768230  1.0  0.6882
  C  C331  1  0.288160  0.349560  0.796330  1.0  0.6188
  C  C332  1  0.306450  0.405930  0.822090  1.0  -0.1268
  C  C333  1  0.240120  0.432030  0.859250  1.0  -0.042
  C  C334  1  0.259610  0.483330  0.887320  1.0  -0.2207
  C  C335  1  0.346290  0.509170  0.877850  1.0  0.2211
  C  C336  1  0.411310  0.484620  0.838780  1.0  -0.0656
  C  C337  1  0.390840  0.432710  0.811560  1.0  -0.0722
  C  C338  1  0.442460  0.589090  0.897560  1.0  0.2884
  C  C339  1  0.430000  0.615550  0.824200  1.0  -0.2156
  C  C340  1  0.509100  0.646380  0.813300  1.0  -0.0224
  C  C341  1  0.599730  0.650250  0.875200  1.0  -0.1409
  C  C342  1  0.609300  0.624360  0.949400  1.0  0.0117
  C  C343  1  0.529900  0.593630  0.961020  1.0  -0.2112
  C  C344  1  0.686170  0.681940  0.861380  1.0  0.6764
  N  N345  1  0.022070  0.275990  0.971530  1.0  -0.3567
  N  N346  1  0.872640  0.262820  0.720190  1.0  -0.351
  N  N347  1  0.475110  0.204110  0.132350  1.0  -0.3085
  N  N348  1  0.335950  0.233030  0.881170  1.0  -0.3448
  N  N349  1  0.977930  0.775990  0.528470  1.0  -0.36
  N  N350  1  0.127360  0.762820  0.779810  1.0  -0.3512
  N  N351  1  0.524890  0.704110  0.367650  1.0  -0.3077
  N  N352  1  0.664050  0.733030  0.618830  1.0  -0.3422
  N  N353  1  0.977930  0.724010  0.028470  1.0  -0.3602
  N  N354  1  0.127360  0.737180  0.279810  1.0  -0.3521
  N  N355  1  0.524890  0.795890  0.867650  1.0  -0.3087
  N  N356  1  0.664050  0.766970  0.118830  1.0  -0.3422
  N  N357  1  0.022070  0.224010  0.471530  1.0  -0.3556
  N  N358  1  0.872640  0.237180  0.220190  1.0  -0.3516
  N  N359  1  0.475110  0.295890  0.632350  1.0  -0.309
  N  N360  1  0.335950  0.266970  0.381170  1.0  -0.3445
  O  O361  1  0.740060  0.205920  0.714100  1.0  -0.4787
  O  O362  1  0.635800  0.177920  0.137120  1.0  -0.5173
  O  O363  1  0.167140  0.212570  0.133060  1.0  -0.6744
  O  O364  1  0.003940  0.200450  0.124900  1.0  -0.6045
  O  O365  1  0.135730  0.961470  0.100440  1.0  -0.2948
  O  O366  1  0.966340  0.824040  0.346380  1.0  -0.5948
  O  O367  1  0.859750  0.796010  0.228130  1.0  -0.6529
  O  O368  1  0.350070  0.175040  0.265780  1.0  -0.5899
  O  O369  1  0.210010  0.173930  0.306500  1.0  -0.5662
  O  O370  1  0.361340  0.940450  0.410640  1.0  -0.2552
  O  O371  1  0.772730  0.822770  0.413110  1.0  -0.6085
  O  O372  1  0.666667  0.788530  0.298310  1.0  -0.6255
  O  O373  1  0.259940  0.705920  0.785900  1.0  -0.4801
  O  O374  1  0.364200  0.677920  0.362880  1.0  -0.518
  O  O375  1  0.832860  0.712570  0.366940  1.0  -0.6747
  O  O376  1  0.996060  0.700450  0.375100  1.0  -0.6049
  O  O377  1  0.864270  0.461470  0.399560  1.0  -0.2947
  O  O378  1  0.033660  0.324040  0.153620  1.0  -0.5948
  O  O379  1  0.140250  0.296010  0.271870  1.0  -0.6547
  O  O380  1  0.649930  0.675040  0.234220  1.0  -0.5894
  O  O381  1  0.789990  0.673930  0.193500  1.0  -0.5652
  O  O382  1  0.638660  0.440450  0.089360  1.0  -0.2553
  O  O383  1  0.227270  0.322770  0.086890  1.0  -0.6091
  O  O384  1  0.333280  0.288530  0.201690  1.0  -0.6277
  O  O385  1  0.259940  0.794080  0.285900  1.0  -0.4794
  O  O386  1  0.364200  0.822080  0.862880  1.0  -0.5166
  O  O387  1  0.832860  0.787430  0.866940  1.0  -0.6754
  O  O388  1  0.996060  0.799550  0.875100  1.0  -0.6052
  O  O389  1  0.864270  0.038530  0.899560  1.0  -0.2934
  O  O390  1  0.033660  0.175960  0.653620  1.0  -0.595
  O  O391  1  0.140250  0.203990  0.771870  1.0  -0.6515
  O  O392  1  0.649930  0.824960  0.734220  1.0  -0.59
  O  O393  1  0.789990  0.826070  0.693500  1.0  -0.5647
  O  O394  1  0.638660  0.059550  0.589360  1.0  -0.255
  O  O395  1  0.227270  0.177230  0.586890  1.0  -0.6079
  O  O396  1  0.333280  0.211470  0.701690  1.0  -0.625
  O  O397  1  0.740060  0.294080  0.214100  1.0  -0.4789
  O  O398  1  0.635800  0.322080  0.637120  1.0  -0.5162
  O  O399  1  0.167140  0.287430  0.633060  1.0  -0.6747
  O  O400  1  0.003940  0.299550  0.624900  1.0  -0.6043
  O  O401  1  0.135730  0.538530  0.600440  1.0  -0.2948
  O  O402  1  0.966340  0.675960  0.846380  1.0  -0.5973
  O  O403  1  0.859750  0.703990  0.728130  1.0  -0.6496
  O  O404  1  0.350070  0.324960  0.765780  1.0  -0.5904
  O  O405  1  0.210010  0.326070  0.806500  1.0  -0.5659
  O  O406  1  0.361340  0.559550  0.910640  1.0  -0.255
  O  O407  1  0.772730  0.677230  0.913110  1.0  -0.607
  O  O408  1  0.666667  0.711470  0.798310  1.0  -0.6248
