# generated using pymatgen
data_MgH10C18(NO2)2
_symmetry_space_group_name_H-M   'P 1'
_cell_length_a   16.06850000
_cell_length_b   14.62580000
_cell_length_c   9.34570000
_cell_angle_alpha   90.00000000
_cell_angle_beta   117.79800000
_cell_angle_gamma   90.00000000
_symmetry_Int_Tables_number   1
_chemical_formula_structural   MgH10C18(NO2)2
_chemical_formula_sum   'Mg4 H40 C72 N8 O16'
_cell_volume   1942.90868945
_cell_formula_units_Z   4
loop_
 _symmetry_equiv_pos_site_id
 _symmetry_equiv_pos_as_xyz
  1  'x, y, z'
loop_
 _atom_site_type_symbol
 _atom_site_label
 _atom_site_symmetry_multiplicity
 _atom_site_fract_x
 _atom_site_fract_y
 _atom_site_fract_z
 _atom_site_occupancy
 _atom_site_charge
  Mg  Mg1  1  0.500000  0.957280  0.750000  1.0  1.4936
  Mg  Mg2  1  0.000000  0.457280  0.750000  1.0  1.4936
  Mg  Mg3  1  0.500000  0.042720  0.250000  1.0  1.4934
  Mg  Mg4  1  0.000000  0.542720  0.250000  1.0  1.4934
  H  H5  1  0.711800  0.809900  0.109800  1.0  0.0887
  H  H6  1  0.828100  0.723000  0.310100  1.0  0.0936
  H  H7  1  0.863900  0.919600  0.633700  1.0  0.0899
  H  H8  1  0.744200  0.003300  0.435600  1.0  0.085
  H  H9  1  0.890900  0.632600  0.536900  1.0  0.0644
  H  H10  1  0.211800  0.309900  0.109800  1.0  0.0887
  H  H11  1  0.328100  0.223000  0.310100  1.0  0.0936
  H  H12  1  0.363900  0.419600  0.633700  1.0  0.0899
  H  H13  1  0.244200  0.503300  0.435600  1.0  0.085
  H  H14  1  0.390900  0.132600  0.536900  1.0  0.0644
  H  H15  1  0.288200  0.809900  0.390200  1.0  0.089
  H  H16  1  0.171900  0.723000  0.189900  1.0  0.0944
  H  H17  1  0.136100  0.919600  0.866300  1.0  0.0894
  H  H18  1  0.255800  0.003300  0.064400  1.0  0.0855
  H  H19  1  0.109100  0.632600  0.963100  1.0  0.065
  H  H20  1  0.788200  0.309900  0.390200  1.0  0.089
  H  H21  1  0.671900  0.223000  0.189900  1.0  0.0944
  H  H22  1  0.636100  0.419600  0.866300  1.0  0.0894
  H  H23  1  0.755800  0.503300  0.064400  1.0  0.0855
  H  H24  1  0.609100  0.132600  0.963100  1.0  0.065
  H  H25  1  0.288200  0.190100  0.890200  1.0  0.0888
  H  H26  1  0.171900  0.277000  0.689900  1.0  0.0945
  H  H27  1  0.136100  0.080400  0.366300  1.0  0.0892
  H  H28  1  0.255800  0.996700  0.564400  1.0  0.0856
  H  H29  1  0.109100  0.367400  0.463100  1.0  0.0648
  H  H30  1  0.788200  0.690100  0.890200  1.0  0.0888
  H  H31  1  0.671900  0.777000  0.689900  1.0  0.0945
  H  H32  1  0.636100  0.580400  0.366300  1.0  0.0892
  H  H33  1  0.755800  0.496700  0.564400  1.0  0.0856
  H  H34  1  0.609100  0.867400  0.463100  1.0  0.0648
  H  H35  1  0.711800  0.190100  0.609800  1.0  0.0889
  H  H36  1  0.828100  0.277000  0.810100  1.0  0.0943
  H  H37  1  0.863900  0.080400  0.133700  1.0  0.0896
  H  H38  1  0.744200  0.996700  0.935600  1.0  0.0853
  H  H39  1  0.890900  0.367400  0.036900  1.0  0.0645
  H  H40  1  0.211800  0.690100  0.609800  1.0  0.0889
  H  H41  1  0.328100  0.777000  0.810100  1.0  0.0943
  H  H42  1  0.363900  0.580400  0.133700  1.0  0.0896
  H  H43  1  0.244200  0.496700  0.935600  1.0  0.0853
  H  H44  1  0.390900  0.867400  0.036900  1.0  0.0645
  C  C45  1  0.634100  0.968900  0.124200  1.0  0.6958
  C  C46  1  0.715600  0.915600  0.251900  1.0  -0.1734
  C  C47  1  0.741700  0.831500  0.215500  1.0  -0.0389
  C  C48  1  0.812000  0.779600  0.335600  1.0  -0.1131
  C  C49  1  0.858600  0.811900  0.494400  1.0  -0.0666
  C  C50  1  0.832700  0.896700  0.528900  1.0  -0.0633
  C  C51  1  0.761500  0.947400  0.409700  1.0  -0.0432
  C  C52  1  0.934100  0.758700  0.627100  1.0  0.1816
  C  C53  1  0.935900  0.663700  0.626400  1.0  0.1264
  C  C54  1  0.134100  0.468900  0.124200  1.0  0.6958
  C  C55  1  0.215600  0.415600  0.251900  1.0  -0.1734
  C  C56  1  0.241700  0.331500  0.215500  1.0  -0.0389
  C  C57  1  0.312000  0.279600  0.335600  1.0  -0.1131
  C  C58  1  0.358600  0.311900  0.494400  1.0  -0.0666
  C  C59  1  0.332700  0.396700  0.528900  1.0  -0.0633
  C  C60  1  0.261500  0.447400  0.409700  1.0  -0.0432
  C  C61  1  0.434100  0.258700  0.627100  1.0  0.1816
  C  C62  1  0.435900  0.163700  0.626400  1.0  0.1264
  C  C63  1  0.365900  0.968900  0.375800  1.0  0.6851
  C  C64  1  0.284400  0.915600  0.248100  1.0  -0.1741
  C  C65  1  0.258300  0.831500  0.284500  1.0  -0.04
  C  C66  1  0.188000  0.779600  0.164400  1.0  -0.1149
  C  C67  1  0.141400  0.811900  0.005600  1.0  -0.0652
  C  C68  1  0.167300  0.896700  0.971100  1.0  -0.0619
  C  C69  1  0.238500  0.947400  0.090300  1.0  -0.0442
  C  C70  1  0.065900  0.758700  0.872900  1.0  0.1808
  C  C71  1  0.064100  0.663700  0.873600  1.0  0.1276
  C  C72  1  0.865900  0.468900  0.375800  1.0  0.6851
  C  C73  1  0.784400  0.415600  0.248100  1.0  -0.1741
  C  C74  1  0.758300  0.331500  0.284500  1.0  -0.04
  C  C75  1  0.688000  0.279600  0.164400  1.0  -0.1149
  C  C76  1  0.641400  0.311900  0.005600  1.0  -0.0652
  C  C77  1  0.667300  0.396700  0.971100  1.0  -0.0619
  C  C78  1  0.738500  0.447400  0.090300  1.0  -0.0442
  C  C79  1  0.565900  0.258700  0.872900  1.0  0.1808
  C  C80  1  0.564100  0.163700  0.873600  1.0  0.1276
  C  C81  1  0.365900  0.031100  0.875800  1.0  0.6971
  C  C82  1  0.284400  0.084400  0.748100  1.0  -0.1737
  C  C83  1  0.258300  0.168500  0.784500  1.0  -0.0405
  C  C84  1  0.188000  0.220400  0.664400  1.0  -0.1152
  C  C85  1  0.141400  0.188100  0.505600  1.0  -0.0661
  C  C86  1  0.167300  0.103300  0.471100  1.0  -0.0614
  C  C87  1  0.238500  0.052600  0.590300  1.0  -0.0451
  C  C88  1  0.065900  0.241300  0.372900  1.0  0.1802
  C  C89  1  0.064100  0.336300  0.373600  1.0  0.1282
  C  C90  1  0.865900  0.531100  0.875800  1.0  0.6971
  C  C91  1  0.784400  0.584400  0.748100  1.0  -0.1737
  C  C92  1  0.758300  0.668500  0.784500  1.0  -0.0405
  C  C93  1  0.688000  0.720400  0.664400  1.0  -0.1152
  C  C94  1  0.641400  0.688100  0.505600  1.0  -0.0661
  C  C95  1  0.667300  0.603300  0.471100  1.0  -0.0614
  C  C96  1  0.738500  0.552600  0.590300  1.0  -0.0451
  C  C97  1  0.565900  0.741300  0.372900  1.0  0.1802
  C  C98  1  0.564100  0.836300  0.373600  1.0  0.1282
  C  C99  1  0.634100  0.031100  0.624200  1.0  0.6833
  C  C100  1  0.715600  0.084400  0.751900  1.0  -0.1741
  C  C101  1  0.741700  0.168500  0.715500  1.0  -0.0396
  C  C102  1  0.812000  0.220400  0.835600  1.0  -0.114
  C  C103  1  0.858600  0.188100  0.994400  1.0  -0.0669
  C  C104  1  0.832700  0.103300  0.028900  1.0  -0.0625
  C  C105  1  0.761500  0.052600  0.909700  1.0  -0.0424
  C  C106  1  0.934100  0.241300  0.127100  1.0  0.1811
  C  C107  1  0.935900  0.336300  0.126400  1.0  0.1258
  C  C108  1  0.134100  0.531100  0.624200  1.0  0.6833
  C  C109  1  0.215600  0.584400  0.751900  1.0  -0.1741
  C  C110  1  0.241700  0.668500  0.715500  1.0  -0.0396
  C  C111  1  0.312000  0.720400  0.835600  1.0  -0.114
  C  C112  1  0.358600  0.688100  0.994400  1.0  -0.0669
  C  C113  1  0.332700  0.603300  0.028900  1.0  -0.0625
  C  C114  1  0.261500  0.552600  0.909700  1.0  -0.0424
  C  C115  1  0.434100  0.741300  0.127100  1.0  0.1811
  C  C116  1  0.435900  0.836300  0.126400  1.0  0.1258
  N  N117  1  0.000000  0.806200  0.750000  1.0  -0.449
  N  N118  1  0.000000  0.615800  0.750000  1.0  -0.3389
  N  N119  1  0.500000  0.306200  0.750000  1.0  -0.449
  N  N120  1  0.500000  0.115800  0.750000  1.0  -0.3389
  N  N121  1  0.000000  0.193800  0.250000  1.0  -0.4509
  N  N122  1  0.000000  0.384200  0.250000  1.0  -0.3394
  N  N123  1  0.500000  0.693800  0.250000  1.0  -0.4509
  N  N124  1  0.500000  0.884200  0.250000  1.0  -0.3394
  O  O125  1  0.607290  0.946820  0.980700  1.0  -0.6376
  O  O126  1  0.600160  0.032810  0.171000  1.0  -0.6331
  O  O127  1  0.107290  0.446820  0.980700  1.0  -0.6376
  O  O128  1  0.100160  0.532810  0.171000  1.0  -0.6331
  O  O129  1  0.392710  0.946820  0.519300  1.0  -0.6396
  O  O130  1  0.399840  0.032810  0.329000  1.0  -0.6338
  O  O131  1  0.892710  0.446820  0.519300  1.0  -0.6396
  O  O132  1  0.899840  0.532810  0.329000  1.0  -0.6338
  O  O133  1  0.392710  0.053180  0.019300  1.0  -0.6427
  O  O134  1  0.399840  0.967190  0.829000  1.0  -0.6337
  O  O135  1  0.892710  0.553180  0.019300  1.0  -0.6427
  O  O136  1  0.899840  0.467190  0.829000  1.0  -0.6337
  O  O137  1  0.607290  0.053180  0.480700  1.0  -0.6389
  O  O138  1  0.600160  0.967190  0.671000  1.0  -0.6326
  O  O139  1  0.107290  0.553180  0.480700  1.0  -0.6389
  O  O140  1  0.100160  0.467190  0.671000  1.0  -0.6326
