# generated using pymatgen
data_Cd2H6C16O9
_symmetry_space_group_name_H-M   'P 1'
_cell_length_a   7.98960000
_cell_length_b   10.08310000
_cell_length_c   15.03670000
_cell_angle_alpha   79.46240000
_cell_angle_beta   74.59330000
_cell_angle_gamma   66.66000000
_symmetry_Int_Tables_number   1
_chemical_formula_structural   Cd2H6C16O9
_chemical_formula_sum   'Cd4 H12 C32 O18'
_cell_volume   1068.13052928
_cell_formula_units_Z   2
loop_
 _symmetry_equiv_pos_site_id
 _symmetry_equiv_pos_as_xyz
  1  'x, y, z'
loop_
 _atom_site_type_symbol
 _atom_site_label
 _atom_site_symmetry_multiplicity
 _atom_site_fract_x
 _atom_site_fract_y
 _atom_site_fract_z
 _atom_site_occupancy
 _atom_site_charge
  Cd  Cd1  1  0.330120  0.219010  0.532370  1.0  0.9405
  Cd  Cd2  1  0.081500  0.780990  0.467630  1.0  0.9407
  Cd  Cd3  1  0.517440  0.898170  0.253710  1.0  1.0881
  Cd  Cd4  1  0.669320  0.101830  0.746290  1.0  1.0814
  H  H5  1  0.566500  0.253200  0.004000  1.0  0.1288
  H  H6  1  0.800100  0.515300  0.746300  1.0  0.1312
  H  H7  1  0.980100  0.085400  0.190800  1.0  0.1309
  H  H8  1  0.207100  0.340800  0.991200  1.0  0.135
  H  H9  1  0.143100  0.599100  0.758500  1.0  0.112
  H  H10  1  0.823700  0.746800  0.996000  1.0  0.1279
  H  H11  1  0.061700  0.484700  0.253700  1.0  0.1317
  H  H12  1  0.309200  0.712800  0.913800  1.0  0.139
  H  H13  1  0.935800  0.287200  0.086200  1.0  0.1419
  H  H14  1  0.500700  0.400900  0.241500  1.0  0.111
  H  H15  1  0.539100  0.659200  0.008800  1.0  0.1349
  H  H16  1  0.256300  0.914600  0.809200  1.0  0.1317
  C  C17  1  0.076400  0.283000  0.305200  1.0  -0.1206
  C  C18  1  0.517000  0.414800  0.177400  1.0  -0.0292
  C  C19  1  0.820900  0.719800  0.613600  1.0  0.7133
  C  C20  1  0.968500  0.694700  0.870100  1.0  -0.1096
  C  C21  1  0.998300  0.165300  0.203100  1.0  -0.1056
  C  C22  1  0.971500  0.285600  0.140600  1.0  -0.1481
  C  C23  1  0.054100  0.160900  0.287500  1.0  0.0147
  C  C24  1  0.201000  0.456200  0.866600  1.0  -0.1441
  C  C25  1  0.523800  0.662600  0.182000  1.0  0.697
  C  C26  1  0.154300  0.280200  0.386400  1.0  0.7165
  C  C27  1  0.564700  0.593200  0.840600  1.0  0.2715
  C  C28  1  0.366700  0.834700  0.796900  1.0  -0.1063
  C  C29  1  0.006400  0.544600  0.012000  1.0  0.2939
  C  C30  1  0.526900  0.164100  0.175500  1.0  0.71
  C  C31  1  0.149500  0.430600  0.961200  1.0  -0.168
  C  C32  1  0.397700  0.714400  0.859400  1.0  -0.1461
  C  C33  1  0.502500  0.839100  0.712500  1.0  0.017
  C  C34  1  0.998500  0.406800  0.159400  1.0  0.2723
  C  C35  1  0.368400  0.337400  0.818000  1.0  0.6975
  C  C36  1  0.047400  0.403400  0.241000  1.0  -0.0766
  C  C37  1  0.563000  0.455400  0.988000  1.0  0.2938
  C  C38  1  0.664600  0.717000  0.694800  1.0  -0.1211
  C  C39  1  0.541300  0.569400  0.038800  1.0  -0.1717
  C  C40  1  0.109200  0.585200  0.822600  1.0  -0.0243
  C  C41  1  0.078800  0.031200  0.348200  1.0  0.6834
  C  C42  1  0.919500  0.672700  0.963500  1.0  -0.0824
  C  C43  1  0.691800  0.596600  0.759000  1.0  -0.0769
  C  C44  1  0.458200  0.968800  0.651800  1.0  0.6786
  C  C45  1  0.866500  0.835900  0.824500  1.0  0.7114
  C  C46  1  0.523800  0.543800  0.133400  1.0  -0.1452
  C  C47  1  0.555700  0.327300  0.036500  1.0  -0.0831
  C  C48  1  0.533300  0.305300  0.129900  1.0  -0.1091
  O  O49  1  0.422400  0.214700  0.858700  1.0  -0.5482
  O  O50  1  0.924400  0.871900  0.737700  1.0  -0.6184
  O  O51  1  0.956200  0.538800  0.103800  1.0  -0.2847
  O  O52  1  0.598800  0.461200  0.896200  1.0  -0.2841
  O  O53  1  0.796000  0.833600  0.560600  1.0  -0.5747
  O  O54  1  0.479300  0.081600  0.663000  1.0  -0.6379
  O  O55  1  0.554700  0.633800  0.265400  1.0  -0.6248
  O  O56  1  0.223900  0.918400  0.337000  1.0  -0.6381
  O  O57  1  0.941300  0.023400  0.414200  1.0  -0.6453
  O  O58  1  0.501600  0.081300  0.131100  1.0  -0.6562
  O  O59  1  0.534000  0.128100  0.262300  1.0  -0.6196
  O  O60  1  0.453900  0.366200  0.734600  1.0  -0.6231
  O  O61  1  0.495800  0.785300  0.141300  1.0  -0.5524
  O  O62  1  0.170100  0.389500  0.402900  1.0  -0.6125
  O  O63  1  0.378900  0.976600  0.585800  1.0  -0.6513
  O  O64  1  0.962500  0.610500  0.597100  1.0  -0.6121
  O  O65  1  0.190200  0.166400  0.439400  1.0  -0.5758
  O  O66  1  0.714000  0.918700  0.868900  1.0  -0.6506
