# generated using pymatgen
data_Co2H33C51(N2O)6
_symmetry_space_group_name_H-M   'P 1'
_cell_length_a   10.40200000
_cell_length_b   16.37300000
_cell_length_c   17.06570000
_cell_angle_alpha   61.33390000
_cell_angle_beta   87.31930000
_cell_angle_gamma   84.40490000
_symmetry_Int_Tables_number   1
_chemical_formula_structural   Co2H33C51(N2O)6
_chemical_formula_sum   'Co4 H66 C102 N24 O12'
_cell_volume   2538.09417354
_cell_formula_units_Z   2
loop_
 _symmetry_equiv_pos_site_id
 _symmetry_equiv_pos_as_xyz
  1  'x, y, z'
loop_
 _atom_site_type_symbol
 _atom_site_label
 _atom_site_symmetry_multiplicity
 _atom_site_fract_x
 _atom_site_fract_y
 _atom_site_fract_z
 _atom_site_occupancy
 _atom_site_charge
  Co  Co1  1  0.045900  0.693740  0.053200  1.0  0.863
  Co  Co2  1  0.546400  0.370470  0.698780  1.0  0.8675
  Co  Co3  1  0.545900  0.746940  0.946800  1.0  0.8615
  Co  Co4  1  0.046400  0.069250  0.301220  1.0  0.8674
  H  H5  1  0.806900  0.713600  0.314600  1.0  0.1086
  H  H6  1  0.316600  0.674500  0.140800  1.0  0.0738
  H  H7  1  0.688600  0.418300  0.961400  1.0  0.1208
  H  H8  1  0.725400  0.553400  0.416600  1.0  0.1048
  H  H9  1  0.818700  0.258500  0.789400  1.0  0.0679
  H  H10  1  0.517000  0.377800  0.889800  1.0  0.0974
  H  H11  1  0.559500  0.630400  0.183000  1.0  0.0883
  H  H12  1  0.276500  0.387500  0.788400  1.0  0.0629
  H  H13  1  0.778800  0.624000  0.138400  1.0  0.0807
  H  H14  1  0.278700  0.718600  0.714800  1.0  0.16
  H  H15  1  0.235600  0.796600  0.538200  1.0  0.0938
  H  H16  1  0.284500  0.275000  0.727000  1.0  0.0923
  H  H17  1  0.738300  0.005000  0.634800  1.0  0.0758
  H  H18  1  0.561300  0.188400  0.904400  1.0  0.1309
  H  H19  1  0.931400  0.105700  0.609600  1.0  0.1786
  H  H20  1  0.257800  0.966700  0.936400  1.0  0.0871
  H  H21  1  0.011500  0.458900  0.757600  1.0  0.1171
  H  H22  1  0.194900  0.593500  0.859400  1.0  0.1055
  H  H23  1  0.208400  0.260300  0.376800  1.0  0.108
  H  H24  1  0.036800  0.315200  0.277800  1.0  0.0749
  H  H25  1  0.013200  0.477900  0.163600  1.0  0.0749
  H  H26  1  0.006400  0.757600  0.205800  1.0  0.1182
  H  H27  1  0.094600  0.219400  0.762000  1.0  0.0815
  H  H28  1  0.541200  0.103800  0.580000  1.0  0.1272
  H  H29  1  0.386900  0.458800  0.416200  1.0  0.1079
  H  H30  1  0.501300  0.606100  0.531800  1.0  0.105
  H  H31  1  0.802300  0.463400  0.717600  1.0  0.099
  H  H32  1  0.832000  0.522600  0.940800  1.0  0.0892
  H  H33  1  0.453400  0.768200  0.484000  1.0  0.1267
  H  H34  1  0.425800  0.056900  0.949000  1.0  0.0999
  H  H35  1  0.899000  0.992600  0.851800  1.0  0.1108
  H  H36  1  0.355900  0.367800  0.368000  1.0  0.1064
  H  H37  1  0.528600  0.241600  0.596400  1.0  0.0942
  H  H38  1  0.332000  0.463400  0.059200  1.0  0.0913
  H  H39  1  0.816600  0.815300  0.859200  1.0  0.0732
  H  H40  1  0.041200  0.683800  0.420000  1.0  0.1261
  H  H41  1  0.855900  0.735800  0.632000  1.0  0.1053
  H  H42  1  0.061300  0.092800  0.095600  1.0  0.131
  H  H43  1  0.694900  0.452900  0.140600  1.0  0.1053
  H  H44  1  0.953400  0.252200  0.516000  1.0  0.127
  H  H45  1  0.306900  0.028200  0.685400  1.0  0.11
  H  H46  1  0.017000  0.267600  0.110200  1.0  0.0953
  H  H47  1  0.278800  0.762400  0.861600  1.0  0.082
  H  H48  1  0.708400  0.637100  0.623200  1.0  0.108
  H  H49  1  0.925800  0.005900  0.051000  1.0  0.0998
  H  H50  1  0.028600  0.838000  0.403600  1.0  0.0941
  H  H51  1  0.778700  0.433400  0.285200  1.0  0.1614
  H  H52  1  0.302300  0.181000  0.282400  1.0  0.0999
  H  H53  1  0.318700  0.047900  0.210600  1.0  0.0674
  H  H54  1  0.776500  0.175900  0.211600  1.0  0.0632
  H  H55  1  0.784500  0.002000  0.273000  1.0  0.0925
  H  H56  1  0.511500  0.216500  0.242400  1.0  0.1183
  H  H57  1  0.886900  0.875000  0.583800  1.0  0.1072
  H  H58  1  0.188600  0.379700  0.038600  1.0  0.12
  H  H59  1  0.059500  0.813400  0.817000  1.0  0.0885
  H  H60  1  0.399000  0.844400  0.148200  1.0  0.1109
  H  H61  1  0.594600  0.981400  0.238000  1.0  0.0822
  H  H62  1  0.238300  0.639800  0.365200  1.0  0.0731
  H  H63  1  0.735600  0.334800  0.461800  1.0  0.0931
  H  H64  1  0.506400  0.963400  0.794200  1.0  0.1179
  H  H65  1  0.513200  0.641500  0.836400  1.0  0.075
  H  H66  1  0.431400  0.715300  0.390400  1.0  0.1789
  H  H67  1  0.536800  0.593000  0.722200  1.0  0.0754
  H  H68  1  0.001300  0.137900  0.468200  1.0  0.1033
  H  H69  1  0.225400  0.970000  0.583400  1.0  0.1046
  H  H70  1  0.757800  0.903100  0.063600  1.0  0.0859
  C  C71  1  0.096000  0.356200  0.274400  1.0  -0.1537
  C  C72  1  0.407000  0.723100  0.529600  1.0  -0.1421
  C  C73  1  0.540000  0.504100  0.430400  1.0  -0.0049
  C  C74  1  0.597500  0.196000  0.619200  1.0  -0.1176
  C  C75  1  0.608000  0.119100  0.603200  1.0  -0.1345
  C  C76  1  0.439800  0.627800  0.560400  1.0  -0.1108
  C  C77  1  0.016500  0.567400  0.905000  1.0  -0.1742
  C  C78  1  0.280000  0.605700  0.680800  1.0  0.0849
  C  C79  1  0.412600  0.115700  0.899600  1.0  -0.0156
  C  C80  1  0.451600  0.497800  0.385600  1.0  -0.1225
  C  C81  1  0.283500  0.697900  0.672600  1.0  -0.0308
  C  C82  1  0.849700  0.105900  0.634200  1.0  -0.1176
  C  C83  1  0.080300  0.964900  0.908200  1.0  -0.0111
  C  C84  1  0.092400  0.155100  0.795800  1.0  -0.1462
  C  C85  1  0.254000  0.468900  0.269000  1.0  0.1429
  C  C86  1  0.120800  0.568200  0.855400  1.0  -0.1642
  C  C87  1  0.491800  0.186500  0.873200  1.0  -0.0266
  C  C88  1  0.811400  0.652200  0.168400  1.0  0.2077
  C  C89  1  0.983400  0.115500  0.800000  1.0  0.1621
  C  C90  1  0.198000  0.323200  0.334400  1.0  -0.0966
  C  C91  1  0.902200  0.523600  0.904600  1.0  -0.1189
  C  C92  1  0.653400  0.600400  0.295800  1.0  0.2327
  C  C93  1  0.012100  0.486400  0.794200  1.0  -0.1528
  C  C94  1  0.337200  0.234700  0.775400  1.0  0.1438
  C  C95  1  0.298700  0.447800  0.750800  1.0  0.158
  C  C96  1  0.116100  0.530400  0.797800  1.0  0.1836
  C  C97  1  0.284800  0.385100  0.330600  1.0  -0.1374
  C  C98  1  0.078600  0.453400  0.206200  1.0  -0.133
  C  C99  1  0.194000  0.104300  0.838600  1.0  0.1026
  C  C100  1  0.754000  0.440800  0.770000  1.0  0.1239
  C  C101  1  0.691700  0.419400  0.906400  1.0  -0.0863
  C  C102  1  0.687000  0.201200  0.667000  1.0  0.1824
  C  C103  1  0.024800  0.608000  0.969200  1.0  0.6038
  C  C104  1  0.446400  0.549100  0.287400  1.0  0.085
  C  C105  1  0.598300  0.395100  0.866000  1.0  0.0366
  C  C106  1  0.936500  0.727200  0.204000  1.0  -0.0084
  C  C107  1  0.823900  0.698900  0.268600  1.0  -0.0595
  C  C108  1  0.973100  0.019600  0.852800  1.0  -0.1319
  C  C109  1  0.542000  0.448200  0.530800  1.0  0.3755
  C  C110  1  0.186600  0.002500  0.902000  1.0  -0.1168
  C  C111  1  0.898900  0.485700  0.853400  1.0  0.1363
  C  C112  1  0.066900  0.863300  0.962200  1.0  0.6091
  C  C113  1  0.804000  0.144100  0.689600  1.0  0.0248
  C  C114  1  0.731700  0.066100  0.625400  1.0  -0.1104
  C  C115  1  0.167000  0.502900  0.211800  1.0  0.3298
  C  C116  1  0.373000  0.566100  0.637800  1.0  0.0584
  C  C117  1  0.554000  0.598800  0.245000  1.0  -0.1915
  C  C118  1  0.297000  0.748700  0.572800  1.0  -0.0739
  C  C119  1  0.283300  0.616500  0.171800  1.0  0.1926
  C  C120  1  0.655000  0.554300  0.384400  1.0  -0.162
  C  C121  1  0.800700  0.235600  0.751000  1.0  0.2201
  C  C122  1  0.436500  0.931200  0.796000  1.0  -0.0089
  C  C123  1  0.042000  0.979000  0.469200  1.0  0.3757
  C  C124  1  0.524800  0.577200  0.030800  1.0  0.6045
  C  C125  1  0.667000  0.714700  0.788200  1.0  0.3256
  C  C126  1  0.592400  0.950900  0.204200  1.0  -0.1453
  C  C127  1  0.837200  0.010100  0.224600  1.0  0.1432
  C  C128  1  0.097500  0.815200  0.380800  1.0  -0.1177
  C  C129  1  0.686600  0.904500  0.098000  1.0  -0.1219
  C  C130  1  0.596000  0.630600  0.725600  1.0  -0.154
  C  C131  1  0.473100  0.872400  0.147200  1.0  -0.1336
  C  C132  1  0.907000  0.252700  0.470400  1.0  -0.1379
  C  C133  1  0.155000  0.938700  0.615600  1.0  -0.1663
  C  C134  1  0.578600  0.659600  0.793800  1.0  -0.1312
  C  C135  1  0.108000  0.722300  0.396800  1.0  -0.1359
  C  C136  1  0.783500  0.370500  0.327400  1.0  -0.0347
  C  C137  1  0.912600  0.015300  0.100400  1.0  -0.0157
  C  C138  1  0.797000  0.321500  0.427200  1.0  -0.0706
  C  C139  1  0.616100  0.328200  0.202200  1.0  0.1836
  C  C140  1  0.191700  0.325800  0.093600  1.0  -0.079
  C  C141  1  0.254000  0.210800  0.230000  1.0  0.1233
  C  C142  1  0.798700  0.198600  0.249200  1.0  0.1603
  C  C143  1  0.698000  0.657600  0.665600  1.0  -0.0959
  C  C144  1  0.349700  0.740100  0.365800  1.0  -0.1193
  C  C145  1  0.939800  0.188200  0.439600  1.0  -0.1094
  C  C146  1  0.483400  0.915500  0.200000  1.0  0.1616
  C  C147  1  0.784800  0.715700  0.669400  1.0  -0.1338
  C  C148  1  0.580300  0.873100  0.091800  1.0  -0.014
  C  C149  1  0.398900  0.339100  0.146600  1.0  0.1366
  C  C150  1  0.783300  0.788300  0.828200  1.0  0.1922
  C  C151  1  0.054000  0.843800  0.755000  1.0  -0.1955
  C  C152  1  0.187000  0.868200  0.333000  1.0  0.1817
  C  C153  1  0.311400  0.820600  0.831600  1.0  0.2083
  C  C154  1  0.153400  0.896200  0.704200  1.0  0.2305
  C  C155  1  0.694000  0.942900  0.161400  1.0  0.1029
  C  C156  1  0.754000  0.737900  0.731000  1.0  0.1408
  C  C157  1  0.512100  0.280600  0.205800  1.0  -0.1551
  C  C158  1  0.780000  0.286500  0.319200  1.0  0.0849
  C  C159  1  0.991800  0.059700  0.126800  1.0  -0.0288
  C  C160  1  0.951600  0.883400  0.614400  1.0  -0.1266
  C  C161  1  0.231700  0.691500  0.374600  1.0  -0.1104
  C  C162  1  0.516500  0.472400  0.095000  1.0  -0.1709
  C  C163  1  0.098300  0.261100  0.134000  1.0  0.0425
  C  C164  1  0.304000  0.833700  0.310400  1.0  0.0252
  C  C165  1  0.946400  0.836500  0.712600  1.0  0.0848
  C  C166  1  0.620800  0.423600  0.144600  1.0  -0.164
  C  C167  1  0.040000  0.934500  0.569600  1.0  -0.0093
  C  C168  1  0.300700  0.986600  0.249000  1.0  0.2193
  C  C169  1  0.323900  0.967500  0.731400  1.0  -0.0657
  C  C170  1  0.873000  0.203900  0.362200  1.0  0.0579
  C  C171  1  0.566900  0.825500  0.037800  1.0  0.6077
  C  C172  1  0.402200  0.428200  0.095400  1.0  -0.1157
  N  N173  1  0.308000  0.146300  0.839600  1.0  -0.1756
  N  N174  1  0.914600  0.699000  0.142800  1.0  -0.3338
  N  N175  1  0.785600  0.444200  0.845800  1.0  0.0523
  N  N176  1  0.869500  0.170600  0.745800  1.0  -0.0417
  N  N177  1  0.395800  0.467400  0.696800  1.0  -0.4375
  N  N178  1  0.226000  0.533800  0.745600  1.0  -0.1495
  N  N179  1  0.447000  0.253600  0.791400  1.0  -0.3184
  N  N180  1  0.700300  0.267800  0.696600  1.0  -0.4087
  N  N181  1  0.644500  0.400400  0.782600  1.0  -0.4234
  N  N182  1  0.337500  0.547800  0.240600  1.0  -0.1448
  N  N183  1  0.176600  0.597100  0.149400  1.0  -0.4601
  N  N184  1  0.754900  0.649100  0.247200  1.0  -0.0653
  N  N185  1  0.676600  0.746500  0.850600  1.0  -0.4588
  N  N186  1  0.726000  0.279400  0.254400  1.0  -0.1542
  N  N187  1  0.369500  0.916400  0.254200  1.0  -0.0381
  N  N188  1  0.254900  0.896300  0.752800  1.0  -0.0658
  N  N189  1  0.808000  0.985900  0.160400  1.0  -0.1767
  N  N190  1  0.414600  0.841800  0.857200  1.0  -0.3329
  N  N191  1  0.200300  0.964400  0.303400  1.0  -0.4087
  N  N192  1  0.837500  0.788400  0.759400  1.0  -0.145
  N  N193  1  0.144500  0.183000  0.217400  1.0  -0.4225
  N  N194  1  0.285600  0.290000  0.154200  1.0  0.0505
  N  N195  1  0.947000  0.045000  0.208600  1.0  -0.3186
  N  N196  1  0.895800  0.164200  0.303200  1.0  -0.438
  O  O197  1  0.464200  0.400400  0.572200  1.0  -0.5688
  O  O198  1  0.940600  0.599200  0.025000  1.0  -0.603
  O  O199  1  0.109100  0.664800  0.951000  1.0  -0.5799
  O  O200  1  0.637000  0.471200  0.572200  1.0  -0.6053
  O  O201  1  0.146500  0.816300  0.027400  1.0  -0.5825
  O  O202  1  0.972300  0.827100  0.951200  1.0  -0.5877
  O  O203  1  0.440600  0.624200  0.975000  1.0  -0.603
  O  O204  1  0.472300  0.778300  0.048800  1.0  -0.5873
  O  O205  1  0.646500  0.843700  0.972600  1.0  -0.5824
  O  O206  1  0.964200  0.972600  0.427800  1.0  -0.5685
  O  O207  1  0.137000  0.043400  0.427800  1.0  -0.6041
  O  O208  1  0.609100  0.615800  0.049000  1.0  -0.58
