# generated using pymatgen
data_CoH3(CO2)3
_symmetry_space_group_name_H-M   'P 1'
_cell_length_a   8.72380000
_cell_length_b   11.62720000
_cell_length_c   8.27470000
_cell_angle_alpha   90.00000000
_cell_angle_beta   90.00000000
_cell_angle_gamma   90.00000000
_symmetry_Int_Tables_number   1
_chemical_formula_structural   CoH3(CO2)3
_chemical_formula_sum   'Co4 H12 C12 O24'
_cell_volume   839.33068489
_cell_formula_units_Z   4
loop_
 _symmetry_equiv_pos_site_id
 _symmetry_equiv_pos_as_xyz
  1  'x, y, z'
loop_
 _atom_site_type_symbol
 _atom_site_label
 _atom_site_symmetry_multiplicity
 _atom_site_fract_x
 _atom_site_fract_y
 _atom_site_fract_z
 _atom_site_occupancy
 _atom_site_charge
  Co  Co1  1  0.237200  0.250000  0.250000  1.0  1.0918
  Co  Co2  1  0.262800  0.750000  0.250000  1.0  1.0922
  Co  Co3  1  0.762800  0.750000  0.750000  1.0  1.0922
  Co  Co4  1  0.737200  0.250000  0.750000  1.0  1.0918
  H  H5  1  0.422000  0.212300  0.571100  1.0  0.0577
  H  H6  1  0.078000  0.787700  0.571100  1.0  0.0575
  H  H7  1  0.078000  0.712300  0.928900  1.0  0.0579
  H  H8  1  0.422000  0.287700  0.928900  1.0  0.0584
  H  H9  1  0.578000  0.787700  0.428900  1.0  0.0584
  H  H10  1  0.922000  0.212300  0.428900  1.0  0.0581
  H  H11  1  0.922000  0.287700  0.071100  1.0  0.0572
  H  H12  1  0.578000  0.712300  0.071100  1.0  0.0576
  H  H13  1  0.250000  0.000000  0.201900  1.0  0.0476
  H  H14  1  0.250000  0.500000  0.298100  1.0  0.0474
  H  H15  1  0.750000  0.000000  0.798100  1.0  0.0474
  H  H16  1  0.750000  0.500000  0.701900  1.0  0.0476
  C  C17  1  0.470150  0.280010  0.522530  1.0  0.7135
  C  C18  1  0.029850  0.719990  0.522530  1.0  0.7138
  C  C19  1  0.029850  0.780010  0.977470  1.0  0.7131
  C  C20  1  0.470150  0.219990  0.977470  1.0  0.7134
  C  C21  1  0.529850  0.719990  0.477470  1.0  0.7133
  C  C22  1  0.970150  0.280010  0.477470  1.0  0.7136
  C  C23  1  0.970150  0.219990  0.022530  1.0  0.714
  C  C24  1  0.529850  0.780010  0.022530  1.0  0.7135
  C  C25  1  0.250000  0.000000  0.314300  1.0  0.707
  C  C26  1  0.250000  0.500000  0.185700  1.0  0.7082
  C  C27  1  0.750000  0.000000  0.685700  1.0  0.7082
  C  C28  1  0.750000  0.500000  0.814300  1.0  0.707
  O  O29  1  0.583870  0.322270  0.589000  1.0  -0.5666
  O  O30  1  0.238080  0.094750  0.383670  1.0  -0.5687
  O  O31  1  0.412360  0.316890  0.395000  1.0  -0.561
  O  O32  1  0.916130  0.677730  0.589000  1.0  -0.5667
  O  O33  1  0.261920  0.905250  0.383670  1.0  -0.5693
  O  O34  1  0.087640  0.683110  0.395000  1.0  -0.5612
  O  O35  1  0.916130  0.822270  0.911000  1.0  -0.5651
  O  O36  1  0.261920  0.594750  0.116330  1.0  -0.5674
  O  O37  1  0.087640  0.816890  0.105000  1.0  -0.5615
  O  O38  1  0.583870  0.177730  0.911000  1.0  -0.5644
  O  O39  1  0.238080  0.405250  0.116330  1.0  -0.5682
  O  O40  1  0.412360  0.183110  0.105000  1.0  -0.5605
  O  O41  1  0.416130  0.677730  0.411000  1.0  -0.5647
  O  O42  1  0.761920  0.905250  0.616330  1.0  -0.5685
  O  O43  1  0.587640  0.683110  0.605000  1.0  -0.561
  O  O44  1  0.083870  0.322270  0.411000  1.0  -0.5657
  O  O45  1  0.738080  0.094750  0.616330  1.0  -0.5671
  O  O46  1  0.912360  0.316890  0.605000  1.0  -0.5612
  O  O47  1  0.083870  0.177730  0.089000  1.0  -0.5652
  O  O48  1  0.738080  0.405250  0.883670  1.0  -0.569
  O  O49  1  0.912360  0.183110  0.895000  1.0  -0.5604
  O  O50  1  0.416130  0.822270  0.089000  1.0  -0.5653
  O  O51  1  0.761920  0.594750  0.883670  1.0  -0.5689
  O  O52  1  0.587640  0.816890  0.895000  1.0  -0.5618
