# generated using pymatgen
data_FeH3(CO2)3
_symmetry_space_group_name_H-M   'P 1'
_cell_length_a   8.82460000
_cell_length_b   11.73360000
_cell_length_c   8.32580000
_cell_angle_alpha   90.00000000
_cell_angle_beta   90.00000000
_cell_angle_gamma   90.00000000
_symmetry_Int_Tables_number   1
_chemical_formula_structural   FeH3(CO2)3
_chemical_formula_sum   'Fe4 H12 C12 O24'
_cell_volume   862.08935407
_cell_formula_units_Z   4
loop_
 _symmetry_equiv_pos_site_id
 _symmetry_equiv_pos_as_xyz
  1  'x, y, z'
loop_
 _atom_site_type_symbol
 _atom_site_label
 _atom_site_symmetry_multiplicity
 _atom_site_fract_x
 _atom_site_fract_y
 _atom_site_fract_z
 _atom_site_occupancy
 _atom_site_charge
  Fe  Fe1  1  0.238460  0.250000  0.250000  1.0  0.9155
  Fe  Fe2  1  0.261540  0.750000  0.250000  1.0  0.9164
  Fe  Fe3  1  0.761540  0.750000  0.750000  1.0  0.9164
  Fe  Fe4  1  0.738460  0.250000  0.750000  1.0  0.9155
  H  H5  1  0.424300  0.217200  0.567500  1.0  0.0592
  H  H6  1  0.075700  0.782800  0.567500  1.0  0.0598
  H  H7  1  0.075700  0.717200  0.932500  1.0  0.0593
  H  H8  1  0.424300  0.282800  0.932500  1.0  0.06
  H  H9  1  0.575700  0.782800  0.432500  1.0  0.0602
  H  H10  1  0.924300  0.217200  0.432500  1.0  0.0595
  H  H11  1  0.924300  0.282800  0.067500  1.0  0.059
  H  H12  1  0.575700  0.717200  0.067500  1.0  0.0593
  H  H13  1  0.250000  0.000000  0.207400  1.0  0.0539
  H  H14  1  0.250000  0.500000  0.292600  1.0  0.053
  H  H15  1  0.750000  0.000000  0.792600  1.0  0.053
  H  H16  1  0.750000  0.500000  0.707400  1.0  0.0539
  C  C17  1  0.469950  0.281630  0.523330  1.0  0.7518
  C  C18  1  0.030050  0.718370  0.523330  1.0  0.752
  C  C19  1  0.030050  0.781630  0.976670  1.0  0.7516
  C  C20  1  0.469950  0.218370  0.976670  1.0  0.7523
  C  C21  1  0.530050  0.718370  0.476670  1.0  0.7517
  C  C22  1  0.969950  0.281630  0.476670  1.0  0.7519
  C  C23  1  0.969950  0.218370  0.023330  1.0  0.7525
  C  C24  1  0.530050  0.781630  0.023330  1.0  0.7515
  C  C25  1  0.250000  0.000000  0.319100  1.0  0.7416
  C  C26  1  0.250000  0.500000  0.180900  1.0  0.7424
  C  C27  1  0.750000  0.000000  0.680900  1.0  0.7424
  C  C28  1  0.750000  0.500000  0.819100  1.0  0.7416
  O  O29  1  0.582950  0.322120  0.589160  1.0  -0.5619
  O  O30  1  0.238510  0.094090  0.387520  1.0  -0.5541
  O  O31  1  0.415200  0.316650  0.394950  1.0  -0.5526
  O  O32  1  0.917050  0.677880  0.589160  1.0  -0.5632
  O  O33  1  0.261490  0.905910  0.387520  1.0  -0.5535
  O  O34  1  0.084800  0.683350  0.394950  1.0  -0.5523
  O  O35  1  0.917050  0.822120  0.910840  1.0  -0.5611
  O  O36  1  0.261490  0.594090  0.112480  1.0  -0.5518
  O  O37  1  0.084800  0.816650  0.105050  1.0  -0.5542
  O  O38  1  0.582950  0.177880  0.910840  1.0  -0.5608
  O  O39  1  0.238510  0.405910  0.112480  1.0  -0.5519
  O  O40  1  0.415200  0.183350  0.105050  1.0  -0.5527
  O  O41  1  0.417050  0.677880  0.410840  1.0  -0.5614
  O  O42  1  0.761490  0.905910  0.612480  1.0  -0.5519
  O  O43  1  0.584800  0.683350  0.605050  1.0  -0.553
  O  O44  1  0.082950  0.322120  0.410840  1.0  -0.5612
  O  O45  1  0.738510  0.094090  0.612480  1.0  -0.5518
  O  O46  1  0.915200  0.316650  0.605050  1.0  -0.5538
  O  O47  1  0.082950  0.177880  0.089160  1.0  -0.5608
  O  O48  1  0.738510  0.405910  0.887520  1.0  -0.5535
  O  O49  1  0.915200  0.183350  0.894950  1.0  -0.5517
  O  O50  1  0.417050  0.822120  0.089160  1.0  -0.5607
  O  O51  1  0.761490  0.594090  0.887520  1.0  -0.554
  O  O52  1  0.584800  0.816650  0.894950  1.0  -0.5532
