# generated using pymatgen
data_GdAgH8C14(NO4)2
_symmetry_space_group_name_H-M   'P 1'
_cell_length_a   9.51640000
_cell_length_b   12.04470000
_cell_length_c   16.82800000
_cell_angle_alpha   96.50700000
_cell_angle_beta   90.00000000
_cell_angle_gamma   113.26900000
_symmetry_Int_Tables_number   1
_chemical_formula_structural   GdAgH8C14(NO4)2
_chemical_formula_sum   'Gd4 Ag4 H32 C56 N8 O32'
_cell_volume   1758.43494499
_cell_formula_units_Z   4
loop_
 _symmetry_equiv_pos_site_id
 _symmetry_equiv_pos_as_xyz
  1  'x, y, z'
loop_
 _atom_site_type_symbol
 _atom_site_label
 _atom_site_symmetry_multiplicity
 _atom_site_fract_x
 _atom_site_fract_y
 _atom_site_fract_z
 _atom_site_occupancy
 _atom_site_charge
  Gd  Gd1  1  0.304510  0.009080  0.934320  1.0  2.1742
  Gd  Gd2  1  0.295430  0.990920  0.565680  1.0  2.1745
  Gd  Gd3  1  0.704570  0.009080  0.434320  1.0  2.169
  Gd  Gd4  1  0.695490  0.990920  0.065680  1.0  2.1728
  Ag  Ag5  1  0.038250  0.317840  0.583320  1.0  0.3606
  Ag  Ag6  1  0.279590  0.317840  0.083320  1.0  0.3605
  Ag  Ag7  1  0.720410  0.682160  0.916680  1.0  0.3603
  Ag  Ag8  1  0.961750  0.682160  0.416680  1.0  0.36
  H  H9  1  0.750900  0.697200  0.552700  1.0  0.0769
  H  H10  1  0.426800  0.808600  0.719800  1.0  0.1173
  H  H11  1  0.430700  0.421000  0.370500  1.0  0.1069
  H  H12  1  0.569300  0.579000  0.629500  1.0  0.1067
  H  H13  1  0.053700  0.302800  0.947300  1.0  0.0765
  H  H14  1  0.033500  0.900000  0.167700  1.0  0.1162
  H  H15  1  0.133500  0.100000  0.332300  1.0  0.1166
  H  H16  1  0.133800  0.628200  0.881700  1.0  0.1174
  H  H17  1  0.381800  0.808600  0.219800  1.0  0.1169
  H  H18  1  0.618200  0.191400  0.780200  1.0  0.1176
  H  H19  1  0.464900  0.705200  0.819200  1.0  0.0706
  H  H20  1  0.866200  0.371800  0.118300  1.0  0.1177
  H  H21  1  0.505600  0.371800  0.618300  1.0  0.1174
  H  H22  1  0.249100  0.302800  0.447300  1.0  0.0766
  H  H23  1  0.411100  0.584000  0.042100  1.0  0.0886
  H  H24  1  0.891100  0.801400  0.773300  1.0  0.0783
  H  H25  1  0.866500  0.900000  0.667700  1.0  0.116
  H  H26  1  0.089700  0.198600  0.726700  1.0  0.0785
  H  H27  1  0.535100  0.294800  0.180800  1.0  0.0702
  H  H28  1  0.827100  0.416000  0.457900  1.0  0.0887
  H  H29  1  0.240300  0.705200  0.319200  1.0  0.0706
  H  H30  1  0.990300  0.421000  0.870500  1.0  0.1067
  H  H31  1  0.759700  0.294800  0.680800  1.0  0.0705
  H  H32  1  0.009700  0.579000  0.129500  1.0  0.1068
  H  H33  1  0.573200  0.191400  0.280200  1.0  0.1169
  H  H34  1  0.946300  0.697200  0.052700  1.0  0.0769
  H  H35  1  0.910300  0.801400  0.273300  1.0  0.0781
  H  H36  1  0.494400  0.628200  0.381700  1.0  0.1177
  H  H37  1  0.172900  0.584000  0.542100  1.0  0.0884
  H  H38  1  0.966500  0.100000  0.832300  1.0  0.1164
  H  H39  1  0.588900  0.416000  0.957900  1.0  0.0889
  H  H40  1  0.108900  0.198600  0.226700  1.0  0.0787
  C  C41  1  0.784000  0.864200  0.699000  1.0  -0.176
  C  C42  1  0.619400  0.543800  0.594100  1.0  -0.1395
  C  C43  1  0.389200  0.762200  0.975600  1.0  0.713
  C  C44  1  0.661000  0.370400  0.536400  1.0  -0.2591
  C  C45  1  0.838400  0.420800  0.088100  1.0  -0.0073
  C  C46  1  0.373000  0.762200  0.475600  1.0  0.7132
  C  C47  1  0.035900  0.069200  0.011600  1.0  0.6453
  C  C48  1  0.356800  0.129800  0.315200  1.0  -0.0706
  C  C49  1  0.324500  0.551600  0.007600  1.0  0.1996
  C  C50  1  0.610800  0.237800  0.024400  1.0  0.7137
  C  C51  1  0.964100  0.930800  0.988400  1.0  0.6454
  C  C52  1  0.796400  0.803000  0.761900  1.0  0.1792
  C  C53  1  0.114600  0.385800  0.951500  1.0  0.1744
  C  C54  1  0.728800  0.614200  0.548500  1.0  0.1745
  C  C55  1  0.080200  0.864200  0.199000  1.0  -0.1752
  C  C56  1  0.677700  0.056400  0.878600  1.0  0.6887
  C  C57  1  0.773000  0.129800  0.815200  1.0  -0.0704
  C  C58  1  0.033300  0.069200  0.511600  1.0  0.6453
  C  C59  1  0.292300  0.070400  0.755400  1.0  0.5884
  C  C60  1  0.227100  0.551600  0.507600  1.0  0.1966
  C  C61  1  0.799900  0.252400  0.710300  1.0  0.1901
  C  C62  1  0.924400  0.543800  0.094100  1.0  -0.1441
  C  C63  1  0.523200  0.809000  0.729500  1.0  -0.1507
  C  C64  1  0.161600  0.579200  0.911900  1.0  -0.0084
  C  C65  1  0.216000  0.135800  0.301000  1.0  -0.1752
  C  C66  1  0.993400  0.197000  0.738100  1.0  0.18
  C  C67  1  0.714200  0.191000  0.770500  1.0  -0.1508
  C  C68  1  0.075600  0.456200  0.905900  1.0  -0.1433
  C  C69  1  0.322300  0.943600  0.121400  1.0  0.6892
  C  C70  1  0.772900  0.448400  0.492400  1.0  0.2012
  C  C71  1  0.271200  0.385800  0.451500  1.0  0.175
  C  C72  1  0.582400  0.420800  0.588100  1.0  -0.0076
  C  C73  1  0.227000  0.870200  0.184800  1.0  -0.0691
  C  C74  1  0.627000  0.237800  0.524400  1.0  0.714
  C  C75  1  0.621300  0.943600  0.621400  1.0  0.6891
  C  C76  1  0.203600  0.197000  0.238100  1.0  0.1789
  C  C77  1  0.675500  0.448400  0.992400  1.0  0.2019
  C  C78  1  0.378700  0.056400  0.378600  1.0  0.6891
  C  C79  1  0.221900  0.929600  0.744600  1.0  0.5899
  C  C80  1  0.380600  0.456200  0.405900  1.0  -0.1437
  C  C81  1  0.200100  0.747600  0.289700  1.0  0.1895
  C  C82  1  0.919800  0.135800  0.801000  1.0  -0.1761
  C  C83  1  0.290600  0.629600  0.963600  1.0  -0.26
  C  C84  1  0.417600  0.579200  0.411900  1.0  -0.0086
  C  C85  1  0.707700  0.929600  0.244600  1.0  0.5902
  C  C86  1  0.966700  0.930800  0.488400  1.0  0.6454
  C  C87  1  0.476800  0.191000  0.270500  1.0  -0.1531
  C  C88  1  0.006600  0.803000  0.261900  1.0  0.179
  C  C89  1  0.778100  0.070400  0.255400  1.0  0.5883
  C  C90  1  0.885400  0.614200  0.048500  1.0  0.1754
  C  C91  1  0.643200  0.870200  0.684800  1.0  -0.069
  C  C92  1  0.547500  0.747600  0.789700  1.0  0.1897
  C  C93  1  0.339000  0.629600  0.463600  1.0  -0.2608
  C  C94  1  0.709400  0.370400  0.036400  1.0  -0.2604
  C  C95  1  0.285800  0.809000  0.229500  1.0  -0.1536
  C  C96  1  0.452500  0.252400  0.210300  1.0  0.1902
  N  N97  1  0.065100  0.746600  0.306800  1.0  -0.2966
  N  N98  1  0.761900  0.568200  0.997500  1.0  -0.3006
  N  N99  1  0.806300  0.568200  0.497500  1.0  -0.3014
  N  N100  1  0.934900  0.253400  0.693200  1.0  -0.2968
  N  N101  1  0.318500  0.253400  0.193200  1.0  -0.2962
  N  N102  1  0.681500  0.746600  0.806800  1.0  -0.2949
  N  N103  1  0.238100  0.431800  0.002500  1.0  -0.3006
  N  N104  1  0.193700  0.431800  0.502500  1.0  -0.303
  O  O105  1  0.819100  0.123000  0.325000  1.0  -0.6211
  O  O106  1  0.668700  0.880400  0.307100  1.0  -0.604
  O  O107  1  0.500300  0.040600  0.377800  1.0  -0.703
  O  O108  1  0.744300  0.018200  0.926600  1.0  -0.676
  O  O109  1  0.478900  0.205400  0.994400  1.0  -0.6652
  O  O110  1  0.726100  0.981800  0.573400  1.0  -0.6751
  O  O111  1  0.180900  0.877000  0.675000  1.0  -0.6195
  O  O112  1  0.851400  0.885000  0.440600  1.0  -0.6481
  O  O113  1  0.273900  0.018200  0.426600  1.0  -0.6758
  O  O114  1  0.788300  0.119600  0.192900  1.0  -0.604
  O  O115  1  0.211700  0.880400  0.807100  1.0  -0.6045
  O  O116  1  0.966400  0.115000  0.059400  1.0  -0.6486
  O  O117  1  0.255700  0.981800  0.073400  1.0  -0.6746
  O  O118  1  0.967200  0.127400  0.482200  1.0  -0.6446
  O  O119  1  0.303900  0.123000  0.825000  1.0  -0.6203
  O  O120  1  0.521100  0.794600  0.005600  1.0  -0.665
  O  O121  1  0.500900  0.170000  0.546400  1.0  -0.7184
  O  O122  1  0.839800  0.872600  0.017800  1.0  -0.6449
  O  O123  1  0.696100  0.877000  0.175000  1.0  -0.6202
  O  O124  1  0.499700  0.959400  0.622200  1.0  -0.7038
  O  O125  1  0.499100  0.830000  0.453600  1.0  -0.7184
  O  O126  1  0.330900  0.830000  0.953600  1.0  -0.7186
  O  O127  1  0.032800  0.872600  0.517800  1.0  -0.6453
  O  O128  1  0.669100  0.170000  0.046400  1.0  -0.7183
  O  O129  1  0.148600  0.115000  0.559400  1.0  -0.6495
  O  O130  1  0.033600  0.885000  0.940600  1.0  -0.6487
  O  O131  1  0.160200  0.127400  0.982200  1.0  -0.645
  O  O132  1  0.459700  0.959400  0.122200  1.0  -0.703
  O  O133  1  0.273500  0.794600  0.505600  1.0  -0.6648
  O  O134  1  0.726500  0.205400  0.494400  1.0  -0.6641
  O  O135  1  0.540300  0.040600  0.877800  1.0  -0.7037
  O  O136  1  0.331300  0.119600  0.692900  1.0  -0.6048
