# generated using pymatgen
data_DyAgH8C14(NO4)2
_symmetry_space_group_name_H-M   'P 1'
_cell_length_a   9.49000000
_cell_length_b   12.07170000
_cell_length_c   16.78300000
_cell_angle_alpha   96.00880000
_cell_angle_beta   90.00000000
_cell_angle_gamma   113.14600000
_symmetry_Int_Tables_number   1
_chemical_formula_structural   DyAgH8C14(NO4)2
_chemical_formula_sum   'Dy4 Ag4 H32 C56 N8 O32'
_cell_volume   1756.41093986
_cell_formula_units_Z   4
loop_
 _symmetry_equiv_pos_site_id
 _symmetry_equiv_pos_as_xyz
  1  'x, y, z'
loop_
 _atom_site_type_symbol
 _atom_site_label
 _atom_site_symmetry_multiplicity
 _atom_site_fract_x
 _atom_site_fract_y
 _atom_site_fract_z
 _atom_site_occupancy
 _atom_site_charge
  Dy  Dy1  1  0.303850  0.009350  0.434070  1.0  2.2539
  Dy  Dy2  1  0.294500  0.990650  0.065930  1.0  2.2563
  Dy  Dy3  1  0.705510  0.009360  0.934070  1.0  2.2558
  Dy  Dy4  1  0.696160  0.990660  0.565930  1.0  2.2573
  Ag  Ag5  1  0.716970  0.684620  0.420470  1.0  0.3609
  Ag  Ag6  1  0.283030  0.315380  0.579530  1.0  0.3605
  Ag  Ag7  1  0.032350  0.315380  0.079530  1.0  0.3609
  Ag  Ag8  1  0.967650  0.684620  0.920470  1.0  0.3604
  H  H9  1  0.426300  0.812000  0.221500  1.0  0.1251
  H  H10  1  0.614300  0.188000  0.278500  1.0  0.1251
  H  H11  1  0.497300  0.366600  0.115000  1.0  0.1154
  H  H12  1  0.434500  0.426600  0.868800  1.0  0.1036
  H  H13  1  0.169100  0.582800  0.039700  1.0  0.0752
  H  H14  1  0.385700  0.812000  0.721500  1.0  0.1244
  H  H15  1  0.092500  0.199600  0.227800  1.0  0.0854
  H  H16  1  0.830900  0.417200  0.960300  1.0  0.0752
  H  H17  1  0.961700  0.096000  0.331100  1.0  0.1097
  H  H18  1  0.058700  0.305200  0.443900  1.0  0.0732
  H  H19  1  0.865700  0.904000  0.168900  1.0  0.1091
  H  H20  1  0.413700  0.582800  0.539700  1.0  0.0752
  H  H21  1  0.502700  0.633400  0.885000  1.0  0.1155
  H  H22  1  0.130700  0.633400  0.385000  1.0  0.1153
  H  H23  1  0.753500  0.694800  0.056100  1.0  0.0728
  H  H24  1  0.941300  0.694800  0.556100  1.0  0.0735
  H  H25  1  0.757100  0.294800  0.181300  1.0  0.0673
  H  H26  1  0.537700  0.294800  0.681300  1.0  0.0673
  H  H27  1  0.892900  0.800400  0.272200  1.0  0.086
  H  H28  1  0.992100  0.426600  0.368800  1.0  0.1033
  H  H29  1  0.869300  0.366600  0.615000  1.0  0.1159
  H  H30  1  0.242900  0.705200  0.818700  1.0  0.0681
  H  H31  1  0.134300  0.096000  0.831100  1.0  0.1098
  H  H32  1  0.007900  0.573400  0.631200  1.0  0.1029
  H  H33  1  0.586300  0.417200  0.460300  1.0  0.0753
  H  H34  1  0.907500  0.800400  0.772200  1.0  0.0862
  H  H35  1  0.107100  0.199600  0.727800  1.0  0.0851
  H  H36  1  0.573700  0.188000  0.778500  1.0  0.1242
  H  H37  1  0.038300  0.904000  0.668900  1.0  0.1093
  H  H38  1  0.462300  0.705200  0.318700  1.0  0.0678
  H  H39  1  0.565500  0.573400  0.131200  1.0  0.1027
  H  H40  1  0.246500  0.305200  0.943900  1.0  0.0732
  C  C41  1  0.730600  0.612000  0.050900  1.0  0.1794
  C  C42  1  0.643000  0.871200  0.184800  1.0  -0.0946
  C  C43  1  0.035700  0.069800  0.510500  1.0  0.5961
  C  C44  1  0.291200  0.631600  0.463700  1.0  -0.226
  C  C45  1  0.454100  0.251200  0.710100  1.0  0.1751
  C  C46  1  0.610900  0.236000  0.523400  1.0  0.6902
  C  C47  1  0.379800  0.054800  0.878300  1.0  0.6733
  C  C48  1  0.545900  0.748800  0.289900  1.0  0.1749
  C  C49  1  0.005300  0.803600  0.762200  1.0  0.1646
  C  C50  1  0.994700  0.196400  0.237800  1.0  0.1659
  C  C51  1  0.798300  0.803600  0.262200  1.0  0.164
  C  C52  1  0.083400  0.866200  0.699900  1.0  -0.127
  C  C53  1  0.522400  0.810800  0.230500  1.0  -0.1683
  C  C54  1  0.964300  0.930200  0.489500  1.0  0.5964
  C  C55  1  0.774900  0.448400  0.994400  1.0  0.2069
  C  C56  1  0.771800  0.128800  0.315200  1.0  -0.0947
  C  C57  1  0.222100  0.929600  0.245700  1.0  0.5975
  C  C58  1  0.326500  0.551600  0.505600  1.0  0.2155
  C  C59  1  0.383700  0.460600  0.904500  1.0  -0.1302
  C  C60  1  0.288400  0.810800  0.730500  1.0  -0.1677
  C  C61  1  0.228200  0.871200  0.684800  1.0  -0.0955
  C  C62  1  0.160800  0.583200  0.412900  1.0  -0.0075
  C  C63  1  0.625100  0.236000  0.023400  1.0  0.6896
  C  C64  1  0.340400  0.631600  0.963700  1.0  -0.227
  C  C65  1  0.357000  0.128800  0.815200  1.0  -0.0955
  C  C66  1  0.707500  0.929600  0.745700  1.0  0.5982
  C  C67  1  0.711600  0.189200  0.269500  1.0  -0.168
  C  C68  1  0.839200  0.416800  0.587100  1.0  -0.0072
  C  C69  1  0.620200  0.945200  0.121700  1.0  0.6726
  C  C70  1  0.389100  0.764000  0.476600  1.0  0.6928
  C  C71  1  0.325000  0.945200  0.621700  1.0  0.673
  C  C72  1  0.616300  0.539400  0.095500  1.0  -0.131
  C  C73  1  0.881400  0.612000  0.550900  1.0  0.1806
  C  C74  1  0.225100  0.551600  0.005600  1.0  0.2145
  C  C75  1  0.217200  0.133800  0.800100  1.0  -0.1261
  C  C76  1  0.292500  0.070400  0.254300  1.0  0.5961
  C  C77  1  0.577600  0.416800  0.087100  1.0  -0.0057
  C  C78  1  0.675000  0.054800  0.378300  1.0  0.6728
  C  C79  1  0.797100  0.251200  0.210100  1.0  0.1746
  C  C80  1  0.659600  0.368400  0.036300  1.0  -0.2248
  C  C81  1  0.422400  0.583200  0.912900  1.0  -0.0051
  C  C82  1  0.673500  0.448400  0.494400  1.0  0.2077
  C  C83  1  0.374900  0.764000  0.976600  1.0  0.6938
  C  C84  1  0.269400  0.388000  0.949100  1.0  0.1781
  C  C85  1  0.916600  0.133800  0.300100  1.0  -0.1282
  C  C86  1  0.076900  0.460600  0.404500  1.0  -0.1257
  C  C87  1  0.202900  0.748800  0.789900  1.0  0.1747
  C  C88  1  0.782800  0.866200  0.199900  1.0  -0.1281
  C  C89  1  0.477600  0.189200  0.769500  1.0  -0.1686
  C  C90  1  0.923100  0.539400  0.595500  1.0  -0.1302
  C  C91  1  0.118600  0.388000  0.449100  1.0  0.181
  C  C92  1  0.201700  0.196400  0.737800  1.0  0.1637
  C  C93  1  0.777900  0.070400  0.754300  1.0  0.5968
  C  C94  1  0.034100  0.069800  0.010500  1.0  0.5962
  C  C95  1  0.965900  0.930200  0.989500  1.0  0.5964
  C  C96  1  0.708800  0.368400  0.536300  1.0  -0.2263
  N  N97  1  0.318700  0.252400  0.691800  1.0  -0.3122
  N  N98  1  0.066300  0.747600  0.808200  1.0  -0.3092
  N  N99  1  0.809700  0.567800  0.000600  1.0  -0.3054
  N  N100  1  0.933700  0.252400  0.191800  1.0  -0.3133
  N  N101  1  0.190300  0.432200  0.999400  1.0  -0.3075
  N  N102  1  0.681300  0.747600  0.308200  1.0  -0.3086
  N  N103  1  0.758100  0.567800  0.500600  1.0  -0.3064
  N  N104  1  0.241900  0.432200  0.499400  1.0  -0.3049
  O  O105  1  0.033900  0.874200  0.020700  1.0  -0.6278
  O  O106  1  0.209900  0.881000  0.308600  1.0  -0.6033
  O  O107  1  0.463100  0.962400  0.622600  1.0  -0.6894
  O  O108  1  0.965100  0.115000  0.557500  1.0  -0.6274
  O  O109  1  0.275300  0.797400  0.008300  1.0  -0.6963
  O  O110  1  0.741300  0.014000  0.427400  1.0  -0.6958
  O  O111  1  0.671100  0.881000  0.808600  1.0  -0.6029
  O  O112  1  0.034900  0.885000  0.442500  1.0  -0.6274
  O  O113  1  0.304800  0.123000  0.324400  1.0  -0.6329
  O  O114  1  0.477900  0.202600  0.491700  1.0  -0.6971
  O  O115  1  0.669700  0.166800  0.544900  1.0  -0.7173
  O  O116  1  0.727300  0.986000  0.072600  1.0  -0.6958
  O  O117  1  0.502900  0.833200  0.955100  1.0  -0.7171
  O  O118  1  0.724700  0.202600  0.991700  1.0  -0.6967
  O  O119  1  0.272700  0.014000  0.927400  1.0  -0.6953
  O  O120  1  0.522100  0.797400  0.508300  1.0  -0.6932
  O  O121  1  0.695200  0.877000  0.675600  1.0  -0.6333
  O  O122  1  0.149900  0.115000  0.057500  1.0  -0.6276
  O  O123  1  0.159700  0.125800  0.479300  1.0  -0.628
  O  O124  1  0.181800  0.877000  0.175600  1.0  -0.6335
  O  O125  1  0.500700  0.037600  0.877400  1.0  -0.6891
  O  O126  1  0.536900  0.037600  0.377400  1.0  -0.6897
  O  O127  1  0.966100  0.125800  0.979300  1.0  -0.6282
  O  O128  1  0.850100  0.885000  0.942500  1.0  -0.6275
  O  O129  1  0.818200  0.123000  0.824400  1.0  -0.6331
  O  O130  1  0.258700  0.986000  0.572600  1.0  -0.6954
  O  O131  1  0.330300  0.833200  0.455100  1.0  -0.7172
  O  O132  1  0.790100  0.119000  0.691400  1.0  -0.6031
  O  O133  1  0.497100  0.166800  0.044900  1.0  -0.7176
  O  O134  1  0.840300  0.874200  0.520700  1.0  -0.6278
  O  O135  1  0.328900  0.119000  0.191400  1.0  -0.6038
  O  O136  1  0.499300  0.962400  0.122600  1.0  -0.69
