# generated using pymatgen
data_EuAgH8C14(NO4)2
_symmetry_space_group_name_H-M   'P 1'
_cell_length_a   9.52500000
_cell_length_b   12.04040000
_cell_length_c   16.86500000
_cell_angle_alpha   96.54220000
_cell_angle_beta   90.00000000
_cell_angle_gamma   113.30000000
_symmetry_Int_Tables_number   1
_chemical_formula_structural   EuAgH8C14(NO4)2
_chemical_formula_sum   'Eu4 Ag4 H32 C56 N8 O32'
_cell_volume   1762.70008024
_cell_formula_units_Z   4
loop_
 _symmetry_equiv_pos_site_id
 _symmetry_equiv_pos_as_xyz
  1  'x, y, z'
loop_
 _atom_site_type_symbol
 _atom_site_label
 _atom_site_symmetry_multiplicity
 _atom_site_fract_x
 _atom_site_fract_y
 _atom_site_fract_z
 _atom_site_occupancy
 _atom_site_charge
  Eu  Eu1  1  0.295840  0.991000  0.565750  1.0  2.1149
  Eu  Eu2  1  0.704160  0.009000  0.434250  1.0  2.1097
  Eu  Eu3  1  0.695160  0.991000  0.065750  1.0  2.1143
  Eu  Eu4  1  0.304840  0.009000  0.934250  1.0  2.1132
  Ag  Ag5  1  0.720870  0.682680  0.916410  1.0  0.3543
  Ag  Ag6  1  0.279130  0.317320  0.083590  1.0  0.3545
  Ag  Ag7  1  0.038190  0.317320  0.583590  1.0  0.3545
  Ag  Ag8  1  0.961810  0.682680  0.416410  1.0  0.3539
  H  H9  1  0.507100  0.371600  0.617300  1.0  0.1124
  H  H10  1  0.430600  0.421400  0.369900  1.0  0.1032
  H  H11  1  0.492900  0.628400  0.382700  1.0  0.1128
  H  H12  1  0.466500  0.707000  0.819500  1.0  0.066
  H  H13  1  0.533500  0.293000  0.180500  1.0  0.0657
  H  H14  1  0.009200  0.578600  0.130100  1.0  0.1031
  H  H15  1  0.240500  0.707000  0.319500  1.0  0.0662
  H  H16  1  0.864500  0.371600  0.117300  1.0  0.1124
  H  H17  1  0.948100  0.698400  0.051500  1.0  0.0864
  H  H18  1  0.865500  0.898200  0.667500  1.0  0.1178
  H  H19  1  0.249700  0.301600  0.448500  1.0  0.0861
  H  H20  1  0.618300  0.191200  0.779300  1.0  0.1235
  H  H21  1  0.032700  0.898200  0.167500  1.0  0.1178
  H  H22  1  0.759500  0.293000  0.680500  1.0  0.0659
  H  H23  1  0.381700  0.808800  0.220700  1.0  0.1228
  H  H24  1  0.572900  0.191200  0.279300  1.0  0.1227
  H  H25  1  0.891900  0.801200  0.772800  1.0  0.0795
  H  H26  1  0.569400  0.578600  0.630100  1.0  0.1028
  H  H27  1  0.825600  0.416200  0.457200  1.0  0.0754
  H  H28  1  0.135500  0.628400  0.882700  1.0  0.1127
  H  H29  1  0.051900  0.301600  0.948500  1.0  0.0852
  H  H30  1  0.590600  0.416200  0.957200  1.0  0.0754
  H  H31  1  0.134500  0.101800  0.332500  1.0  0.1183
  H  H32  1  0.750300  0.698400  0.551500  1.0  0.0856
  H  H33  1  0.108100  0.198800  0.227200  1.0  0.0802
  H  H34  1  0.174400  0.583800  0.542800  1.0  0.075
  H  H35  1  0.967300  0.101800  0.832500  1.0  0.1183
  H  H36  1  0.909300  0.801200  0.272800  1.0  0.0796
  H  H37  1  0.990800  0.421400  0.869900  1.0  0.1029
  H  H38  1  0.090700  0.198800  0.727200  1.0  0.0799
  H  H39  1  0.427100  0.808800  0.720700  1.0  0.123
  H  H40  1  0.409400  0.583800  0.042800  1.0  0.0752
  C  C41  1  0.778100  0.070600  0.255500  1.0  0.6079
  C  C42  1  0.644000  0.870800  0.684900  1.0  -0.0381
  C  C43  1  0.729000  0.615600  0.547800  1.0  0.1608
  C  C44  1  0.523600  0.809400  0.730200  1.0  -0.1599
  C  C45  1  0.966400  0.930600  0.488300  1.0  0.6348
  C  C46  1  0.320800  0.942600  0.121500  1.0  0.6789
  C  C47  1  0.285800  0.809400  0.230200  1.0  -0.1624
  C  C48  1  0.323400  0.550800  0.007800  1.0  0.1993
  C  C49  1  0.202800  0.197200  0.238300  1.0  0.1777
  C  C50  1  0.271000  0.384400  0.452200  1.0  0.1634
  C  C51  1  0.964200  0.930600  0.988300  1.0  0.6349
  C  C52  1  0.451300  0.251400  0.210300  1.0  0.189
  C  C53  1  0.476400  0.190600  0.269800  1.0  -0.161
  C  C54  1  0.709200  0.372800  0.036400  1.0  -0.2104
  C  C55  1  0.035800  0.069400  0.011700  1.0  0.6344
  C  C56  1  0.221900  0.929400  0.744500  1.0  0.609
  C  C57  1  0.290800  0.627200  0.963600  1.0  -0.2109
  C  C58  1  0.619300  0.543800  0.594300  1.0  -0.115
  C  C59  1  0.216600  0.136600  0.300800  1.0  -0.1781
  C  C60  1  0.080000  0.863400  0.199200  1.0  -0.1783
  C  C61  1  0.714200  0.190600  0.769800  1.0  -0.1603
  C  C62  1  0.783400  0.863400  0.699200  1.0  -0.1795
  C  C63  1  0.800100  0.251400  0.710300  1.0  0.1887
  C  C64  1  0.075500  0.456200  0.905700  1.0  -0.113
  C  C65  1  0.199900  0.748600  0.289700  1.0  0.189
  C  C66  1  0.378200  0.057400  0.378500  1.0  0.6786
  C  C67  1  0.005600  0.802800  0.261700  1.0  0.1773
  C  C68  1  0.033600  0.069400  0.511700  1.0  0.6345
  C  C69  1  0.372600  0.761200  0.475400  1.0  0.6972
  C  C70  1  0.679200  0.057400  0.878500  1.0  0.6782
  C  C71  1  0.292500  0.070600  0.755500  1.0  0.6073
  C  C72  1  0.611400  0.238800  0.024600  1.0  0.697
  C  C73  1  0.676600  0.449200  0.992200  1.0  0.1985
  C  C74  1  0.548700  0.748600  0.789700  1.0  0.1892
  C  C75  1  0.336400  0.627200  0.463600  1.0  -0.2102
  C  C76  1  0.356000  0.129200  0.315100  1.0  -0.0384
  C  C77  1  0.772600  0.449200  0.492200  1.0  0.1963
  C  C78  1  0.226800  0.870800  0.184900  1.0  -0.0372
  C  C79  1  0.994400  0.197200  0.738300  1.0  0.179
  C  C80  1  0.924500  0.543800  0.094300  1.0  -0.1183
  C  C81  1  0.416200  0.578600  0.412300  1.0  0.0013
  C  C82  1  0.388600  0.761200  0.975400  1.0  0.6968
  C  C83  1  0.227400  0.550800  0.507800  1.0  0.1967
  C  C84  1  0.886600  0.615600  0.047800  1.0  0.165
  C  C85  1  0.162400  0.578600  0.912300  1.0  0.0021
  C  C86  1  0.380700  0.456200  0.405700  1.0  -0.1157
  C  C87  1  0.583800  0.421400  0.587700  1.0  0.0028
  C  C88  1  0.113400  0.384400  0.952200  1.0  0.1628
  C  C89  1  0.707500  0.929400  0.244500  1.0  0.6096
  C  C90  1  0.621800  0.942600  0.621500  1.0  0.6787
  C  C91  1  0.920000  0.136600  0.800800  1.0  -0.1798
  C  C92  1  0.837600  0.421400  0.087700  1.0  0.0026
  C  C93  1  0.773200  0.129200  0.815100  1.0  -0.038
  C  C94  1  0.627400  0.238800  0.524600  1.0  0.6951
  C  C95  1  0.663600  0.372800  0.536400  1.0  -0.2092
  C  C96  1  0.797200  0.802800  0.761700  1.0  0.1779
  N  N97  1  0.682400  0.746600  0.806700  1.0  -0.2988
  N  N98  1  0.238400  0.431600  0.003400  1.0  -0.3093
  N  N99  1  0.064200  0.746600  0.306700  1.0  -0.3
  N  N100  1  0.317600  0.253400  0.193300  1.0  -0.2991
  N  N101  1  0.935800  0.253400  0.693300  1.0  -0.3003
  N  N102  1  0.806800  0.568400  0.496600  1.0  -0.3094
  N  N103  1  0.761600  0.568400  0.996600  1.0  -0.3075
  N  N104  1  0.193200  0.431600  0.503400  1.0  -0.3111
  O  O105  1  0.669400  0.879600  0.306600  1.0  -0.6067
  O  O106  1  0.839980  0.872960  0.017800  1.0  -0.6494
  O  O107  1  0.726500  0.980200  0.573600  1.0  -0.6758
  O  O108  1  0.033550  0.885700  0.940100  1.0  -0.6374
  O  O109  1  0.542700  0.041800  0.878000  1.0  -0.694
  O  O110  1  0.272620  0.793440  0.505500  1.0  -0.6634
  O  O111  1  0.210200  0.879600  0.806600  1.0  -0.6061
  O  O112  1  0.852150  0.885700  0.440100  1.0  -0.6364
  O  O113  1  0.500900  0.958200  0.622000  1.0  -0.6939
  O  O114  1  0.818900  0.123200  0.324900  1.0  -0.629
  O  O115  1  0.967020  0.127040  0.482200  1.0  -0.6495
  O  O116  1  0.160020  0.127040  0.982200  1.0  -0.6496
  O  O117  1  0.331500  0.829000  0.952700  1.0  -0.712
  O  O118  1  0.181100  0.876800  0.675100  1.0  -0.6269
  O  O119  1  0.520820  0.793440  0.005500  1.0  -0.6643
  O  O120  1  0.695700  0.876800  0.175100  1.0  -0.6272
  O  O121  1  0.457300  0.958200  0.122000  1.0  -0.6933
  O  O122  1  0.032980  0.872960  0.517800  1.0  -0.6493
  O  O123  1  0.746300  0.019800  0.926400  1.0  -0.6763
  O  O124  1  0.502500  0.171000  0.547300  1.0  -0.7117
  O  O125  1  0.727380  0.206560  0.494500  1.0  -0.6644
  O  O126  1  0.497500  0.829000  0.452700  1.0  -0.7119
  O  O127  1  0.147850  0.114300  0.559900  1.0  -0.6378
  O  O128  1  0.966450  0.114300  0.059900  1.0  -0.6366
  O  O129  1  0.668500  0.171000  0.047300  1.0  -0.7117
  O  O130  1  0.330600  0.120400  0.693400  1.0  -0.6064
  O  O131  1  0.789800  0.120400  0.193400  1.0  -0.6077
  O  O132  1  0.253700  0.980200  0.073600  1.0  -0.6755
  O  O133  1  0.499100  0.041800  0.378000  1.0  -0.6933
  O  O134  1  0.479180  0.206560  0.994500  1.0  -0.6641
  O  O135  1  0.304300  0.123200  0.824900  1.0  -0.6286
  O  O136  1  0.273500  0.019800  0.426400  1.0  -0.6761
