# generated using pymatgen
data_TbAgH8C14(NO4)2
_symmetry_space_group_name_H-M   'P 1'
_cell_length_a   9.50640000
_cell_length_b   12.04590000
_cell_length_c   16.78800000
_cell_angle_alpha   96.38640000
_cell_angle_beta   90.00000000
_cell_angle_gamma   113.24000000
_symmetry_Int_Tables_number   1
_chemical_formula_structural   TbAgH8C14(NO4)2
_chemical_formula_sum   'Tb4 Ag4 H32 C56 N8 O32'
_cell_volume   1753.46851629
_cell_formula_units_Z   4
loop_
 _symmetry_equiv_pos_site_id
 _symmetry_equiv_pos_as_xyz
  1  'x, y, z'
loop_
 _atom_site_type_symbol
 _atom_site_label
 _atom_site_symmetry_multiplicity
 _atom_site_fract_x
 _atom_site_fract_y
 _atom_site_fract_z
 _atom_site_occupancy
 _atom_site_charge
  Tb  Tb1  1  0.295090  0.990840  0.065670  1.0  2.2374
  Tb  Tb2  1  0.695750  0.990840  0.565670  1.0  2.2378
  Tb  Tb3  1  0.704910  0.009160  0.934330  1.0  2.2376
  Tb  Tb4  1  0.304250  0.009160  0.434330  1.0  2.2371
  Ag  Ag5  1  0.719840  0.682260  0.417610  1.0  0.3637
  Ag  Ag6  1  0.962420  0.682260  0.917610  1.0  0.3634
  Ag  Ag7  1  0.280160  0.317740  0.582390  1.0  0.3637
  Ag  Ag8  1  0.037580  0.317740  0.082390  1.0  0.3636
  H  H9  1  0.828900  0.416400  0.958900  1.0  0.072
  H  H10  1  0.107700  0.199600  0.728100  1.0  0.0749
  H  H11  1  0.134500  0.098000  0.831900  1.0  0.1122
  H  H12  1  0.250100  0.304200  0.945900  1.0  0.0676
  H  H13  1  0.497200  0.630400  0.881900  1.0  0.1226
  H  H14  1  0.749900  0.695800  0.054100  1.0  0.0685
  H  H15  1  0.866800  0.369600  0.618100  1.0  0.1229
  H  H16  1  0.587500  0.416400  0.458900  1.0  0.0722
  H  H17  1  0.383400  0.809200  0.720500  1.0  0.1119
  H  H18  1  0.759900  0.295400  0.181000  1.0  0.0656
  H  H19  1  0.412500  0.583600  0.541100  1.0  0.0725
  H  H20  1  0.036500  0.902000  0.668100  1.0  0.1115
  H  H21  1  0.945900  0.695800  0.554100  1.0  0.0676
  H  H22  1  0.535500  0.295400  0.681000  1.0  0.0654
  H  H23  1  0.963500  0.098000  0.331900  1.0  0.1118
  H  H24  1  0.425800  0.809200  0.220500  1.0  0.1118
  H  H25  1  0.616600  0.190800  0.279500  1.0  0.1125
  H  H26  1  0.133200  0.630400  0.381900  1.0  0.1226
  H  H27  1  0.865500  0.902000  0.168100  1.0  0.111
  H  H28  1  0.091900  0.199600  0.228100  1.0  0.0749
  H  H29  1  0.240100  0.704600  0.819000  1.0  0.0662
  H  H30  1  0.908100  0.800400  0.771900  1.0  0.0752
  H  H31  1  0.171100  0.583600  0.041100  1.0  0.0724
  H  H32  1  0.567500  0.578000  0.130200  1.0  0.1126
  H  H33  1  0.574200  0.190800  0.779500  1.0  0.112
  H  H34  1  0.502800  0.369600  0.118100  1.0  0.1227
  H  H35  1  0.892300  0.800400  0.271900  1.0  0.0752
  H  H36  1  0.054100  0.304200  0.445900  1.0  0.0683
  H  H37  1  0.464500  0.704600  0.319000  1.0  0.066
  H  H38  1  0.432500  0.422000  0.869800  1.0  0.1128
  H  H39  1  0.010500  0.578000  0.630200  1.0  0.1129
  H  H40  1  0.989500  0.422000  0.369800  1.0  0.1126
  C  C41  1  0.782900  0.865000  0.199300  1.0  -0.1521
  C  C42  1  0.773600  0.448400  0.993000  1.0  0.202
  C  C43  1  0.035900  0.070200  0.511300  1.0  0.5946
  C  C44  1  0.420100  0.580800  0.911700  1.0  -0.0317
  C  C45  1  0.674800  0.448400  0.493000  1.0  0.2025
  C  C46  1  0.799600  0.252600  0.210500  1.0  0.188
  C  C47  1  0.617700  0.542800  0.094800  1.0  -0.1553
  C  C48  1  0.357800  0.129000  0.815400  1.0  -0.0645
  C  C49  1  0.839300  0.419200  0.588300  1.0  -0.0287
  C  C50  1  0.712900  0.190600  0.270200  1.0  -0.1514
  C  C51  1  0.378400  0.055200  0.878700  1.0  0.6939
  C  C52  1  0.522300  0.809400  0.229800  1.0  -0.1521
  C  C53  1  0.709700  0.370400  0.535900  1.0  -0.1975
  C  C54  1  0.034300  0.070200  0.011300  1.0  0.5948
  C  C55  1  0.676800  0.055200  0.378700  1.0  0.6936
  C  C56  1  0.625700  0.236800  0.024400  1.0  0.6976
  C  C57  1  0.453000  0.252600  0.710500  1.0  0.1878
  C  C58  1  0.290300  0.629600  0.464100  1.0  -0.197
  C  C59  1  0.660700  0.370400  0.035900  1.0  -0.1972
  C  C60  1  0.005300  0.802800  0.761400  1.0  0.1652
  C  C61  1  0.200400  0.747400  0.789500  1.0  0.1868
  C  C62  1  0.287100  0.809400  0.729800  1.0  -0.1531
  C  C63  1  0.477700  0.190600  0.770200  1.0  -0.1516
  C  C64  1  0.221500  0.929800  0.245000  1.0  0.5949
  C  C65  1  0.771200  0.129000  0.315400  1.0  -0.0636
  C  C66  1  0.925100  0.542800  0.594800  1.0  -0.1596
  C  C67  1  0.339300  0.629600  0.964100  1.0  -0.1966
  C  C68  1  0.226400  0.551600  0.007000  1.0  0.2038
  C  C69  1  0.884900  0.612800  0.549500  1.0  0.1723
  C  C70  1  0.994700  0.197200  0.238600  1.0  0.1667
  C  C71  1  0.611100  0.236800  0.524400  1.0  0.6967
  C  C72  1  0.388900  0.763200  0.475600  1.0  0.6981
  C  C73  1  0.374300  0.763200  0.975600  1.0  0.6972
  C  C74  1  0.917900  0.135000  0.300700  1.0  -0.1517
  C  C75  1  0.272100  0.387200  0.950500  1.0  0.1724
  C  C76  1  0.965700  0.929800  0.988700  1.0  0.5951
  C  C77  1  0.642200  0.871000  0.184600  1.0  -0.0628
  C  C78  1  0.778500  0.070200  0.755000  1.0  0.5934
  C  C79  1  0.115100  0.387200  0.450500  1.0  0.173
  C  C80  1  0.160700  0.580800  0.411700  1.0  -0.031
  C  C81  1  0.964100  0.929800  0.488700  1.0  0.5949
  C  C82  1  0.708300  0.929800  0.745000  1.0  0.5951
  C  C83  1  0.082100  0.865000  0.699300  1.0  -0.1519
  C  C84  1  0.325200  0.551600  0.507000  1.0  0.2028
  C  C85  1  0.217100  0.135000  0.800700  1.0  -0.1509
  C  C86  1  0.727900  0.612800  0.049500  1.0  0.1734
  C  C87  1  0.074900  0.457200  0.405200  1.0  -0.1571
  C  C88  1  0.547000  0.747400  0.289500  1.0  0.1877
  C  C89  1  0.797500  0.802800  0.261400  1.0  0.1656
  C  C90  1  0.323200  0.944800  0.621300  1.0  0.6931
  C  C91  1  0.621600  0.944800  0.121300  1.0  0.6936
  C  C92  1  0.291700  0.070200  0.255000  1.0  0.5932
  C  C93  1  0.579900  0.419200  0.088300  1.0  -0.0282
  C  C94  1  0.202500  0.197200  0.738600  1.0  0.165
  C  C95  1  0.228800  0.871000  0.684600  1.0  -0.0637
  C  C96  1  0.382300  0.457200  0.905200  1.0  -0.1594
  N  N97  1  0.317900  0.253600  0.693400  1.0  -0.3005
  N  N98  1  0.682100  0.746400  0.306600  1.0  -0.3005
  N  N99  1  0.761100  0.568400  0.498300  1.0  -0.3068
  N  N100  1  0.238900  0.431600  0.501700  1.0  -0.3042
  N  N101  1  0.192700  0.431600  0.001700  1.0  -0.3071
  N  N102  1  0.935700  0.253600  0.193400  1.0  -0.3017
  N  N103  1  0.064300  0.746400  0.806600  1.0  -0.3016
  N  N104  1  0.807300  0.568400  0.998300  1.0  -0.305
  O  O105  1  0.210400  0.880600  0.307600  1.0  -0.6028
  O  O106  1  0.501200  0.039200  0.877300  1.0  -0.7118
  O  O107  1  0.258200  0.983600  0.573300  1.0  -0.6797
  O  O108  1  0.160680  0.126760  0.481100  1.0  -0.6352
  O  O109  1  0.850400  0.885000  0.941500  1.0  -0.6249
  O  O110  1  0.669400  0.168200  0.546000  1.0  -0.7222
  O  O111  1  0.670200  0.880600  0.807600  1.0  -0.6028
  O  O112  1  0.181300  0.877200  0.175100  1.0  -0.6332
  O  O113  1  0.724900  0.204400  0.993200  1.0  -0.6786
  O  O114  1  0.501200  0.831800  0.954000  1.0  -0.722
  O  O115  1  0.034600  0.885000  0.441500  1.0  -0.6256
  O  O116  1  0.330600  0.831800  0.454000  1.0  -0.7229
  O  O117  1  0.789600  0.119400  0.692400  1.0  -0.603
  O  O118  1  0.695900  0.877200  0.675100  1.0  -0.6339
  O  O119  1  0.741800  0.016400  0.426700  1.0  -0.6817
  O  O120  1  0.479500  0.204400  0.493200  1.0  -0.6802
  O  O121  1  0.498800  0.960800  0.122700  1.0  -0.7121
  O  O122  1  0.498800  0.168200  0.046000  1.0  -0.7233
  O  O123  1  0.839320  0.873240  0.518900  1.0  -0.635
  O  O124  1  0.149600  0.115000  0.058500  1.0  -0.6265
  O  O125  1  0.329800  0.119400  0.192400  1.0  -0.6034
  O  O126  1  0.304100  0.122800  0.324900  1.0  -0.6329
  O  O127  1  0.965400  0.115000  0.558500  1.0  -0.6255
  O  O128  1  0.462000  0.960800  0.622700  1.0  -0.7119
  O  O129  1  0.033920  0.873240  0.018900  1.0  -0.6348
  O  O130  1  0.538000  0.039200  0.377300  1.0  -0.712
  O  O131  1  0.725400  0.983600  0.073300  1.0  -0.6808
  O  O132  1  0.274600  0.016400  0.926700  1.0  -0.6806
  O  O133  1  0.275100  0.795600  0.006800  1.0  -0.6778
  O  O134  1  0.520500  0.795600  0.506800  1.0  -0.6781
  O  O135  1  0.818700  0.122800  0.824900  1.0  -0.633
  O  O136  1  0.966080  0.126760  0.981100  1.0  -0.6356
