# generated using pymatgen
data_SmAgH8C14(NO4)2
_symmetry_space_group_name_H-M   'P 1'
_cell_length_a   9.52800000
_cell_length_b   12.01120000
_cell_length_c   16.89900000
_cell_angle_alpha   96.32890000
_cell_angle_beta   90.00000000
_cell_angle_gamma   113.36800000
_symmetry_Int_Tables_number   1
_chemical_formula_structural   SmAgH8C14(NO4)2
_chemical_formula_sum   'Sm4 Ag4 H32 C56 N8 O32'
_cell_volume   1762.48910969
_cell_formula_units_Z   4
loop_
 _symmetry_equiv_pos_site_id
 _symmetry_equiv_pos_as_xyz
  1  'x, y, z'
loop_
 _atom_site_type_symbol
 _atom_site_label
 _atom_site_symmetry_multiplicity
 _atom_site_fract_x
 _atom_site_fract_y
 _atom_site_fract_z
 _atom_site_occupancy
 _atom_site_charge
  Sm  Sm1  1  0.796400  0.990860  0.065790  1.0  2.287
  Sm  Sm2  1  0.194460  0.990860  0.565790  1.0  2.287
  Sm  Sm3  1  0.203600  0.009140  0.934210  1.0  2.2862
  Sm  Sm4  1  0.805540  0.009140  0.434210  1.0  2.2864
  Ag  Ag5  1  0.222940  0.683940  0.416380  1.0  0.3545
  Ag  Ag6  1  0.539000  0.316060  0.083620  1.0  0.3544
  Ag  Ag7  1  0.777060  0.316060  0.583620  1.0  0.3542
  Ag  Ag8  1  0.461000  0.683940  0.916380  1.0  0.3539
  H  H9  1  0.466200  0.099400  0.332100  1.0  0.112
  H  H10  1  0.447500  0.698400  0.550000  1.0  0.0627
  H  H11  1  0.491100  0.420400  0.371200  1.0  0.0999
  H  H12  1  0.089200  0.419000  0.458600  1.0  0.0718
  H  H13  1  0.929300  0.420400  0.871200  1.0  0.1001
  H  H14  1  0.329800  0.419000  0.958600  1.0  0.072
  H  H15  1  0.508900  0.579600  0.628800  1.0  0.1
  H  H16  1  0.910800  0.581000  0.541400  1.0  0.0717
  H  H17  1  0.881500  0.809600  0.720600  1.0  0.1142
  H  H18  1  0.071900  0.190400  0.779400  1.0  0.114
  H  H19  1  0.030300  0.288200  0.677900  1.0  0.0598
  H  H20  1  0.010500  0.373200  0.119200  1.0  0.1179
  H  H21  1  0.118500  0.190400  0.279400  1.0  0.1145
  H  H22  1  0.670200  0.581000  0.041400  1.0  0.0711
  H  H23  1  0.969700  0.711800  0.322100  1.0  0.0599
  H  H24  1  0.606500  0.197600  0.729400  1.0  0.0679
  H  H25  1  0.393500  0.802400  0.270600  1.0  0.0686
  H  H26  1  0.070700  0.579600  0.128800  1.0  0.0996
  H  H27  1  0.928100  0.809600  0.220600  1.0  0.1143
  H  H28  1  0.591100  0.197600  0.229400  1.0  0.0682
  H  H29  1  0.637300  0.626800  0.380800  1.0  0.118
  H  H30  1  0.366800  0.900600  0.167900  1.0  0.1116
  H  H31  1  0.533800  0.900600  0.667900  1.0  0.112
  H  H32  1  0.989500  0.626800  0.880800  1.0  0.1182
  H  H33  1  0.408900  0.802400  0.770600  1.0  0.0682
  H  H34  1  0.362700  0.373200  0.619200  1.0  0.118
  H  H35  1  0.742100  0.711800  0.822100  1.0  0.06
  H  H36  1  0.552500  0.301600  0.450000  1.0  0.0626
  H  H37  1  0.257900  0.288200  0.177900  1.0  0.0599
  H  H38  1  0.633200  0.099400  0.832100  1.0  0.1124
  H  H39  1  0.749100  0.301600  0.950000  1.0  0.0628
  H  H40  1  0.250900  0.698400  0.050000  1.0  0.0627
  C  C41  1  0.024800  0.810800  0.230300  1.0  -0.1791
  C  C42  1  0.854600  0.128200  0.815700  1.0  -0.0427
  C  C43  1  0.580500  0.864800  0.699200  1.0  -0.1859
  C  C44  1  0.793100  0.070400  0.254900  1.0  0.5881
  C  C45  1  0.770300  0.384600  0.953500  1.0  0.1692
  C  C46  1  0.214000  0.189200  0.269700  1.0  -0.1791
  C  C47  1  0.463600  0.930200  0.487700  1.0  0.6108
  C  C48  1  0.466600  0.930200  0.987700  1.0  0.6108
  C  C49  1  0.050900  0.751600  0.291000  1.0  0.1787
  C  C50  1  0.823300  0.549400  0.507700  1.0  0.1984
  C  C51  1  0.726400  0.871800  0.684300  1.0  -0.0433
  C  C52  1  0.715700  0.135200  0.800800  1.0  -0.1859
  C  C53  1  0.614300  0.384600  0.453500  1.0  0.169
  C  C54  1  0.176700  0.450600  0.492300  1.0  0.2022
  C  C55  1  0.879500  0.455600  0.906600  1.0  -0.1389
  C  C56  1  0.505800  0.804400  0.760700  1.0  0.1669
  C  C57  1  0.871600  0.760200  0.974700  1.0  0.6979
  C  C58  1  0.273600  0.128200  0.315700  1.0  -0.0419
  C  C59  1  0.700700  0.751600  0.791000  1.0  0.1785
  C  C60  1  0.949100  0.248400  0.709000  1.0  0.1784
  C  C61  1  0.423900  0.544400  0.593400  1.0  -0.1393
  C  C62  1  0.533400  0.069800  0.012300  1.0  0.6107
  C  C63  1  0.819200  0.942000  0.621700  1.0  0.7083
  C  C64  1  0.120500  0.544400  0.093400  1.0  -0.1387
  C  C65  1  0.277300  0.070400  0.754900  1.0  0.5885
  C  C66  1  0.273900  0.450600  0.992300  1.0  0.2032
  C  C67  1  0.722700  0.929600  0.245100  1.0  0.5887
  C  C68  1  0.180800  0.058000  0.378300  1.0  0.7098
  C  C69  1  0.790200  0.628000  0.464500  1.0  -0.2373
  C  C70  1  0.888600  0.760200  0.474700  1.0  0.6972
  C  C71  1  0.145400  0.871800  0.184300  1.0  -0.0428
  C  C72  1  0.975200  0.189200  0.769700  1.0  -0.1784
  C  C73  1  0.536400  0.069800  0.512300  1.0  0.6107
  C  C74  1  0.726100  0.549400  0.007700  1.0  0.1975
  C  C75  1  0.419500  0.135200  0.300800  1.0  -0.1882
  C  C76  1  0.299300  0.248400  0.209000  1.0  0.1778
  C  C77  1  0.122800  0.942000  0.121700  1.0  0.7098
  C  C78  1  0.494200  0.195600  0.239300  1.0  0.1669
  C  C79  1  0.576100  0.455600  0.406600  1.0  -0.1405
  C  C80  1  0.385700  0.615400  0.546500  1.0  0.1692
  C  C81  1  0.337100  0.422200  0.588100  1.0  -0.0241
  C  C82  1  0.298600  0.804400  0.260700  1.0  0.1668
  C  C83  1  0.229700  0.615400  0.046500  1.0  0.1687
  C  C84  1  0.111400  0.239800  0.525300  1.0  0.6978
  C  C85  1  0.085100  0.422200  0.088100  1.0  -0.0242
  C  C86  1  0.206900  0.929600  0.745100  1.0  0.5891
  C  C87  1  0.701400  0.195600  0.739300  1.0  0.1663
  C  C88  1  0.209800  0.372000  0.535500  1.0  -0.2366
  C  C89  1  0.786000  0.810800  0.730300  1.0  -0.1796
  C  C90  1  0.877200  0.058000  0.878300  1.0  0.709
  C  C91  1  0.837800  0.628000  0.964500  1.0  -0.2377
  C  C92  1  0.284300  0.864800  0.199200  1.0  -0.1878
  C  C93  1  0.128400  0.239800  0.025300  1.0  0.6975
  C  C94  1  0.662900  0.577800  0.411900  1.0  -0.0251
  C  C95  1  0.162200  0.372000  0.035500  1.0  -0.2357
  C  C96  1  0.914900  0.577800  0.911900  1.0  -0.0256
  N  N97  1  0.186100  0.748200  0.307100  1.0  -0.3074
  N  N98  1  0.305300  0.570400  0.996700  1.0  -0.301
  N  N99  1  0.694700  0.429600  0.003300  1.0  -0.3013
  N  N100  1  0.437900  0.251800  0.192900  1.0  -0.3069
  N  N101  1  0.265100  0.570400  0.496700  1.0  -0.2999
  N  N102  1  0.734900  0.429600  0.503300  1.0  -0.2995
  N  N103  1  0.562100  0.748200  0.807100  1.0  -0.3088
  N  N104  1  0.813900  0.251800  0.692900  1.0  -0.3064
  O  O105  1  0.168900  0.880600  0.807000  1.0  -0.6107
  O  O106  1  0.195300  0.877400  0.675700  1.0  -0.637
  O  O107  1  0.532800  0.886200  0.440300  1.0  -0.6095
  O  O108  1  0.774300  0.021800  0.926400  1.0  -0.6586
  O  O109  1  0.225700  0.978200  0.073600  1.0  -0.6585
  O  O110  1  0.999700  0.043200  0.878700  1.0  -0.7084
  O  O111  1  0.833700  0.828600  0.452500  1.0  -0.6832
  O  O112  1  0.000300  0.956800  0.121300  1.0  -0.7093
  O  O113  1  0.532700  0.872600  0.018400  1.0  -0.6514
  O  O114  1  0.228000  0.208400  0.994400  1.0  -0.6933
  O  O115  1  0.467200  0.113800  0.559700  1.0  -0.609
  O  O116  1  0.660100  0.127400  0.481600  1.0  -0.6511
  O  O117  1  0.682100  0.877400  0.175700  1.0  -0.6367
  O  O118  1  0.646600  0.113800  0.059700  1.0  -0.6114
  O  O119  1  0.467300  0.127400  0.981600  1.0  -0.6512
  O  O120  1  0.019600  0.791600  0.505600  1.0  -0.6909
  O  O121  1  0.804700  0.122600  0.324300  1.0  -0.6385
  O  O122  1  0.956500  0.956800  0.621300  1.0  -0.7083
  O  O123  1  0.772000  0.791600  0.005600  1.0  -0.6917
  O  O124  1  0.980400  0.208400  0.494400  1.0  -0.6936
  O  O125  1  0.994900  0.828600  0.952500  1.0  -0.6829
  O  O126  1  0.339900  0.872600  0.518400  1.0  -0.6519
  O  O127  1  0.711700  0.880600  0.307000  1.0  -0.6095
  O  O128  1  0.288300  0.119400  0.693000  1.0  -0.6078
  O  O129  1  0.166300  0.171400  0.547500  1.0  -0.6832
  O  O130  1  0.043500  0.043200  0.378700  1.0  -0.7098
  O  O131  1  0.247500  0.021800  0.426400  1.0  -0.6574
  O  O132  1  0.831100  0.119400  0.193000  1.0  -0.6078
  O  O133  1  0.317900  0.122600  0.824300  1.0  -0.6387
  O  O134  1  0.752500  0.978200  0.573600  1.0  -0.6565
  O  O135  1  0.005100  0.171400  0.047500  1.0  -0.6837
  O  O136  1  0.353400  0.886200  0.940300  1.0  -0.6108
