# generated using pymatgen
data_HoAgH8C14(NO4)2
_symmetry_space_group_name_H-M   'P 1'
_cell_length_a   9.45900000
_cell_length_b   12.04810000
_cell_length_c   16.68300000
_cell_angle_alpha   96.05530000
_cell_angle_beta   90.00000000
_cell_angle_gamma   113.11300000
_symmetry_Int_Tables_number   1
_chemical_formula_structural   HoAgH8C14(NO4)2
_chemical_formula_sum   'Ho4 Ag4 H32 C56 N8 O32'
_cell_volume   1737.09655451
_cell_formula_units_Z   4
loop_
 _symmetry_equiv_pos_site_id
 _symmetry_equiv_pos_as_xyz
  1  'x, y, z'
loop_
 _atom_site_type_symbol
 _atom_site_label
 _atom_site_symmetry_multiplicity
 _atom_site_fract_x
 _atom_site_fract_y
 _atom_site_fract_z
 _atom_site_occupancy
 _atom_site_charge
  Ho  Ho1  1  0.303430  0.009420  0.434100  1.0  2.1978
  Ho  Ho2  1  0.696570  0.990580  0.565900  1.0  2.1974
  Ho  Ho3  1  0.294010  0.990580  0.065900  1.0  2.1979
  Ho  Ho4  1  0.705990  0.009420  0.934100  1.0  2.1977
  Ag  Ag5  1  0.034440  0.316840  0.080180  1.0  0.3626
  Ag  Ag6  1  0.965560  0.683160  0.919820  1.0  0.3622
  Ag  Ag7  1  0.282400  0.316840  0.580180  1.0  0.3627
  Ag  Ag8  1  0.717600  0.683160  0.419820  1.0  0.3624
  H  H9  1  0.424700  0.810400  0.220500  1.0  0.1298
  H  H10  1  0.130400  0.096800  0.830500  1.0  0.1275
  H  H11  1  0.536100  0.292000  0.681100  1.0  0.0623
  H  H12  1  0.562500  0.573200  0.131400  1.0  0.0951
  H  H13  1  0.575300  0.189600  0.779500  1.0  0.1285
  H  H14  1  0.827600  0.414400  0.959300  1.0  0.0762
  H  H15  1  0.586800  0.414400  0.459300  1.0  0.0764
  H  H16  1  0.413200  0.585600  0.540700  1.0  0.076
  H  H17  1  0.501600  0.634200  0.881400  1.0  0.1342
  H  H18  1  0.437500  0.426800  0.868600  1.0  0.0954
  H  H19  1  0.244100  0.708000  0.818900  1.0  0.0631
  H  H20  1  0.033600  0.903200  0.669500  1.0  0.1271
  H  H21  1  0.051900  0.304600  0.444700  1.0  0.0934
  H  H22  1  0.385700  0.810400  0.720500  1.0  0.1288
  H  H23  1  0.252700  0.304600  0.944700  1.0  0.0934
  H  H24  1  0.989300  0.426800  0.368600  1.0  0.0953
  H  H25  1  0.614300  0.189600  0.279500  1.0  0.1299
  H  H26  1  0.463900  0.708000  0.318900  1.0  0.0632
  H  H27  1  0.948100  0.695400  0.555300  1.0  0.0936
  H  H28  1  0.909500  0.802200  0.772400  1.0  0.0687
  H  H29  1  0.172400  0.585600  0.040700  1.0  0.0761
  H  H30  1  0.498400  0.365800  0.118600  1.0  0.1345
  H  H31  1  0.869600  0.903200  0.169500  1.0  0.1267
  H  H32  1  0.747300  0.695400  0.055300  1.0  0.0931
  H  H33  1  0.090500  0.197800  0.227600  1.0  0.0692
  H  H34  1  0.010700  0.573200  0.631400  1.0  0.0954
  H  H35  1  0.892700  0.802200  0.272400  1.0  0.0694
  H  H36  1  0.755900  0.292000  0.181100  1.0  0.0626
  H  H37  1  0.107300  0.197800  0.727600  1.0  0.0688
  H  H38  1  0.966400  0.096800  0.330500  1.0  0.127
  H  H39  1  0.132600  0.634200  0.381400  1.0  0.1344
  H  H40  1  0.867400  0.365800  0.618600  1.0  0.1344
  C  C41  1  0.711500  0.190000  0.270200  1.0  -0.1789
  C  C42  1  0.376400  0.764600  0.976500  1.0  0.6966
  C  C43  1  0.797400  0.250600  0.211400  1.0  0.1818
  C  C44  1  0.772400  0.446000  0.994200  1.0  0.1923
  C  C45  1  0.214700  0.134400  0.800000  1.0  -0.1842
  C  C46  1  0.453200  0.250600  0.711400  1.0  0.182
  C  C47  1  0.288500  0.810000  0.729800  1.0  -0.18
  C  C48  1  0.965100  0.930400  0.988400  1.0  0.5944
  C  C49  1  0.925100  0.539400  0.595800  1.0  -0.1111
  C  C50  1  0.423600  0.584000  0.910900  1.0  -0.1224
  C  C51  1  0.672600  0.052800  0.378500  1.0  0.6993
  C  C52  1  0.839600  0.416000  0.589100  1.0  -0.1191
  C  C53  1  0.726800  0.612800  0.051100  1.0  0.1535
  C  C54  1  0.919700  0.134400  0.300000  1.0  -0.1842
  C  C55  1  0.220300  0.930200  0.244600  1.0  0.6088
  C  C56  1  0.080300  0.865600  0.700000  1.0  -0.184
  C  C57  1  0.614300  0.539400  0.095800  1.0  -0.1115
  C  C58  1  0.611800  0.235400  0.523500  1.0  0.6969
  C  C59  1  0.478500  0.190000  0.770200  1.0  -0.1809
  C  C60  1  0.965300  0.930400  0.488400  1.0  0.5943
  C  C61  1  0.546800  0.749400  0.288600  1.0  0.183
  C  C62  1  0.709900  0.930200  0.744600  1.0  0.6092
  C  C63  1  0.293600  0.632600  0.464900  1.0  -0.1372
  C  C64  1  0.673600  0.446000  0.494200  1.0  0.1956
  C  C65  1  0.623600  0.235400  0.023500  1.0  0.6975
  C  C66  1  0.006500  0.803600  0.761300  1.0  0.1868
  C  C67  1  0.202900  0.196400  0.738700  1.0  0.1867
  C  C68  1  0.785300  0.865600  0.200000  1.0  -0.1839
  C  C69  1  0.772800  0.128400  0.316000  1.0  -0.086
  C  C70  1  0.160400  0.584000  0.410900  1.0  -0.1188
  C  C71  1  0.797100  0.803600  0.261300  1.0  0.1879
  C  C72  1  0.339000  0.632600  0.964900  1.0  -0.1372
  C  C73  1  0.074900  0.460600  0.404200  1.0  -0.1118
  C  C74  1  0.521500  0.810000  0.229800  1.0  -0.1784
  C  C75  1  0.706400  0.367400  0.535100  1.0  -0.1374
  C  C76  1  0.227600  0.554000  0.005800  1.0  0.1964
  C  C77  1  0.886000  0.612800  0.551100  1.0  0.1537
  C  C78  1  0.114000  0.387200  0.448900  1.0  0.1536
  C  C79  1  0.290100  0.069800  0.255400  1.0  0.6072
  C  C80  1  0.326400  0.554000  0.505800  1.0  0.1984
  C  C81  1  0.661000  0.367400  0.035100  1.0  -0.1373
  C  C82  1  0.034900  0.069600  0.011600  1.0  0.5945
  C  C83  1  0.355600  0.128400  0.816000  1.0  -0.0872
  C  C84  1  0.380200  0.052800  0.878500  1.0  0.699
  C  C85  1  0.644400  0.871600  0.184000  1.0  -0.0851
  C  C86  1  0.327400  0.947200  0.621500  1.0  0.6991
  C  C87  1  0.993500  0.196400  0.238700  1.0  0.188
  C  C88  1  0.388200  0.764600  0.476500  1.0  0.6983
  C  C89  1  0.273200  0.387200  0.948900  1.0  0.1542
  C  C90  1  0.227200  0.871600  0.684000  1.0  -0.086
  C  C91  1  0.779700  0.069800  0.755400  1.0  0.6077
  C  C92  1  0.619800  0.947200  0.121500  1.0  0.6999
  C  C93  1  0.034700  0.069600  0.511600  1.0  0.5946
  C  C94  1  0.385700  0.460600  0.904200  1.0  -0.1122
  C  C95  1  0.202600  0.749400  0.788600  1.0  0.1825
  C  C96  1  0.576400  0.416000  0.089100  1.0  -0.1208
  N  N97  1  0.809900  0.567600  0.000200  1.0  -0.3025
  N  N98  1  0.317300  0.255200  0.693700  1.0  -0.3202
  N  N99  1  0.757700  0.567600  0.500200  1.0  -0.302
  N  N100  1  0.242300  0.432400  0.499800  1.0  -0.3026
  N  N101  1  0.937900  0.255200  0.193700  1.0  -0.3214
  N  N102  1  0.190100  0.432400  0.999800  1.0  -0.3033
  N  N103  1  0.682700  0.744800  0.306300  1.0  -0.321
  N  N104  1  0.062100  0.744800  0.806300  1.0  -0.3212
  O  O105  1  0.462400  0.961600  0.622700  1.0  -0.6461
  O  O106  1  0.500800  0.038400  0.877300  1.0  -0.6459
  O  O107  1  0.504400  0.834400  0.955500  1.0  -0.6947
  O  O108  1  0.818400  0.122800  0.824900  1.0  -0.6209
  O  O109  1  0.738900  0.013200  0.426700  1.0  -0.6869
  O  O110  1  0.670000  0.165600  0.544500  1.0  -0.6947
  O  O111  1  0.330000  0.834400  0.455500  1.0  -0.695
  O  O112  1  0.499200  0.961600  0.122700  1.0  -0.6474
  O  O113  1  0.839300  0.873800  0.520600  1.0  -0.6578
  O  O114  1  0.160700  0.126200  0.479400  1.0  -0.6554
  O  O115  1  0.965500  0.126200  0.979400  1.0  -0.6566
  O  O116  1  0.210700  0.880400  0.308400  1.0  -0.608
  O  O117  1  0.522000  0.797800  0.507700  1.0  -0.682
  O  O118  1  0.495600  0.165600  0.044500  1.0  -0.695
  O  O119  1  0.789300  0.119600  0.691600  1.0  -0.6097
  O  O120  1  0.034500  0.873800  0.020600  1.0  -0.6567
  O  O121  1  0.181600  0.877200  0.175100  1.0  -0.6215
  O  O122  1  0.330300  0.119600  0.191600  1.0  -0.6098
  O  O123  1  0.537600  0.038400  0.377300  1.0  -0.6471
  O  O124  1  0.724200  0.202200  0.992300  1.0  -0.6823
  O  O125  1  0.725700  0.986800  0.073300  1.0  -0.6861
  O  O126  1  0.304400  0.122800  0.324900  1.0  -0.6212
  O  O127  1  0.261100  0.986800  0.573300  1.0  -0.6852
  O  O128  1  0.274300  0.013200  0.926700  1.0  -0.686
  O  O129  1  0.478000  0.202200  0.492300  1.0  -0.6823
  O  O130  1  0.151800  0.116400  0.058200  1.0  -0.6265
  O  O131  1  0.964600  0.116400  0.558200  1.0  -0.627
  O  O132  1  0.848200  0.883600  0.941800  1.0  -0.6283
  O  O133  1  0.035400  0.883600  0.441800  1.0  -0.628
  O  O134  1  0.695600  0.877200  0.675100  1.0  -0.6214
  O  O135  1  0.275800  0.797800  0.007700  1.0  -0.6811
  O  O136  1  0.669700  0.880400  0.808400  1.0  -0.6079
