# generated using pymatgen
data_YAgH8C14(NO4)2
_symmetry_space_group_name_H-M   'P 1'
_cell_length_a   9.44600000
_cell_length_b   12.00550000
_cell_length_c   16.68500000
_cell_angle_alpha   96.27510000
_cell_angle_beta   90.00000000
_cell_angle_gamma   113.16600000
_symmetry_Int_Tables_number   1
_chemical_formula_structural   YAgH8C14(NO4)2
_chemical_formula_sum   'Y4 Ag4 H32 C56 N8 O32'
_cell_volume   1727.24155624
_cell_formula_units_Z   4
loop_
 _symmetry_equiv_pos_site_id
 _symmetry_equiv_pos_as_xyz
  1  'x, y, z'
loop_
 _atom_site_type_symbol
 _atom_site_label
 _atom_site_symmetry_multiplicity
 _atom_site_fract_x
 _atom_site_fract_y
 _atom_site_fract_z
 _atom_site_occupancy
 _atom_site_charge
  Y  Y1  1  0.303060  0.009000  0.434040  1.0  1.9865
  Y  Y2  1  0.705940  0.009000  0.934040  1.0  1.9852
  Y  Y3  1  0.696940  0.991000  0.565960  1.0  1.9874
  Y  Y4  1  0.294060  0.991000  0.065960  1.0  1.9869
  Ag  Ag5  1  0.717130  0.682140  0.418820  1.0  0.3646
  Ag  Ag6  1  0.034990  0.317860  0.081180  1.0  0.3648
  Ag  Ag7  1  0.282870  0.317860  0.581180  1.0  0.3646
  Ag  Ag8  1  0.965010  0.682140  0.918820  1.0  0.3641
  H  H9  1  0.108100  0.198000  0.726800  1.0  0.0885
  H  H10  1  0.866600  0.904000  0.169300  1.0  0.1229
  H  H11  1  0.750800  0.693400  0.053000  1.0  0.0656
  H  H12  1  0.133400  0.096000  0.830700  1.0  0.1234
  H  H13  1  0.578300  0.192400  0.780500  1.0  0.1306
  H  H14  1  0.614100  0.192400  0.280500  1.0  0.1314
  H  H15  1  0.130500  0.632400  0.383400  1.0  0.1132
  H  H16  1  0.249200  0.306600  0.947000  1.0  0.0656
  H  H17  1  0.243200  0.702800  0.817700  1.0  0.0717
  H  H18  1  0.962600  0.096000  0.330700  1.0  0.1231
  H  H19  1  0.421700  0.807600  0.219500  1.0  0.1314
  H  H20  1  0.989000  0.423400  0.367800  1.0  0.1232
  H  H21  1  0.089900  0.198000  0.226800  1.0  0.0879
  H  H22  1  0.498100  0.367600  0.116600  1.0  0.1129
  H  H23  1  0.831000  0.415200  0.958600  1.0  0.0891
  H  H24  1  0.584200  0.415200  0.458600  1.0  0.0893
  H  H25  1  0.011000  0.576600  0.632200  1.0  0.1232
  H  H26  1  0.756800  0.297200  0.182300  1.0  0.0705
  H  H27  1  0.565600  0.576600  0.132200  1.0  0.1229
  H  H28  1  0.869500  0.367600  0.616600  1.0  0.1128
  H  H29  1  0.540400  0.297200  0.682300  1.0  0.0704
  H  H30  1  0.501900  0.632400  0.883400  1.0  0.113
  H  H31  1  0.459600  0.702800  0.317700  1.0  0.0716
  H  H32  1  0.910100  0.802000  0.773200  1.0  0.0884
  H  H33  1  0.057400  0.306600  0.447000  1.0  0.0656
  H  H34  1  0.434400  0.423400  0.867800  1.0  0.1237
  H  H35  1  0.037400  0.904000  0.669300  1.0  0.1233
  H  H36  1  0.385900  0.807600  0.719500  1.0  0.1308
  H  H37  1  0.942600  0.693400  0.553000  1.0  0.0657
  H  H38  1  0.169000  0.584800  0.041400  1.0  0.0896
  H  H39  1  0.891900  0.802000  0.273200  1.0  0.0879
  H  H40  1  0.415800  0.584800  0.541400  1.0  0.0896
  C  C41  1  0.775300  0.447000  0.993200  1.0  0.205
  C  C42  1  0.610600  0.234600  0.524000  1.0  0.6981
  C  C43  1  0.519000  0.808400  0.229400  1.0  -0.1773
  C  C44  1  0.624000  0.234600  0.024000  1.0  0.6976
  C  C45  1  0.083300  0.866200  0.700100  1.0  -0.157
  C  C46  1  0.074300  0.459000  0.403800  1.0  -0.1484
  C  C47  1  0.033500  0.068800  0.510700  1.0  0.6329
  C  C48  1  0.203200  0.746600  0.788800  1.0  0.191
  C  C49  1  0.782900  0.866200  0.200100  1.0  -0.1581
  C  C50  1  0.796800  0.253400  0.211200  1.0  0.19
  C  C51  1  0.615300  0.541000  0.096200  1.0  -0.1467
  C  C52  1  0.966500  0.931200  0.489300  1.0  0.6327
  C  C53  1  0.620800  0.947800  0.121100  1.0  0.702
  C  C54  1  0.359000  0.128400  0.815500  1.0  -0.0495
  C  C55  1  0.964700  0.931200  0.989300  1.0  0.6327
  C  C56  1  0.543400  0.746600  0.288800  1.0  0.1912
  C  C57  1  0.577900  0.417800  0.087900  1.0  0.0403
  C  C58  1  0.379200  0.052200  0.878900  1.0  0.702
  C  C59  1  0.160100  0.582200  0.412100  1.0  0.0396
  C  C60  1  0.118400  0.389800  0.450600  1.0  0.1944
  C  C61  1  0.340700  0.632400  0.963300  1.0  -0.2407
  C  C62  1  0.289400  0.808400  0.729400  1.0  -0.1771
  C  C63  1  0.839900  0.417800  0.587900  1.0  0.0413
  C  C64  1  0.327000  0.947800  0.621100  1.0  0.7017
  C  C65  1  0.384700  0.459000  0.903800  1.0  -0.1522
  C  C66  1  0.203600  0.196200  0.737900  1.0  0.1733
  C  C67  1  0.708300  0.367600  0.536700  1.0  -0.2403
  C  C68  1  0.710600  0.191600  0.270600  1.0  -0.1777
  C  C69  1  0.925700  0.541000  0.596200  1.0  -0.1491
  C  C70  1  0.671700  0.447000  0.493200  1.0  0.2088
  C  C71  1  0.659300  0.367600  0.036700  1.0  -0.2388
  C  C72  1  0.291700  0.632400  0.463300  1.0  -0.2398
  C  C73  1  0.328300  0.553000  0.506800  1.0  0.21
  C  C74  1  0.881600  0.610200  0.549400  1.0  0.1942
  C  C75  1  0.217100  0.133800  0.799900  1.0  -0.1583
  C  C76  1  0.291700  0.069600  0.254800  1.0  0.6012
  C  C77  1  0.777900  0.069600  0.754800  1.0  0.6018
  C  C78  1  0.728600  0.610200  0.049400  1.0  0.1939
  C  C79  1  0.376000  0.765400  0.976000  1.0  0.6998
  C  C80  1  0.222100  0.930400  0.245200  1.0  0.6021
  C  C81  1  0.224700  0.553000  0.006800  1.0  0.2094
  C  C82  1  0.708300  0.930400  0.745200  1.0  0.6028
  C  C83  1  0.992600  0.196200  0.237900  1.0  0.174
  C  C84  1  0.230600  0.871600  0.684500  1.0  -0.049
  C  C85  1  0.389400  0.765400  0.476000  1.0  0.698
  C  C86  1  0.422100  0.582200  0.912100  1.0  0.0396
  C  C87  1  0.916700  0.133800  0.299900  1.0  -0.1587
  C  C88  1  0.673000  0.052200  0.378900  1.0  0.7016
  C  C89  1  0.007400  0.803800  0.762100  1.0  0.1747
  C  C90  1  0.456600  0.253400  0.711200  1.0  0.1906
  C  C91  1  0.271400  0.389800  0.950600  1.0  0.1948
  C  C92  1  0.796400  0.803800  0.262100  1.0  0.1745
  C  C93  1  0.641000  0.871600  0.184500  1.0  -0.048
  C  C94  1  0.035300  0.068800  0.010700  1.0  0.6328
  C  C95  1  0.769400  0.128400  0.315500  1.0  -0.0484
  C  C96  1  0.481000  0.191600  0.770600  1.0  -0.1778
  N  N97  1  0.808700  0.566400  0.999500  1.0  -0.2936
  N  N98  1  0.321600  0.254400  0.692800  1.0  -0.3071
  N  N99  1  0.932800  0.254400  0.192800  1.0  -0.3074
  N  N100  1  0.678400  0.745600  0.307200  1.0  -0.3061
  N  N101  1  0.757700  0.566400  0.499500  1.0  -0.2948
  N  N102  1  0.067200  0.745600  0.807200  1.0  -0.3084
  N  N103  1  0.191300  0.433600  0.000500  1.0  -0.2959
  N  N104  1  0.242300  0.433600  0.500500  1.0  -0.2933
  O  O105  1  0.034700  0.872600  0.019400  1.0  -0.6891
  O  O106  1  0.277300  0.799000  0.007000  1.0  -0.6767
  O  O107  1  0.304700  0.123200  0.325800  1.0  -0.6395
  O  O108  1  0.964400  0.115200  0.557800  1.0  -0.6118
  O  O109  1  0.261400  0.985800  0.573400  1.0  -0.643
  O  O110  1  0.671200  0.880800  0.808400  1.0  -0.6027
  O  O111  1  0.671000  0.166800  0.545800  1.0  -0.6863
  O  O112  1  0.465900  0.963200  0.622400  1.0  -0.6721
  O  O113  1  0.849200  0.884800  0.942200  1.0  -0.6114
  O  O114  1  0.521700  0.799000  0.507000  1.0  -0.6765
  O  O115  1  0.724400  0.985800  0.073400  1.0  -0.6439
  O  O116  1  0.162100  0.127400  0.480600  1.0  -0.6899
  O  O117  1  0.722700  0.201000  0.993000  1.0  -0.6776
  O  O118  1  0.695300  0.876800  0.674200  1.0  -0.639
  O  O119  1  0.209600  0.880800  0.308400  1.0  -0.6026
  O  O120  1  0.275600  0.014200  0.926600  1.0  -0.6436
  O  O121  1  0.738600  0.014200  0.426600  1.0  -0.6442
  O  O122  1  0.497300  0.963200  0.122400  1.0  -0.6732
  O  O123  1  0.534100  0.036800  0.377600  1.0  -0.6734
  O  O124  1  0.181500  0.876800  0.174200  1.0  -0.6391
  O  O125  1  0.328800  0.119200  0.191600  1.0  -0.6036
  O  O126  1  0.035600  0.884800  0.442200  1.0  -0.6109
  O  O127  1  0.329000  0.833200  0.454200  1.0  -0.6865
  O  O128  1  0.818500  0.123200  0.825800  1.0  -0.6398
  O  O129  1  0.150800  0.115200  0.057800  1.0  -0.6117
  O  O130  1  0.965300  0.127400  0.980600  1.0  -0.6907
  O  O131  1  0.790400  0.119200  0.691600  1.0  -0.6033
  O  O132  1  0.504200  0.833200  0.954200  1.0  -0.6866
  O  O133  1  0.502700  0.036800  0.877600  1.0  -0.6718
  O  O134  1  0.837900  0.872600  0.519400  1.0  -0.6894
  O  O135  1  0.495800  0.166800  0.045800  1.0  -0.6865
  O  O136  1  0.478300  0.201000  0.493000  1.0  -0.677
