# generated using pymatgen
data_YbAgH8C14(NO4)2
_symmetry_space_group_name_H-M   'P 1'
_cell_length_a   9.37800000
_cell_length_b   11.99910000
_cell_length_c   16.50800000
_cell_angle_alpha   96.19730000
_cell_angle_beta   90.00000000
_cell_angle_gamma   113.00300000
_symmetry_Int_Tables_number   1
_chemical_formula_structural   YbAgH8C14(NO4)2
_chemical_formula_sum   'Yb4 Ag4 H32 C56 N8 O32'
_cell_volume   1698.09660364
_cell_formula_units_Z   4
loop_
 _symmetry_equiv_pos_site_id
 _symmetry_equiv_pos_as_xyz
  1  'x, y, z'
loop_
 _atom_site_type_symbol
 _atom_site_label
 _atom_site_symmetry_multiplicity
 _atom_site_fract_x
 _atom_site_fract_y
 _atom_site_fract_z
 _atom_site_occupancy
 _atom_site_charge
  Yb  Yb1  1  0.802600  0.009400  0.934100  1.0  1.2355
  Yb  Yb2  1  0.793200  0.990600  0.565900  1.0  1.2352
  Yb  Yb3  1  0.206800  0.009400  0.434100  1.0  1.2238
  Yb  Yb4  1  0.197400  0.990600  0.065900  1.0  1.2255
  Ag  Ag5  1  0.533790  0.318040  0.579250  1.0  0.377
  Ag  Ag6  1  0.215750  0.681960  0.920750  1.0  0.377
  Ag  Ag7  1  0.784250  0.318040  0.079250  1.0  0.3768
  Ag  Ag8  1  0.466210  0.681960  0.420750  1.0  0.3766
  H  H9  1  0.043300  0.300200  0.183700  1.0  0.0975
  H  H10  1  0.956700  0.699800  0.816300  1.0  0.0981
  H  H11  1  0.436200  0.694600  0.061300  1.0  0.1053
  H  H12  1  0.410200  0.804200  0.275000  1.0  0.1069
  H  H13  1  0.741600  0.305400  0.438700  1.0  0.1049
  H  H14  1  0.589800  0.195800  0.725000  1.0  0.1067
  H  H15  1  0.256900  0.300200  0.683700  1.0  0.0977
  H  H16  1  0.888900  0.812600  0.220300  1.0  0.1338
  H  H17  1  0.667300  0.584600  0.539200  1.0  0.098
  H  H18  1  0.989500  0.362800  0.614200  1.0  0.1446
  H  H19  1  0.631700  0.098400  0.331900  1.0  0.1585
  H  H20  1  0.533300  0.901600  0.168100  1.0  0.158
  H  H21  1  0.373300  0.362800  0.114200  1.0  0.145
  H  H22  1  0.606000  0.195800  0.225000  1.0  0.1071
  H  H23  1  0.466700  0.098400  0.831900  1.0  0.1588
  H  H24  1  0.743100  0.699800  0.316300  1.0  0.0983
  H  H25  1  0.111100  0.187400  0.779700  1.0  0.1351
  H  H26  1  0.510700  0.568600  0.133300  1.0  0.1335
  H  H27  1  0.368300  0.901600  0.668100  1.0  0.1583
  H  H28  1  0.076300  0.187400  0.279700  1.0  0.1338
  H  H29  1  0.917300  0.584600  0.039200  1.0  0.0977
  H  H30  1  0.923700  0.812600  0.720300  1.0  0.1347
  H  H31  1  0.626700  0.637200  0.885800  1.0  0.1446
  H  H32  1  0.942100  0.431400  0.366700  1.0  0.1341
  H  H33  1  0.394000  0.804200  0.775000  1.0  0.1068
  H  H34  1  0.258400  0.694600  0.561300  1.0  0.1048
  H  H35  1  0.563800  0.305400  0.938700  1.0  0.1044
  H  H36  1  0.057900  0.568600  0.633300  1.0  0.1329
  H  H37  1  0.332700  0.415400  0.460800  1.0  0.0968
  H  H38  1  0.489300  0.431400  0.866700  1.0  0.1337
  H  H39  1  0.010500  0.637200  0.385800  1.0  0.1446
  H  H40  1  0.082700  0.415400  0.960800  1.0  0.0972
  C  C41  1  0.341900  0.414200  0.087300  1.0  0.0292
  C  C42  1  0.702700  0.195600  0.237300  1.0  0.2031
  C  C43  1  0.297300  0.804400  0.762700  1.0  0.2045
  C  C44  1  0.879600  0.766600  0.476200  1.0  0.7251
  C  C45  1  0.139700  0.871400  0.683700  1.0  -0.0568
  C  C46  1  0.275400  0.069600  0.255100  1.0  0.6118
  C  C47  1  0.658100  0.585800  0.912700  1.0  0.0276
  C  C48  1  0.284200  0.865200  0.699700  1.0  -0.159
  C  C49  1  0.724600  0.930400  0.744900  1.0  0.6116
  C  C50  1  0.296500  0.254400  0.711500  1.0  0.2022
  C  C51  1  0.791000  0.633400  0.963900  1.0  -0.1925
  C  C52  1  0.170200  0.052400  0.878800  1.0  0.7039
  C  C53  1  0.620700  0.389200  0.946700  1.0  0.1854
  C  C54  1  0.790000  0.810600  0.229100  1.0  -0.0902
  C  C55  1  0.117800  0.947600  0.621200  1.0  0.7041
  C  C56  1  0.927700  0.585800  0.412700  1.0  0.0287
  C  C57  1  0.979400  0.189400  0.270900  1.0  -0.0894
  C  C58  1  0.768500  0.389200  0.446700  1.0  0.1855
  C  C59  1  0.957900  0.254400  0.211500  1.0  0.2027
  C  C60  1  0.231500  0.610800  0.553300  1.0  0.1846
  C  C61  1  0.882200  0.052400  0.378800  1.0  0.7044
  C  C62  1  0.507100  0.804400  0.262700  1.0  0.2038
  C  C63  1  0.172200  0.446800  0.994600  1.0  0.2322
  C  C64  1  0.575800  0.465000  0.902700  1.0  -0.0889
  C  C65  1  0.210000  0.189400  0.770900  1.0  -0.0912
  C  C66  1  0.731700  0.871400  0.183700  1.0  -0.0569
  C  C67  1  0.492900  0.195600  0.737300  1.0  0.2048
  C  C68  1  0.827800  0.553200  0.005400  1.0  0.2331
  C  C69  1  0.268300  0.128600  0.816300  1.0  -0.0565
  C  C70  1  0.157600  0.366600  0.536100  1.0  -0.1923
  C  C71  1  0.020600  0.810600  0.729100  1.0  -0.0908
  C  C72  1  0.113000  0.233400  0.023800  1.0  0.7248
  C  C73  1  0.829800  0.947600  0.121200  1.0  0.7045
  C  C74  1  0.466800  0.932400  0.490000  1.0  0.6908
  C  C75  1  0.842400  0.633400  0.463900  1.0  -0.1922
  C  C76  1  0.581000  0.865200  0.199700  1.0  -0.1581
  C  C77  1  0.725400  0.553200  0.505400  1.0  0.2312
  C  C78  1  0.534400  0.067600  0.010000  1.0  0.6903
  C  C79  1  0.072300  0.414200  0.587300  1.0  0.0287
  C  C80  1  0.889200  0.465000  0.402700  1.0  -0.0897
  C  C81  1  0.110800  0.535000  0.597300  1.0  -0.09
  C  C82  1  0.419000  0.134800  0.800300  1.0  -0.1578
  C  C83  1  0.715800  0.134800  0.300300  1.0  -0.1569
  C  C84  1  0.794200  0.069600  0.755100  1.0  0.6103
  C  C85  1  0.424200  0.535000  0.097300  1.0  -0.0885
  C  C86  1  0.205800  0.930400  0.244900  1.0  0.6129
  C  C87  1  0.274600  0.446800  0.494600  1.0  0.232
  C  C88  1  0.042100  0.745600  0.788500  1.0  0.2034
  C  C89  1  0.533200  0.067600  0.510000  1.0  0.6903
  C  C90  1  0.209000  0.366600  0.036100  1.0  -0.1926
  C  C91  1  0.860300  0.128600  0.316300  1.0  -0.0563
  C  C92  1  0.465600  0.932400  0.990000  1.0  0.6908
  C  C93  1  0.887000  0.766600  0.976200  1.0  0.7251
  C  C94  1  0.379300  0.610800  0.053300  1.0  0.1849
  C  C95  1  0.703500  0.745600  0.288500  1.0  0.2034
  C  C96  1  0.120400  0.233400  0.523800  1.0  0.7275
  N  N97  1  0.691200  0.434200  0.499900  1.0  -0.2737
  N  N98  1  0.257000  0.565800  0.000100  1.0  -0.2721
  N  N99  1  0.308800  0.565800  0.500100  1.0  -0.2713
  N  N100  1  0.565500  0.745400  0.307600  1.0  -0.2768
  N  N101  1  0.820100  0.254600  0.192400  1.0  -0.2765
  N  N102  1  0.434500  0.254600  0.692400  1.0  -0.2763
  N  N103  1  0.179900  0.745400  0.807600  1.0  -0.2739
  N  N104  1  0.743000  0.434200  0.999900  1.0  -0.2707
  O  O105  1  0.975000  0.197800  0.991500  1.0  -0.6534
  O  O106  1  0.967600  0.963400  0.124000  1.0  -0.6044
  O  O107  1  0.991000  0.161600  0.544900  1.0  -0.6717
  O  O108  1  0.461800  0.116800  0.055700  1.0  -0.6166
  O  O109  1  0.338300  0.873800  0.020800  1.0  -0.6223
  O  O110  1  0.222800  0.197800  0.491500  1.0  -0.6532
  O  O111  1  0.170600  0.161600  0.044900  1.0  -0.6721
  O  O112  1  0.223600  0.990400  0.572500  1.0  -0.6794
  O  O113  1  0.004200  0.036600  0.376000  1.0  -0.6043
  O  O114  1  0.803700  0.122600  0.825800  1.0  -0.6029
  O  O115  1  0.538200  0.883200  0.944300  1.0  -0.6179
  O  O116  1  0.233200  0.009600  0.927500  1.0  -0.6806
  O  O117  1  0.995800  0.963400  0.624000  1.0  -0.6055
  O  O118  1  0.025000  0.802200  0.008500  1.0  -0.6548
  O  O119  1  0.826600  0.118800  0.690700  1.0  -0.5835
  O  O120  1  0.707800  0.881200  0.809300  1.0  -0.5835
  O  O121  1  0.655000  0.116800  0.555700  1.0  -0.6172
  O  O122  1  0.009000  0.838400  0.455100  1.0  -0.6714
  O  O123  1  0.345000  0.883200  0.444300  1.0  -0.6175
  O  O124  1  0.766800  0.990400  0.072500  1.0  -0.6783
  O  O125  1  0.318900  0.122600  0.325800  1.0  -0.6032
  O  O126  1  0.196300  0.877400  0.174200  1.0  -0.6032
  O  O127  1  0.829400  0.838400  0.955100  1.0  -0.6709
  O  O128  1  0.173400  0.881200  0.309300  1.0  -0.5834
  O  O129  1  0.777200  0.802200  0.508500  1.0  -0.6533
  O  O130  1  0.776400  0.009600  0.427500  1.0  -0.6794
  O  O131  1  0.292200  0.118800  0.190700  1.0  -0.5828
  O  O132  1  0.681100  0.877400  0.674200  1.0  -0.6027
  O  O133  1  0.464500  0.126200  0.479200  1.0  -0.622
  O  O134  1  0.032400  0.036600  0.876000  1.0  -0.6054
  O  O135  1  0.661700  0.126200  0.979200  1.0  -0.622
  O  O136  1  0.535500  0.873800  0.520800  1.0  -0.6222
