# generated using pymatgen
data_Mn3H24W2(C23N14)2
_symmetry_space_group_name_H-M   'P 1'
_cell_length_a   10.67610000
_cell_length_b   16.10120000
_cell_length_c   18.01310000
_cell_angle_alpha   103.52100000
_cell_angle_beta   106.26100000
_cell_angle_gamma   108.66800000
_symmetry_Int_Tables_number   1
_chemical_formula_structural   Mn3H24W2(C23N14)2
_chemical_formula_sum   'Mn3 H24 W2 C46 N28'
_cell_volume   2632.07277466
_cell_formula_units_Z   1
loop_
 _symmetry_equiv_pos_site_id
 _symmetry_equiv_pos_as_xyz
  1  'x, y, z'
loop_
 _atom_site_type_symbol
 _atom_site_label
 _atom_site_symmetry_multiplicity
 _atom_site_fract_x
 _atom_site_fract_y
 _atom_site_fract_z
 _atom_site_occupancy
 _atom_site_charge
  Mn  Mn1  1  0.489600  0.165740  0.166870  1.0  1.0725
  Mn  Mn2  1  0.500000  0.500000  0.500000  1.0  1.0733
  Mn  Mn3  1  0.510400  0.834260  0.833130  1.0  1.0727
  H  H4  1  0.671900  0.978200  0.336900  1.0  0.1355
  H  H5  1  0.668900  0.454100  0.087300  1.0  0.138
  H  H6  1  0.743800  0.798700  0.952800  1.0  0.1277
  H  H7  1  0.340300  0.689800  0.330200  1.0  0.1344
  H  H8  1  0.321800  0.573200  0.388500  1.0  0.1269
  H  H9  1  0.331100  0.545900  0.912700  1.0  0.1375
  H  H10  1  0.230300  0.194300  0.551000  1.0  0.1467
  H  H11  1  0.762000  0.693400  0.020800  1.0  0.1409
  H  H12  1  0.689700  0.092600  0.274600  1.0  0.1221
  H  H13  1  0.315100  0.649100  0.840500  1.0  0.124
  H  H14  1  0.659700  0.310200  0.669800  1.0  0.1337
  H  H15  1  0.247200  0.311600  0.491400  1.0  0.1272
  H  H16  1  0.310300  0.907400  0.725400  1.0  0.1217
  H  H17  1  0.238000  0.306600  0.979200  1.0  0.1409
  H  H18  1  0.678200  0.426800  0.611500  1.0  0.1274
  H  H19  1  0.684900  0.350900  0.159500  1.0  0.1234
  H  H20  1  0.769700  0.805700  0.449000  1.0  0.1457
  H  H21  1  0.752800  0.688400  0.508600  1.0  0.1269
  H  H22  1  0.758600  0.131500  0.773900  1.0  0.1394
  H  H23  1  0.256800  0.982900  0.165900  1.0  0.1298
  H  H24  1  0.241400  0.868500  0.226100  1.0  0.1382
  H  H25  1  0.743200  0.017100  0.834100  1.0  0.1293
  H  H26  1  0.256200  0.201300  0.047200  1.0  0.1266
  H  H27  1  0.328100  0.021800  0.663100  1.0  0.1353
  W  W28  1  0.038550  0.217140  0.232150  1.0  0.0358
  W  W29  1  0.961450  0.782860  0.767850  1.0  0.0437
  C  C30  1  0.456400  0.913300  0.287200  1.0  0.127
  C  C31  1  0.077300  0.127000  0.302000  1.0  0.1676
  C  C32  1  0.670900  0.684900  0.984800  1.0  -0.0951
  C  C33  1  0.660100  0.747000  0.944200  1.0  0.0966
  C  C34  1  0.552400  0.755600  0.385300  1.0  0.2351
  C  C35  1  0.967200  0.758500  0.878800  1.0  0.1578
  C  C36  1  0.679300  0.758100  0.437500  1.0  -0.1345
  C  C37  1  0.339900  0.253000  0.055800  1.0  0.0964
  C  C38  1  0.594300  0.341000  0.122000  1.0  0.1461
  C  C39  1  0.235700  0.325500  0.332200  1.0  0.1736
  C  C40  1  0.543600  0.086700  0.712800  1.0  0.1285
  C  C41  1  0.667500  0.085600  0.763800  1.0  -0.1048
  C  C42  1  0.024600  0.752400  0.662900  1.0  0.156
  C  C43  1  0.658500  0.018100  0.799700  1.0  0.1281
  C  C44  1  0.332500  0.914400  0.236200  1.0  -0.103
  C  C45  1  0.320700  0.241900  0.562500  1.0  -0.1352
  C  C46  1  0.922700  0.873000  0.698000  1.0  0.1658
  C  C47  1  0.020500  0.348500  0.248400  1.0  0.1084
  C  C48  1  0.585000  0.403300  0.079800  1.0  -0.0779
  C  C49  1  0.587500  0.978900  0.301700  1.0  -0.0716
  C  C50  1  0.935700  0.074400  0.143000  1.0  0.1606
  C  C51  1  0.423800  0.689500  0.366700  1.0  -0.0888
  C  C52  1  0.205100  0.187900  0.205100  1.0  0.1436
  C  C53  1  0.413100  0.620400  0.401000  1.0  0.1428
  C  C54  1  0.412500  0.021100  0.698300  1.0  -0.0729
  C  C55  1  0.598300  0.047400  0.264900  1.0  0.1403
  C  C56  1  0.668800  0.688400  0.472300  1.0  0.1699
  C  C57  1  0.979500  0.651500  0.751600  1.0  0.1083
  C  C58  1  0.586900  0.379600  0.599000  1.0  0.1441
  C  C59  1  0.548500  0.610300  0.972800  1.0  0.0633
  C  C60  1  0.415000  0.596700  0.920200  1.0  -0.0788
  C  C61  1  0.576200  0.310500  0.633300  1.0  -0.088
  C  C62  1  0.331200  0.311600  0.527700  1.0  0.1686
  C  C63  1  0.186100  0.819900  0.818400  1.0  0.1825
  C  C64  1  0.451500  0.389700  0.027200  1.0  0.0624
  C  C65  1  0.032800  0.241500  0.121200  1.0  0.1573
  C  C66  1  0.405700  0.659000  0.878000  1.0  0.1456
  C  C67  1  0.329100  0.315100  0.015200  1.0  -0.0962
  C  C68  1  0.064300  0.925600  0.857000  1.0  0.1609
  C  C69  1  0.794900  0.812100  0.794900  1.0  0.1444
  C  C70  1  0.813900  0.180100  0.181600  1.0  0.1831
  C  C71  1  0.341500  0.981900  0.200300  1.0  0.1274
  C  C72  1  0.401700  0.952600  0.735100  1.0  0.1404
  C  C73  1  0.764300  0.674500  0.667800  1.0  0.1742
  C  C74  1  0.447600  0.244400  0.614700  1.0  0.2264
  C  C75  1  0.975400  0.247600  0.337100  1.0  0.1556
  N  N76  1  0.692000  0.162100  0.158400  1.0  -0.4423
  N  N77  1  0.035700  0.254100  0.059800  1.0  -0.3648
  N  N78  1  0.301300  0.177100  0.189600  1.0  -0.3727
  N  N79  1  0.964300  0.745900  0.940200  1.0  -0.3644
  N  N80  1  0.554500  0.160600  0.679700  1.0  -0.2954
  N  N81  1  0.524000  0.951300  0.785300  1.0  -0.3236
  N  N82  1  0.878900  0.000800  0.091200  1.0  -0.4801
  N  N83  1  0.445500  0.839400  0.320300  1.0  -0.2941
  N  N84  1  0.336200  0.382500  0.388000  1.0  -0.4321
  N  N85  1  0.561400  0.540300  0.014900  1.0  -0.3639
  N  N86  1  0.947400  0.265900  0.395500  1.0  -0.3659
  N  N87  1  0.474400  0.266100  0.109700  1.0  -0.313
  N  N88  1  0.903900  0.920000  0.660800  1.0  -0.3873
  N  N89  1  0.663800  0.617500  0.612000  1.0  -0.4325
  N  N90  1  0.569700  0.829800  0.354800  1.0  -0.2719
  N  N91  1  0.121100  0.999200  0.908800  1.0  -0.48
  N  N92  1  0.438600  0.459700  0.985100  1.0  -0.3637
  N  N93  1  0.021400  0.422200  0.255600  1.0  -0.3996
  N  N94  1  0.430300  0.170200  0.645200  1.0  -0.2726
  N  N95  1  0.476000  0.048700  0.214700  1.0  -0.3249
  N  N96  1  0.096100  0.080000  0.339200  1.0  -0.3859
  N  N97  1  0.052600  0.734100  0.604500  1.0  -0.3677
  N  N98  1  0.308000  0.837900  0.841600  1.0  -0.4428
  N  N99  1  0.525600  0.733900  0.890300  1.0  -0.3092
  N  N100  1  0.536800  0.620000  0.454000  1.0  -0.3484
  N  N101  1  0.978600  0.577800  0.744400  1.0  -0.3984
  N  N102  1  0.698700  0.822900  0.810400  1.0  -0.3735
  N  N103  1  0.463200  0.380000  0.546000  1.0  -0.3489
