# generated using pymatgen
data_Mn3H30W2(C26N11)2
_symmetry_space_group_name_H-M   'P 1'
_cell_length_a   12.62270000
_cell_length_b   13.82530000
_cell_length_c   32.69900000
_cell_angle_alpha   85.58770000
_cell_angle_beta   80.29790000
_cell_angle_gamma   62.83810000
_symmetry_Int_Tables_number   1
_chemical_formula_structural   Mn3H30W2(C26N11)2
_chemical_formula_sum   'Mn6 H60 W4 C104 N44'
_cell_volume   5004.47216361
_cell_formula_units_Z   2
loop_
 _symmetry_equiv_pos_site_id
 _symmetry_equiv_pos_as_xyz
  1  'x, y, z'
loop_
 _atom_site_type_symbol
 _atom_site_label
 _atom_site_symmetry_multiplicity
 _atom_site_fract_x
 _atom_site_fract_y
 _atom_site_fract_z
 _atom_site_occupancy
 _atom_site_charge
  Mn  Mn1  1  0.788030  0.999860  0.208310  1.0  1.0931
  Mn  Mn2  1  0.787890  0.000140  0.708310  1.0  1.0922
  Mn  Mn3  1  0.212110  0.999860  0.291690  1.0  1.0949
  Mn  Mn4  1  0.000000  0.000000  0.000000  1.0  1.0818
  Mn  Mn5  1  0.211970  0.000140  0.791690  1.0  1.0943
  Mn  Mn6  1  0.000000  0.000000  0.500000  1.0  1.0818
  H  H7  1  0.754700  0.249600  0.805600  1.0  0.1345
  H  H8  1  0.579500  0.296200  0.977200  1.0  0.1305
  H  H9  1  0.662200  0.565800  0.703400  1.0  0.136
  H  H10  1  0.522200  0.414400  0.221300  1.0  0.1342
  H  H11  1  0.936600  0.585600  0.721300  1.0  0.1348
  H  H12  1  0.198000  0.581800  0.516000  1.0  0.1413
  H  H13  1  0.083900  0.553400  0.305900  1.0  0.1316
  H  H14  1  0.371300  0.585200  0.289400  1.0  0.1169
  H  H15  1  0.824300  0.244800  0.486000  1.0  0.09
  H  H16  1  0.682700  0.251600  0.225400  1.0  0.0718
  H  H17  1  0.124900  0.127200  0.528500  1.0  0.0981
  H  H18  1  0.471100  0.902200  0.812500  1.0  0.087
  H  H19  1  0.893000  0.541200  0.487300  1.0  0.0982
  H  H20  1  0.065700  0.251600  0.274600  1.0  0.0723
  H  H21  1  0.528900  0.097800  0.187500  1.0  0.0861
  H  H22  1  0.802000  0.418200  0.484000  1.0  0.1424
  H  H23  1  0.373300  0.097800  0.312500  1.0  0.0865
  H  H24  1  0.245300  0.750400  0.194400  1.0  0.1334
  H  H25  1  0.434200  0.458800  0.987300  1.0  0.0973
  H  H26  1  0.875700  0.703800  0.477200  1.0  0.13
  H  H27  1  0.875100  0.872800  0.471500  1.0  0.0983
  H  H28  1  0.069100  0.755200  0.986000  1.0  0.0901
  H  H29  1  0.930900  0.244800  0.014000  1.0  0.0899
  H  H30  1  0.916100  0.446600  0.694100  1.0  0.1299
  H  H31  1  0.973500  0.097000  0.701400  1.0  0.0836
  H  H32  1  0.175700  0.755200  0.514000  1.0  0.0902
  H  H33  1  0.637300  0.446600  0.805900  1.0  0.1316
  H  H34  1  0.317300  0.748400  0.774600  1.0  0.0721
  H  H35  1  0.362700  0.553400  0.194100  1.0  0.1297
  H  H36  1  0.772000  0.565800  0.796600  1.0  0.1353
  H  H37  1  0.779800  0.418200  0.016000  1.0  0.1416
  H  H38  1  0.879800  0.746800  0.207500  1.0  0.0894
  H  H39  1  0.004300  0.750400  0.305600  1.0  0.1339
  H  H40  1  0.628700  0.414800  0.710600  1.0  0.1182
  H  H41  1  0.391700  0.252800  0.317700  1.0  0.1463
  H  H42  1  0.043500  0.585200  0.210600  1.0  0.1172
  H  H43  1  0.608300  0.747200  0.682300  1.0  0.1454
  H  H44  1  0.420500  0.703800  0.022800  1.0  0.1304
  H  H45  1  0.120200  0.253200  0.792500  1.0  0.0889
  H  H46  1  0.747900  0.127200  0.971500  1.0  0.0978
  H  H47  1  0.477800  0.585600  0.778700  1.0  0.1339
  H  H48  1  0.124300  0.296200  0.522800  1.0  0.1306
  H  H49  1  0.626700  0.902200  0.687500  1.0  0.0869
  H  H50  1  0.373400  0.746800  0.292500  1.0  0.0886
  H  H51  1  0.565800  0.541200  0.012700  1.0  0.098
  H  H52  1  0.063400  0.414400  0.278700  1.0  0.1344
  H  H53  1  0.220200  0.581800  0.984000  1.0  0.1415
  H  H54  1  0.107000  0.458800  0.512700  1.0  0.0972
  H  H55  1  0.026500  0.903000  0.298600  1.0  0.0834
  H  H56  1  0.644500  0.747200  0.817700  1.0  0.1461
  H  H57  1  0.337800  0.434200  0.296600  1.0  0.1354
  H  H58  1  0.626600  0.253200  0.707500  1.0  0.0906
  H  H59  1  0.252100  0.872800  0.028500  1.0  0.0998
  H  H60  1  0.355500  0.252800  0.182300  1.0  0.1454
  H  H61  1  0.956500  0.414800  0.789400  1.0  0.1174
  H  H62  1  0.934300  0.748400  0.725400  1.0  0.0718
  H  H63  1  0.995700  0.249600  0.694400  1.0  0.1338
  H  H64  1  0.929500  0.097000  0.798600  1.0  0.0838
  H  H65  1  0.228000  0.434200  0.203400  1.0  0.1359
  H  H66  1  0.070500  0.903000  0.201400  1.0  0.0829
  W  W67  1  0.879720  0.865620  0.867840  1.0  0.0476
  W  W68  1  0.745340  0.134380  0.367840  1.0  0.0488
  W  W69  1  0.254660  0.865620  0.632160  1.0  0.0461
  W  W70  1  0.120280  0.134380  0.132160  1.0  0.0497
  C  C71  1  0.234200  0.350000  0.297800  1.0  0.0073
  C  C72  1  0.885200  0.256000  0.494000  1.0  0.1799
  C  C73  1  0.052800  0.648400  0.206500  1.0  -0.1281
  C  C74  1  0.383900  0.746400  0.784000  1.0  0.1835
  C  C75  1  0.343300  0.620800  0.002100  1.0  0.0772
  C  C76  1  0.310500  0.163400  0.306000  1.0  0.1808
  C  C77  1  0.232200  0.638800  0.991900  1.0  -0.1485
  C  C78  1  0.218100  0.958600  0.125280  1.0  0.1782
  C  C79  1  0.931500  0.913400  0.920500  1.0  0.165
  C  C80  1  0.616100  0.253600  0.216000  1.0  0.1826
  C  C81  1  0.386800  0.799400  0.577900  1.0  0.1427
  C  C82  1  0.478700  0.649400  0.785300  1.0  -0.1521
  C  C83  1  0.813900  0.358600  0.699600  1.0  0.0288
  C  C84  1  0.172900  0.746000  0.198100  1.0  -0.1645
  C  C85  1  0.106800  0.273600  0.162800  1.0  0.1756
  C  C86  1  0.584200  0.650000  0.797800  1.0  0.0092
  C  C87  1  0.226700  0.922000  0.695600  1.0  0.156
  C  C88  1  0.700300  0.253400  0.707100  1.0  0.1828
  C  C89  1  0.129000  0.638800  0.508100  1.0  -0.1469
  C  C90  1  0.114800  0.744000  0.506000  1.0  0.1816
  C  C91  1  0.380400  0.726400  0.662800  1.0  0.1762
  C  C92  1  0.827500  0.358600  0.800400  1.0  0.0247
  C  C93  1  0.081100  0.746000  0.301900  1.0  -0.1627
  C  C94  1  0.172500  0.641400  0.199600  1.0  0.0277
  C  C95  1  0.675600  0.744800  0.691200  1.0  -0.188
  C  C96  1  0.827100  0.254000  0.801900  1.0  -0.1632
  C  C97  1  0.526100  0.163400  0.194000  1.0  0.1805
  C  C98  1  0.932600  0.163000  0.797940  1.0  0.1379
  C  C99  1  0.060300  0.288800  0.515470  1.0  -0.1442
  C  C100  1  0.701200  0.351600  0.706500  1.0  -0.1296
  C  C101  1  0.689500  0.836600  0.694000  1.0  0.1798
  C  C102  1  0.765800  0.650000  0.702200  1.0  0.0071
  C  C103  1  0.904400  0.163000  0.702060  1.0  0.136
  C  C104  1  0.035900  0.620800  0.497900  1.0  0.0771
  C  C105  1  0.813800  0.799400  0.922100  1.0  0.1431
  C  C106  1  0.068500  0.086600  0.079500  1.0  0.1649
  C  C107  1  0.067400  0.837000  0.202060  1.0  0.1354
  C  C108  1  0.420400  0.255200  0.191200  1.0  -0.1873
  C  C109  1  0.324400  0.255200  0.308800  1.0  -0.1914
  C  C110  1  0.128100  0.350600  0.285300  1.0  -0.1515
  C  C111  1  0.396500  0.912400  0.635400  1.0  0.0727
  C  C112  1  0.773300  0.078000  0.304400  1.0  0.1555
  C  C113  1  0.858800  0.256000  0.006000  1.0  0.1821
  C  C114  1  0.823300  0.958600  0.374720  1.0  0.1768
  C  C115  1  0.707300  0.455000  0.802300  1.0  -0.1278
  C  C116  1  0.349100  0.711200  0.015470  1.0  -0.1446
  C  C117  1  0.893200  0.726400  0.837200  1.0  0.1763
  C  C118  1  0.844900  0.086600  0.420500  1.0  0.1652
  C  C119  1  0.095600  0.837000  0.297940  1.0  0.1366
  C  C120  1  0.292700  0.545000  0.197700  1.0  -0.127
  C  C121  1  0.938400  0.814600  0.482000  1.0  0.1606
  C  C122  1  0.753000  0.185400  0.982000  1.0  0.1604
  C  C123  1  0.155100  0.913400  0.579500  1.0  0.1647
  C  C124  1  0.925700  0.102600  0.340400  1.0  0.1459
  C  C125  1  0.964100  0.379200  0.502100  1.0  0.0775
  C  C126  1  0.656700  0.379200  0.997900  1.0  0.0776
  C  C127  1  0.740700  0.556600  0.701400  1.0  -0.1676
  C  C128  1  0.028300  0.897400  0.840400  1.0  0.146
  C  C129  1  0.971700  0.102600  0.159600  1.0  0.1462
  C  C130  1  0.851300  0.922000  0.804400  1.0  0.1557
  C  C131  1  0.299700  0.746600  0.292900  1.0  0.1828
  C  C132  1  0.702700  0.556600  0.798600  1.0  -0.1677
  C  C133  1  0.767800  0.361200  0.008100  1.0  -0.1468
  C  C134  1  0.247000  0.814600  0.018000  1.0  0.1606
  C  C135  1  0.297300  0.443400  0.201400  1.0  -0.1694
  C  C136  1  0.552600  0.486400  0.003280  1.0  -0.0645
  C  C137  1  0.613200  0.200600  0.422100  1.0  0.1423
  C  C138  1  0.298800  0.648400  0.293500  1.0  -0.1284
  C  C139  1  0.415800  0.350000  0.202200  1.0  0.0079
  C  C140  1  0.039000  0.513600  0.503280  1.0  -0.0644
  C  C141  1  0.141200  0.744000  0.994000  1.0  0.1792
  C  C142  1  0.186200  0.200600  0.077900  1.0  0.1429
  C  C143  1  0.130300  0.253600  0.284000  1.0  0.1834
  C  C144  1  0.837700  0.455000  0.697700  1.0  -0.1277
  C  C145  1  0.308900  0.087600  0.135400  1.0  0.0737
  C  C146  1  0.473900  0.836600  0.806000  1.0  0.1806
  C  C147  1  0.521300  0.350600  0.214700  1.0  -0.1481
  C  C148  1  0.959900  0.275400  0.118700  1.0  0.14
  C  C149  1  0.871900  0.649400  0.714700  1.0  -0.1494
  C  C150  1  0.447400  0.513600  0.996720  1.0  -0.0667
  C  C151  1  0.046300  0.253400  0.792900  1.0  0.1825
  C  C152  1  0.869700  0.746400  0.716000  1.0  0.183
  C  C153  1  0.061600  0.185400  0.518000  1.0  0.1604
  C  C154  1  0.579600  0.744800  0.808800  1.0  -0.1903
  C  C155  1  0.040100  0.724600  0.881300  1.0  0.1406
  C  C156  1  0.235300  0.724600  0.618700  1.0  0.1413
  C  C157  1  0.961000  0.486400  0.496720  1.0  -0.0667
  C  C158  1  0.947200  0.351600  0.793500  1.0  -0.1273
  C  C159  1  0.918900  0.254000  0.698100  1.0  -0.1535
  C  C160  1  0.650900  0.288800  0.984530  1.0  -0.1473
  C  C161  1  0.619600  0.273600  0.337200  1.0  0.1764
  C  C162  1  0.074300  0.897400  0.659600  1.0  0.1464
  C  C163  1  0.691100  0.912400  0.864600  1.0  0.0741
  C  C164  1  0.148700  0.078000  0.195600  1.0  0.1562
  C  C165  1  0.186100  0.641400  0.300400  1.0  0.0262
  C  C166  1  0.162300  0.545000  0.302300  1.0  -0.1277
  C  C167  1  0.176700  0.041400  0.625280  1.0  0.1754
  C  C168  1  0.953700  0.746600  0.207100  1.0  0.1823
  C  C169  1  0.259300  0.443400  0.298600  1.0  -0.1694
  C  C170  1  0.781900  0.041400  0.874720  1.0  0.1741
  C  C171  1  0.764700  0.275400  0.381300  1.0  0.1403
  C  C172  1  0.603500  0.087600  0.364600  1.0  0.0748
  C  C173  1  0.939700  0.711200  0.484530  1.0  -0.1476
  C  C174  1  0.871000  0.361200  0.491900  1.0  -0.1483
  N  N175  1  0.899100  0.653000  0.820480  1.0  -0.4831
  N  N176  1  0.217440  0.158120  0.294910  1.0  -0.3136
  N  N177  1  0.229200  0.647000  0.609680  1.0  -0.3891
  N  N178  1  0.408700  0.052400  0.137260  1.0  -0.428
  N  N179  1  0.042200  0.060800  0.052530  1.0  -0.4147
  N  N180  1  0.770800  0.353000  0.390320  1.0  -0.3908
  N  N181  1  0.447900  0.653000  0.679520  1.0  -0.485
  N  N182  1  0.978700  0.920400  0.676570  1.0  -0.4471
  N  N183  1  0.220800  0.237600  0.047870  1.0  -0.3872
  N  N184  1  0.552100  0.347000  0.320480  1.0  -0.4847
  N  N185  1  0.728700  0.133800  0.879500  1.0  -0.424
  N  N186  1  0.899100  0.079600  0.176570  1.0  -0.4474
  N  N187  1  0.021300  0.079600  0.323430  1.0  -0.4469
  N  N188  1  0.836200  0.952800  0.771700  1.0  -0.4209
  N  N189  1  0.591300  0.947600  0.862740  1.0  -0.4279
  N  N190  1  0.624440  0.158120  0.205090  1.0  -0.3103
  N  N191  1  0.954900  0.840400  0.207070  1.0  -0.3372
  N  N192  1  0.021900  0.831400  0.493700  1.0  -0.354
  N  N193  1  0.458400  0.762400  0.547870  1.0  -0.3873
  N  N194  1  0.204700  0.840400  0.292930  1.0  -0.3394
  N  N195  1  0.045100  0.159600  0.792930  1.0  -0.3364
  N  N196  1  0.853300  0.168600  0.993700  1.0  -0.3475
  N  N197  1  0.146700  0.831400  0.006300  1.0  -0.354
  N  N198  1  0.137500  0.133800  0.620500  1.0  -0.4236
  N  N199  1  0.271300  0.866200  0.120500  1.0  -0.4225
  N  N200  1  0.538900  0.052400  0.362740  1.0  -0.4271
  N  N201  1  0.163800  0.047200  0.228300  1.0  -0.4213
  N  N202  1  0.782560  0.841880  0.705090  1.0  -0.3145
  N  N203  1  0.100900  0.920400  0.823430  1.0  -0.4467
  N  N204  1  0.862500  0.866200  0.379500  1.0  -0.4226
  N  N205  1  0.876200  0.353000  0.109680  1.0  -0.3902
  N  N206  1  0.795300  0.159600  0.707070  1.0  -0.3366
  N  N207  1  0.541600  0.237600  0.452130  1.0  -0.3879
  N  N208  1  0.461100  0.947600  0.637260  1.0  -0.4295
  N  N209  1  0.123800  0.647000  0.890320  1.0  -0.389
  N  N210  1  0.957800  0.939200  0.947470  1.0  -0.4154
  N  N211  1  0.779200  0.762400  0.952130  1.0  -0.3874
  N  N212  1  0.897000  0.060800  0.447470  1.0  -0.4152
  N  N213  1  0.978100  0.168600  0.506300  1.0  -0.3501
  N  N214  1  0.100900  0.347000  0.179520  1.0  -0.4859
  N  N215  1  0.103000  0.939200  0.552530  1.0  -0.4147
  N  N216  1  0.375560  0.841880  0.794910  1.0  -0.3138
  N  N217  1  0.211000  0.952800  0.728300  1.0  -0.4214
  N  N218  1  0.789000  0.047200  0.271700  1.0  -0.4214
