# generated using pymatgen
data_Zn(SO4)2
_symmetry_space_group_name_H-M   'P 1'
_cell_length_a   9.51500000
_cell_length_b   9.51500000
_cell_length_c   14.35100000
_cell_angle_alpha   90.00000000
_cell_angle_beta   90.00000000
_cell_angle_gamma   90.00000000
_symmetry_Int_Tables_number   1
_chemical_formula_structural   Zn(SO4)2
_chemical_formula_sum   'Zn4 S8 O32'
_cell_volume   1299.27101398
_cell_formula_units_Z   4
loop_
 _symmetry_equiv_pos_site_id
 _symmetry_equiv_pos_as_xyz
  1  'x, y, z'
loop_
 _atom_site_type_symbol
 _atom_site_label
 _atom_site_symmetry_multiplicity
 _atom_site_fract_x
 _atom_site_fract_y
 _atom_site_fract_z
 _atom_site_occupancy
 _atom_site_charge
  Zn  Zn1  1  0.000000  0.000000  0.000000  1.0  1.154
  Zn  Zn2  1  0.500000  0.500000  0.500000  1.0  1.154
  Zn  Zn3  1  0.500000  0.000000  0.750000  1.0  1.154
  Zn  Zn4  1  0.000000  0.500000  0.250000  1.0  1.154
  S  S5  1  0.969400  0.250000  0.125000  1.0  1.7134
  S  S6  1  0.030600  0.750000  0.125000  1.0  1.7136
  S  S7  1  0.530600  0.250000  0.625000  1.0  1.7136
  S  S8  1  0.250000  0.030600  0.875000  1.0  1.703
  S  S9  1  0.750000  0.530600  0.375000  1.0  1.703
  S  S10  1  0.750000  0.969400  0.875000  1.0  1.7031
  S  S11  1  0.250000  0.469400  0.375000  1.0  1.7031
  S  S12  1  0.469400  0.750000  0.625000  1.0  1.7134
  O  O13  1  0.064700  0.168400  0.063600  1.0  -0.6067
  O  O14  1  0.883200  0.155700  0.178800  1.0  -0.5366
  O  O15  1  0.564700  0.668400  0.563600  1.0  -0.6067
  O  O16  1  0.383200  0.655700  0.678800  1.0  -0.5366
  O  O17  1  0.935300  0.831600  0.063600  1.0  -0.6042
  O  O18  1  0.116800  0.844300  0.178800  1.0  -0.5371
  O  O19  1  0.435300  0.331600  0.563600  1.0  -0.6042
  O  O20  1  0.616800  0.344300  0.678800  1.0  -0.5371
  O  O21  1  0.168400  0.935300  0.936400  1.0  -0.6092
  O  O22  1  0.155700  0.116800  0.821200  1.0  -0.537
  O  O23  1  0.668400  0.435300  0.436400  1.0  -0.6092
  O  O24  1  0.655700  0.616800  0.321200  1.0  -0.537
  O  O25  1  0.831600  0.064700  0.936400  1.0  -0.6061
  O  O26  1  0.844300  0.883200  0.821200  1.0  -0.5345
  O  O27  1  0.331600  0.564700  0.436400  1.0  -0.6061
  O  O28  1  0.344300  0.383200  0.321200  1.0  -0.5345
  O  O29  1  0.435300  0.168400  0.686400  1.0  -0.6051
  O  O30  1  0.616800  0.155700  0.571200  1.0  -0.5343
  O  O31  1  0.935300  0.668400  0.186400  1.0  -0.6051
  O  O32  1  0.116800  0.655700  0.071200  1.0  -0.5343
  O  O33  1  0.564700  0.831600  0.686400  1.0  -0.6058
  O  O34  1  0.383200  0.844300  0.571200  1.0  -0.5366
  O  O35  1  0.064700  0.331600  0.186400  1.0  -0.6058
  O  O36  1  0.883200  0.344300  0.071200  1.0  -0.5366
  O  O37  1  0.331600  0.935300  0.813600  1.0  -0.6062
  O  O38  1  0.344300  0.116800  0.928800  1.0  -0.5382
  O  O39  1  0.831600  0.435300  0.313600  1.0  -0.6062
  O  O40  1  0.844300  0.616800  0.428800  1.0  -0.5382
  O  O41  1  0.668400  0.064700  0.813600  1.0  -0.6065
  O  O42  1  0.655700  0.883200  0.928800  1.0  -0.5367
  O  O43  1  0.168400  0.564700  0.313600  1.0  -0.6065
  O  O44  1  0.155700  0.383200  0.428800  1.0  -0.5367
