# generated using pymatgen
data_Cd7(C5N4)4
_symmetry_space_group_name_H-M   'P 1'
_cell_length_a   8.16600000
_cell_length_b   22.15400000
_cell_length_c   18.47500000
_cell_angle_alpha   90.00000000
_cell_angle_beta   98.70000000
_cell_angle_gamma   90.00000000
_symmetry_Int_Tables_number   1
_chemical_formula_structural   Cd7(C5N4)4
_chemical_formula_sum   'Cd14 C40 N32'
_cell_volume   3303.84726451
_cell_formula_units_Z   2
loop_
 _symmetry_equiv_pos_site_id
 _symmetry_equiv_pos_as_xyz
  1  'x, y, z'
loop_
 _atom_site_type_symbol
 _atom_site_label
 _atom_site_symmetry_multiplicity
 _atom_site_fract_x
 _atom_site_fract_y
 _atom_site_fract_z
 _atom_site_occupancy
 _atom_site_charge
  Cd  Cd1  1  0.559130  0.123500  0.168960  1.0  0.815
  Cd  Cd2  1  0.710470  0.959000  0.401470  1.0  0.9535
  Cd  Cd3  1  0.848520  0.159780  0.757480  1.0  0.7187
  Cd  Cd4  1  0.440870  0.876500  0.831040  1.0  0.815
  Cd  Cd5  1  0.289530  0.041000  0.598530  1.0  0.9533
  Cd  Cd6  1  0.151480  0.840220  0.242520  1.0  0.7193
  Cd  Cd7  1  0.000000  0.000000  0.000000  1.0  0.9343
  Cd  Cd8  1  0.940870  0.623500  0.331040  1.0  0.815
  Cd  Cd9  1  0.789530  0.459000  0.098530  1.0  0.9533
  Cd  Cd10  1  0.651480  0.659780  0.742520  1.0  0.7176
  Cd  Cd11  1  0.059130  0.376500  0.668960  1.0  0.815
  Cd  Cd12  1  0.210470  0.541000  0.901470  1.0  0.9533
  Cd  Cd13  1  0.348520  0.340220  0.257480  1.0  0.7207
  Cd  Cd14  1  0.500000  0.500000  0.500000  1.0  0.9343
  C  C15  1  0.945400  0.992100  0.480200  1.0  -0.0727
  C  C16  1  0.538300  0.991400  0.479200  1.0  -0.0867
  C  C17  1  0.910000  0.112600  0.866100  1.0  0.0165
  C  C18  1  0.818000  0.047000  0.070400  1.0  0.1823
  C  C19  1  0.334500  0.083000  0.102200  1.0  -0.0198
  C  C20  1  0.650300  0.069900  0.268200  1.0  -0.0531
  C  C21  1  0.038800  0.119100  0.696900  1.0  0.0167
  C  C22  1  0.671000  0.206600  0.131000  1.0  -0.0207
  C  C23  1  0.869900  0.259000  0.751400  1.0  -0.0032
  C  C24  1  0.614600  0.116900  0.705900  1.0  -0.0122
  C  C25  1  0.054600  0.007900  0.519800  1.0  -0.0733
  C  C26  1  0.461700  0.008600  0.520800  1.0  -0.0873
  C  C27  1  0.090000  0.887400  0.133900  1.0  0.0188
  C  C28  1  0.182000  0.953000  0.929600  1.0  0.1829
  C  C29  1  0.665500  0.917000  0.897800  1.0  -0.0193
  C  C30  1  0.349700  0.930100  0.731800  1.0  -0.0526
  C  C31  1  0.961200  0.880900  0.303100  1.0  0.0198
  C  C32  1  0.329000  0.793400  0.869000  1.0  -0.022
  C  C33  1  0.130100  0.741000  0.248600  1.0  -0.0041
  C  C34  1  0.385400  0.883100  0.294100  1.0  -0.0117
  C  C35  1  0.554600  0.492100  0.019800  1.0  -0.0732
  C  C36  1  0.961700  0.491400  0.020800  1.0  -0.0871
  C  C37  1  0.590000  0.612600  0.633900  1.0  0.0173
  C  C38  1  0.682000  0.547000  0.429600  1.0  0.1838
  C  C39  1  0.165500  0.583000  0.397800  1.0  -0.0201
  C  C40  1  0.849700  0.569900  0.231800  1.0  -0.0542
  C  C41  1  0.461200  0.619100  0.803100  1.0  0.0187
  C  C42  1  0.829000  0.706600  0.369000  1.0  -0.0204
  C  C43  1  0.630100  0.759000  0.748600  1.0  0.0019
  C  C44  1  0.885400  0.616900  0.794100  1.0  -0.0127
  C  C45  1  0.445400  0.507900  0.980200  1.0  -0.0728
  C  C46  1  0.038300  0.508600  0.979200  1.0  -0.0867
  C  C47  1  0.410000  0.387400  0.366100  1.0  0.0176
  C  C48  1  0.318000  0.453000  0.570400  1.0  0.1823
  C  C49  1  0.834500  0.417000  0.602200  1.0  -0.0192
  C  C50  1  0.150300  0.430100  0.768200  1.0  -0.0517
  C  C51  1  0.538800  0.380900  0.196900  1.0  0.0168
  C  C52  1  0.171000  0.293400  0.631000  1.0  -0.022
  C  C53  1  0.369900  0.241000  0.251400  1.0  0.0005
  C  C54  1  0.114600  0.383100  0.205900  1.0  -0.0113
  N  N55  1  0.943000  0.081500  0.911300  1.0  -0.3081
  N  N56  1  0.757000  0.063600  0.091300  1.0  -0.3244
  N  N57  1  0.228300  0.058700  0.069200  1.0  -0.3684
  N  N58  1  0.686400  0.038800  0.317500  1.0  -0.4243
  N  N59  1  0.875900  0.905200  0.332900  1.0  -0.3187
  N  N60  1  0.728000  0.248100  0.111200  1.0  -0.3753
  N  N61  1  0.488000  0.911000  0.322900  1.0  -0.4055
  N  N62  1  0.105800  0.693100  0.259500  1.0  -0.3822
  N  N63  1  0.057000  0.918500  0.088700  1.0  -0.3084
  N  N64  1  0.243000  0.936400  0.908700  1.0  -0.329
  N  N65  1  0.771700  0.941300  0.930800  1.0  -0.3682
  N  N66  1  0.313600  0.961200  0.682500  1.0  -0.421
  N  N67  1  0.124100  0.094800  0.667100  1.0  -0.3176
  N  N68  1  0.272000  0.751900  0.888800  1.0  -0.3729
  N  N69  1  0.512000  0.089000  0.677100  1.0  -0.4056
  N  N70  1  0.894200  0.306900  0.740500  1.0  -0.3824
  N  N71  1  0.394200  0.193100  0.240500  1.0  -0.3814
  N  N72  1  0.557000  0.581500  0.588700  1.0  -0.309
  N  N73  1  0.743000  0.563600  0.408700  1.0  -0.3287
  N  N74  1  0.271700  0.558700  0.430800  1.0  -0.3686
  N  N75  1  0.813600  0.538800  0.182500  1.0  -0.4214
  N  N76  1  0.624100  0.405200  0.167100  1.0  -0.3184
  N  N77  1  0.772000  0.748100  0.388800  1.0  -0.3754
  N  N78  1  0.012000  0.411000  0.177100  1.0  -0.405
  N  N79  1  0.605800  0.806900  0.759500  1.0  -0.3837
  N  N80  1  0.443000  0.418500  0.411300  1.0  -0.3074
  N  N81  1  0.257000  0.436400  0.591300  1.0  -0.3229
  N  N82  1  0.728300  0.441300  0.569200  1.0  -0.3674
  N  N83  1  0.186400  0.461200  0.817500  1.0  -0.4235
  N  N84  1  0.375900  0.594800  0.832900  1.0  -0.319
  N  N85  1  0.228000  0.251900  0.611200  1.0  -0.3738
  N  N86  1  0.988000  0.589000  0.822900  1.0  -0.4062
