# generated using pymatgen
data_Ba(CO)4
_symmetry_space_group_name_H-M   'P 1'
_cell_length_a   13.41090000
_cell_length_b   16.25680000
_cell_length_c   27.90280000
_cell_angle_alpha   90.00000000
_cell_angle_beta   98.98400000
_cell_angle_gamma   90.00000000
_symmetry_Int_Tables_number   1
_chemical_formula_structural   Ba(CO)4
_chemical_formula_sum   'Ba24 C96 O96'
_cell_volume   6008.69128577
_cell_formula_units_Z   24
loop_
 _symmetry_equiv_pos_site_id
 _symmetry_equiv_pos_as_xyz
  1  'x, y, z'
loop_
 _atom_site_type_symbol
 _atom_site_label
 _atom_site_symmetry_multiplicity
 _atom_site_fract_x
 _atom_site_fract_y
 _atom_site_fract_z
 _atom_site_occupancy
 _atom_site_charge
  Ba  Ba1  1  0.371810  0.743710  0.820150  1.0  1.6211
  Ba  Ba2  1  0.650780  0.860010  0.768070  1.0  1.6401
  Ba  Ba3  1  0.386220  0.594380  0.959000  1.0  1.6372
  Ba  Ba4  1  0.871810  0.243710  0.320150  1.0  1.6211
  Ba  Ba5  1  0.150780  0.360010  0.268070  1.0  1.6401
  Ba  Ba6  1  0.886220  0.094380  0.459000  1.0  1.6372
  Ba  Ba7  1  0.128190  0.743710  0.179850  1.0  1.6188
  Ba  Ba8  1  0.849220  0.860010  0.231930  1.0  1.6401
  Ba  Ba9  1  0.113780  0.594380  0.041000  1.0  1.6376
  Ba  Ba10  1  0.628190  0.243710  0.679850  1.0  1.6188
  Ba  Ba11  1  0.349220  0.360010  0.731930  1.0  1.6401
  Ba  Ba12  1  0.613780  0.094380  0.541000  1.0  1.6376
  Ba  Ba13  1  0.628190  0.256290  0.179850  1.0  1.6213
  Ba  Ba14  1  0.349220  0.139990  0.231930  1.0  1.6393
  Ba  Ba15  1  0.613780  0.405620  0.041000  1.0  1.6374
  Ba  Ba16  1  0.128190  0.756290  0.679850  1.0  1.6213
  Ba  Ba17  1  0.849220  0.639990  0.731930  1.0  1.6393
  Ba  Ba18  1  0.113780  0.905620  0.541000  1.0  1.6374
  Ba  Ba19  1  0.871810  0.256290  0.820150  1.0  1.6192
  Ba  Ba20  1  0.150780  0.139990  0.768070  1.0  1.6393
  Ba  Ba21  1  0.886220  0.405620  0.959000  1.0  1.6371
  Ba  Ba22  1  0.371810  0.756290  0.320150  1.0  1.6192
  Ba  Ba23  1  0.650780  0.639990  0.268070  1.0  1.6393
  Ba  Ba24  1  0.386220  0.905620  0.459000  1.0  1.6371
  C  C25  1  0.612500  0.587700  0.814620  1.0  -0.1346
  C  C26  1  0.620900  0.673800  0.796200  1.0  0.6944
  C  C27  1  0.604800  0.572800  0.862950  1.0  -0.0992
  C  C28  1  0.590500  0.644300  0.895200  1.0  0.6748
  C  C29  1  0.621100  0.493600  0.881820  1.0  -0.1338
  C  C30  1  0.622100  0.477700  0.934670  1.0  0.6489
  C  C31  1  0.639200  0.429100  0.851460  1.0  -0.1352
  C  C32  1  0.670200  0.344900  0.872790  1.0  0.6904
  C  C33  1  0.630700  0.441900  0.801300  1.0  -0.1213
  C  C34  1  0.626000  0.371300  0.766890  1.0  0.6373
  C  C35  1  0.619300  0.521800  0.783260  1.0  -0.1132
  C  C36  1  0.615400  0.539900  0.729500  1.0  0.6101
  C  C37  1  0.112500  0.087700  0.314620  1.0  -0.1346
  C  C38  1  0.120900  0.173800  0.296200  1.0  0.6944
  C  C39  1  0.104800  0.072800  0.362950  1.0  -0.0992
  C  C40  1  0.090500  0.144300  0.395200  1.0  0.6748
  C  C41  1  0.121100  0.993600  0.381820  1.0  -0.1338
  C  C42  1  0.122100  0.977700  0.434670  1.0  0.6489
  C  C43  1  0.139200  0.929100  0.351460  1.0  -0.1352
  C  C44  1  0.170200  0.844900  0.372790  1.0  0.6904
  C  C45  1  0.130700  0.941900  0.301300  1.0  -0.1213
  C  C46  1  0.126000  0.871300  0.266890  1.0  0.6373
  C  C47  1  0.119300  0.021800  0.283260  1.0  -0.1132
  C  C48  1  0.115400  0.039900  0.229500  1.0  0.6101
  C  C49  1  0.887500  0.587700  0.185380  1.0  -0.1355
  C  C50  1  0.879100  0.673800  0.203800  1.0  0.6951
  C  C51  1  0.895200  0.572800  0.137050  1.0  -0.0992
  C  C52  1  0.909500  0.644300  0.104800  1.0  0.6767
  C  C53  1  0.878900  0.493600  0.118180  1.0  -0.1327
  C  C54  1  0.877900  0.477700  0.065330  1.0  0.6512
  C  C55  1  0.860800  0.429100  0.148540  1.0  -0.135
  C  C56  1  0.829800  0.344900  0.127210  1.0  0.6908
  C  C57  1  0.869300  0.441900  0.198700  1.0  -0.1212
  C  C58  1  0.874000  0.371300  0.233110  1.0  0.6368
  C  C59  1  0.880700  0.521800  0.216740  1.0  -0.1127
  C  C60  1  0.884600  0.539900  0.270500  1.0  0.6064
  C  C61  1  0.387500  0.087700  0.685380  1.0  -0.1355
  C  C62  1  0.379100  0.173800  0.703800  1.0  0.6951
  C  C63  1  0.395200  0.072800  0.637050  1.0  -0.0992
  C  C64  1  0.409500  0.144300  0.604800  1.0  0.6767
  C  C65  1  0.378900  0.993600  0.618180  1.0  -0.1327
  C  C66  1  0.377900  0.977700  0.565330  1.0  0.6512
  C  C67  1  0.360800  0.929100  0.648540  1.0  -0.135
  C  C68  1  0.329800  0.844900  0.627210  1.0  0.6908
  C  C69  1  0.369300  0.941900  0.698700  1.0  -0.1212
  C  C70  1  0.374000  0.871300  0.733110  1.0  0.6368
  C  C71  1  0.380700  0.021800  0.716740  1.0  -0.1127
  C  C72  1  0.384600  0.039900  0.770500  1.0  0.6064
  C  C73  1  0.387500  0.412300  0.185380  1.0  -0.1353
  C  C74  1  0.379100  0.326200  0.203800  1.0  0.6941
  C  C75  1  0.395200  0.427200  0.137050  1.0  -0.0988
  C  C76  1  0.409500  0.355700  0.104800  1.0  0.6757
  C  C77  1  0.378900  0.506400  0.118180  1.0  -0.1328
  C  C78  1  0.377900  0.522300  0.065330  1.0  0.6511
  C  C79  1  0.360800  0.570900  0.148540  1.0  -0.1342
  C  C80  1  0.329800  0.655100  0.127210  1.0  0.6912
  C  C81  1  0.369300  0.558100  0.198700  1.0  -0.1214
  C  C82  1  0.374000  0.628700  0.233110  1.0  0.6347
  C  C83  1  0.380700  0.478200  0.216740  1.0  -0.1128
  C  C84  1  0.384600  0.460100  0.270500  1.0  0.6062
  C  C85  1  0.887500  0.912300  0.685380  1.0  -0.1353
  C  C86  1  0.879100  0.826200  0.703800  1.0  0.6941
  C  C87  1  0.895200  0.927200  0.637050  1.0  -0.0988
  C  C88  1  0.909500  0.855700  0.604800  1.0  0.6757
  C  C89  1  0.878900  0.006400  0.618180  1.0  -0.1328
  C  C90  1  0.877900  0.022300  0.565330  1.0  0.6511
  C  C91  1  0.860800  0.070900  0.648540  1.0  -0.1342
  C  C92  1  0.829800  0.155100  0.627210  1.0  0.6912
  C  C93  1  0.869300  0.058100  0.698700  1.0  -0.1214
  C  C94  1  0.874000  0.128700  0.733110  1.0  0.6347
  C  C95  1  0.880700  0.978200  0.716740  1.0  -0.1128
  C  C96  1  0.884600  0.960100  0.770500  1.0  0.6062
  C  C97  1  0.112500  0.412300  0.814620  1.0  -0.1345
  C  C98  1  0.120900  0.326200  0.796200  1.0  0.6933
  C  C99  1  0.104800  0.427200  0.862950  1.0  -0.0994
  C  C100  1  0.090500  0.355700  0.895200  1.0  0.6751
  C  C101  1  0.121100  0.506400  0.881820  1.0  -0.1339
  C  C102  1  0.122100  0.522300  0.934670  1.0  0.6493
  C  C103  1  0.139200  0.570900  0.851460  1.0  -0.1346
  C  C104  1  0.170200  0.655100  0.872790  1.0  0.69
  C  C105  1  0.130700  0.558100  0.801300  1.0  -0.1215
  C  C106  1  0.126000  0.628700  0.766890  1.0  0.6371
  C  C107  1  0.119300  0.478200  0.783260  1.0  -0.1133
  C  C108  1  0.115400  0.460100  0.729500  1.0  0.6104
  C  C109  1  0.612500  0.912300  0.314620  1.0  -0.1345
  C  C110  1  0.620900  0.826200  0.296200  1.0  0.6933
  C  C111  1  0.604800  0.927200  0.362950  1.0  -0.0994
  C  C112  1  0.590500  0.855700  0.395200  1.0  0.6751
  C  C113  1  0.621100  0.006400  0.381820  1.0  -0.1339
  C  C114  1  0.622100  0.022300  0.434670  1.0  0.6493
  C  C115  1  0.639200  0.070900  0.351460  1.0  -0.1346
  C  C116  1  0.670200  0.155100  0.372790  1.0  0.69
  C  C117  1  0.630700  0.058100  0.301300  1.0  -0.1215
  C  C118  1  0.626000  0.128700  0.266890  1.0  0.6371
  C  C119  1  0.619300  0.978200  0.283260  1.0  -0.1133
  C  C120  1  0.615400  0.960100  0.229500  1.0  0.6104
  O  O121  1  0.685600  0.687400  0.769500  1.0  -0.7218
  O  O122  1  0.565300  0.728500  0.810140  1.0  -0.7416
  O  O123  1  0.502500  0.666400  0.899230  1.0  -0.7142
  O  O124  1  0.669800  0.678400  0.916710  1.0  -0.5438
  O  O125  1  0.562100  0.515000  0.957180  1.0  -0.7664
  O  O126  1  0.683600  0.423900  0.954190  1.0  -0.6972
  O  O127  1  0.601200  0.296600  0.879560  1.0  -0.5294
  O  O128  1  0.762000  0.330100  0.880960  1.0  -0.6745
  O  O129  1  0.686600  0.312000  0.774630  1.0  -0.8307
  O  O130  1  0.555300  0.374300  0.731140  1.0  -0.7218
  O  O131  1  0.691900  0.525600  0.710340  1.0  -0.6347
  O  O132  1  0.534500  0.572800  0.708630  1.0  -0.5381
  O  O133  1  0.185600  0.187400  0.269500  1.0  -0.7218
  O  O134  1  0.065300  0.228500  0.310140  1.0  -0.7416
  O  O135  1  0.002500  0.166400  0.399230  1.0  -0.7142
  O  O136  1  0.169800  0.178400  0.416710  1.0  -0.5493
  O  O137  1  0.062100  0.015000  0.457180  1.0  -0.7664
  O  O138  1  0.183600  0.923900  0.454190  1.0  -0.6972
  O  O139  1  0.101200  0.796600  0.379560  1.0  -0.5317
  O  O140  1  0.262000  0.830100  0.380960  1.0  -0.6745
  O  O141  1  0.186600  0.812000  0.274630  1.0  -0.8307
  O  O142  1  0.055300  0.874300  0.231140  1.0  -0.7218
  O  O143  1  0.191900  0.025600  0.210340  1.0  -0.6336
  O  O144  1  0.034500  0.072800  0.208630  1.0  -0.5242
  O  O145  1  0.814400  0.687400  0.230500  1.0  -0.7216
  O  O146  1  0.934700  0.728500  0.189860  1.0  -0.7417
  O  O147  1  0.997500  0.666400  0.100770  1.0  -0.717
  O  O148  1  0.830200  0.678400  0.083290  1.0  -0.5445
  O  O149  1  0.937900  0.515000  0.042820  1.0  -0.7686
  O  O150  1  0.816400  0.423900  0.045810  1.0  -0.6971
  O  O151  1  0.898800  0.296600  0.120440  1.0  -0.5271
  O  O152  1  0.738000  0.330100  0.119040  1.0  -0.6765
  O  O153  1  0.813400  0.312000  0.225370  1.0  -0.8297
  O  O154  1  0.944700  0.374300  0.268860  1.0  -0.7223
  O  O155  1  0.808100  0.525600  0.289660  1.0  -0.6344
  O  O156  1  0.965500  0.572800  0.291370  1.0  -0.5399
  O  O157  1  0.314400  0.187400  0.730500  1.0  -0.7216
  O  O158  1  0.434700  0.228500  0.689860  1.0  -0.7417
  O  O159  1  0.497500  0.166400  0.600770  1.0  -0.717
  O  O160  1  0.330200  0.178400  0.583290  1.0  -0.5501
  O  O161  1  0.437900  0.015000  0.542820  1.0  -0.7686
  O  O162  1  0.316400  0.923900  0.545810  1.0  -0.6971
  O  O163  1  0.398800  0.796600  0.620440  1.0  -0.5297
  O  O164  1  0.238000  0.830100  0.619040  1.0  -0.6765
  O  O165  1  0.313400  0.812000  0.725370  1.0  -0.8297
  O  O166  1  0.444700  0.874300  0.768860  1.0  -0.7223
  O  O167  1  0.308100  0.025600  0.789660  1.0  -0.6352
  O  O168  1  0.465500  0.072800  0.791370  1.0  -0.5256
  O  O169  1  0.314400  0.312600  0.230500  1.0  -0.7211
  O  O170  1  0.434700  0.271500  0.189860  1.0  -0.7435
  O  O171  1  0.497500  0.333600  0.100770  1.0  -0.7139
  O  O172  1  0.330200  0.321600  0.083290  1.0  -0.5444
  O  O173  1  0.437900  0.485000  0.042820  1.0  -0.7693
  O  O174  1  0.316400  0.576100  0.045810  1.0  -0.6965
  O  O175  1  0.398800  0.703400  0.120440  1.0  -0.5317
  O  O176  1  0.238000  0.669900  0.119040  1.0  -0.6767
  O  O177  1  0.313400  0.688000  0.225370  1.0  -0.832
  O  O178  1  0.444700  0.625700  0.268860  1.0  -0.722
  O  O179  1  0.308100  0.474400  0.289660  1.0  -0.6346
  O  O180  1  0.465500  0.427200  0.291370  1.0  -0.5386
  O  O181  1  0.814400  0.812600  0.730500  1.0  -0.7211
  O  O182  1  0.934700  0.771500  0.689860  1.0  -0.7435
  O  O183  1  0.997500  0.833600  0.600770  1.0  -0.7139
  O  O184  1  0.830200  0.821600  0.583290  1.0  -0.55
  O  O185  1  0.937900  0.985000  0.542820  1.0  -0.7693
  O  O186  1  0.816400  0.076100  0.545810  1.0  -0.6965
  O  O187  1  0.898800  0.203400  0.620440  1.0  -0.5331
  O  O188  1  0.738000  0.169900  0.619040  1.0  -0.6767
  O  O189  1  0.813400  0.188000  0.725370  1.0  -0.832
  O  O190  1  0.944700  0.125700  0.768860  1.0  -0.722
  O  O191  1  0.808100  0.974400  0.789660  1.0  -0.6354
  O  O192  1  0.965500  0.927200  0.791370  1.0  -0.5244
  O  O193  1  0.185600  0.312600  0.769500  1.0  -0.7226
  O  O194  1  0.065300  0.271500  0.810140  1.0  -0.7434
  O  O195  1  0.002500  0.333600  0.899230  1.0  -0.7123
  O  O196  1  0.169800  0.321600  0.916710  1.0  -0.5438
  O  O197  1  0.062100  0.485000  0.957180  1.0  -0.7671
  O  O198  1  0.183600  0.576100  0.954190  1.0  -0.6972
  O  O199  1  0.101200  0.703400  0.879560  1.0  -0.5302
  O  O200  1  0.262000  0.669900  0.880960  1.0  -0.6762
  O  O201  1  0.186600  0.688000  0.774630  1.0  -0.8315
  O  O202  1  0.055300  0.625700  0.731140  1.0  -0.7216
  O  O203  1  0.191900  0.474400  0.710340  1.0  -0.6345
  O  O204  1  0.034500  0.427200  0.708630  1.0  -0.5373
  O  O205  1  0.685600  0.812600  0.269500  1.0  -0.7226
  O  O206  1  0.565300  0.771500  0.310140  1.0  -0.7434
  O  O207  1  0.502500  0.833600  0.399230  1.0  -0.7123
  O  O208  1  0.669800  0.821600  0.416710  1.0  -0.5494
  O  O209  1  0.562100  0.985000  0.457180  1.0  -0.7671
  O  O210  1  0.683600  0.076100  0.454190  1.0  -0.6972
  O  O211  1  0.601200  0.203400  0.379560  1.0  -0.5318
  O  O212  1  0.762000  0.169900  0.380960  1.0  -0.6762
  O  O213  1  0.686600  0.188000  0.274630  1.0  -0.8315
  O  O214  1  0.555300  0.125700  0.231140  1.0  -0.7216
  O  O215  1  0.691900  0.974400  0.210340  1.0  -0.633
  O  O216  1  0.534500  0.927200  0.208630  1.0  -0.5236
