# generated using pymatgen
data_Cd2H19C27N5O4
_symmetry_space_group_name_H-M   'P 1'
_cell_length_a   15.56530000
_cell_length_b   15.38560000
_cell_length_c   14.83640000
_cell_angle_alpha   90.00000000
_cell_angle_beta   109.72500000
_cell_angle_gamma   90.00000000
_symmetry_Int_Tables_number   1
_chemical_formula_structural   Cd2H19C27N5O4
_chemical_formula_sum   'Cd8 H76 C108 N20 O16'
_cell_volume   3344.56243289
_cell_formula_units_Z   4
loop_
 _symmetry_equiv_pos_site_id
 _symmetry_equiv_pos_as_xyz
  1  'x, y, z'
loop_
 _atom_site_type_symbol
 _atom_site_label
 _atom_site_symmetry_multiplicity
 _atom_site_fract_x
 _atom_site_fract_y
 _atom_site_fract_z
 _atom_site_occupancy
 _atom_site_charge
  Cd  Cd1  1  0.622290  0.850350  0.743460  1.0  0.7879
  Cd  Cd2  1  0.822420  0.678230  0.766840  1.0  0.8619
  Cd  Cd3  1  0.377710  0.350350  0.756540  1.0  0.7878
  Cd  Cd4  1  0.177580  0.178230  0.733160  1.0  0.8631
  Cd  Cd5  1  0.377710  0.149650  0.256540  1.0  0.7871
  Cd  Cd6  1  0.177580  0.321770  0.233160  1.0  0.8622
  Cd  Cd7  1  0.622290  0.649650  0.243460  1.0  0.7874
  Cd  Cd8  1  0.822420  0.821770  0.266840  1.0  0.8615
  H  H9  1  0.457300  0.341800  0.253200  1.0  0.0646
  H  H10  1  0.547800  0.447300  0.348000  1.0  0.1087
  H  H11  1  0.601100  0.284200  0.568700  1.0  0.1017
  H  H12  1  0.505800  0.185400  0.469100  1.0  0.0671
  H  H13  1  0.791000  0.859600  0.945800  1.0  0.0561
  H  H14  1  0.899400  0.949800  0.041800  1.0  0.1073
  H  H15  1  0.787100  0.144900  0.863200  1.0  0.1123
  H  H16  1  0.685600  0.047900  0.767800  1.0  0.0724
  H  H17  1  0.043500  0.289200  0.015700  1.0  0.0568
  H  H18  1  0.930100  0.201400  0.921800  1.0  0.1109
  H  H19  1  0.951200  0.059100  0.153200  1.0  0.1128
  H  H20  1  0.063500  0.150900  0.241100  1.0  0.0641
  H  H21  1  0.658900  0.654900  0.566200  1.0  0.0713
  H  H22  1  0.574900  0.551200  0.462500  1.0  0.0981
  H  H23  1  0.728200  0.368100  0.633400  1.0  0.1106
  H  H24  1  0.805100  0.475500  0.735200  1.0  0.0642
  H  H25  1  0.840100  0.510600  0.143000  1.0  0.1002
  H  H26  1  0.917800  0.445200  0.052700  1.0  0.113
  H  H27  1  0.904200  0.501600  0.905900  1.0  0.0659
  H  H28  1  0.542700  0.841800  0.246800  1.0  0.0648
  H  H29  1  0.452200  0.947300  0.152000  1.0  0.1087
  H  H30  1  0.398900  0.784200  0.931300  1.0  0.1011
  H  H31  1  0.494200  0.685400  0.030900  1.0  0.0672
  H  H32  1  0.209000  0.359600  0.554200  1.0  0.0561
  H  H33  1  0.100600  0.449800  0.458200  1.0  0.1073
  H  H34  1  0.212900  0.644900  0.636800  1.0  0.1125
  H  H35  1  0.314400  0.547900  0.732200  1.0  0.0723
  H  H36  1  0.956500  0.789200  0.484300  1.0  0.0561
  H  H37  1  0.069900  0.701400  0.578200  1.0  0.1105
  H  H38  1  0.048800  0.559100  0.346800  1.0  0.1126
  H  H39  1  0.936500  0.650900  0.258900  1.0  0.0638
  H  H40  1  0.341100  0.154900  0.933800  1.0  0.0715
  H  H41  1  0.425100  0.051200  0.037500  1.0  0.099
  H  H42  1  0.271800  0.868100  0.866600  1.0  0.1098
  H  H43  1  0.194900  0.975500  0.764800  1.0  0.0638
  H  H44  1  0.159900  0.010600  0.357000  1.0  0.101
  H  H45  1  0.082200  0.945200  0.447300  1.0  0.1134
  H  H46  1  0.095800  0.001600  0.594100  1.0  0.066
  H  H47  1  0.542700  0.658200  0.746800  1.0  0.0635
  H  H48  1  0.452200  0.552700  0.652000  1.0  0.1089
  H  H49  1  0.398900  0.715800  0.431300  1.0  0.1012
  H  H50  1  0.494200  0.814600  0.530900  1.0  0.0677
  H  H51  1  0.209000  0.140400  0.054200  1.0  0.056
  H  H52  1  0.100600  0.050200  0.958200  1.0  0.1073
  H  H53  1  0.212900  0.855100  0.136800  1.0  0.1124
  H  H54  1  0.314400  0.952100  0.232200  1.0  0.0728
  H  H55  1  0.956500  0.710800  0.984300  1.0  0.0555
  H  H56  1  0.069900  0.798600  0.078200  1.0  0.1104
  H  H57  1  0.048800  0.940900  0.846800  1.0  0.1123
  H  H58  1  0.936500  0.849100  0.758900  1.0  0.0635
  H  H59  1  0.341100  0.345100  0.433800  1.0  0.0714
  H  H60  1  0.425100  0.448800  0.537500  1.0  0.0988
  H  H61  1  0.271800  0.631900  0.366600  1.0  0.11
  H  H62  1  0.194900  0.524500  0.264800  1.0  0.064
  H  H63  1  0.159900  0.489400  0.857000  1.0  0.1011
  H  H64  1  0.082200  0.554800  0.947300  1.0  0.1134
  H  H65  1  0.095800  0.498400  0.094100  1.0  0.0659
  H  H66  1  0.457300  0.158200  0.753200  1.0  0.0631
  H  H67  1  0.547800  0.052700  0.848000  1.0  0.1081
  H  H68  1  0.601100  0.215800  0.068700  1.0  0.1018
  H  H69  1  0.505800  0.314600  0.969100  1.0  0.0678
  H  H70  1  0.791000  0.640400  0.445800  1.0  0.056
  H  H71  1  0.899400  0.550200  0.541800  1.0  0.1069
  H  H72  1  0.787100  0.355100  0.363200  1.0  0.1124
  H  H73  1  0.685600  0.452100  0.267800  1.0  0.0721
  H  H74  1  0.043500  0.210800  0.515700  1.0  0.0558
  H  H75  1  0.930100  0.298600  0.421800  1.0  0.1102
  H  H76  1  0.951200  0.440900  0.653200  1.0  0.1122
  H  H77  1  0.063500  0.349100  0.741100  1.0  0.064
  H  H78  1  0.658900  0.845100  0.066200  1.0  0.0712
  H  H79  1  0.574900  0.948800  0.962500  1.0  0.0977
  H  H80  1  0.728200  0.131900  0.133400  1.0  0.1108
  H  H81  1  0.805100  0.024500  0.235200  1.0  0.064
  H  H82  1  0.840100  0.989400  0.643000  1.0  0.1005
  H  H83  1  0.917800  0.054800  0.552700  1.0  0.1127
  H  H84  1  0.904200  0.998400  0.405900  1.0  0.0656
  C  C85  1  0.485600  0.330600  0.318100  1.0  0.1619
  C  C86  1  0.540600  0.394400  0.374800  1.0  -0.2325
  C  C87  1  0.584900  0.379200  0.471800  1.0  0.0859
  C  C88  1  0.571500  0.298600  0.504900  1.0  -0.2209
  C  C89  1  0.514500  0.238900  0.444300  1.0  0.1453
  C  C90  1  0.791000  0.917500  0.927900  1.0  0.1683
  C  C91  1  0.855900  0.971800  0.986900  1.0  -0.2121
  C  C92  1  0.856900  0.059000  0.964800  1.0  0.0862
  C  C93  1  0.790200  0.086800  0.880900  1.0  -0.2187
  C  C94  1  0.728700  0.028000  0.824200  1.0  0.1608
  C  C95  1  0.024900  0.242000  0.043800  1.0  0.1627
  C  C96  1  0.956500  0.189200  0.986700  1.0  -0.22
  C  C97  1  0.927300  0.118800  0.025300  1.0  0.0841
  C  C98  1  0.969000  0.105400  0.123300  1.0  -0.2252
  C  C99  1  0.036700  0.161000  0.175700  1.0  0.1506
  C  C100  1  0.672100  0.596600  0.580600  1.0  0.1575
  C  C101  1  0.621500  0.534300  0.517700  1.0  -0.1853
  C  C102  1  0.639900  0.446700  0.536600  1.0  0.0769
  C  C103  1  0.711700  0.425900  0.619000  1.0  -0.2207
  C  C104  1  0.758300  0.490900  0.679400  1.0  0.1674
  C  C105  1  0.704000  0.702400  0.904900  1.0  0.5838
  C  C106  1  0.771100  0.630900  0.955000  1.0  0.0671
  C  C107  1  0.778400  0.603300  0.046600  1.0  -0.1021
  C  C108  1  0.834200  0.532100  0.082700  1.0  -0.0386
  C  C109  1  0.880900  0.493400  0.029400  1.0  -0.1949
  C  C110  1  0.871900  0.527400  0.941300  1.0  0.1596
  C  C111  1  0.732500  0.645600  0.110700  1.0  0.6749
  C  C112  1  0.514400  0.830600  0.181900  1.0  0.1613
  C  C113  1  0.459400  0.894400  0.125200  1.0  -0.2329
  C  C114  1  0.415100  0.879200  0.028200  1.0  0.0852
  C  C115  1  0.428500  0.798600  0.995100  1.0  -0.2182
  C  C116  1  0.485500  0.738900  0.055700  1.0  0.1455
  C  C117  1  0.209000  0.417500  0.572100  1.0  0.1683
  C  C118  1  0.144100  0.471800  0.513100  1.0  -0.2116
  C  C119  1  0.143100  0.559000  0.535200  1.0  0.0868
  C  C120  1  0.209800  0.586800  0.619100  1.0  -0.2171
  C  C121  1  0.271300  0.528000  0.675800  1.0  0.1607
  C  C122  1  0.975100  0.742000  0.456200  1.0  0.1618
  C  C123  1  0.043500  0.689200  0.513300  1.0  -0.22
  C  C124  1  0.072700  0.618800  0.474700  1.0  0.0834
  C  C125  1  0.031000  0.605400  0.376700  1.0  -0.2246
  C  C126  1  0.963300  0.661000  0.324300  1.0  0.1505
  C  C127  1  0.327900  0.096600  0.919400  1.0  0.1578
  C  C128  1  0.378500  0.034300  0.982300  1.0  -0.1858
  C  C129  1  0.360100  0.946700  0.963400  1.0  0.0765
  C  C130  1  0.288300  0.925900  0.881000  1.0  -0.2204
  C  C131  1  0.241700  0.990900  0.820600  1.0  0.1671
  C  C132  1  0.296000  0.202400  0.595100  1.0  0.5842
  C  C133  1  0.228900  0.130900  0.545000  1.0  0.0684
  C  C134  1  0.221600  0.103300  0.453400  1.0  -0.1018
  C  C135  1  0.165800  0.032100  0.417300  1.0  -0.0407
  C  C136  1  0.119100  0.993400  0.470600  1.0  -0.1952
  C  C137  1  0.128100  0.027400  0.558700  1.0  0.1608
  C  C138  1  0.267500  0.145600  0.389300  1.0  0.6756
  C  C139  1  0.514400  0.669400  0.681900  1.0  0.161
  C  C140  1  0.459400  0.605600  0.625200  1.0  -0.233
  C  C141  1  0.415100  0.620800  0.528200  1.0  0.0857
  C  C142  1  0.428500  0.701400  0.495100  1.0  -0.2191
  C  C143  1  0.485500  0.761100  0.555700  1.0  0.1456
  C  C144  1  0.209000  0.082500  0.072100  1.0  0.1681
  C  C145  1  0.144100  0.028200  0.013100  1.0  -0.2122
  C  C146  1  0.143100  0.941000  0.035200  1.0  0.0869
  C  C147  1  0.209800  0.913200  0.119100  1.0  -0.2157
  C  C148  1  0.271300  0.972000  0.175800  1.0  0.1609
  C  C149  1  0.975100  0.758000  0.956200  1.0  0.1613
  C  C150  1  0.043500  0.810800  0.013300  1.0  -0.2184
  C  C151  1  0.072700  0.881200  0.974700  1.0  0.0836
  C  C152  1  0.031000  0.894600  0.876700  1.0  -0.2243
  C  C153  1  0.963300  0.839000  0.824300  1.0  0.151
  C  C154  1  0.327900  0.403400  0.419400  1.0  0.1582
  C  C155  1  0.378500  0.465700  0.482300  1.0  -0.1859
  C  C156  1  0.360100  0.553300  0.463400  1.0  0.0765
  C  C157  1  0.288300  0.574100  0.381000  1.0  -0.2206
  C  C158  1  0.241700  0.509100  0.320600  1.0  0.1668
  C  C159  1  0.296000  0.297600  0.095100  1.0  0.5839
  C  C160  1  0.228900  0.369100  0.045000  1.0  0.0682
  C  C161  1  0.221600  0.396700  0.953400  1.0  -0.1018
  C  C162  1  0.165800  0.467900  0.917300  1.0  -0.0405
  C  C163  1  0.119100  0.506600  0.970600  1.0  -0.1961
  C  C164  1  0.128100  0.472600  0.058700  1.0  0.1607
  C  C165  1  0.267500  0.354400  0.889300  1.0  0.6753
  C  C166  1  0.485600  0.169400  0.818100  1.0  0.1616
  C  C167  1  0.540600  0.105600  0.874800  1.0  -0.2318
  C  C168  1  0.584900  0.120800  0.971800  1.0  0.0859
  C  C169  1  0.571500  0.201400  0.004900  1.0  -0.2205
  C  C170  1  0.514500  0.261100  0.944300  1.0  0.1455
  C  C171  1  0.791000  0.582500  0.427900  1.0  0.1672
  C  C172  1  0.855900  0.528200  0.486900  1.0  -0.2129
  C  C173  1  0.856900  0.441000  0.464800  1.0  0.0858
  C  C174  1  0.790200  0.413200  0.380900  1.0  -0.2157
  C  C175  1  0.728700  0.472000  0.324200  1.0  0.1619
  C  C176  1  0.024900  0.258000  0.543800  1.0  0.1615
  C  C177  1  0.956500  0.310800  0.486700  1.0  -0.219
  C  C178  1  0.927300  0.381200  0.525300  1.0  0.0841
  C  C179  1  0.969000  0.394600  0.623300  1.0  -0.2251
  C  C180  1  0.036700  0.339000  0.675700  1.0  0.1508
  C  C181  1  0.672100  0.903400  0.080600  1.0  0.1577
  C  C182  1  0.621500  0.965700  0.017700  1.0  -0.1854
  C  C183  1  0.639900  0.053300  0.036600  1.0  0.0763
  C  C184  1  0.711700  0.074100  0.119000  1.0  -0.2199
  C  C185  1  0.758300  0.009100  0.179400  1.0  0.1668
  C  C186  1  0.704000  0.797600  0.404900  1.0  0.5836
  C  C187  1  0.771100  0.869100  0.455000  1.0  0.0672
  C  C188  1  0.778400  0.896700  0.546600  1.0  -0.1016
  C  C189  1  0.834200  0.967900  0.582700  1.0  -0.0398
  C  C190  1  0.880900  0.006600  0.529400  1.0  -0.1953
  C  C191  1  0.871900  0.972600  0.441300  1.0  0.1597
  C  C192  1  0.732500  0.854400  0.610700  1.0  0.6749
  N  N193  1  0.471400  0.254500  0.351800  1.0  -0.337
  N  N194  1  0.727900  0.943100  0.846500  1.0  -0.3548
  N  N195  1  0.739300  0.575600  0.661500  1.0  -0.3578
  N  N196  1  0.819400  0.595200  0.904200  1.0  -0.3583
  N  N197  1  0.065900  0.228600  0.137900  1.0  -0.3485
  N  N198  1  0.528600  0.754500  0.148200  1.0  -0.3346
  N  N199  1  0.272100  0.443100  0.653500  1.0  -0.3531
  N  N200  1  0.260700  0.075600  0.838500  1.0  -0.3587
  N  N201  1  0.180600  0.095200  0.595800  1.0  -0.3565
  N  N202  1  0.934100  0.728600  0.362100  1.0  -0.3475
  N  N203  1  0.528600  0.745500  0.648200  1.0  -0.3362
  N  N204  1  0.272100  0.056900  0.153500  1.0  -0.3536
  N  N205  1  0.260700  0.424400  0.338500  1.0  -0.3601
  N  N206  1  0.180600  0.404800  0.095800  1.0  -0.3565
  N  N207  1  0.934100  0.771400  0.862100  1.0  -0.3502
  N  N208  1  0.471400  0.245500  0.851800  1.0  -0.3352
  N  N209  1  0.727900  0.556900  0.346500  1.0  -0.3532
  N  N210  1  0.739300  0.924400  0.161500  1.0  -0.3562
  N  N211  1  0.819400  0.904800  0.404200  1.0  -0.359
  N  N212  1  0.065900  0.271400  0.637900  1.0  -0.3483
  O  O213  1  0.712400  0.734200  0.828400  1.0  -0.6926
  O  O214  1  0.645800  0.723600  0.939700  1.0  -0.566
  O  O215  1  0.668800  0.602200  0.122800  1.0  -0.6193
  O  O216  1  0.764600  0.713900  0.151500  1.0  -0.6974
  O  O217  1  0.287600  0.234200  0.671600  1.0  -0.6927
  O  O218  1  0.354200  0.223600  0.560300  1.0  -0.568
  O  O219  1  0.331200  0.102200  0.377200  1.0  -0.6186
  O  O220  1  0.235400  0.213900  0.348500  1.0  -0.6982
  O  O221  1  0.287600  0.265800  0.171600  1.0  -0.6923
  O  O222  1  0.354200  0.276400  0.060300  1.0  -0.5673
  O  O223  1  0.331200  0.397800  0.877200  1.0  -0.6199
  O  O224  1  0.235400  0.286100  0.848500  1.0  -0.6976
  O  O225  1  0.712400  0.765800  0.328400  1.0  -0.6923
  O  O226  1  0.645800  0.776400  0.439700  1.0  -0.5657
  O  O227  1  0.668800  0.897800  0.622800  1.0  -0.6203
  O  O228  1  0.764600  0.786100  0.651500  1.0  -0.697
