# generated using pymatgen
data_CoH12C15N4O3
_symmetry_space_group_name_H-M   'P 1'
_cell_length_a   10.79800000
_cell_length_b   15.83750000
_cell_length_c   15.83750000
_cell_angle_alpha   94.80890000
_cell_angle_beta   103.45800000
_cell_angle_gamma   103.45800000
_symmetry_Int_Tables_number   1
_chemical_formula_structural   CoH12C15N4O3
_chemical_formula_sum   'Co4 H48 C60 N16 O12'
_cell_volume   2534.31135165
_cell_formula_units_Z   4
loop_
 _symmetry_equiv_pos_site_id
 _symmetry_equiv_pos_as_xyz
  1  'x, y, z'
loop_
 _atom_site_type_symbol
 _atom_site_label
 _atom_site_symmetry_multiplicity
 _atom_site_fract_x
 _atom_site_fract_y
 _atom_site_fract_z
 _atom_site_occupancy
 _atom_site_charge
  Co  Co1  1  0.041500  0.933700  0.772100  1.0  0.4811
  Co  Co2  1  0.279700  0.422000  0.260600  1.0  0.285
  Co  Co3  1  0.541500  0.772100  0.933700  1.0  0.4832
  Co  Co4  1  0.779700  0.260600  0.422000  1.0  0.2823
  H  H5  1  0.828400  0.763800  0.946000  1.0  0.0902
  H  H6  1  0.747500  0.864100  0.702500  1.0  0.0773
  H  H7  1  0.168300  0.302800  0.084200  1.0  0.0782
  H  H8  1  0.252300  0.552300  0.139700  1.0  0.0529
  H  H9  1  0.118400  0.630000  0.066600  1.0  0.1364
  H  H10  1  0.015100  0.442000  0.256800  1.0  0.0683
  H  H11  1  0.452800  0.726100  0.449700  1.0  0.1422
  H  H12  1  0.592500  0.765500  0.601100  1.0  0.1004
  H  H13  1  0.735900  0.608800  0.425200  1.0  0.1266
  H  H14  1  0.308800  0.609500  0.349700  1.0  0.0775
  H  H15  1  0.023700  0.840500  0.588500  1.0  0.1141
  H  H16  1  0.872400  0.741100  0.482300  1.0  0.1154
  H  H17  1  0.579100  0.492800  0.330400  1.0  0.0854
  H  H18  1  0.963500  0.683600  0.998000  1.0  0.0925
  H  H19  1  0.858000  0.064600  0.953600  1.0  0.0857
  H  H20  1  0.559000  0.622200  0.051200  1.0  0.1114
  H  H21  1  0.839300  0.492700  0.177300  1.0  0.1459
  H  H22  1  0.667400  0.881900  0.112100  1.0  0.0777
  H  H23  1  0.006600  0.184200  0.012800  1.0  0.1079
  H  H24  1  0.101100  0.256700  0.303300  1.0  0.067
  H  H25  1  0.803100  0.015700  0.180100  1.0  0.1206
  H  H26  1  0.907000  0.147400  0.236400  1.0  0.129
  H  H27  1  0.760700  0.920800  0.894000  1.0  0.106
  H  H28  1  0.715500  0.548600  0.095400  1.0  0.1016
  H  H29  1  0.328400  0.946000  0.763800  1.0  0.0899
  H  H30  1  0.247500  0.702500  0.864100  1.0  0.0767
  H  H31  1  0.668300  0.084200  0.302800  1.0  0.0775
  H  H32  1  0.752300  0.139700  0.552300  1.0  0.051
  H  H33  1  0.618400  0.066600  0.630000  1.0  0.1361
  H  H34  1  0.515100  0.256800  0.442000  1.0  0.0687
  H  H35  1  0.952800  0.449700  0.726100  1.0  0.1411
  H  H36  1  0.092500  0.601100  0.765500  1.0  0.1023
  H  H37  1  0.235900  0.425200  0.608800  1.0  0.126
  H  H38  1  0.808800  0.349700  0.609500  1.0  0.0809
  H  H39  1  0.523700  0.588500  0.840500  1.0  0.1112
  H  H40  1  0.372400  0.482300  0.741100  1.0  0.1151
  H  H41  1  0.079100  0.330400  0.492800  1.0  0.0853
  H  H42  1  0.463500  0.998000  0.683600  1.0  0.0931
  H  H43  1  0.358000  0.953600  0.064600  1.0  0.0857
  H  H44  1  0.059000  0.051200  0.622200  1.0  0.1088
  H  H45  1  0.339300  0.177300  0.492700  1.0  0.1478
  H  H46  1  0.167400  0.112100  0.881900  1.0  0.0777
  H  H47  1  0.506600  0.012800  0.184200  1.0  0.1087
  H  H48  1  0.601100  0.303300  0.256700  1.0  0.0662
  H  H49  1  0.303100  0.180100  0.015700  1.0  0.1215
  H  H50  1  0.407000  0.236400  0.147400  1.0  0.1282
  H  H51  1  0.260700  0.894000  0.920800  1.0  0.1092
  H  H52  1  0.215500  0.095400  0.548600  1.0  0.1015
  C  C53  1  0.801100  0.720300  0.978700  1.0  0.1125
  C  C54  1  0.772400  0.837600  0.656800  1.0  0.1645
  C  C55  1  0.117200  0.270300  0.116100  1.0  0.1425
  C  C56  1  0.168500  0.544000  0.148800  1.0  0.1522
  C  C57  1  0.090500  0.591700  0.103900  1.0  -0.2052
  C  C58  1  0.960200  0.137800  0.115600  1.0  0.0074
  C  C59  1  0.865800  0.052000  0.073400  1.0  0.078
  C  C60  1  0.706600  0.737300  0.517700  1.0  0.0368
  C  C61  1  0.608700  0.671800  0.448600  1.0  0.1026
  C  C62  1  0.030600  0.477400  0.214400  1.0  0.1572
  C  C63  1  0.870800  0.622300  0.074900  1.0  0.0541
  C  C64  1  0.968100  0.577800  0.119200  1.0  0.0461
  C  C65  1  0.479800  0.679500  0.426900  1.0  -0.1723
  C  C66  1  0.678300  0.779600  0.595000  1.0  -0.1805
  C  C67  1  0.647100  0.608100  0.412300  1.0  -0.1867
  C  C68  1  0.396800  0.608300  0.367100  1.0  0.1599
  C  C69  1  0.936200  0.825000  0.591000  1.0  0.1222
  C  C70  1  0.842100  0.765700  0.526300  1.0  -0.148
  C  C71  1  0.552700  0.539300  0.353900  1.0  0.1531
  C  C72  1  0.885800  0.676000  0.015600  1.0  -0.1388
  C  C73  1  0.831400  0.024700  0.989900  1.0  -0.1464
  C  C74  1  0.640900  0.638400  0.039400  1.0  0.083
  C  C75  1  0.925200  0.510900  0.172100  1.0  -0.1595
  C  C76  1  0.709700  0.918600  0.078800  1.0  0.1394
  C  C77  1  0.025200  0.195600  0.073600  1.0  -0.1847
  C  C78  1  0.073500  0.245200  0.242400  1.0  0.1629
  C  C79  1  0.794000  0.998100  0.120900  1.0  -0.2071
  C  C80  1  0.967300  0.172000  0.206200  1.0  -0.1854
  C  C81  1  0.759000  0.941800  0.950200  1.0  0.1152
  C  C82  1  0.742100  0.599500  0.071700  1.0  -0.1438
  C  C83  1  0.301100  0.978700  0.720300  1.0  0.1163
  C  C84  1  0.272400  0.656800  0.837600  1.0  0.1647
  C  C85  1  0.617200  0.116100  0.270300  1.0  0.1444
  C  C86  1  0.668500  0.148800  0.544000  1.0  0.1574
  C  C87  1  0.590500  0.103900  0.591700  1.0  -0.2042
  C  C88  1  0.460200  0.115600  0.137800  1.0  0.008
  C  C89  1  0.365800  0.073400  0.052000  1.0  0.0781
  C  C90  1  0.206600  0.517700  0.737300  1.0  0.0344
  C  C91  1  0.108700  0.448600  0.671800  1.0  0.1034
  C  C92  1  0.530600  0.214400  0.477400  1.0  0.1539
  C  C93  1  0.370800  0.074900  0.622300  1.0  0.0533
  C  C94  1  0.468100  0.119200  0.577800  1.0  0.0451
  C  C95  1  0.979800  0.426900  0.679500  1.0  -0.1812
  C  C96  1  0.178300  0.595000  0.779600  1.0  -0.1843
  C  C97  1  0.147100  0.412300  0.608100  1.0  -0.1872
  C  C98  1  0.896800  0.367100  0.608300  1.0  0.1598
  C  C99  1  0.436200  0.591000  0.825000  1.0  0.1224
  C  C100  1  0.342100  0.526300  0.765700  1.0  -0.1352
  C  C101  1  0.052700  0.353900  0.539300  1.0  0.1524
  C  C102  1  0.385800  0.015600  0.676000  1.0  -0.1386
  C  C103  1  0.331400  0.989900  0.024700  1.0  -0.138
  C  C104  1  0.140900  0.039400  0.638400  1.0  0.0808
  C  C105  1  0.425200  0.172100  0.510900  1.0  -0.1603
  C  C106  1  0.209700  0.078800  0.918600  1.0  0.1403
  C  C107  1  0.525200  0.073600  0.195600  1.0  -0.1882
  C  C108  1  0.573500  0.242400  0.245200  1.0  0.1634
  C  C109  1  0.294000  0.120900  0.998100  1.0  -0.2112
  C  C110  1  0.467300  0.206200  0.172000  1.0  -0.1838
  C  C111  1  0.259000  0.950200  0.941800  1.0  0.1179
  C  C112  1  0.242100  0.071700  0.599500  1.0  -0.1406
  N  N113  1  0.671000  0.702700  0.988300  1.0  -0.3274
  N  N114  1  0.899100  0.860000  0.657600  1.0  -0.3212
  N  N115  1  0.141500  0.490600  0.200400  1.0  -0.2242
  N  N116  1  0.425400  0.538900  0.331300  1.0  -0.3118
  N  N117  1  0.138000  0.298900  0.200100  1.0  -0.3092
  N  N118  1  0.685700  0.891700  0.994300  1.0  -0.312
  N  N119  1  0.023300  0.781700  0.828100  1.0  0.7511
  N  N120  1  0.306800  0.369300  0.410500  1.0  0.7713
  N  N121  1  0.171000  0.988300  0.702700  1.0  -0.3277
  N  N122  1  0.399100  0.657600  0.860000  1.0  -0.3222
  N  N123  1  0.641500  0.200400  0.490600  1.0  -0.2255
  N  N124  1  0.925400  0.331300  0.538900  1.0  -0.3162
  N  N125  1  0.638000  0.200100  0.298900  1.0  -0.3034
  N  N126  1  0.185700  0.994300  0.891700  1.0  -0.3141
  N  N127  1  0.523300  0.828100  0.781700  1.0  0.7501
  N  N128  1  0.806800  0.410500  0.369300  1.0  0.7737
  O  O129  1  0.100800  0.812100  0.783300  1.0  -0.4613
  O  O130  1  0.221400  0.412800  0.384400  1.0  -0.4922
  O  O131  1  0.950200  0.835700  0.843300  1.0  -0.5153
  O  O132  1  0.367000  0.347800  0.359200  1.0  -0.4497
  O  O133  1  0.003800  0.711900  0.854100  1.0  -0.4423
  O  O134  1  0.315600  0.346400  0.484600  1.0  -0.4703
  O  O135  1  0.600800  0.783300  0.812100  1.0  -0.458
  O  O136  1  0.721400  0.384400  0.412800  1.0  -0.4889
  O  O137  1  0.450200  0.843300  0.835700  1.0  -0.5185
  O  O138  1  0.867000  0.359200  0.347800  1.0  -0.4497
  O  O139  1  0.503800  0.854100  0.711900  1.0  -0.4447
  O  O140  1  0.815600  0.484600  0.346400  1.0  -0.4669
