# generated using pymatgen
data_CuH24(C2N)12
_symmetry_space_group_name_H-M   'P 1'
_cell_length_a   11.34000000
_cell_length_b   15.77000000
_cell_length_c   22.90000000
_cell_angle_alpha   90.00000000
_cell_angle_beta   97.98000000
_cell_angle_gamma   90.00000000
_symmetry_Int_Tables_number   1
_chemical_formula_structural   CuH24(C2N)12
_chemical_formula_sum   'Cu4 H96 C96 N48'
_cell_volume   4055.59224828
_cell_formula_units_Z   4
loop_
 _symmetry_equiv_pos_site_id
 _symmetry_equiv_pos_as_xyz
  1  'x, y, z'
loop_
 _atom_site_type_symbol
 _atom_site_label
 _atom_site_symmetry_multiplicity
 _atom_site_fract_x
 _atom_site_fract_y
 _atom_site_fract_z
 _atom_site_occupancy
 _atom_site_charge
  Cu  Cu1  1  0.387000  0.756610  0.728540  1.0  0.4829
  Cu  Cu2  1  0.113000  0.256610  0.771460  1.0  0.4834
  Cu  Cu3  1  0.613000  0.243390  0.271460  1.0  0.4828
  Cu  Cu4  1  0.887000  0.743390  0.228540  1.0  0.4824
  H  H5  1  0.540700  0.810100  0.855800  1.0  0.0861
  H  H6  1  0.559800  0.894400  0.697400  1.0  0.0861
  H  H7  1  0.273500  0.916700  0.781100  1.0  0.0818
  H  H8  1  0.212200  0.677500  0.811200  1.0  0.0938
  H  H9  1  0.333333  0.561400  0.716900  1.0  0.0544
  H  H10  1  0.134200  0.738100  0.639600  1.0  0.0646
  H  H11  1  0.952700  0.647800  0.596100  1.0  0.1045
  H  H12  1  0.944400  0.563600  0.631500  1.0  0.0968
  H  H13  1  0.131200  0.610700  0.521400  1.0  0.0908
  H  H14  1  0.869300  0.463700  0.563700  1.0  0.0747
  H  H15  1  0.632400  0.675900  0.717100  1.0  0.0573
  H  H16  1  0.406500  0.757200  0.587100  1.0  0.0648
  H  H17  1  0.647600  0.684600  0.518100  1.0  0.0693
  H  H18  1  0.514600  0.712800  0.500600  1.0  0.0773
  H  H19  1  0.373200  0.588600  0.539500  1.0  0.0761
  H  H20  1  0.678800  0.550400  0.481200  1.0  0.0771
  H  H21  1  0.798100  0.968300  0.738200  1.0  0.0901
  H  H22  1  0.783300  0.013900  0.797700  1.0  0.0905
  H  H23  1  0.666667  0.008600  0.647100  1.0  0.0864
  H  H24  1  0.549000  0.108500  0.594800  1.0  0.0825
  H  H25  1  0.547900  0.244400  0.742300  1.0  0.0799
  H  H26  1  0.657100  0.139500  0.795100  1.0  0.0751
  H  H27  1  0.993300  0.800700  0.879400  1.0  0.0942
  H  H28  1  0.078600  0.729600  0.908900  1.0  0.0816
  H  H29  1  0.959300  0.310100  0.644200  1.0  0.0852
  H  H30  1  0.940200  0.394400  0.802600  1.0  0.0865
  H  H31  1  0.226500  0.416700  0.718900  1.0  0.0817
  H  H32  1  0.287800  0.177500  0.688800  1.0  0.0937
  H  H33  1  0.166700  0.061400  0.783100  1.0  0.0534
  H  H34  1  0.365800  0.238100  0.860400  1.0  0.0644
  H  H35  1  0.547300  0.147800  0.903900  1.0  0.1039
  H  H36  1  0.555600  0.063600  0.868500  1.0  0.0958
  H  H37  1  0.368800  0.110700  0.978600  1.0  0.0908
  H  H38  1  0.630700  0.963700  0.936300  1.0  0.0748
  H  H39  1  0.867600  0.175900  0.782900  1.0  0.0567
  H  H40  1  0.093500  0.257200  0.912900  1.0  0.0617
  H  H41  1  0.852400  0.184600  0.981900  1.0  0.072
  H  H42  1  0.985400  0.212800  0.999400  1.0  0.0766
  H  H43  1  0.126800  0.088600  0.960500  1.0  0.0764
  H  H44  1  0.821200  0.050400  0.018800  1.0  0.0758
  H  H45  1  0.701900  0.468300  0.761800  1.0  0.0928
  H  H46  1  0.716700  0.513900  0.702300  1.0  0.0917
  H  H47  1  0.833300  0.508600  0.852900  1.0  0.0861
  H  H48  1  0.951000  0.608500  0.905200  1.0  0.0818
  H  H49  1  0.952100  0.744400  0.757700  1.0  0.0804
  H  H50  1  0.842900  0.639500  0.704900  1.0  0.0758
  H  H51  1  0.506700  0.300700  0.620600  1.0  0.0936
  H  H52  1  0.421400  0.229600  0.591100  1.0  0.0817
  H  H53  1  0.459300  0.189900  0.144200  1.0  0.0804
  H  H54  1  0.440200  0.105600  0.302600  1.0  0.0865
  H  H55  1  0.726500  0.083300  0.218900  1.0  0.0815
  H  H56  1  0.787800  0.322500  0.188800  1.0  0.0942
  H  H57  1  0.666667  0.438600  0.283100  1.0  0.0541
  H  H58  1  0.865800  0.261900  0.360400  1.0  0.0649
  H  H59  1  0.047300  0.352200  0.403900  1.0  0.1041
  H  H60  1  0.055600  0.436400  0.368500  1.0  0.0952
  H  H61  1  0.868800  0.389300  0.478600  1.0  0.0908
  H  H62  1  0.130700  0.536300  0.436300  1.0  0.0751
  H  H63  1  0.367600  0.324100  0.282900  1.0  0.0567
  H  H64  1  0.593500  0.242800  0.412900  1.0  0.0615
  H  H65  1  0.352400  0.315400  0.481900  1.0  0.0704
  H  H66  1  0.485400  0.287200  0.499400  1.0  0.0767
  H  H67  1  0.626800  0.411400  0.460500  1.0  0.0765
  H  H68  1  0.321200  0.449600  0.518800  1.0  0.0776
  H  H69  1  0.201900  0.031700  0.261800  1.0  0.0929
  H  H70  1  0.216700  0.986100  0.202300  1.0  0.0924
  H  H71  1  0.333333  0.991400  0.352900  1.0  0.0862
  H  H72  1  0.451000  0.891500  0.405200  1.0  0.0814
  H  H73  1  0.452100  0.755600  0.257700  1.0  0.0805
  H  H74  1  0.342900  0.860500  0.204900  1.0  0.0756
  H  H75  1  0.006700  0.199300  0.120600  1.0  0.0948
  H  H76  1  0.921400  0.270400  0.091100  1.0  0.0813
  H  H77  1  0.040700  0.689900  0.355800  1.0  0.0863
  H  H78  1  0.059800  0.605600  0.197400  1.0  0.086
  H  H79  1  0.773500  0.583300  0.281100  1.0  0.0812
  H  H80  1  0.712200  0.822500  0.311200  1.0  0.0934
  H  H81  1  0.833300  0.938600  0.216900  1.0  0.0546
  H  H82  1  0.634200  0.761900  0.139600  1.0  0.0641
  H  H83  1  0.452700  0.852200  0.096100  1.0  0.1038
  H  H84  1  0.444400  0.936400  0.131500  1.0  0.096
  H  H85  1  0.631200  0.889300  0.021400  1.0  0.0907
  H  H86  1  0.369300  0.036300  0.063700  1.0  0.0747
  H  H87  1  0.132400  0.824100  0.217100  1.0  0.0573
  H  H88  1  0.906500  0.742800  0.087100  1.0  0.0648
  H  H89  1  0.147600  0.815400  0.018100  1.0  0.0666
  H  H90  1  0.014600  0.787200  0.000600  1.0  0.0772
  H  H91  1  0.873200  0.911400  0.039500  1.0  0.0763
  H  H92  1  0.178800  0.949600  0.981200  1.0  0.0769
  H  H93  1  0.298100  0.531700  0.238200  1.0  0.0906
  H  H94  1  0.283300  0.486100  0.297700  1.0  0.0907
  H  H95  1  0.166700  0.491400  0.147100  1.0  0.0872
  H  H96  1  0.049000  0.391500  0.094800  1.0  0.0824
  H  H97  1  0.047900  0.255600  0.242300  1.0  0.0806
  H  H98  1  0.157100  0.360500  0.295100  1.0  0.075
  H  H99  1  0.493300  0.699300  0.379400  1.0  0.0957
  H  H100  1  0.578600  0.770400  0.408900  1.0  0.0813
  C  C101  1  0.564500  0.840100  0.824400  1.0  0.2082
  C  C102  1  0.574900  0.886200  0.738000  1.0  0.0673
  C  C103  1  0.241700  0.867500  0.794900  1.0  0.1863
  C  C104  1  0.208100  0.736400  0.811400  1.0  0.0665
  C  C105  1  0.270000  0.589700  0.695100  1.0  0.2198
  C  C106  1  0.163000  0.685700  0.653600  1.0  0.0972
  C  C107  1  0.992700  0.594500  0.607000  1.0  -0.1183
  C  C108  1  0.999100  0.544900  0.552500  1.0  0.0673
  C  C109  1  0.078100  0.566000  0.512900  1.0  -0.1672
  C  C110  1  0.922500  0.478600  0.538000  1.0  -0.139
  C  C111  1  0.595300  0.687900  0.679200  1.0  0.2435
  C  C112  1  0.472100  0.732300  0.609500  1.0  0.0833
  C  C113  1  0.566700  0.675300  0.526000  1.0  -0.0891
  C  C114  1  0.531700  0.584000  0.512000  1.0  0.0187
  C  C115  1  0.425700  0.553200  0.523300  1.0  -0.1476
  C  C116  1  0.605300  0.530700  0.489000  1.0  -0.1415
  C  C117  1  0.740500  0.991800  0.761300  1.0  -0.1021
  C  C118  1  0.671400  0.063400  0.726900  1.0  0.002
  C  C119  1  0.640300  0.055300  0.666500  1.0  -0.1358
  C  C120  1  0.571000  0.115400  0.635100  1.0  -0.1303
  C  C121  1  0.533300  0.186300  0.662900  1.0  0.0961
  C  C122  1  0.569100  0.195900  0.723200  1.0  -0.1603
  C  C123  1  0.636000  0.133600  0.754600  1.0  -0.1336
  C  C124  1  0.043000  0.753200  0.871400  1.0  -0.0723
  C  C125  1  0.935500  0.340100  0.675600  1.0  0.2092
  C  C126  1  0.925100  0.386200  0.762000  1.0  0.0702
  C  C127  1  0.258300  0.367500  0.705100  1.0  0.186
  C  C128  1  0.291900  0.236400  0.688600  1.0  0.0652
  C  C129  1  0.230000  0.089700  0.804900  1.0  0.2169
  C  C130  1  0.337000  0.185700  0.846400  1.0  0.0985
  C  C131  1  0.507300  0.094500  0.893000  1.0  -0.1178
  C  C132  1  0.500900  0.044900  0.947500  1.0  0.0674
  C  C133  1  0.421900  0.066000  0.987100  1.0  -0.1669
  C  C134  1  0.577500  0.978600  0.962000  1.0  -0.1403
  C  C135  1  0.904700  0.187900  0.820800  1.0  0.2456
  C  C136  1  0.027900  0.232300  0.890500  1.0  0.0857
  C  C137  1  0.933300  0.175300  0.974000  1.0  -0.089
  C  C138  1  0.968300  0.084000  0.988000  1.0  0.0186
  C  C139  1  0.074300  0.053200  0.976700  1.0  -0.1482
  C  C140  1  0.894700  0.030700  0.011000  1.0  -0.1435
  C  C141  1  0.759500  0.491800  0.738700  1.0  -0.0998
  C  C142  1  0.828600  0.563400  0.773100  1.0  0.0032
  C  C143  1  0.859700  0.555300  0.833500  1.0  -0.1392
  C  C144  1  0.929000  0.615400  0.864900  1.0  -0.1346
  C  C145  1  0.966700  0.686300  0.837100  1.0  0.0962
  C  C146  1  0.930900  0.695900  0.776800  1.0  -0.1541
  C  C147  1  0.864000  0.633600  0.745400  1.0  -0.1331
  C  C148  1  0.457000  0.253200  0.628600  1.0  -0.0725
  C  C149  1  0.435500  0.159900  0.175600  1.0  0.2096
  C  C150  1  0.425100  0.113800  0.262000  1.0  0.0693
  C  C151  1  0.758300  0.132500  0.205100  1.0  0.1865
  C  C152  1  0.791900  0.263600  0.188600  1.0  0.066
  C  C153  1  0.730000  0.410300  0.304900  1.0  0.2167
  C  C154  1  0.837000  0.314300  0.346400  1.0  0.0985
  C  C155  1  0.007300  0.405500  0.393000  1.0  -0.1184
  C  C156  1  0.000900  0.455100  0.447500  1.0  0.0677
  C  C157  1  0.921900  0.434000  0.487100  1.0  -0.17
  C  C158  1  0.077500  0.521400  0.462000  1.0  -0.1401
  C  C159  1  0.404700  0.312100  0.320800  1.0  0.2456
  C  C160  1  0.527900  0.267700  0.390500  1.0  0.0849
  C  C161  1  0.433300  0.324700  0.474000  1.0  -0.0884
  C  C162  1  0.468300  0.416000  0.488000  1.0  0.0186
  C  C163  1  0.574300  0.446800  0.476700  1.0  -0.1487
  C  C164  1  0.394700  0.469300  0.511000  1.0  -0.1418
  C  C165  1  0.259500  0.008200  0.238700  1.0  -0.1005
  C  C166  1  0.328600  0.936600  0.273100  1.0  0.003
  C  C167  1  0.359700  0.944700  0.333500  1.0  -0.1392
  C  C168  1  0.429000  0.884600  0.364900  1.0  -0.1341
  C  C169  1  0.466700  0.813700  0.337100  1.0  0.0961
  C  C170  1  0.430900  0.804100  0.276800  1.0  -0.1547
  C  C171  1  0.364000  0.866400  0.245400  1.0  -0.1322
  C  C172  1  0.957000  0.246800  0.128600  1.0  -0.073
  C  C173  1  0.064500  0.659900  0.324400  1.0  0.2069
  C  C174  1  0.074900  0.613800  0.238000  1.0  0.0675
  C  C175  1  0.741700  0.632500  0.294900  1.0  0.1854
  C  C176  1  0.708100  0.763600  0.311400  1.0  0.0666
  C  C177  1  0.770000  0.910300  0.195100  1.0  0.2164
  C  C178  1  0.663000  0.814300  0.153600  1.0  0.0982
  C  C179  1  0.492700  0.905500  0.107000  1.0  -0.1173
  C  C180  1  0.499100  0.955100  0.052500  1.0  0.0676
  C  C181  1  0.578100  0.934000  0.012900  1.0  -0.1684
  C  C182  1  0.422500  0.021400  0.038000  1.0  -0.1407
  C  C183  1  0.095300  0.812100  0.179200  1.0  0.2438
  C  C184  1  0.972100  0.767700  0.109500  1.0  0.0828
  C  C185  1  0.066700  0.824700  0.026000  1.0  -0.0896
  C  C186  1  0.031700  0.916000  0.012000  1.0  0.0187
  C  C187  1  0.925700  0.946800  0.023300  1.0  -0.1549
  C  C188  1  0.105300  0.969300  0.989000  1.0  -0.1413
  C  C189  1  0.240500  0.508200  0.261300  1.0  -0.1031
  C  C190  1  0.171400  0.436600  0.226900  1.0  0.0021
  C  C191  1  0.140300  0.444700  0.166500  1.0  -0.1357
  C  C192  1  0.071000  0.384600  0.135100  1.0  -0.1299
  C  C193  1  0.033300  0.313700  0.162900  1.0  0.096
  C  C194  1  0.069100  0.304100  0.223200  1.0  -0.1615
  C  C195  1  0.136000  0.366400  0.254600  1.0  -0.1333
  C  C196  1  0.543000  0.746800  0.371400  1.0  -0.0732
  N  N197  1  0.266100  0.673600  0.688800  1.0  -0.4122
  N  N198  1  0.176200  0.550600  0.667600  1.0  -0.3853
  N  N199  1  0.108200  0.613000  0.641800  1.0  0.156
  N  N200  1  0.489700  0.729700  0.668300  1.0  -0.4231
  N  N201  1  0.640500  0.666000  0.631800  1.0  -0.4047
  N  N202  1  0.558900  0.695200  0.587400  1.0  0.1433
  N  N203  1  0.517500  0.833800  0.768800  1.0  -0.3186
  N  N204  1  0.650800  0.896300  0.828000  1.0  -0.2573
  N  N205  1  0.657300  0.924800  0.774600  1.0  0.1327
  N  N206  1  0.273600  0.788800  0.784000  1.0  -0.3193
  N  N207  1  0.156600  0.863800  0.829100  1.0  -0.2841
  N  N208  1  0.135800  0.782700  0.839300  1.0  0.1403
  N  N209  1  0.233900  0.173600  0.811200  1.0  -0.4138
  N  N210  1  0.323800  0.050600  0.832400  1.0  -0.3858
  N  N211  1  0.391800  0.113000  0.858200  1.0  0.1559
  N  N212  1  0.010300  0.229700  0.831700  1.0  -0.4224
  N  N213  1  0.859500  0.166000  0.868200  1.0  -0.4051
  N  N214  1  0.941100  0.195200  0.912600  1.0  0.1444
  N  N215  1  0.982500  0.333800  0.731200  1.0  -0.3187
  N  N216  1  0.849200  0.396300  0.672000  1.0  -0.259
  N  N217  1  0.842700  0.424800  0.725400  1.0  0.1356
  N  N218  1  0.226400  0.288800  0.716000  1.0  -0.3198
  N  N219  1  0.343400  0.363800  0.670900  1.0  -0.2828
  N  N220  1  0.364200  0.282700  0.660700  1.0  0.1368
  N  N221  1  0.733900  0.326400  0.311200  1.0  -0.4144
  N  N222  1  0.823800  0.449400  0.332400  1.0  -0.3879
  N  N223  1  0.891800  0.387000  0.358200  1.0  0.1562
  N  N224  1  0.510300  0.270300  0.331700  1.0  -0.4225
  N  N225  1  0.359500  0.334000  0.368200  1.0  -0.4029
  N  N226  1  0.441100  0.304800  0.412600  1.0  0.1438
  N  N227  1  0.482500  0.166200  0.231200  1.0  -0.3183
  N  N228  1  0.349200  0.103700  0.172000  1.0  -0.2597
  N  N229  1  0.342700  0.075200  0.225400  1.0  0.1359
  N  N230  1  0.726400  0.211200  0.216000  1.0  -0.32
  N  N231  1  0.843400  0.136200  0.170900  1.0  -0.2794
  N  N232  1  0.864200  0.217300  0.160700  1.0  0.14
  N  N233  1  0.766100  0.826400  0.188800  1.0  -0.4117
  N  N234  1  0.676200  0.949400  0.167600  1.0  -0.3837
  N  N235  1  0.608200  0.887000  0.141800  1.0  0.1562
  N  N236  1  0.989700  0.770300  0.168300  1.0  -0.4228
  N  N237  1  0.140500  0.834000  0.131800  1.0  -0.4151
  N  N238  1  0.058900  0.804800  0.087400  1.0  0.1437
  N  N239  1  0.017500  0.666200  0.268800  1.0  -0.318
  N  N240  1  0.150800  0.603700  0.328000  1.0  -0.2574
  N  N241  1  0.157300  0.575200  0.274600  1.0  0.1327
  N  N242  1  0.773600  0.711200  0.284000  1.0  -0.3194
  N  N243  1  0.656600  0.636200  0.329100  1.0  -0.2818
  N  N244  1  0.635800  0.717300  0.339300  1.0  0.1405
