# generated using pymatgen
data_Cu3H4(C5O4)4
_symmetry_space_group_name_H-M   'P 1'
_cell_length_a   7.99850000
_cell_length_b   9.72960000
_cell_length_c   10.85060000
_cell_angle_alpha   84.31500000
_cell_angle_beta   78.16800000
_cell_angle_gamma   75.06400000
_symmetry_Int_Tables_number   1
_chemical_formula_structural   Cu3H4(C5O4)4
_chemical_formula_sum   'Cu3 H4 C20 O16'
_cell_volume   797.59926105
_cell_formula_units_Z   1
loop_
 _symmetry_equiv_pos_site_id
 _symmetry_equiv_pos_as_xyz
  1  'x, y, z'
loop_
 _atom_site_type_symbol
 _atom_site_label
 _atom_site_symmetry_multiplicity
 _atom_site_fract_x
 _atom_site_fract_y
 _atom_site_fract_z
 _atom_site_occupancy
 _atom_site_charge
  Cu  Cu1  1  0.414700  0.687000  0.824000  1.0  0.9342
  Cu  Cu2  1  0.161300  0.546100  0.874900  1.0  1.0047
  Cu  Cu3  1  0.804000  0.128200  0.345400  1.0  0.5661
  H  H4  1  0.428000  0.428100  0.218400  1.0  0.1539
  H  H5  1  0.106600  0.786300  0.484000  1.0  0.1548
  H  H6  1  0.067700  0.095600  0.893700  1.0  0.1576
  H  H7  1  0.518900  0.144200  0.792100  1.0  0.1479
  C  C8  1  0.411100  0.503200  0.393300  1.0  -0.0955
  C  C9  1  0.374700  0.509000  0.267500  1.0  -0.0235
  C  C10  1  0.267100  0.624500  0.213600  1.0  0.05
  C  C11  1  0.162800  0.730200  0.304400  1.0  -0.0887
  C  C12  1  0.181700  0.718400  0.427100  1.0  -0.039
  C  C13  1  0.307800  0.609700  0.470500  1.0  -0.0304
  C  C14  1  0.317000  0.609300  0.613900  1.0  0.6938
  C  C15  1  0.545000  0.379400  0.437200  1.0  0.6699
  C  C16  1  0.260000  0.627600  0.085100  1.0  0.7737
  C  C17  1  0.041700  0.860100  0.260000  1.0  0.7174
  C  C18  1  0.835800  0.238300  0.889800  1.0  -0.0038
  C  C19  1  0.951700  0.105900  0.879700  1.0  -0.0591
  C  C20  1  0.904800  0.986200  0.849600  1.0  -0.024
  C  C21  1  0.747900  0.998800  0.820300  1.0  -0.039
  C  C22  1  0.627000  0.135300  0.819300  1.0  -0.025
  C  C23  1  0.661600  0.252500  0.855900  1.0  -0.0707
  C  C24  1  0.689600  0.880700  0.766300  1.0  0.7083
  C  C25  1  0.042800  0.839200  0.849900  1.0  0.7021
  C  C26  1  0.536600  0.388000  0.853500  1.0  0.7449
  C  C27  1  0.885400  0.356100  0.938000  1.0  0.7485
  O  O28  1  0.421700  0.671000  0.643600  1.0  -0.5208
  O  O29  1  0.204500  0.551500  0.690100  1.0  -0.5496
  O  O30  1  0.555500  0.360800  0.549600  1.0  -0.4578
  O  O31  1  0.645600  0.307300  0.346000  1.0  -0.5679
  O  O32  1  0.151400  0.564000  0.055900  1.0  -0.5442
  O  O33  1  0.372700  0.675000  0.009300  1.0  -0.5329
  O  O34  1  0.970300  0.951600  0.342300  1.0  -0.5856
  O  O35  1  0.024900  0.880300  0.146500  1.0  -0.4519
  O  O36  1  0.756400  0.859200  0.652600  1.0  -0.5154
  O  O37  1  0.572600  0.829800  0.833100  1.0  -0.5642
  O  O38  1  0.990300  0.730900  0.868200  1.0  -0.4924
  O  O39  1  0.206400  0.849700  0.825700  1.0  -0.5345
  O  O40  1  0.379500  0.388000  0.875800  1.0  -0.525
  O  O41  1  0.592600  0.501400  0.821800  1.0  -0.5386
  O  O42  1  0.007500  0.402900  0.868500  1.0  -0.5866
  O  O43  1  0.810700  0.394300  0.043900  1.0  -0.4621
