# generated using pymatgen
data_Zn2PH20C30(NO3)4
_symmetry_space_group_name_H-M   'P 1'
_cell_length_a   22.88230000
_cell_length_b   18.44740000
_cell_length_c   9.68230000
_cell_angle_alpha   90.00000000
_cell_angle_beta   95.47700000
_cell_angle_gamma   90.00000000
_symmetry_Int_Tables_number   1
_chemical_formula_structural   Zn2PH20C30(NO3)4
_chemical_formula_sum   'Zn8 P4 H80 C120 N16 O48'
_cell_volume   4068.42302933
_cell_formula_units_Z   4
loop_
 _symmetry_equiv_pos_site_id
 _symmetry_equiv_pos_as_xyz
  1  'x, y, z'
loop_
 _atom_site_type_symbol
 _atom_site_label
 _atom_site_symmetry_multiplicity
 _atom_site_fract_x
 _atom_site_fract_y
 _atom_site_fract_z
 _atom_site_occupancy
 _atom_site_charge
  Zn  Zn1  1  0.084580  0.033450  0.018540  1.0  0.9932
  Zn  Zn2  1  0.584580  0.533450  0.018540  1.0  0.9932
  Zn  Zn3  1  0.915420  0.033450  0.481460  1.0  0.9948
  Zn  Zn4  1  0.415420  0.533450  0.481460  1.0  0.9948
  Zn  Zn5  1  0.915420  0.966550  0.981460  1.0  0.9945
  Zn  Zn6  1  0.415420  0.466550  0.981460  1.0  0.9945
  Zn  Zn7  1  0.084580  0.966550  0.518540  1.0  0.9927
  Zn  Zn8  1  0.584580  0.466550  0.518540  1.0  0.9927
  P  P9  1  0.000000  0.992430  0.250000  1.0  1.8585
  P  P10  1  0.500000  0.492430  0.250000  1.0  1.8585
  P  P11  1  0.000000  0.007570  0.750000  1.0  1.858
  P  P12  1  0.500000  0.507570  0.750000  1.0  1.858
  H  H13  1  0.145300  0.258200  0.946900  1.0  0.1259
  H  H14  1  0.159700  0.950000  0.835600  1.0  0.0931
  H  H15  1  0.188000  0.832600  0.799900  1.0  0.1275
  H  H16  1  0.117200  0.774400  0.150100  1.0  0.1241
  H  H17  1  0.090000  0.894900  0.179200  1.0  0.0985
  H  H18  1  0.222300  0.727900  0.790600  1.0  0.1228
  H  H19  1  0.242700  0.606200  0.754900  1.0  0.1084
  H  H20  1  0.151800  0.548600  0.061600  1.0  0.1111
  H  H21  1  0.127700  0.669600  0.104800  1.0  0.1295
  H  H22  1  0.205700  0.519900  0.887800  1.0  0.2598
  H  H23  1  0.645300  0.758200  0.946900  1.0  0.1259
  H  H24  1  0.659700  0.450000  0.835600  1.0  0.0931
  H  H25  1  0.688000  0.332600  0.799900  1.0  0.1275
  H  H26  1  0.617200  0.274400  0.150100  1.0  0.1241
  H  H27  1  0.590000  0.394900  0.179200  1.0  0.0985
  H  H28  1  0.722300  0.227900  0.790600  1.0  0.1228
  H  H29  1  0.742700  0.106200  0.754900  1.0  0.1084
  H  H30  1  0.651800  0.048600  0.061600  1.0  0.1111
  H  H31  1  0.627700  0.169600  0.104800  1.0  0.1295
  H  H32  1  0.705700  0.019900  0.887800  1.0  0.2598
  H  H33  1  0.854700  0.258200  0.553100  1.0  0.1254
  H  H34  1  0.840300  0.950000  0.664400  1.0  0.093
  H  H35  1  0.812000  0.832600  0.700100  1.0  0.1271
  H  H36  1  0.882800  0.774400  0.349900  1.0  0.1248
  H  H37  1  0.910000  0.894900  0.320800  1.0  0.0975
  H  H38  1  0.777700  0.727900  0.709400  1.0  0.1231
  H  H39  1  0.757300  0.606200  0.745100  1.0  0.1085
  H  H40  1  0.848200  0.548600  0.438400  1.0  0.1118
  H  H41  1  0.872300  0.669600  0.395200  1.0  0.1292
  H  H42  1  0.794300  0.519900  0.612200  1.0  0.2579
  H  H43  1  0.354700  0.758200  0.553100  1.0  0.1254
  H  H44  1  0.340300  0.450000  0.664400  1.0  0.093
  H  H45  1  0.312000  0.332600  0.700100  1.0  0.1271
  H  H46  1  0.382800  0.274400  0.349900  1.0  0.1248
  H  H47  1  0.410000  0.394900  0.320800  1.0  0.0975
  H  H48  1  0.277700  0.227900  0.709400  1.0  0.1231
  H  H49  1  0.257300  0.106200  0.745100  1.0  0.1085
  H  H50  1  0.348200  0.048600  0.438400  1.0  0.1118
  H  H51  1  0.372300  0.169600  0.395200  1.0  0.1292
  H  H52  1  0.294300  0.019900  0.612200  1.0  0.2579
  H  H53  1  0.854700  0.741800  0.053100  1.0  0.1252
  H  H54  1  0.840300  0.050000  0.164400  1.0  0.0935
  H  H55  1  0.812000  0.167400  0.200100  1.0  0.127
  H  H56  1  0.882800  0.225600  0.849900  1.0  0.1251
  H  H57  1  0.910000  0.105100  0.820800  1.0  0.0977
  H  H58  1  0.777700  0.272100  0.209400  1.0  0.1234
  H  H59  1  0.757300  0.393800  0.245100  1.0  0.1085
  H  H60  1  0.848200  0.451400  0.938400  1.0  0.1114
  H  H61  1  0.872300  0.330400  0.895200  1.0  0.1293
  H  H62  1  0.794300  0.480100  0.112200  1.0  0.258
  H  H63  1  0.354700  0.241800  0.053100  1.0  0.1252
  H  H64  1  0.340300  0.550000  0.164400  1.0  0.0935
  H  H65  1  0.312000  0.667400  0.200100  1.0  0.127
  H  H66  1  0.382800  0.725600  0.849900  1.0  0.1251
  H  H67  1  0.410000  0.605100  0.820800  1.0  0.0977
  H  H68  1  0.277700  0.772100  0.209400  1.0  0.1234
  H  H69  1  0.257300  0.893800  0.245100  1.0  0.1085
  H  H70  1  0.348200  0.951400  0.938400  1.0  0.1114
  H  H71  1  0.372300  0.830400  0.895200  1.0  0.1293
  H  H72  1  0.294300  0.980100  0.112200  1.0  0.258
  H  H73  1  0.145300  0.741800  0.446900  1.0  0.126
  H  H74  1  0.159700  0.050000  0.335600  1.0  0.0931
  H  H75  1  0.188000  0.167400  0.299900  1.0  0.1275
  H  H76  1  0.117200  0.225600  0.650100  1.0  0.1238
  H  H77  1  0.090000  0.105100  0.679200  1.0  0.0985
  H  H78  1  0.222300  0.272100  0.290600  1.0  0.1234
  H  H79  1  0.242700  0.393800  0.254900  1.0  0.1085
  H  H80  1  0.151800  0.451400  0.561600  1.0  0.1112
  H  H81  1  0.127700  0.330400  0.604800  1.0  0.1291
  H  H82  1  0.205700  0.480100  0.387800  1.0  0.2593
  H  H83  1  0.645300  0.241800  0.446900  1.0  0.126
  H  H84  1  0.659700  0.550000  0.335600  1.0  0.0931
  H  H85  1  0.688000  0.667400  0.299900  1.0  0.1275
  H  H86  1  0.617200  0.725600  0.650100  1.0  0.1238
  H  H87  1  0.590000  0.605100  0.679200  1.0  0.0985
  H  H88  1  0.722300  0.772100  0.290600  1.0  0.1234
  H  H89  1  0.742700  0.893800  0.254900  1.0  0.1085
  H  H90  1  0.651800  0.951400  0.561600  1.0  0.1112
  H  H91  1  0.627700  0.830400  0.604800  1.0  0.1291
  H  H92  1  0.705700  0.980100  0.387800  1.0  0.2593
  C  C93  1  0.190090  0.255280  0.970400  1.0  -0.0774
  C  C94  1  0.215210  0.187580  0.992700  1.0  -0.0942
  C  C95  1  0.275960  0.182550  0.024500  1.0  -0.1236
  C  C96  1  0.176750  0.121000  0.974300  1.0  0.6825
  C  C97  1  0.305010  0.110270  0.050400  1.0  0.668
  C  C98  1  0.149900  0.913460  0.899700  1.0  0.1751
  C  C99  1  0.167110  0.843810  0.878600  1.0  -0.179
  C  C100  1  0.154650  0.789210  0.969600  1.0  0.0947
  C  C101  1  0.126010  0.809930  0.083000  1.0  -0.204
  C  C102  1  0.109880  0.881370  0.098600  1.0  0.1629
  C  C103  1  0.170340  0.712500  0.947800  1.0  0.1178
  C  C104  1  0.205600  0.691340  0.847800  1.0  -0.1521
  C  C105  1  0.218110  0.619230  0.827500  1.0  0.0832
  C  C106  1  0.165000  0.587000  0.001100  1.0  0.0893
  C  C107  1  0.150400  0.657890  0.027100  1.0  -0.1414
  C  C108  1  0.690090  0.755280  0.970400  1.0  -0.0774
  C  C109  1  0.715210  0.687580  0.992700  1.0  -0.0942
  C  C110  1  0.775960  0.682550  0.024500  1.0  -0.1236
  C  C111  1  0.676750  0.621000  0.974300  1.0  0.6825
  C  C112  1  0.805010  0.610270  0.050400  1.0  0.668
  C  C113  1  0.649900  0.413460  0.899700  1.0  0.1751
  C  C114  1  0.667110  0.343810  0.878600  1.0  -0.179
  C  C115  1  0.654650  0.289210  0.969600  1.0  0.0947
  C  C116  1  0.626010  0.309930  0.083000  1.0  -0.204
  C  C117  1  0.609880  0.381370  0.098600  1.0  0.1629
  C  C118  1  0.670340  0.212500  0.947800  1.0  0.1178
  C  C119  1  0.705600  0.191340  0.847800  1.0  -0.1521
  C  C120  1  0.718110  0.119230  0.827500  1.0  0.0832
  C  C121  1  0.665000  0.087000  0.001100  1.0  0.0893
  C  C122  1  0.650400  0.157890  0.027100  1.0  -0.1414
  C  C123  1  0.809910  0.255280  0.529600  1.0  -0.0767
  C  C124  1  0.784790  0.187580  0.507300  1.0  -0.0928
  C  C125  1  0.724040  0.182550  0.475500  1.0  -0.125
  C  C126  1  0.823250  0.121000  0.525700  1.0  0.6824
  C  C127  1  0.694990  0.110270  0.449600  1.0  0.6681
  C  C128  1  0.850100  0.913460  0.600300  1.0  0.174
  C  C129  1  0.832890  0.843810  0.621400  1.0  -0.1786
  C  C130  1  0.845350  0.789210  0.530400  1.0  0.0945
  C  C131  1  0.873990  0.809930  0.417000  1.0  -0.2028
  C  C132  1  0.890120  0.881370  0.401400  1.0  0.1625
  C  C133  1  0.829660  0.712500  0.552200  1.0  0.1181
  C  C134  1  0.794400  0.691340  0.652200  1.0  -0.1541
  C  C135  1  0.781890  0.619230  0.672500  1.0  0.0824
  C  C136  1  0.835000  0.587000  0.498900  1.0  0.0888
  C  C137  1  0.849600  0.657890  0.472900  1.0  -0.1366
  C  C138  1  0.309910  0.755280  0.529600  1.0  -0.0767
  C  C139  1  0.284790  0.687580  0.507300  1.0  -0.0928
  C  C140  1  0.224040  0.682550  0.475500  1.0  -0.125
  C  C141  1  0.323250  0.621000  0.525700  1.0  0.6824
  C  C142  1  0.194990  0.610270  0.449600  1.0  0.6681
  C  C143  1  0.350100  0.413460  0.600300  1.0  0.174
  C  C144  1  0.332890  0.343810  0.621400  1.0  -0.1786
  C  C145  1  0.345350  0.289210  0.530400  1.0  0.0945
  C  C146  1  0.373990  0.309930  0.417000  1.0  -0.2028
  C  C147  1  0.390120  0.381370  0.401400  1.0  0.1625
  C  C148  1  0.329660  0.212500  0.552200  1.0  0.1181
  C  C149  1  0.294400  0.191340  0.652200  1.0  -0.1541
  C  C150  1  0.281890  0.119230  0.672500  1.0  0.0824
  C  C151  1  0.335000  0.087000  0.498900  1.0  0.0888
  C  C152  1  0.349600  0.157890  0.472900  1.0  -0.1366
  C  C153  1  0.809910  0.744720  0.029600  1.0  -0.077
  C  C154  1  0.784790  0.812420  0.007300  1.0  -0.0922
  C  C155  1  0.724040  0.817450  0.975500  1.0  -0.1245
  C  C156  1  0.823250  0.879000  0.025700  1.0  0.6824
  C  C157  1  0.694990  0.889730  0.949600  1.0  0.6684
  C  C158  1  0.850100  0.086540  0.100300  1.0  0.174
  C  C159  1  0.832890  0.156190  0.121400  1.0  -0.1789
  C  C160  1  0.845350  0.210790  0.030400  1.0  0.0943
  C  C161  1  0.873990  0.190070  0.917000  1.0  -0.2032
  C  C162  1  0.890120  0.118630  0.901400  1.0  0.1628
  C  C163  1  0.829660  0.287500  0.052200  1.0  0.1193
  C  C164  1  0.794400  0.308660  0.152200  1.0  -0.1544
  C  C165  1  0.781890  0.380770  0.172500  1.0  0.0823
  C  C166  1  0.835000  0.413000  0.998900  1.0  0.0902
  C  C167  1  0.849600  0.342110  0.972900  1.0  -0.1373
  C  C168  1  0.309910  0.244720  0.029600  1.0  -0.077
  C  C169  1  0.284790  0.312420  0.007300  1.0  -0.0922
  C  C170  1  0.224040  0.317450  0.975500  1.0  -0.1245
  C  C171  1  0.323250  0.379000  0.025700  1.0  0.6824
  C  C172  1  0.194990  0.389730  0.949600  1.0  0.6684
  C  C173  1  0.350100  0.586540  0.100300  1.0  0.174
  C  C174  1  0.332890  0.656190  0.121400  1.0  -0.1789
  C  C175  1  0.345350  0.710790  0.030400  1.0  0.0943
  C  C176  1  0.373990  0.690070  0.917000  1.0  -0.2032
  C  C177  1  0.390120  0.618630  0.901400  1.0  0.1628
  C  C178  1  0.329660  0.787500  0.052200  1.0  0.1193
  C  C179  1  0.294400  0.808660  0.152200  1.0  -0.1544
  C  C180  1  0.281890  0.880770  0.172500  1.0  0.0823
  C  C181  1  0.335000  0.913000  0.998900  1.0  0.0902
  C  C182  1  0.349600  0.842110  0.972900  1.0  -0.1373
  C  C183  1  0.190090  0.744720  0.470400  1.0  -0.0777
  C  C184  1  0.215210  0.812420  0.492700  1.0  -0.0932
  C  C185  1  0.275960  0.817450  0.524500  1.0  -0.1232
  C  C186  1  0.176750  0.879000  0.474300  1.0  0.6822
  C  C187  1  0.305010  0.889730  0.550400  1.0  0.6673
  C  C188  1  0.149900  0.086540  0.399700  1.0  0.1743
  C  C189  1  0.167110  0.156190  0.378600  1.0  -0.1788
  C  C190  1  0.154650  0.210790  0.469600  1.0  0.0951
  C  C191  1  0.126010  0.190070  0.583000  1.0  -0.2048
  C  C192  1  0.109880  0.118630  0.598600  1.0  0.163
  C  C193  1  0.170340  0.287500  0.447800  1.0  0.1186
  C  C194  1  0.205600  0.308660  0.347800  1.0  -0.1528
  C  C195  1  0.218110  0.380770  0.327500  1.0  0.0835
  C  C196  1  0.165000  0.413000  0.501100  1.0  0.0907
  C  C197  1  0.150400  0.342110  0.527100  1.0  -0.1408
  C  C198  1  0.690090  0.244720  0.470400  1.0  -0.0777
  C  C199  1  0.715210  0.312420  0.492700  1.0  -0.0932
  C  C200  1  0.775960  0.317450  0.524500  1.0  -0.1232
  C  C201  1  0.676750  0.379000  0.474300  1.0  0.6822
  C  C202  1  0.805010  0.389730  0.550400  1.0  0.6673
  C  C203  1  0.649900  0.586540  0.399700  1.0  0.1743
  C  C204  1  0.667110  0.656190  0.378600  1.0  -0.1788
  C  C205  1  0.654650  0.710790  0.469600  1.0  0.0951
  C  C206  1  0.626010  0.690070  0.583000  1.0  -0.2048
  C  C207  1  0.609880  0.618630  0.598600  1.0  0.163
  C  C208  1  0.670340  0.787500  0.447800  1.0  0.1186
  C  C209  1  0.705600  0.808660  0.347800  1.0  -0.1528
  C  C210  1  0.718110  0.880770  0.327500  1.0  0.0835
  C  C211  1  0.665000  0.913000  0.501100  1.0  0.0907
  C  C212  1  0.650400  0.842110  0.527100  1.0  -0.1408
  N  N213  1  0.120380  0.932880  0.007500  1.0  -0.3407
  N  N214  1  0.197590  0.567770  0.902700  1.0  -0.1763
  N  N215  1  0.620380  0.432880  0.007500  1.0  -0.3407
  N  N216  1  0.697590  0.067770  0.902700  1.0  -0.1763
  N  N217  1  0.879620  0.932880  0.492500  1.0  -0.3412
  N  N218  1  0.802410  0.567770  0.597300  1.0  -0.1764
  N  N219  1  0.379620  0.432880  0.492500  1.0  -0.3412
  N  N220  1  0.302410  0.067770  0.597300  1.0  -0.1764
  N  N221  1  0.879620  0.067120  0.992500  1.0  -0.3401
  N  N222  1  0.802410  0.432230  0.097300  1.0  -0.1764
  N  N223  1  0.379620  0.567120  0.992500  1.0  -0.3401
  N  N224  1  0.302410  0.932230  0.097300  1.0  -0.1764
  N  N225  1  0.120380  0.067120  0.507500  1.0  -0.3405
  N  N226  1  0.197590  0.432230  0.402700  1.0  -0.1756
  N  N227  1  0.620380  0.567120  0.507500  1.0  -0.3405
  N  N228  1  0.697590  0.932230  0.402700  1.0  -0.1756
  O  O229  1  0.041950  0.042900  0.181540  1.0  -0.8012
  O  O230  1  0.966960  0.943310  0.143270  1.0  -0.8142
  O  O231  1  0.135100  0.118510  0.051980  1.0  -0.5806
  O  O232  1  0.186160  0.076220  0.886100  1.0  -0.5398
  O  O233  1  0.277640  0.068130  0.130000  1.0  -0.6026
  O  O234  1  0.350220  0.094850  0.001400  1.0  -0.4691
  O  O235  1  0.541950  0.542900  0.181540  1.0  -0.8012
  O  O236  1  0.466960  0.443310  0.143270  1.0  -0.8142
  O  O237  1  0.635100  0.618510  0.051980  1.0  -0.5806
  O  O238  1  0.686160  0.576220  0.886100  1.0  -0.5398
  O  O239  1  0.777640  0.568130  0.130000  1.0  -0.6026
  O  O240  1  0.850220  0.594850  0.001400  1.0  -0.4691
  O  O241  1  0.958050  0.042900  0.318460  1.0  -0.8025
  O  O242  1  0.033040  0.943310  0.356730  1.0  -0.8136
  O  O243  1  0.864900  0.118510  0.448020  1.0  -0.5816
  O  O244  1  0.813840  0.076220  0.613900  1.0  -0.5394
  O  O245  1  0.722360  0.068130  0.370000  1.0  -0.6024
  O  O246  1  0.649780  0.094850  0.498600  1.0  -0.4725
  O  O247  1  0.458050  0.542900  0.318460  1.0  -0.8025
  O  O248  1  0.533040  0.443310  0.356730  1.0  -0.8136
  O  O249  1  0.364900  0.618510  0.448020  1.0  -0.5816
  O  O250  1  0.313840  0.576220  0.613900  1.0  -0.5394
  O  O251  1  0.222360  0.568130  0.370000  1.0  -0.6024
  O  O252  1  0.149780  0.594850  0.498600  1.0  -0.4725
  O  O253  1  0.958050  0.957100  0.818460  1.0  -0.8029
  O  O254  1  0.033040  0.056690  0.856730  1.0  -0.8135
  O  O255  1  0.864900  0.881490  0.948020  1.0  -0.5818
  O  O256  1  0.813840  0.923780  0.113900  1.0  -0.5398
  O  O257  1  0.722360  0.931870  0.870000  1.0  -0.6022
  O  O258  1  0.649780  0.905150  0.998600  1.0  -0.4727
  O  O259  1  0.458050  0.457100  0.818460  1.0  -0.8029
  O  O260  1  0.533040  0.556690  0.856730  1.0  -0.8135
  O  O261  1  0.364900  0.381490  0.948020  1.0  -0.5818
  O  O262  1  0.313840  0.423780  0.113900  1.0  -0.5398
  O  O263  1  0.222360  0.431870  0.870000  1.0  -0.6022
  O  O264  1  0.149780  0.405150  0.998600  1.0  -0.4727
  O  O265  1  0.041950  0.957100  0.681540  1.0  -0.8012
  O  O266  1  0.966960  0.056690  0.643270  1.0  -0.8131
  O  O267  1  0.135100  0.881490  0.551980  1.0  -0.5803
  O  O268  1  0.186160  0.923780  0.386100  1.0  -0.5398
  O  O269  1  0.277640  0.931870  0.630000  1.0  -0.6027
  O  O270  1  0.350220  0.905150  0.501400  1.0  -0.4687
  O  O271  1  0.541950  0.457100  0.681540  1.0  -0.8012
  O  O272  1  0.466960  0.556690  0.643270  1.0  -0.8131
  O  O273  1  0.635100  0.381490  0.551980  1.0  -0.5803
  O  O274  1  0.686160  0.423780  0.386100  1.0  -0.5398
  O  O275  1  0.777640  0.431870  0.630000  1.0  -0.6027
  O  O276  1  0.850220  0.405150  0.501400  1.0  -0.4687
