# generated using pymatgen
data_SmH25C28(NO4)2
_symmetry_space_group_name_H-M   'P 1'
_cell_length_a   32.59900000
_cell_length_b   8.84490000
_cell_length_c   34.24600000
_cell_angle_alpha   90.00000000
_cell_angle_beta   116.45700000
_cell_angle_gamma   90.00000000
_symmetry_Int_Tables_number   1
_chemical_formula_structural   SmH25C28(NO4)2
_chemical_formula_sum   'Sm8 H200 C224 N16 O64'
_cell_volume   8840.16951824
_cell_formula_units_Z   8
loop_
 _symmetry_equiv_pos_site_id
 _symmetry_equiv_pos_as_xyz
  1  'x, y, z'
loop_
 _atom_site_type_symbol
 _atom_site_label
 _atom_site_symmetry_multiplicity
 _atom_site_fract_x
 _atom_site_fract_y
 _atom_site_fract_z
 _atom_site_occupancy
 _atom_site_charge
  Sm  Sm1  1  0.493380  0.878090  0.118360  1.0  2.2127
  Sm  Sm2  1  0.993380  0.378090  0.118360  1.0  2.2127
  Sm  Sm3  1  0.506620  0.878090  0.381640  1.0  2.2131
  Sm  Sm4  1  0.006620  0.378090  0.381640  1.0  2.2131
  Sm  Sm5  1  0.506620  0.121910  0.881640  1.0  2.2131
  Sm  Sm6  1  0.006620  0.621910  0.881640  1.0  2.2131
  Sm  Sm7  1  0.493380  0.121910  0.618360  1.0  2.2119
  Sm  Sm8  1  0.993380  0.621910  0.618360  1.0  2.2119
  H  H9  1  0.800000  0.803100  0.314400  1.0  0.0765
  H  H10  1  0.840800  0.918700  0.333700  1.0  0.0797
  H  H11  1  0.554700  0.849700  0.281700  1.0  0.1137
  H  H12  1  0.611900  0.562500  0.228400  1.0  0.1136
  H  H13  1  0.695900  0.467600  0.256700  1.0  0.0713
  H  H14  1  0.655300  0.351000  0.240500  1.0  0.0771
  H  H15  1  0.683600  0.391100  0.324800  1.0  0.263
  H  H16  1  0.837900  0.799000  0.455900  1.0  0.1056
  H  H17  1  0.800100  0.901800  0.385400  1.0  0.2479
  H  H18  1  0.940900  0.503500  0.482800  1.0  0.1082
  H  H19  1  0.873600  0.676100  0.362500  1.0  0.1005
  H  H20  1  0.755600  0.517200  0.295100  1.0  0.1003
  H  H21  1  0.804000  0.461800  0.301900  1.0  0.1002
  H  H22  1  0.792800  0.473300  0.341900  1.0  0.1075
  H  H23  1  0.655400  0.567200  0.357800  1.0  0.1188
  H  H24  1  0.686400  0.830900  0.294900  1.0  0.1052
  H  H25  1  0.736800  0.769900  0.314200  1.0  0.0997
  H  H26  1  0.708200  0.790000  0.263700  1.0  0.1039
  H  H27  1  0.638600  0.047600  0.228000  1.0  0.1149
  H  H28  1  0.633400  0.164100  0.260000  1.0  0.096
  H  H29  1  0.642800  0.993300  0.273200  1.0  0.1045
  H  H30  1  0.861100  0.123600  0.365700  1.0  0.0944
  H  H31  1  0.850100  0.297000  0.359800  1.0  0.1054
  H  H32  1  0.858500  0.208000  0.324400  1.0  0.125
  H  H33  1  0.873600  0.722400  0.554200  1.0  0.3281
  H  H34  1  0.300000  0.303100  0.314400  1.0  0.0765
  H  H35  1  0.340800  0.418700  0.333700  1.0  0.0797
  H  H36  1  0.054700  0.349700  0.281700  1.0  0.1137
  H  H37  1  0.111900  0.062500  0.228400  1.0  0.1136
  H  H38  1  0.195900  0.967600  0.256700  1.0  0.0713
  H  H39  1  0.155300  0.851000  0.240500  1.0  0.0771
  H  H40  1  0.183600  0.891100  0.324800  1.0  0.263
  H  H41  1  0.337900  0.299000  0.455900  1.0  0.1056
  H  H42  1  0.300100  0.401800  0.385400  1.0  0.2479
  H  H43  1  0.440900  0.003500  0.482800  1.0  0.1082
  H  H44  1  0.373600  0.176100  0.362500  1.0  0.1005
  H  H45  1  0.255600  0.017200  0.295100  1.0  0.1003
  H  H46  1  0.304000  0.961800  0.301900  1.0  0.1002
  H  H47  1  0.292800  0.973300  0.341900  1.0  0.1075
  H  H48  1  0.155400  0.067200  0.357800  1.0  0.1188
  H  H49  1  0.186400  0.330900  0.294900  1.0  0.1052
  H  H50  1  0.236800  0.269900  0.314200  1.0  0.0997
  H  H51  1  0.208200  0.290000  0.263700  1.0  0.1039
  H  H52  1  0.138600  0.547600  0.228000  1.0  0.1149
  H  H53  1  0.133400  0.664100  0.260000  1.0  0.096
  H  H54  1  0.142800  0.493300  0.273200  1.0  0.1045
  H  H55  1  0.361100  0.623600  0.365700  1.0  0.0944
  H  H56  1  0.350100  0.797000  0.359800  1.0  0.1054
  H  H57  1  0.358500  0.708000  0.324400  1.0  0.125
  H  H58  1  0.373600  0.222400  0.554200  1.0  0.3281
  H  H59  1  0.200000  0.803100  0.185600  1.0  0.0755
  H  H60  1  0.159200  0.918700  0.166300  1.0  0.0755
  H  H61  1  0.445300  0.849700  0.218300  1.0  0.1125
  H  H62  1  0.388100  0.562500  0.271600  1.0  0.1132
  H  H63  1  0.304100  0.467600  0.243300  1.0  0.0723
  H  H64  1  0.344700  0.351000  0.259500  1.0  0.0779
  H  H65  1  0.316400  0.391100  0.175200  1.0  0.266
  H  H66  1  0.162100  0.799000  0.044100  1.0  0.1052
  H  H67  1  0.199900  0.901800  0.114600  1.0  0.2516
  H  H68  1  0.059100  0.503500  0.017200  1.0  0.1077
  H  H69  1  0.126400  0.676100  0.137500  1.0  0.101
  H  H70  1  0.244400  0.517200  0.204900  1.0  0.1001
  H  H71  1  0.196000  0.461800  0.198100  1.0  0.0999
  H  H72  1  0.207200  0.473300  0.158100  1.0  0.1073
  H  H73  1  0.344600  0.567200  0.142200  1.0  0.1186
  H  H74  1  0.313600  0.830900  0.205100  1.0  0.1038
  H  H75  1  0.263200  0.769900  0.185800  1.0  0.0965
  H  H76  1  0.291800  0.790000  0.236300  1.0  0.1024
  H  H77  1  0.361400  0.047600  0.272000  1.0  0.1145
  H  H78  1  0.366600  0.164100  0.240000  1.0  0.0966
  H  H79  1  0.357200  0.993300  0.226800  1.0  0.1028
  H  H80  1  0.138900  0.123600  0.134300  1.0  0.0925
  H  H81  1  0.149900  0.297000  0.140200  1.0  0.1063
  H  H82  1  0.141500  0.208000  0.175600  1.0  0.1251
  H  H83  1  0.126400  0.722400  0.945800  1.0  0.3285
  H  H84  1  0.700000  0.303100  0.185600  1.0  0.0755
  H  H85  1  0.659200  0.418700  0.166300  1.0  0.0755
  H  H86  1  0.945300  0.349700  0.218300  1.0  0.1125
  H  H87  1  0.888100  0.062500  0.271600  1.0  0.1132
  H  H88  1  0.804100  0.967600  0.243300  1.0  0.0723
  H  H89  1  0.844700  0.851000  0.259500  1.0  0.0779
  H  H90  1  0.816400  0.891100  0.175200  1.0  0.266
  H  H91  1  0.662100  0.299000  0.044100  1.0  0.1052
  H  H92  1  0.699900  0.401800  0.114600  1.0  0.2516
  H  H93  1  0.559100  0.003500  0.017200  1.0  0.1077
  H  H94  1  0.626400  0.176100  0.137500  1.0  0.101
  H  H95  1  0.744400  0.017200  0.204900  1.0  0.1001
  H  H96  1  0.696000  0.961800  0.198100  1.0  0.0999
  H  H97  1  0.707200  0.973300  0.158100  1.0  0.1073
  H  H98  1  0.844600  0.067200  0.142200  1.0  0.1186
  H  H99  1  0.813600  0.330900  0.205100  1.0  0.1038
  H  H100  1  0.763200  0.269900  0.185800  1.0  0.0965
  H  H101  1  0.791800  0.290000  0.236300  1.0  0.1024
  H  H102  1  0.861400  0.547600  0.272000  1.0  0.1145
  H  H103  1  0.866600  0.664100  0.240000  1.0  0.0966
  H  H104  1  0.857200  0.493300  0.226800  1.0  0.1028
  H  H105  1  0.638900  0.623600  0.134300  1.0  0.0925
  H  H106  1  0.649900  0.797000  0.140200  1.0  0.1063
  H  H107  1  0.641500  0.708000  0.175600  1.0  0.1251
  H  H108  1  0.626400  0.222400  0.945800  1.0  0.3285
  H  H109  1  0.200000  0.196900  0.685600  1.0  0.076
  H  H110  1  0.159200  0.081300  0.666300  1.0  0.0756
  H  H111  1  0.445300  0.150300  0.718300  1.0  0.113
  H  H112  1  0.388100  0.437500  0.771600  1.0  0.1127
  H  H113  1  0.304100  0.532400  0.743300  1.0  0.0734
  H  H114  1  0.344700  0.649000  0.759500  1.0  0.0775
  H  H115  1  0.316400  0.608900  0.675200  1.0  0.2667
  H  H116  1  0.162100  0.201000  0.544100  1.0  0.1055
  H  H117  1  0.199900  0.098200  0.614600  1.0  0.2516
  H  H118  1  0.059100  0.496500  0.517200  1.0  0.1067
  H  H119  1  0.126400  0.323900  0.637500  1.0  0.1013
  H  H120  1  0.244400  0.482800  0.704900  1.0  0.0994
  H  H121  1  0.196000  0.538200  0.698100  1.0  0.0999
  H  H122  1  0.207200  0.526700  0.658100  1.0  0.1073
  H  H123  1  0.344600  0.432800  0.642200  1.0  0.1186
  H  H124  1  0.313600  0.169100  0.705100  1.0  0.1039
  H  H125  1  0.263200  0.230100  0.685800  1.0  0.097
  H  H126  1  0.291800  0.210000  0.736300  1.0  0.1027
  H  H127  1  0.361400  0.952400  0.772000  1.0  0.1149
  H  H128  1  0.366600  0.835900  0.740000  1.0  0.0965
  H  H129  1  0.357200  0.006700  0.726800  1.0  0.1028
  H  H130  1  0.138900  0.876400  0.634300  1.0  0.0938
  H  H131  1  0.149900  0.703000  0.640200  1.0  0.1043
  H  H132  1  0.141500  0.792000  0.675600  1.0  0.1251
  H  H133  1  0.126400  0.277600  0.445800  1.0  0.3296
  H  H134  1  0.700000  0.696900  0.685600  1.0  0.076
  H  H135  1  0.659200  0.581300  0.666300  1.0  0.0756
  H  H136  1  0.945300  0.650300  0.718300  1.0  0.113
  H  H137  1  0.888100  0.937500  0.771600  1.0  0.1127
  H  H138  1  0.804100  0.032400  0.743300  1.0  0.0734
  H  H139  1  0.844700  0.149000  0.759500  1.0  0.0775
  H  H140  1  0.816400  0.108900  0.675200  1.0  0.2667
  H  H141  1  0.662100  0.701000  0.544100  1.0  0.1055
  H  H142  1  0.699900  0.598200  0.614600  1.0  0.2516
  H  H143  1  0.559100  0.996500  0.517200  1.0  0.1067
  H  H144  1  0.626400  0.823900  0.637500  1.0  0.1013
  H  H145  1  0.744400  0.982800  0.704900  1.0  0.0994
  H  H146  1  0.696000  0.038200  0.698100  1.0  0.0999
  H  H147  1  0.707200  0.026700  0.658100  1.0  0.1073
  H  H148  1  0.844600  0.932800  0.642200  1.0  0.1186
  H  H149  1  0.813600  0.669100  0.705100  1.0  0.1039
  H  H150  1  0.763200  0.730100  0.685800  1.0  0.097
  H  H151  1  0.791800  0.710000  0.736300  1.0  0.1027
  H  H152  1  0.861400  0.452400  0.772000  1.0  0.1149
  H  H153  1  0.866600  0.335900  0.740000  1.0  0.0965
  H  H154  1  0.857200  0.506700  0.726800  1.0  0.1028
  H  H155  1  0.638900  0.376400  0.634300  1.0  0.0938
  H  H156  1  0.649900  0.203000  0.640200  1.0  0.1043
  H  H157  1  0.641500  0.292000  0.675600  1.0  0.1251
  H  H158  1  0.626400  0.777600  0.445800  1.0  0.3296
  H  H159  1  0.800000  0.196900  0.814400  1.0  0.077
  H  H160  1  0.840800  0.081300  0.833700  1.0  0.0794
  H  H161  1  0.554700  0.150300  0.781700  1.0  0.1127
  H  H162  1  0.611900  0.437500  0.728400  1.0  0.1136
  H  H163  1  0.695900  0.532400  0.756700  1.0  0.072
  H  H164  1  0.655300  0.649000  0.740500  1.0  0.0772
  H  H165  1  0.683600  0.608900  0.824800  1.0  0.2627
  H  H166  1  0.837900  0.201000  0.955900  1.0  0.1058
  H  H167  1  0.800100  0.098200  0.885400  1.0  0.2485
  H  H168  1  0.940900  0.496500  0.982800  1.0  0.1066
  H  H169  1  0.873600  0.323900  0.862500  1.0  0.1005
  H  H170  1  0.755600  0.482800  0.795100  1.0  0.1003
  H  H171  1  0.804000  0.538200  0.801900  1.0  0.1003
  H  H172  1  0.792800  0.526700  0.841900  1.0  0.1076
  H  H173  1  0.655400  0.432800  0.857800  1.0  0.1186
  H  H174  1  0.686400  0.169100  0.794900  1.0  0.1056
  H  H175  1  0.736800  0.230100  0.814200  1.0  0.0988
  H  H176  1  0.708200  0.210000  0.763700  1.0  0.1032
  H  H177  1  0.638600  0.952400  0.728000  1.0  0.1141
  H  H178  1  0.633400  0.835900  0.760000  1.0  0.0966
  H  H179  1  0.642800  0.006700  0.773200  1.0  0.1045
  H  H180  1  0.861100  0.876400  0.865700  1.0  0.0947
  H  H181  1  0.850100  0.703000  0.859800  1.0  0.1043
  H  H182  1  0.858500  0.792000  0.824400  1.0  0.125
  H  H183  1  0.873600  0.277600  0.054200  1.0  0.3306
  H  H184  1  0.300000  0.696900  0.814400  1.0  0.077
  H  H185  1  0.340800  0.581300  0.833700  1.0  0.0794
  H  H186  1  0.054700  0.650300  0.781700  1.0  0.1127
  H  H187  1  0.111900  0.937500  0.728400  1.0  0.1136
  H  H188  1  0.195900  0.032400  0.756700  1.0  0.072
  H  H189  1  0.155300  0.149000  0.740500  1.0  0.0772
  H  H190  1  0.183600  0.108900  0.824800  1.0  0.2627
  H  H191  1  0.337900  0.701000  0.955900  1.0  0.1058
  H  H192  1  0.300100  0.598200  0.885400  1.0  0.2485
  H  H193  1  0.440900  0.996500  0.982800  1.0  0.1066
  H  H194  1  0.373600  0.823900  0.862500  1.0  0.1005
  H  H195  1  0.255600  0.982800  0.795100  1.0  0.1003
  H  H196  1  0.304000  0.038200  0.801900  1.0  0.1003
  H  H197  1  0.292800  0.026700  0.841900  1.0  0.1076
  H  H198  1  0.155400  0.932800  0.857800  1.0  0.1186
  H  H199  1  0.186400  0.669100  0.794900  1.0  0.1056
  H  H200  1  0.236800  0.730100  0.814200  1.0  0.0988
  H  H201  1  0.208200  0.710000  0.763700  1.0  0.1032
  H  H202  1  0.138600  0.452400  0.728000  1.0  0.1141
  H  H203  1  0.133400  0.335900  0.760000  1.0  0.0966
  H  H204  1  0.142800  0.506700  0.773200  1.0  0.1045
  H  H205  1  0.361100  0.376400  0.865700  1.0  0.0947
  H  H206  1  0.350100  0.203000  0.859800  1.0  0.1043
  H  H207  1  0.358500  0.292000  0.824400  1.0  0.125
  H  H208  1  0.373600  0.777600  0.054200  1.0  0.3306
  C  C209  1  0.889430  0.648000  0.476350  1.0  -0.1836
  C  C210  1  0.580100  0.718200  0.249240  1.0  -0.1177
  C  C211  1  0.811700  0.891200  0.332920  1.0  -0.0056
  C  C212  1  0.576000  0.775100  0.284780  1.0  -0.0532
  C  C213  1  0.610960  0.602100  0.253130  1.0  -0.1256
  C  C214  1  0.682600  0.384300  0.265680  1.0  -0.0187
  C  C215  1  0.716300  0.256800  0.282400  1.0  -0.1051
  C  C216  1  0.763500  0.288900  0.303800  1.0  0.0861
  C  C217  1  0.778200  0.021100  0.314890  1.0  -0.0658
  C  C218  1  0.700400  0.104300  0.278760  1.0  0.1047
  C  C219  1  0.850100  0.757400  0.404000  1.0  0.1959
  C  C220  1  0.856300  0.743300  0.446900  1.0  -0.1409
  C  C221  1  0.605200  0.716600  0.325700  1.0  -0.129
  C  C222  1  0.639900  0.546800  0.293900  1.0  0.2092
  C  C223  1  0.917800  0.565000  0.463080  1.0  0.0075
  C  C224  1  0.877700  0.670400  0.391130  1.0  -0.1859
  C  C225  1  0.794700  0.166500  0.320600  1.0  0.0421
  C  C226  1  0.731700  0.990200  0.295300  1.0  0.059
  C  C227  1  0.895700  0.635500  0.521800  1.0  0.5945
  C  C228  1  0.780500  0.449900  0.311300  1.0  -0.3624
  C  C229  1  0.636400  0.604700  0.330150  1.0  -0.0877
  C  C230  1  0.714200  0.830800  0.291700  1.0  -0.3718
  C  C231  1  0.649100  0.074600  0.258100  1.0  -0.3506
  C  C232  1  0.845900  0.202100  0.344900  1.0  -0.3555
  C  C233  1  0.550340  0.779700  0.204000  1.0  0.6844
  C  C234  1  0.601200  0.769500  0.365800  1.0  0.7157
  C  C235  1  0.910900  0.576000  0.420320  1.0  -0.1422
  C  C236  1  0.940800  0.488500  0.405300  1.0  0.6846
  C  C237  1  0.389430  0.148000  0.476350  1.0  -0.1836
  C  C238  1  0.080100  0.218200  0.249240  1.0  -0.1177
  C  C239  1  0.311700  0.391200  0.332920  1.0  -0.0056
  C  C240  1  0.076000  0.275100  0.284780  1.0  -0.0532
  C  C241  1  0.110960  0.102100  0.253130  1.0  -0.1256
  C  C242  1  0.182600  0.884300  0.265680  1.0  -0.0187
  C  C243  1  0.216300  0.756800  0.282400  1.0  -0.1051
  C  C244  1  0.263500  0.788900  0.303800  1.0  0.0861
  C  C245  1  0.278200  0.521100  0.314890  1.0  -0.0658
  C  C246  1  0.200400  0.604300  0.278760  1.0  0.1047
  C  C247  1  0.350100  0.257400  0.404000  1.0  0.1959
  C  C248  1  0.356300  0.243300  0.446900  1.0  -0.1409
  C  C249  1  0.105200  0.216600  0.325700  1.0  -0.129
  C  C250  1  0.139900  0.046800  0.293900  1.0  0.2092
  C  C251  1  0.417800  0.065000  0.463080  1.0  0.0075
  C  C252  1  0.377700  0.170400  0.391130  1.0  -0.1859
  C  C253  1  0.294700  0.666500  0.320600  1.0  0.0421
  C  C254  1  0.231700  0.490200  0.295300  1.0  0.059
  C  C255  1  0.395700  0.135500  0.521800  1.0  0.5945
  C  C256  1  0.280500  0.949900  0.311300  1.0  -0.3624
  C  C257  1  0.136400  0.104700  0.330150  1.0  -0.0877
  C  C258  1  0.214200  0.330800  0.291700  1.0  -0.3718
  C  C259  1  0.149100  0.574600  0.258100  1.0  -0.3506
  C  C260  1  0.345900  0.702100  0.344900  1.0  -0.3555
  C  C261  1  0.050340  0.279700  0.204000  1.0  0.6844
  C  C262  1  0.101200  0.269500  0.365800  1.0  0.7157
  C  C263  1  0.410900  0.076000  0.420320  1.0  -0.1422
  C  C264  1  0.440800  0.988500  0.405300  1.0  0.6846
  C  C265  1  0.110570  0.648000  0.023650  1.0  -0.1848
  C  C266  1  0.419900  0.718200  0.250760  1.0  -0.1198
  C  C267  1  0.188300  0.891200  0.167080  1.0  -0.0046
  C  C268  1  0.424000  0.775100  0.215220  1.0  -0.0543
  C  C269  1  0.389040  0.602100  0.246870  1.0  -0.1262
  C  C270  1  0.317400  0.384300  0.234320  1.0  -0.0184
  C  C271  1  0.283700  0.256800  0.217600  1.0  -0.1078
  C  C272  1  0.236500  0.288900  0.196200  1.0  0.0835
  C  C273  1  0.221800  0.021100  0.185110  1.0  -0.0667
  C  C274  1  0.299600  0.104300  0.221240  1.0  0.1045
  C  C275  1  0.149900  0.757400  0.096000  1.0  0.1944
  C  C276  1  0.143700  0.743300  0.053100  1.0  -0.1403
  C  C277  1  0.394800  0.716600  0.174300  1.0  -0.1329
  C  C278  1  0.360100  0.546800  0.206100  1.0  0.2044
  C  C279  1  0.082200  0.565000  0.036920  1.0  0.0062
  C  C280  1  0.122300  0.670400  0.108870  1.0  -0.1874
  C  C281  1  0.205300  0.166500  0.179400  1.0  0.0398
  C  C282  1  0.268300  0.990200  0.204700  1.0  0.0589
  C  C283  1  0.104300  0.635500  0.978200  1.0  0.5951
  C  C284  1  0.219500  0.449900  0.188700  1.0  -0.3625
  C  C285  1  0.363600  0.604700  0.169850  1.0  -0.0908
  C  C286  1  0.285800  0.830800  0.208300  1.0  -0.3727
  C  C287  1  0.350900  0.074600  0.241900  1.0  -0.3485
  C  C288  1  0.154100  0.202100  0.155100  1.0  -0.3567
  C  C289  1  0.449660  0.779700  0.296000  1.0  0.6844
  C  C290  1  0.398800  0.769500  0.134200  1.0  0.7155
  C  C291  1  0.089100  0.576000  0.079680  1.0  -0.1434
  C  C292  1  0.059200  0.488500  0.094700  1.0  0.6847
  C  C293  1  0.610570  0.148000  0.023650  1.0  -0.1848
  C  C294  1  0.919900  0.218200  0.250760  1.0  -0.1198
  C  C295  1  0.688300  0.391200  0.167080  1.0  -0.0046
  C  C296  1  0.924000  0.275100  0.215220  1.0  -0.0543
  C  C297  1  0.889040  0.102100  0.246870  1.0  -0.1262
  C  C298  1  0.817400  0.884300  0.234320  1.0  -0.0184
  C  C299  1  0.783700  0.756800  0.217600  1.0  -0.1078
  C  C300  1  0.736500  0.788900  0.196200  1.0  0.0835
  C  C301  1  0.721800  0.521100  0.185110  1.0  -0.0667
  C  C302  1  0.799600  0.604300  0.221240  1.0  0.1045
  C  C303  1  0.649900  0.257400  0.096000  1.0  0.1944
  C  C304  1  0.643700  0.243300  0.053100  1.0  -0.1403
  C  C305  1  0.894800  0.216600  0.174300  1.0  -0.1329
  C  C306  1  0.860100  0.046800  0.206100  1.0  0.2044
  C  C307  1  0.582200  0.065000  0.036920  1.0  0.0062
  C  C308  1  0.622300  0.170400  0.108870  1.0  -0.1874
  C  C309  1  0.705300  0.666500  0.179400  1.0  0.0398
  C  C310  1  0.768300  0.490200  0.204700  1.0  0.0589
  C  C311  1  0.604300  0.135500  0.978200  1.0  0.5951
  C  C312  1  0.719500  0.949900  0.188700  1.0  -0.3625
  C  C313  1  0.863600  0.104700  0.169850  1.0  -0.0908
  C  C314  1  0.785800  0.330800  0.208300  1.0  -0.3727
  C  C315  1  0.850900  0.574600  0.241900  1.0  -0.3485
  C  C316  1  0.654100  0.702100  0.155100  1.0  -0.3567
  C  C317  1  0.949660  0.279700  0.296000  1.0  0.6844
  C  C318  1  0.898800  0.269500  0.134200  1.0  0.7155
  C  C319  1  0.589100  0.076000  0.079680  1.0  -0.1434
  C  C320  1  0.559200  0.988500  0.094700  1.0  0.6847
  C  C321  1  0.110570  0.352000  0.523650  1.0  -0.1844
  C  C322  1  0.419900  0.281800  0.750760  1.0  -0.1198
  C  C323  1  0.188300  0.108800  0.667080  1.0  -0.0041
  C  C324  1  0.424000  0.224900  0.715220  1.0  -0.0544
  C  C325  1  0.389040  0.397900  0.746870  1.0  -0.1259
  C  C326  1  0.317400  0.615700  0.734320  1.0  -0.0186
  C  C327  1  0.283700  0.743200  0.717600  1.0  -0.1066
  C  C328  1  0.236500  0.711100  0.696200  1.0  0.0834
  C  C329  1  0.221800  0.978900  0.685110  1.0  -0.0665
  C  C330  1  0.299600  0.895700  0.721240  1.0  0.1043
  C  C331  1  0.149900  0.242600  0.596000  1.0  0.1948
  C  C332  1  0.143700  0.256700  0.553100  1.0  -0.1401
  C  C333  1  0.394800  0.283400  0.674300  1.0  -0.1339
  C  C334  1  0.360100  0.453200  0.706100  1.0  0.2051
  C  C335  1  0.082200  0.435000  0.536920  1.0  0.0065
  C  C336  1  0.122300  0.329600  0.608870  1.0  -0.1872
  C  C337  1  0.205300  0.833500  0.679400  1.0  0.0395
  C  C338  1  0.268300  0.009800  0.704700  1.0  0.0584
  C  C339  1  0.104300  0.364500  0.478200  1.0  0.5955
  C  C340  1  0.219500  0.550100  0.688700  1.0  -0.3631
  C  C341  1  0.363600  0.395300  0.669850  1.0  -0.0915
  C  C342  1  0.285800  0.169200  0.708300  1.0  -0.3715
  C  C343  1  0.350900  0.925400  0.741900  1.0  -0.348
  C  C344  1  0.154100  0.797900  0.655100  1.0  -0.3566
  C  C345  1  0.449660  0.220300  0.796000  1.0  0.6844
  C  C346  1  0.398800  0.230500  0.634200  1.0  0.7157
  C  C347  1  0.089100  0.424000  0.579680  1.0  -0.1431
  C  C348  1  0.059200  0.511500  0.594700  1.0  0.6845
  C  C349  1  0.610570  0.852000  0.523650  1.0  -0.1844
  C  C350  1  0.919900  0.781800  0.750760  1.0  -0.1198
  C  C351  1  0.688300  0.608800  0.667080  1.0  -0.0041
  C  C352  1  0.924000  0.724900  0.715220  1.0  -0.0544
  C  C353  1  0.889040  0.897900  0.746870  1.0  -0.1259
  C  C354  1  0.817400  0.115700  0.734320  1.0  -0.0186
  C  C355  1  0.783700  0.243200  0.717600  1.0  -0.1066
  C  C356  1  0.736500  0.211100  0.696200  1.0  0.0834
  C  C357  1  0.721800  0.478900  0.685110  1.0  -0.0665
  C  C358  1  0.799600  0.395700  0.721240  1.0  0.1043
  C  C359  1  0.649900  0.742600  0.596000  1.0  0.1948
  C  C360  1  0.643700  0.756700  0.553100  1.0  -0.1401
  C  C361  1  0.894800  0.783400  0.674300  1.0  -0.1339
  C  C362  1  0.860100  0.953200  0.706100  1.0  0.2051
  C  C363  1  0.582200  0.935000  0.536920  1.0  0.0065
  C  C364  1  0.622300  0.829600  0.608870  1.0  -0.1872
  C  C365  1  0.705300  0.333500  0.679400  1.0  0.0395
  C  C366  1  0.768300  0.509800  0.704700  1.0  0.0584
  C  C367  1  0.604300  0.864500  0.478200  1.0  0.5955
  C  C368  1  0.719500  0.050100  0.688700  1.0  -0.3631
  C  C369  1  0.863600  0.895300  0.669850  1.0  -0.0915
  C  C370  1  0.785800  0.669200  0.708300  1.0  -0.3715
  C  C371  1  0.850900  0.425400  0.741900  1.0  -0.348
  C  C372  1  0.654100  0.297900  0.655100  1.0  -0.3566
  C  C373  1  0.949660  0.720300  0.796000  1.0  0.6844
  C  C374  1  0.898800  0.730500  0.634200  1.0  0.7157
  C  C375  1  0.589100  0.924000  0.579680  1.0  -0.1431
  C  C376  1  0.559200  0.011500  0.594700  1.0  0.6845
  C  C377  1  0.889430  0.352000  0.976350  1.0  -0.1838
  C  C378  1  0.580100  0.281800  0.749240  1.0  -0.1177
  C  C379  1  0.811700  0.108800  0.832920  1.0  -0.0053
  C  C380  1  0.576000  0.224900  0.784780  1.0  -0.0538
  C  C381  1  0.610960  0.397900  0.753130  1.0  -0.1265
  C  C382  1  0.682600  0.615700  0.765680  1.0  -0.0188
  C  C383  1  0.716300  0.743200  0.782400  1.0  -0.1067
  C  C384  1  0.763500  0.711100  0.803800  1.0  0.0852
  C  C385  1  0.778200  0.978900  0.814890  1.0  -0.0654
  C  C386  1  0.700400  0.895700  0.778760  1.0  0.1052
  C  C387  1  0.850100  0.242600  0.904000  1.0  0.196
  C  C388  1  0.856300  0.256700  0.946900  1.0  -0.1408
  C  C389  1  0.605200  0.283400  0.825700  1.0  -0.1285
  C  C390  1  0.639900  0.453200  0.793900  1.0  0.2092
  C  C391  1  0.917800  0.435000  0.963080  1.0  0.007
  C  C392  1  0.877700  0.329600  0.891130  1.0  -0.1854
  C  C393  1  0.794700  0.833500  0.820600  1.0  0.042
  C  C394  1  0.731700  0.009800  0.795300  1.0  0.0603
  C  C395  1  0.895700  0.364500  0.021800  1.0  0.5947
  C  C396  1  0.780500  0.550100  0.811300  1.0  -0.3626
  C  C397  1  0.636400  0.395300  0.830150  1.0  -0.0882
  C  C398  1  0.714200  0.169200  0.791700  1.0  -0.3704
  C  C399  1  0.649100  0.925400  0.758100  1.0  -0.3509
  C  C400  1  0.845900  0.797900  0.844900  1.0  -0.356
  C  C401  1  0.550340  0.220300  0.704000  1.0  0.6842
  C  C402  1  0.601200  0.230500  0.865800  1.0  0.7165
  C  C403  1  0.910900  0.424000  0.920320  1.0  -0.1424
  C  C404  1  0.940800  0.511500  0.905300  1.0  0.6845
  C  C405  1  0.389430  0.852000  0.976350  1.0  -0.1838
  C  C406  1  0.080100  0.781800  0.749240  1.0  -0.1177
  C  C407  1  0.311700  0.608800  0.832920  1.0  -0.0053
  C  C408  1  0.076000  0.724900  0.784780  1.0  -0.0538
  C  C409  1  0.110960  0.897900  0.753130  1.0  -0.1265
  C  C410  1  0.182600  0.115700  0.765680  1.0  -0.0188
  C  C411  1  0.216300  0.243200  0.782400  1.0  -0.1067
  C  C412  1  0.263500  0.211100  0.803800  1.0  0.0852
  C  C413  1  0.278200  0.478900  0.814890  1.0  -0.0654
  C  C414  1  0.200400  0.395700  0.778760  1.0  0.1052
  C  C415  1  0.350100  0.742600  0.904000  1.0  0.196
  C  C416  1  0.356300  0.756700  0.946900  1.0  -0.1408
  C  C417  1  0.105200  0.783400  0.825700  1.0  -0.1285
  C  C418  1  0.139900  0.953200  0.793900  1.0  0.2092
  C  C419  1  0.417800  0.935000  0.963080  1.0  0.007
  C  C420  1  0.377700  0.829600  0.891130  1.0  -0.1854
  C  C421  1  0.294700  0.333500  0.820600  1.0  0.042
  C  C422  1  0.231700  0.509800  0.795300  1.0  0.0603
  C  C423  1  0.395700  0.864500  0.021800  1.0  0.5947
  C  C424  1  0.280500  0.050100  0.811300  1.0  -0.3626
  C  C425  1  0.136400  0.895300  0.830150  1.0  -0.0882
  C  C426  1  0.214200  0.669200  0.791700  1.0  -0.3704
  C  C427  1  0.149100  0.425400  0.758100  1.0  -0.3509
  C  C428  1  0.345900  0.297900  0.844900  1.0  -0.356
  C  C429  1  0.050340  0.720300  0.704000  1.0  0.6842
  C  C430  1  0.101200  0.730500  0.865800  1.0  0.7165
  C  C431  1  0.410900  0.924000  0.920320  1.0  -0.1424
  C  C432  1  0.440800  0.011500  0.905300  1.0  0.6845
  N  N433  1  0.670640  0.434500  0.299750  1.0  -0.4074
  N  N434  1  0.817660  0.857300  0.376260  1.0  -0.4017
  N  N435  1  0.170640  0.934500  0.299750  1.0  -0.4074
  N  N436  1  0.317660  0.357300  0.376260  1.0  -0.4017
  N  N437  1  0.329360  0.434500  0.200250  1.0  -0.4078
  N  N438  1  0.182340  0.857300  0.123740  1.0  -0.4029
  N  N439  1  0.829360  0.934500  0.200250  1.0  -0.4078
  N  N440  1  0.682340  0.357300  0.123740  1.0  -0.4029
  N  N441  1  0.329360  0.565500  0.700250  1.0  -0.4085
  N  N442  1  0.182340  0.142700  0.623740  1.0  -0.4026
  N  N443  1  0.829360  0.065500  0.700250  1.0  -0.4085
  N  N444  1  0.682340  0.642700  0.623740  1.0  -0.4026
  N  N445  1  0.670640  0.565500  0.799750  1.0  -0.4075
  N  N446  1  0.817660  0.142700  0.876260  1.0  -0.4006
  N  N447  1  0.170640  0.065500  0.799750  1.0  -0.4075
  N  N448  1  0.317660  0.642700  0.876260  1.0  -0.4006
  O  O449  1  0.530030  0.907100  0.199790  1.0  -0.6639
  O  O450  1  0.545560  0.703300  0.171310  1.0  -0.6518
  O  O451  1  0.864330  0.706100  0.528070  1.0  -0.4813
  O  O452  1  0.634940  0.748900  0.402160  1.0  -0.565
  O  O453  1  0.928160  0.569900  0.549890  1.0  -0.6227
  O  O454  1  0.972130  0.407900  0.431890  1.0  -0.6627
  O  O455  1  0.933650  0.497500  0.366400  1.0  -0.6545
  O  O456  1  0.564810  0.825200  0.361110  1.0  -0.7243
  O  O457  1  0.030030  0.407100  0.199790  1.0  -0.6639
  O  O458  1  0.045560  0.203300  0.171310  1.0  -0.6518
  O  O459  1  0.364330  0.206100  0.528070  1.0  -0.4813
  O  O460  1  0.134940  0.248900  0.402160  1.0  -0.565
  O  O461  1  0.428160  0.069900  0.549890  1.0  -0.6227
  O  O462  1  0.472130  0.907900  0.431890  1.0  -0.6627
  O  O463  1  0.433650  0.997500  0.366400  1.0  -0.6545
  O  O464  1  0.064810  0.325200  0.361110  1.0  -0.7243
  O  O465  1  0.469970  0.907100  0.300210  1.0  -0.6624
  O  O466  1  0.454440  0.703300  0.328690  1.0  -0.6524
  O  O467  1  0.135670  0.706100  0.971930  1.0  -0.4797
  O  O468  1  0.365060  0.748900  0.097840  1.0  -0.5654
  O  O469  1  0.071840  0.569900  0.950110  1.0  -0.6224
  O  O470  1  0.027870  0.407900  0.068110  1.0  -0.6634
  O  O471  1  0.066350  0.497500  0.133600  1.0  -0.6616
  O  O472  1  0.435190  0.825200  0.138890  1.0  -0.7251
  O  O473  1  0.969970  0.407100  0.300210  1.0  -0.6624
  O  O474  1  0.954440  0.203300  0.328690  1.0  -0.6524
  O  O475  1  0.635670  0.206100  0.971930  1.0  -0.4797
  O  O476  1  0.865060  0.248900  0.097840  1.0  -0.5654
  O  O477  1  0.571840  0.069900  0.950110  1.0  -0.6224
  O  O478  1  0.527870  0.907900  0.068110  1.0  -0.6634
  O  O479  1  0.566350  0.997500  0.133600  1.0  -0.6616
  O  O480  1  0.935190  0.325200  0.138890  1.0  -0.7251
  O  O481  1  0.469970  0.092900  0.800210  1.0  -0.665
  O  O482  1  0.454440  0.296700  0.828690  1.0  -0.6515
  O  O483  1  0.135670  0.293900  0.471930  1.0  -0.4796
  O  O484  1  0.365060  0.251100  0.597840  1.0  -0.565
  O  O485  1  0.071840  0.430100  0.450110  1.0  -0.6213
  O  O486  1  0.027870  0.592100  0.568110  1.0  -0.6634
  O  O487  1  0.066350  0.502500  0.633600  1.0  -0.6606
  O  O488  1  0.435190  0.174800  0.638890  1.0  -0.7251
  O  O489  1  0.969970  0.592900  0.800210  1.0  -0.665
  O  O490  1  0.954440  0.796700  0.828690  1.0  -0.6515
  O  O491  1  0.635670  0.793900  0.471930  1.0  -0.4796
  O  O492  1  0.865060  0.751100  0.597840  1.0  -0.565
  O  O493  1  0.571840  0.930100  0.450110  1.0  -0.6213
  O  O494  1  0.527870  0.092100  0.568110  1.0  -0.6634
  O  O495  1  0.566350  0.002500  0.633600  1.0  -0.6606
  O  O496  1  0.935190  0.674800  0.638890  1.0  -0.7251
  O  O497  1  0.530030  0.092900  0.699790  1.0  -0.6639
  O  O498  1  0.545560  0.296700  0.671310  1.0  -0.6521
  O  O499  1  0.864330  0.293900  0.028070  1.0  -0.4819
  O  O500  1  0.634940  0.251100  0.902160  1.0  -0.5649
  O  O501  1  0.928160  0.430100  0.049890  1.0  -0.6226
  O  O502  1  0.972130  0.592100  0.931890  1.0  -0.6631
  O  O503  1  0.933650  0.502500  0.866400  1.0  -0.655
  O  O504  1  0.564810  0.174800  0.861110  1.0  -0.7241
  O  O505  1  0.030030  0.592900  0.699790  1.0  -0.6639
  O  O506  1  0.045560  0.796700  0.671310  1.0  -0.6521
  O  O507  1  0.364330  0.793900  0.028070  1.0  -0.4819
  O  O508  1  0.134940  0.751100  0.902160  1.0  -0.5649
  O  O509  1  0.428160  0.930100  0.049890  1.0  -0.6226
  O  O510  1  0.472130  0.092100  0.931890  1.0  -0.6631
  O  O511  1  0.433650  0.002500  0.866400  1.0  -0.655
  O  O512  1  0.064810  0.674800  0.861110  1.0  -0.7241
