# generated using pymatgen
data_BaH18C34(SO2)4
_symmetry_space_group_name_H-M   'P 1'
_cell_length_a   10.44890000
_cell_length_b   21.55520000
_cell_length_c   38.34400000
_cell_angle_alpha   90.00000000
_cell_angle_beta   90.00000000
_cell_angle_gamma   90.00000000
_symmetry_Int_Tables_number   1
_chemical_formula_structural   BaH18C34(SO2)4
_chemical_formula_sum   'Ba8 H144 C272 S32 O64'
_cell_volume   8636.14738911
_cell_formula_units_Z   8
loop_
 _symmetry_equiv_pos_site_id
 _symmetry_equiv_pos_as_xyz
  1  'x, y, z'
loop_
 _atom_site_type_symbol
 _atom_site_label
 _atom_site_symmetry_multiplicity
 _atom_site_fract_x
 _atom_site_fract_y
 _atom_site_fract_z
 _atom_site_occupancy
 _atom_site_charge
  Ba  Ba1  1  0.198430  0.491810  0.000000  1.0  1.6773
  Ba  Ba2  1  0.698430  0.991810  0.500000  1.0  1.6773
  Ba  Ba3  1  0.801570  0.508190  0.000000  1.0  1.6774
  Ba  Ba4  1  0.301570  0.008190  0.500000  1.0  1.6774
  Ba  Ba5  1  0.301570  0.991810  0.000000  1.0  1.6767
  Ba  Ba6  1  0.801570  0.491810  0.500000  1.0  1.6767
  Ba  Ba7  1  0.698430  0.008190  0.000000  1.0  1.677
  Ba  Ba8  1  0.198430  0.508190  0.500000  1.0  1.677
  H  H9  1  0.189700  0.637400  0.889900  1.0  0.0922
  H  H10  1  0.123300  0.698400  0.842300  1.0  0.1127
  H  H11  1  0.763200  0.682900  0.876000  1.0  0.0983
  H  H12  1  0.832200  0.622000  0.922400  1.0  0.1084
  H  H13  1  0.915000  0.799000  0.888500  1.0  0.1099
  H  H14  1  0.007400  0.871200  0.924600  1.0  0.1099
  H  H15  1  0.131700  0.966800  0.842200  1.0  0.1294
  H  H16  1  0.034600  0.895200  0.806000  1.0  0.1066
  H  H17  1  0.245200  0.034800  0.910600  1.0  0.3984
  H  H18  1  0.689700  0.137400  0.389900  1.0  0.0922
  H  H19  1  0.623300  0.198400  0.342300  1.0  0.1127
  H  H20  1  0.263200  0.182900  0.376000  1.0  0.0983
  H  H21  1  0.332200  0.122000  0.422400  1.0  0.1084
  H  H22  1  0.415000  0.299000  0.388500  1.0  0.1099
  H  H23  1  0.507400  0.371200  0.424600  1.0  0.1099
  H  H24  1  0.631700  0.466800  0.342200  1.0  0.1294
  H  H25  1  0.534600  0.395200  0.306000  1.0  0.1066
  H  H26  1  0.745200  0.534800  0.410600  1.0  0.3984
  H  H27  1  0.810300  0.362600  0.889900  1.0  0.0922
  H  H28  1  0.876700  0.301600  0.842300  1.0  0.1124
  H  H29  1  0.236800  0.317100  0.876000  1.0  0.0987
  H  H30  1  0.167800  0.378000  0.922400  1.0  0.1087
  H  H31  1  0.085000  0.201000  0.888500  1.0  0.1096
  H  H32  1  0.992600  0.128800  0.924600  1.0  0.1097
  H  H33  1  0.868300  0.033200  0.842200  1.0  0.1289
  H  H34  1  0.965400  0.104800  0.806000  1.0  0.1064
  H  H35  1  0.754800  0.965200  0.910600  1.0  0.3981
  H  H36  1  0.310300  0.862600  0.389900  1.0  0.0922
  H  H37  1  0.376700  0.801600  0.342300  1.0  0.1124
  H  H38  1  0.736800  0.817100  0.376000  1.0  0.0987
  H  H39  1  0.667800  0.878000  0.422400  1.0  0.1087
  H  H40  1  0.585000  0.701000  0.388500  1.0  0.1096
  H  H41  1  0.492600  0.628800  0.424600  1.0  0.1097
  H  H42  1  0.368300  0.533200  0.342200  1.0  0.1289
  H  H43  1  0.465400  0.604800  0.306000  1.0  0.1064
  H  H44  1  0.254800  0.465200  0.410600  1.0  0.3981
  H  H45  1  0.310300  0.137400  0.110100  1.0  0.0923
  H  H46  1  0.376700  0.198400  0.157700  1.0  0.1123
  H  H47  1  0.736800  0.182900  0.124000  1.0  0.0987
  H  H48  1  0.667800  0.122000  0.077600  1.0  0.1083
  H  H49  1  0.585000  0.299000  0.111500  1.0  0.1093
  H  H50  1  0.492600  0.371200  0.075400  1.0  0.1107
  H  H51  1  0.368300  0.466800  0.157800  1.0  0.1299
  H  H52  1  0.465400  0.395200  0.194000  1.0  0.1059
  H  H53  1  0.254800  0.534800  0.089400  1.0  0.3962
  H  H54  1  0.810300  0.637400  0.610100  1.0  0.0923
  H  H55  1  0.876700  0.698400  0.657700  1.0  0.1123
  H  H56  1  0.236800  0.682900  0.624000  1.0  0.0987
  H  H57  1  0.167800  0.622000  0.577600  1.0  0.1083
  H  H58  1  0.085000  0.799000  0.611500  1.0  0.1093
  H  H59  1  0.992600  0.871200  0.575400  1.0  0.1107
  H  H60  1  0.868300  0.966800  0.657800  1.0  0.1299
  H  H61  1  0.965400  0.895200  0.694000  1.0  0.1059
  H  H62  1  0.754800  0.034800  0.589400  1.0  0.3962
  H  H63  1  0.689700  0.862600  0.110100  1.0  0.0919
  H  H64  1  0.623300  0.801600  0.157700  1.0  0.1127
  H  H65  1  0.263200  0.817100  0.124000  1.0  0.0981
  H  H66  1  0.332200  0.878000  0.077600  1.0  0.1079
  H  H67  1  0.415000  0.701000  0.111500  1.0  0.1096
  H  H68  1  0.507400  0.628800  0.075400  1.0  0.1112
  H  H69  1  0.631700  0.533200  0.157800  1.0  0.1295
  H  H70  1  0.534600  0.604800  0.194000  1.0  0.1057
  H  H71  1  0.745200  0.465200  0.089400  1.0  0.398
  H  H72  1  0.189700  0.362600  0.610100  1.0  0.0919
  H  H73  1  0.123300  0.301600  0.657700  1.0  0.1127
  H  H74  1  0.763200  0.317100  0.624000  1.0  0.0981
  H  H75  1  0.832200  0.378000  0.577600  1.0  0.1079
  H  H76  1  0.915000  0.201000  0.611500  1.0  0.1096
  H  H77  1  0.007400  0.128800  0.575400  1.0  0.1112
  H  H78  1  0.131700  0.033200  0.657800  1.0  0.1295
  H  H79  1  0.034600  0.104800  0.694000  1.0  0.1057
  H  H80  1  0.245200  0.965200  0.589400  1.0  0.398
  H  H81  1  0.810300  0.362600  0.110100  1.0  0.0921
  H  H82  1  0.876700  0.301600  0.157700  1.0  0.1124
  H  H83  1  0.236800  0.317100  0.124000  1.0  0.0987
  H  H84  1  0.167800  0.378000  0.077600  1.0  0.1086
  H  H85  1  0.085000  0.201000  0.111500  1.0  0.1093
  H  H86  1  0.992600  0.128800  0.075400  1.0  0.1109
  H  H87  1  0.868300  0.033200  0.157800  1.0  0.1302
  H  H88  1  0.965400  0.104800  0.194000  1.0  0.106
  H  H89  1  0.754800  0.965200  0.089400  1.0  0.397
  H  H90  1  0.310300  0.862600  0.610100  1.0  0.0921
  H  H91  1  0.376700  0.801600  0.657700  1.0  0.1124
  H  H92  1  0.736800  0.817100  0.624000  1.0  0.0987
  H  H93  1  0.667800  0.878000  0.577600  1.0  0.1086
  H  H94  1  0.585000  0.701000  0.611500  1.0  0.1093
  H  H95  1  0.492600  0.628800  0.575400  1.0  0.1109
  H  H96  1  0.368300  0.533200  0.657800  1.0  0.1302
  H  H97  1  0.465400  0.604800  0.694000  1.0  0.106
  H  H98  1  0.254800  0.465200  0.589400  1.0  0.397
  H  H99  1  0.189700  0.637400  0.110100  1.0  0.092
  H  H100  1  0.123300  0.698400  0.157700  1.0  0.1129
  H  H101  1  0.763200  0.682900  0.124000  1.0  0.0982
  H  H102  1  0.832200  0.622000  0.077600  1.0  0.1081
  H  H103  1  0.915000  0.799000  0.111500  1.0  0.1095
  H  H104  1  0.007400  0.871200  0.075400  1.0  0.1108
  H  H105  1  0.131700  0.966800  0.157800  1.0  0.1289
  H  H106  1  0.034600  0.895200  0.194000  1.0  0.1055
  H  H107  1  0.245200  0.034800  0.089400  1.0  0.3971
  H  H108  1  0.689700  0.137400  0.610100  1.0  0.092
  H  H109  1  0.623300  0.198400  0.657700  1.0  0.1129
  H  H110  1  0.263200  0.182900  0.624000  1.0  0.0982
  H  H111  1  0.332200  0.122000  0.577600  1.0  0.1081
  H  H112  1  0.415000  0.299000  0.611500  1.0  0.1095
  H  H113  1  0.507400  0.371200  0.575400  1.0  0.1108
  H  H114  1  0.631700  0.466800  0.657800  1.0  0.1289
  H  H115  1  0.534600  0.395200  0.694000  1.0  0.1055
  H  H116  1  0.745200  0.534800  0.589400  1.0  0.3971
  H  H117  1  0.689700  0.862600  0.889900  1.0  0.092
  H  H118  1  0.623300  0.801600  0.842300  1.0  0.1125
  H  H119  1  0.263200  0.817100  0.876000  1.0  0.0982
  H  H120  1  0.332200  0.878000  0.922400  1.0  0.1085
  H  H121  1  0.415000  0.701000  0.888500  1.0  0.1098
  H  H122  1  0.507400  0.628800  0.924600  1.0  0.1098
  H  H123  1  0.631700  0.533200  0.842200  1.0  0.1297
  H  H124  1  0.534600  0.604800  0.806000  1.0  0.1064
  H  H125  1  0.745200  0.465200  0.910600  1.0  0.3994
  H  H126  1  0.189700  0.362600  0.389900  1.0  0.092
  H  H127  1  0.123300  0.301600  0.342300  1.0  0.1125
  H  H128  1  0.763200  0.317100  0.376000  1.0  0.0982
  H  H129  1  0.832200  0.378000  0.422400  1.0  0.1085
  H  H130  1  0.915000  0.201000  0.388500  1.0  0.1098
  H  H131  1  0.007400  0.128800  0.424600  1.0  0.1098
  H  H132  1  0.131700  0.033200  0.342200  1.0  0.1297
  H  H133  1  0.034600  0.104800  0.306000  1.0  0.1064
  H  H134  1  0.245200  0.965200  0.410600  1.0  0.3994
  H  H135  1  0.310300  0.137400  0.889900  1.0  0.0925
  H  H136  1  0.376700  0.198400  0.842300  1.0  0.1123
  H  H137  1  0.736800  0.182900  0.876000  1.0  0.0987
  H  H138  1  0.667800  0.122000  0.922400  1.0  0.109
  H  H139  1  0.585000  0.299000  0.888500  1.0  0.1098
  H  H140  1  0.492600  0.371200  0.924600  1.0  0.1099
  H  H141  1  0.368300  0.466800  0.842200  1.0  0.1292
  H  H142  1  0.465400  0.395200  0.806000  1.0  0.1066
  H  H143  1  0.254800  0.534800  0.910600  1.0  0.3973
  H  H144  1  0.810300  0.637400  0.389900  1.0  0.0925
  H  H145  1  0.876700  0.698400  0.342300  1.0  0.1123
  H  H146  1  0.236800  0.682900  0.376000  1.0  0.0987
  H  H147  1  0.167800  0.622000  0.422400  1.0  0.109
  H  H148  1  0.085000  0.799000  0.388500  1.0  0.1098
  H  H149  1  0.992600  0.871200  0.424600  1.0  0.1099
  H  H150  1  0.868300  0.966800  0.342200  1.0  0.1292
  H  H151  1  0.965400  0.895200  0.306000  1.0  0.1066
  H  H152  1  0.754800  0.034800  0.410600  1.0  0.3973
  C  C153  1  0.016900  0.625900  0.910300  1.0  -0.1198
  C  C154  1  0.103500  0.646900  0.887000  1.0  -0.0511
  C  C155  1  0.063700  0.683300  0.858200  1.0  -0.0864
  C  C156  1  0.935800  0.695900  0.854100  1.0  -0.0019
  C  C157  1  0.849800  0.673800  0.878300  1.0  -0.0755
  C  C158  1  0.891000  0.637700  0.906500  1.0  -0.0799
  C  C159  1  0.059500  0.587100  0.941100  1.0  0.7041
  C  C160  1  0.890800  0.734500  0.824800  1.0  -0.0926
  C  C161  1  0.905500  0.794300  0.819600  1.0  -0.0963
  C  C162  1  0.965200  0.840000  0.842800  1.0  0.0182
  C  C163  1  0.958000  0.832800  0.879000  1.0  -0.1097
  C  C164  1  0.014700  0.875600  0.900500  1.0  -0.0962
  C  C165  1  0.080700  0.923900  0.887400  1.0  -0.126
  C  C166  1  0.088400  0.932900  0.851500  1.0  -0.1016
  C  C167  1  0.029800  0.889800  0.830000  1.0  -0.0828
  C  C168  1  0.145200  0.967800  0.912400  1.0  0.6388
  C  C169  1  0.780500  0.752200  0.764700  1.0  -0.0251
  C  C170  1  0.516900  0.125900  0.410300  1.0  -0.1198
  C  C171  1  0.603500  0.146900  0.387000  1.0  -0.0511
  C  C172  1  0.563700  0.183300  0.358200  1.0  -0.0864
  C  C173  1  0.435800  0.195900  0.354100  1.0  -0.0019
  C  C174  1  0.349800  0.173800  0.378300  1.0  -0.0755
  C  C175  1  0.391000  0.137700  0.406500  1.0  -0.0799
  C  C176  1  0.559500  0.087100  0.441100  1.0  0.7041
  C  C177  1  0.390800  0.234500  0.324800  1.0  -0.0926
  C  C178  1  0.405500  0.294300  0.319600  1.0  -0.0963
  C  C179  1  0.465200  0.340000  0.342800  1.0  0.0182
  C  C180  1  0.458000  0.332800  0.379000  1.0  -0.1097
  C  C181  1  0.514700  0.375600  0.400500  1.0  -0.0962
  C  C182  1  0.580700  0.423900  0.387400  1.0  -0.126
  C  C183  1  0.588400  0.432900  0.351500  1.0  -0.1016
  C  C184  1  0.529800  0.389800  0.330000  1.0  -0.0828
  C  C185  1  0.645200  0.467800  0.412400  1.0  0.6388
  C  C186  1  0.280500  0.252200  0.264700  1.0  -0.0251
  C  C187  1  0.983100  0.374100  0.910300  1.0  -0.1205
  C  C188  1  0.896500  0.353100  0.887000  1.0  -0.0527
  C  C189  1  0.936300  0.316700  0.858200  1.0  -0.0843
  C  C190  1  0.064200  0.304100  0.854100  1.0  -0.003
  C  C191  1  0.150200  0.326200  0.878300  1.0  -0.0759
  C  C192  1  0.109000  0.362300  0.906500  1.0  -0.0798
  C  C193  1  0.940500  0.412900  0.941100  1.0  0.703
  C  C194  1  0.109200  0.265500  0.824800  1.0  -0.0913
  C  C195  1  0.094500  0.205700  0.819600  1.0  -0.097
  C  C196  1  0.034800  0.160000  0.842800  1.0  0.019
  C  C197  1  0.042000  0.167200  0.879000  1.0  -0.1095
  C  C198  1  0.985300  0.124400  0.900500  1.0  -0.0955
  C  C199  1  0.919300  0.076100  0.887400  1.0  -0.1257
  C  C200  1  0.911600  0.067100  0.851500  1.0  -0.1007
  C  C201  1  0.970200  0.110200  0.830000  1.0  -0.0823
  C  C202  1  0.854800  0.032200  0.912400  1.0  0.6384
  C  C203  1  0.219500  0.247800  0.764700  1.0  -0.0252
  C  C204  1  0.483100  0.874100  0.410300  1.0  -0.1205
  C  C205  1  0.396500  0.853100  0.387000  1.0  -0.0527
  C  C206  1  0.436300  0.816700  0.358200  1.0  -0.0843
  C  C207  1  0.564200  0.804100  0.354100  1.0  -0.003
  C  C208  1  0.650200  0.826200  0.378300  1.0  -0.0759
  C  C209  1  0.609000  0.862300  0.406500  1.0  -0.0798
  C  C210  1  0.440500  0.912900  0.441100  1.0  0.703
  C  C211  1  0.609200  0.765500  0.324800  1.0  -0.0913
  C  C212  1  0.594500  0.705700  0.319600  1.0  -0.097
  C  C213  1  0.534800  0.660000  0.342800  1.0  0.019
  C  C214  1  0.542000  0.667200  0.379000  1.0  -0.1095
  C  C215  1  0.485300  0.624400  0.400500  1.0  -0.0955
  C  C216  1  0.419300  0.576100  0.387400  1.0  -0.1257
  C  C217  1  0.411600  0.567100  0.351500  1.0  -0.1007
  C  C218  1  0.470200  0.610200  0.330000  1.0  -0.0823
  C  C219  1  0.354800  0.532200  0.412400  1.0  0.6384
  C  C220  1  0.719500  0.747800  0.264700  1.0  -0.0252
  C  C221  1  0.483100  0.125900  0.089700  1.0  -0.1207
  C  C222  1  0.396500  0.146900  0.113000  1.0  -0.0522
  C  C223  1  0.436300  0.183300  0.141800  1.0  -0.0841
  C  C224  1  0.564200  0.195900  0.145900  1.0  -0.005
  C  C225  1  0.650200  0.173800  0.121700  1.0  -0.0766
  C  C226  1  0.609000  0.137700  0.093500  1.0  -0.0795
  C  C227  1  0.440500  0.087100  0.058900  1.0  0.7069
  C  C228  1  0.609200  0.234500  0.175200  1.0  -0.0866
  C  C229  1  0.594500  0.294300  0.180400  1.0  -0.0889
  C  C230  1  0.534800  0.340000  0.157200  1.0  0.0182
  C  C231  1  0.542000  0.332800  0.121000  1.0  -0.1102
  C  C232  1  0.485300  0.375600  0.099500  1.0  -0.0958
  C  C233  1  0.419300  0.423900  0.112600  1.0  -0.126
  C  C234  1  0.411600  0.432900  0.148500  1.0  -0.1018
  C  C235  1  0.470200  0.389800  0.170000  1.0  -0.0874
  C  C236  1  0.354800  0.467800  0.087600  1.0  0.6387
  C  C237  1  0.719500  0.252200  0.235300  1.0  -0.0236
  C  C238  1  0.983100  0.625900  0.589700  1.0  -0.1207
  C  C239  1  0.896500  0.646900  0.613000  1.0  -0.0522
  C  C240  1  0.936300  0.683300  0.641800  1.0  -0.0841
  C  C241  1  0.064200  0.695900  0.645900  1.0  -0.005
  C  C242  1  0.150200  0.673800  0.621700  1.0  -0.0766
  C  C243  1  0.109000  0.637700  0.593500  1.0  -0.0795
  C  C244  1  0.940500  0.587100  0.558900  1.0  0.7069
  C  C245  1  0.109200  0.734500  0.675200  1.0  -0.0866
  C  C246  1  0.094500  0.794300  0.680400  1.0  -0.0889
  C  C247  1  0.034800  0.840000  0.657200  1.0  0.0182
  C  C248  1  0.042000  0.832800  0.621000  1.0  -0.1102
  C  C249  1  0.985300  0.875600  0.599500  1.0  -0.0958
  C  C250  1  0.919300  0.923900  0.612600  1.0  -0.126
  C  C251  1  0.911600  0.932900  0.648500  1.0  -0.1018
  C  C252  1  0.970200  0.889800  0.670000  1.0  -0.0874
  C  C253  1  0.854800  0.967800  0.587600  1.0  0.6387
  C  C254  1  0.219500  0.752200  0.735300  1.0  -0.0236
  C  C255  1  0.516900  0.874100  0.089700  1.0  -0.1194
  C  C256  1  0.603500  0.853100  0.113000  1.0  -0.0509
  C  C257  1  0.563700  0.816700  0.141800  1.0  -0.0849
  C  C258  1  0.435800  0.804100  0.145900  1.0  -0.004
  C  C259  1  0.349800  0.826200  0.121700  1.0  -0.0752
  C  C260  1  0.391000  0.862300  0.093500  1.0  -0.0802
  C  C261  1  0.559500  0.912900  0.058900  1.0  0.7061
  C  C262  1  0.390800  0.765500  0.175200  1.0  -0.0861
  C  C263  1  0.405500  0.705700  0.180400  1.0  -0.0903
  C  C264  1  0.465200  0.660000  0.157200  1.0  0.0181
  C  C265  1  0.458000  0.667200  0.121000  1.0  -0.108
  C  C266  1  0.514700  0.624400  0.099500  1.0  -0.0975
  C  C267  1  0.580700  0.576100  0.112600  1.0  -0.1258
  C  C268  1  0.588400  0.567100  0.148500  1.0  -0.1008
  C  C269  1  0.529800  0.610200  0.170000  1.0  -0.088
  C  C270  1  0.645200  0.532200  0.087600  1.0  0.6386
  C  C271  1  0.280500  0.747800  0.235300  1.0  -0.0235
  C  C272  1  0.016900  0.374100  0.589700  1.0  -0.1194
  C  C273  1  0.103500  0.353100  0.613000  1.0  -0.0509
  C  C274  1  0.063700  0.316700  0.641800  1.0  -0.0849
  C  C275  1  0.935800  0.304100  0.645900  1.0  -0.004
  C  C276  1  0.849800  0.326200  0.621700  1.0  -0.0752
  C  C277  1  0.891000  0.362300  0.593500  1.0  -0.0802
  C  C278  1  0.059500  0.412900  0.558900  1.0  0.7061
  C  C279  1  0.890800  0.265500  0.675200  1.0  -0.0861
  C  C280  1  0.905500  0.205700  0.680400  1.0  -0.0903
  C  C281  1  0.965200  0.160000  0.657200  1.0  0.0181
  C  C282  1  0.958000  0.167200  0.621000  1.0  -0.108
  C  C283  1  0.014700  0.124400  0.599500  1.0  -0.0975
  C  C284  1  0.080700  0.076100  0.612600  1.0  -0.1258
  C  C285  1  0.088400  0.067100  0.648500  1.0  -0.1008
  C  C286  1  0.029800  0.110200  0.670000  1.0  -0.088
  C  C287  1  0.145200  0.032200  0.587600  1.0  0.6386
  C  C288  1  0.780500  0.247800  0.735300  1.0  -0.0235
  C  C289  1  0.983100  0.374100  0.089700  1.0  -0.12
  C  C290  1  0.896500  0.353100  0.113000  1.0  -0.0523
  C  C291  1  0.936300  0.316700  0.141800  1.0  -0.0843
  C  C292  1  0.064200  0.304100  0.145900  1.0  -0.0049
  C  C293  1  0.150200  0.326200  0.121700  1.0  -0.0761
  C  C294  1  0.109000  0.362300  0.093500  1.0  -0.0803
  C  C295  1  0.940500  0.412900  0.058900  1.0  0.7031
  C  C296  1  0.109200  0.265500  0.175200  1.0  -0.0861
  C  C297  1  0.094500  0.205700  0.180400  1.0  -0.0895
  C  C298  1  0.034800  0.160000  0.157200  1.0  0.0177
  C  C299  1  0.042000  0.167200  0.121000  1.0  -0.1098
  C  C300  1  0.985300  0.124400  0.099500  1.0  -0.0977
  C  C301  1  0.919300  0.076100  0.112600  1.0  -0.1259
  C  C302  1  0.911600  0.067100  0.148500  1.0  -0.1018
  C  C303  1  0.970200  0.110200  0.170000  1.0  -0.088
  C  C304  1  0.854800  0.032200  0.087600  1.0  0.6391
  C  C305  1  0.219500  0.247800  0.235300  1.0  -0.0227
  C  C306  1  0.483100  0.874100  0.589700  1.0  -0.12
  C  C307  1  0.396500  0.853100  0.613000  1.0  -0.0523
  C  C308  1  0.436300  0.816700  0.641800  1.0  -0.0843
  C  C309  1  0.564200  0.804100  0.645900  1.0  -0.0049
  C  C310  1  0.650200  0.826200  0.621700  1.0  -0.0761
  C  C311  1  0.609000  0.862300  0.593500  1.0  -0.0803
  C  C312  1  0.440500  0.912900  0.558900  1.0  0.7031
  C  C313  1  0.609200  0.765500  0.675200  1.0  -0.0861
  C  C314  1  0.594500  0.705700  0.680400  1.0  -0.0895
  C  C315  1  0.534800  0.660000  0.657200  1.0  0.0177
  C  C316  1  0.542000  0.667200  0.621000  1.0  -0.1098
  C  C317  1  0.485300  0.624400  0.599500  1.0  -0.0977
  C  C318  1  0.419300  0.576100  0.612600  1.0  -0.1259
  C  C319  1  0.411600  0.567100  0.648500  1.0  -0.1018
  C  C320  1  0.470200  0.610200  0.670000  1.0  -0.088
  C  C321  1  0.354800  0.532200  0.587600  1.0  0.6391
  C  C322  1  0.719500  0.747800  0.735300  1.0  -0.0227
  C  C323  1  0.016900  0.625900  0.089700  1.0  -0.1199
  C  C324  1  0.103500  0.646900  0.113000  1.0  -0.051
  C  C325  1  0.063700  0.683300  0.141800  1.0  -0.085
  C  C326  1  0.935800  0.695900  0.145900  1.0  -0.0042
  C  C327  1  0.849800  0.673800  0.121700  1.0  -0.0758
  C  C328  1  0.891000  0.637700  0.093500  1.0  -0.0794
  C  C329  1  0.059500  0.587100  0.058900  1.0  0.7044
  C  C330  1  0.890800  0.734500  0.175200  1.0  -0.0866
  C  C331  1  0.905500  0.794300  0.180400  1.0  -0.0898
  C  C332  1  0.965200  0.840000  0.157200  1.0  0.0188
  C  C333  1  0.958000  0.832800  0.121000  1.0  -0.1086
  C  C334  1  0.014700  0.875600  0.099500  1.0  -0.0956
  C  C335  1  0.080700  0.923900  0.112600  1.0  -0.1259
  C  C336  1  0.088400  0.932900  0.148500  1.0  -0.1009
  C  C337  1  0.029800  0.889800  0.170000  1.0  -0.0876
  C  C338  1  0.145200  0.967800  0.087600  1.0  0.6385
  C  C339  1  0.780500  0.752200  0.235300  1.0  -0.0226
  C  C340  1  0.516900  0.125900  0.589700  1.0  -0.1199
  C  C341  1  0.603500  0.146900  0.613000  1.0  -0.051
  C  C342  1  0.563700  0.183300  0.641800  1.0  -0.085
  C  C343  1  0.435800  0.195900  0.645900  1.0  -0.0042
  C  C344  1  0.349800  0.173800  0.621700  1.0  -0.0758
  C  C345  1  0.391000  0.137700  0.593500  1.0  -0.0794
  C  C346  1  0.559500  0.087100  0.558900  1.0  0.7044
  C  C347  1  0.390800  0.234500  0.675200  1.0  -0.0866
  C  C348  1  0.405500  0.294300  0.680400  1.0  -0.0898
  C  C349  1  0.465200  0.340000  0.657200  1.0  0.0188
  C  C350  1  0.458000  0.332800  0.621000  1.0  -0.1086
  C  C351  1  0.514700  0.375600  0.599500  1.0  -0.0956
  C  C352  1  0.580700  0.423900  0.612600  1.0  -0.1259
  C  C353  1  0.588400  0.432900  0.648500  1.0  -0.1009
  C  C354  1  0.529800  0.389800  0.670000  1.0  -0.0876
  C  C355  1  0.645200  0.467800  0.587600  1.0  0.6385
  C  C356  1  0.280500  0.252200  0.735300  1.0  -0.0226
  C  C357  1  0.516900  0.874100  0.910300  1.0  -0.1201
  C  C358  1  0.603500  0.853100  0.887000  1.0  -0.051
  C  C359  1  0.563700  0.816700  0.858200  1.0  -0.0855
  C  C360  1  0.435800  0.804100  0.854100  1.0  -0.0024
  C  C361  1  0.349800  0.826200  0.878300  1.0  -0.0751
  C  C362  1  0.391000  0.862300  0.906500  1.0  -0.0805
  C  C363  1  0.559500  0.912900  0.941100  1.0  0.7009
  C  C364  1  0.390800  0.765500  0.824800  1.0  -0.0912
  C  C365  1  0.405500  0.705700  0.819600  1.0  -0.0969
  C  C366  1  0.465200  0.660000  0.842800  1.0  0.0195
  C  C367  1  0.458000  0.667200  0.879000  1.0  -0.1081
  C  C368  1  0.514700  0.624400  0.900500  1.0  -0.0958
  C  C369  1  0.580700  0.576100  0.887400  1.0  -0.1258
  C  C370  1  0.588400  0.567100  0.851500  1.0  -0.102
  C  C371  1  0.529800  0.610200  0.830000  1.0  -0.0825
  C  C372  1  0.645200  0.532200  0.912400  1.0  0.6388
  C  C373  1  0.280500  0.747800  0.764700  1.0  -0.0241
  C  C374  1  0.016900  0.374100  0.410300  1.0  -0.1201
  C  C375  1  0.103500  0.353100  0.387000  1.0  -0.051
  C  C376  1  0.063700  0.316700  0.358200  1.0  -0.0855
  C  C377  1  0.935800  0.304100  0.354100  1.0  -0.0024
  C  C378  1  0.849800  0.326200  0.378300  1.0  -0.0751
  C  C379  1  0.891000  0.362300  0.406500  1.0  -0.0805
  C  C380  1  0.059500  0.412900  0.441100  1.0  0.7009
  C  C381  1  0.890800  0.265500  0.324800  1.0  -0.0912
  C  C382  1  0.905500  0.205700  0.319600  1.0  -0.0969
  C  C383  1  0.965200  0.160000  0.342800  1.0  0.0195
  C  C384  1  0.958000  0.167200  0.379000  1.0  -0.1081
  C  C385  1  0.014700  0.124400  0.400500  1.0  -0.0958
  C  C386  1  0.080700  0.076100  0.387400  1.0  -0.1258
  C  C387  1  0.088400  0.067100  0.351500  1.0  -0.102
  C  C388  1  0.029800  0.110200  0.330000  1.0  -0.0825
  C  C389  1  0.145200  0.032200  0.412400  1.0  0.6388
  C  C390  1  0.780500  0.247800  0.264700  1.0  -0.0241
  C  C391  1  0.483100  0.125900  0.910300  1.0  -0.1202
  C  C392  1  0.396500  0.146900  0.887000  1.0  -0.0525
  C  C393  1  0.436300  0.183300  0.858200  1.0  -0.0852
  C  C394  1  0.564200  0.195900  0.854100  1.0  -0.0025
  C  C395  1  0.650200  0.173800  0.878300  1.0  -0.0763
  C  C396  1  0.609000  0.137700  0.906500  1.0  -0.0793
  C  C397  1  0.440500  0.087100  0.941100  1.0  0.7006
  C  C398  1  0.609200  0.234500  0.824800  1.0  -0.0923
  C  C399  1  0.594500  0.294300  0.819600  1.0  -0.0963
  C  C400  1  0.534800  0.340000  0.842800  1.0  0.0179
  C  C401  1  0.542000  0.332800  0.879000  1.0  -0.111
  C  C402  1  0.485300  0.375600  0.900500  1.0  -0.0961
  C  C403  1  0.419300  0.423900  0.887400  1.0  -0.1258
  C  C404  1  0.411600  0.432900  0.851500  1.0  -0.1001
  C  C405  1  0.470200  0.389800  0.830000  1.0  -0.0825
  C  C406  1  0.354800  0.467800  0.912400  1.0  0.6381
  C  C407  1  0.719500  0.252200  0.764700  1.0  -0.0244
  C  C408  1  0.983100  0.625900  0.410300  1.0  -0.1202
  C  C409  1  0.896500  0.646900  0.387000  1.0  -0.0525
  C  C410  1  0.936300  0.683300  0.358200  1.0  -0.0852
  C  C411  1  0.064200  0.695900  0.354100  1.0  -0.0025
  C  C412  1  0.150200  0.673800  0.378300  1.0  -0.0763
  C  C413  1  0.109000  0.637700  0.406500  1.0  -0.0793
  C  C414  1  0.940500  0.587100  0.441100  1.0  0.7006
  C  C415  1  0.109200  0.734500  0.324800  1.0  -0.0923
  C  C416  1  0.094500  0.794300  0.319600  1.0  -0.0963
  C  C417  1  0.034800  0.840000  0.342800  1.0  0.0179
  C  C418  1  0.042000  0.832800  0.379000  1.0  -0.111
  C  C419  1  0.985300  0.875600  0.400500  1.0  -0.0961
  C  C420  1  0.919300  0.923900  0.387400  1.0  -0.1258
  C  C421  1  0.911600  0.932900  0.351500  1.0  -0.1001
  C  C422  1  0.970200  0.889800  0.330000  1.0  -0.0825
  C  C423  1  0.854800  0.967800  0.412400  1.0  0.6381
  C  C424  1  0.219500  0.752200  0.264700  1.0  -0.0244
  S  S425  1  0.810800  0.690560  0.792710  1.0  0.0554
  S  S426  1  0.838100  0.824410  0.780740  1.0  0.0462
  S  S427  1  0.310800  0.190560  0.292710  1.0  0.0554
  S  S428  1  0.338100  0.324410  0.280740  1.0  0.0462
  S  S429  1  0.189200  0.309440  0.792710  1.0  0.0553
  S  S430  1  0.161900  0.175590  0.780740  1.0  0.0455
  S  S431  1  0.689200  0.809440  0.292710  1.0  0.0553
  S  S432  1  0.661900  0.675590  0.280740  1.0  0.0455
  S  S433  1  0.689200  0.190560  0.207290  1.0  0.0535
  S  S434  1  0.661900  0.324410  0.219260  1.0  0.0458
  S  S435  1  0.189200  0.690560  0.707290  1.0  0.0535
  S  S436  1  0.161900  0.824410  0.719260  1.0  0.0458
  S  S437  1  0.310800  0.809440  0.207290  1.0  0.0576
  S  S438  1  0.338100  0.675590  0.219260  1.0  0.0441
  S  S439  1  0.810800  0.309440  0.707290  1.0  0.0576
  S  S440  1  0.838100  0.175590  0.719260  1.0  0.0441
  S  S441  1  0.189200  0.309440  0.207290  1.0  0.0551
  S  S442  1  0.161900  0.175590  0.219260  1.0  0.0434
  S  S443  1  0.689200  0.809440  0.707290  1.0  0.0551
  S  S444  1  0.661900  0.675590  0.719260  1.0  0.0434
  S  S445  1  0.810800  0.690560  0.207290  1.0  0.0551
  S  S446  1  0.838100  0.824410  0.219260  1.0  0.0456
  S  S447  1  0.310800  0.190560  0.707290  1.0  0.0551
  S  S448  1  0.338100  0.324410  0.719260  1.0  0.0456
  S  S449  1  0.310800  0.809440  0.792710  1.0  0.0565
  S  S450  1  0.338100  0.675590  0.780740  1.0  0.0455
  S  S451  1  0.810800  0.309440  0.292710  1.0  0.0565
  S  S452  1  0.838100  0.175590  0.280740  1.0  0.0455
  S  S453  1  0.689200  0.190560  0.792710  1.0  0.0547
  S  S454  1  0.661900  0.324410  0.780740  1.0  0.0448
  S  S455  1  0.189200  0.690560  0.292710  1.0  0.0547
  S  S456  1  0.161900  0.824410  0.280740  1.0  0.0448
  O  O457  1  0.977300  0.568200  0.961800  1.0  -0.6744
  O  O458  1  0.175900  0.573000  0.944000  1.0  -0.6683
  O  O459  1  0.135300  0.961900  0.943800  1.0  -0.5847
  O  O460  1  0.210900  0.012300  0.896100  1.0  -0.5015
  O  O461  1  0.477300  0.068200  0.461800  1.0  -0.6744
  O  O462  1  0.675900  0.073000  0.444000  1.0  -0.6683
  O  O463  1  0.635300  0.461900  0.443800  1.0  -0.5847
  O  O464  1  0.710900  0.512300  0.396100  1.0  -0.5015
  O  O465  1  0.022700  0.431800  0.961800  1.0  -0.6749
  O  O466  1  0.824100  0.427000  0.944000  1.0  -0.6669
  O  O467  1  0.864700  0.038100  0.943800  1.0  -0.585
  O  O468  1  0.789100  0.987700  0.896100  1.0  -0.4999
  O  O469  1  0.522700  0.931800  0.461800  1.0  -0.6749
  O  O470  1  0.324100  0.927000  0.444000  1.0  -0.6669
  O  O471  1  0.364700  0.538100  0.443800  1.0  -0.585
  O  O472  1  0.289100  0.487700  0.396100  1.0  -0.4999
  O  O473  1  0.522700  0.068200  0.038200  1.0  -0.6733
  O  O474  1  0.324100  0.073000  0.056000  1.0  -0.6666
  O  O475  1  0.364700  0.461900  0.056200  1.0  -0.5794
  O  O476  1  0.289100  0.512300  0.103900  1.0  -0.5004
  O  O477  1  0.022700  0.568200  0.538200  1.0  -0.6733
  O  O478  1  0.824100  0.573000  0.556000  1.0  -0.6666
  O  O479  1  0.864700  0.961900  0.556200  1.0  -0.5794
  O  O480  1  0.789100  0.012300  0.603900  1.0  -0.5004
  O  O481  1  0.477300  0.931800  0.038200  1.0  -0.6743
  O  O482  1  0.675900  0.927000  0.056000  1.0  -0.6685
  O  O483  1  0.635300  0.538100  0.056200  1.0  -0.5792
  O  O484  1  0.710900  0.487700  0.103900  1.0  -0.5016
  O  O485  1  0.977300  0.431800  0.538200  1.0  -0.6743
  O  O486  1  0.175900  0.427000  0.556000  1.0  -0.6685
  O  O487  1  0.135300  0.038100  0.556200  1.0  -0.5792
  O  O488  1  0.210900  0.987700  0.603900  1.0  -0.5016
  O  O489  1  0.022700  0.431800  0.038200  1.0  -0.6745
  O  O490  1  0.824100  0.427000  0.056000  1.0  -0.6666
  O  O491  1  0.864700  0.038100  0.056200  1.0  -0.5792
  O  O492  1  0.789100  0.987700  0.103900  1.0  -0.5001
  O  O493  1  0.522700  0.931800  0.538200  1.0  -0.6745
  O  O494  1  0.324100  0.927000  0.556000  1.0  -0.6666
  O  O495  1  0.364700  0.538100  0.556200  1.0  -0.5792
  O  O496  1  0.289100  0.487700  0.603900  1.0  -0.5001
  O  O497  1  0.977300  0.568200  0.038200  1.0  -0.6733
  O  O498  1  0.175900  0.573000  0.056000  1.0  -0.6692
  O  O499  1  0.135300  0.961900  0.056200  1.0  -0.5793
  O  O500  1  0.210900  0.012300  0.103900  1.0  -0.502
  O  O501  1  0.477300  0.068200  0.538200  1.0  -0.6733
  O  O502  1  0.675900  0.073000  0.556000  1.0  -0.6692
  O  O503  1  0.635300  0.461900  0.556200  1.0  -0.5793
  O  O504  1  0.710900  0.512300  0.603900  1.0  -0.502
  O  O505  1  0.477300  0.931800  0.961800  1.0  -0.6744
  O  O506  1  0.675900  0.927000  0.944000  1.0  -0.6683
  O  O507  1  0.635300  0.538100  0.943800  1.0  -0.5853
  O  O508  1  0.710900  0.487700  0.896100  1.0  -0.5015
  O  O509  1  0.977300  0.431800  0.461800  1.0  -0.6744
  O  O510  1  0.175900  0.427000  0.444000  1.0  -0.6683
  O  O511  1  0.135300  0.038100  0.443800  1.0  -0.5853
  O  O512  1  0.210900  0.987700  0.396100  1.0  -0.5015
  O  O513  1  0.522700  0.068200  0.961800  1.0  -0.6745
  O  O514  1  0.324100  0.073000  0.944000  1.0  -0.6667
  O  O515  1  0.364700  0.461900  0.943800  1.0  -0.5846
  O  O516  1  0.289100  0.512300  0.896100  1.0  -0.4999
  O  O517  1  0.022700  0.568200  0.461800  1.0  -0.6745
  O  O518  1  0.824100  0.573000  0.444000  1.0  -0.6667
  O  O519  1  0.864700  0.961900  0.443800  1.0  -0.5846
  O  O520  1  0.789100  0.012300  0.396100  1.0  -0.4999
