# generated using pymatgen
data_CdH24C40S4NO8
_symmetry_space_group_name_H-M   'P 1'
_cell_length_a   9.00500000
_cell_length_b   12.57300000
_cell_length_c   19.67500000
_cell_angle_alpha   82.31300000
_cell_angle_beta   79.25900000
_cell_angle_gamma   86.74900000
_symmetry_Int_Tables_number   1
_chemical_formula_structural   CdH24C40S4NO8
_chemical_formula_sum   'Cd2 H48 C80 S8 N2 O16'
_cell_volume   2167.74939343
_cell_formula_units_Z   2
loop_
 _symmetry_equiv_pos_site_id
 _symmetry_equiv_pos_as_xyz
  1  'x, y, z'
loop_
 _atom_site_type_symbol
 _atom_site_label
 _atom_site_symmetry_multiplicity
 _atom_site_fract_x
 _atom_site_fract_y
 _atom_site_fract_z
 _atom_site_occupancy
 _atom_site_charge
  Cd  Cd1  1  0.623470  0.659290  0.017390  1.0  1.0348
  Cd  Cd2  1  0.376530  0.340710  0.982610  1.0  1.0343
  H  H3  1  0.025700  0.776600  0.773000  1.0  0.1137
  H  H4  1  0.016700  0.889300  0.673000  1.0  0.1071
  H  H5  1  0.700100  0.073000  0.775300  1.0  0.1076
  H  H6  1  0.706600  0.959600  0.876200  1.0  0.0947
  H  H7  1  0.038800  0.153900  0.727700  1.0  0.1032
  H  H8  1  0.081700  0.270400  0.802600  1.0  0.1095
  H  H9  1  0.783800  0.482400  0.729700  1.0  0.112
  H  H10  1  0.734300  0.366000  0.657600  1.0  0.1183
  H  H11  1  0.529900  0.868800  0.381600  1.0  0.1153
  H  H12  1  0.506700  0.744600  0.308600  1.0  0.1203
  H  H13  1  0.714200  0.941500  0.147000  1.0  0.0931
  H  H14  1  0.731100  0.066800  0.219200  1.0  0.1205
  H  H15  1  0.422200  0.156300  0.276600  1.0  0.1062
  H  H16  1  0.358900  0.269600  0.183800  1.0  0.0902
  H  H17  1  0.695300  0.458900  0.190400  1.0  0.0985
  H  H18  1  0.764300  0.342200  0.281200  1.0  0.1047
  H  H19  1  0.264700  0.640000  0.033700  1.0  0.0774
  H  H20  1  0.044100  0.739900  0.038500  1.0  0.1384
  H  H21  1  0.291600  0.001400  0.992900  1.0  0.1187
  H  H22  1  0.505000  0.893200  0.992400  1.0  0.0819
  H  H23  1  0.914000  0.910800  0.025400  1.0  0.0821
  H  H24  1  0.982300  0.980000  0.071800  1.0  0.0969
  H  H25  1  0.936700  0.598500  0.836400  1.0  0.4158
  H  H26  1  0.461300  0.653600  0.194100  1.0  0.3735
  H  H27  1  0.974300  0.223400  0.227000  1.0  0.1146
  H  H28  1  0.983300  0.110700  0.327000  1.0  0.1069
  H  H29  1  0.299900  0.927000  0.224700  1.0  0.1075
  H  H30  1  0.293400  0.040400  0.123800  1.0  0.0953
  H  H31  1  0.961200  0.846100  0.272300  1.0  0.1037
  H  H32  1  0.918300  0.729600  0.197400  1.0  0.1092
  H  H33  1  0.216200  0.517600  0.270300  1.0  0.1116
  H  H34  1  0.265700  0.634000  0.342400  1.0  0.118
  H  H35  1  0.470100  0.131200  0.618400  1.0  0.1156
  H  H36  1  0.493300  0.255400  0.691400  1.0  0.1205
  H  H37  1  0.285800  0.058500  0.853000  1.0  0.0926
  H  H38  1  0.268900  0.933200  0.780800  1.0  0.1198
  H  H39  1  0.577800  0.843700  0.723400  1.0  0.1067
  H  H40  1  0.641100  0.730400  0.816200  1.0  0.0901
  H  H41  1  0.304700  0.541100  0.809600  1.0  0.0986
  H  H42  1  0.235700  0.657800  0.718800  1.0  0.1051
  H  H43  1  0.735300  0.360000  0.966300  1.0  0.0749
  H  H44  1  0.955900  0.260100  0.961500  1.0  0.1389
  H  H45  1  0.708400  0.998600  0.007100  1.0  0.1184
  H  H46  1  0.495000  0.106800  0.007600  1.0  0.0818
  H  H47  1  0.086000  0.089200  0.974600  1.0  0.0822
  H  H48  1  0.017700  0.020000  0.928200  1.0  0.0965
  H  H49  1  0.063300  0.401500  0.163600  1.0  0.4156
  H  H50  1  0.538700  0.346400  0.805900  1.0  0.3736
  C  C51  1  0.851200  0.773600  0.899600  1.0  0.6846
  C  C52  1  0.863400  0.853700  0.835600  1.0  -0.0894
  C  C53  1  0.958700  0.835700  0.773700  1.0  -0.1491
  C  C54  1  0.954400  0.904100  0.714200  1.0  -0.0884
  C  C55  1  0.860200  0.994800  0.713300  1.0  0.0522
  C  C56  1  0.766200  0.013400  0.774700  1.0  -0.1207
  C  C57  1  0.769000  0.944700  0.835100  1.0  -0.0269
  C  C58  1  0.850800  0.064500  0.648000  1.0  -0.1334
  C  C59  1  0.850400  0.172300  0.638000  1.0  -0.1444
  C  C60  1  0.971400  0.462400  0.821200  1.0  0.6354
  C  C61  1  0.985900  0.219600  0.728600  1.0  -0.0111
  C  C62  1  0.012600  0.289300  0.773000  1.0  -0.0381
  C  C63  1  0.935100  0.388200  0.773000  1.0  -0.1517
  C  C64  1  0.833900  0.415600  0.729700  1.0  -0.0241
  C  C65  1  0.804900  0.346600  0.686400  1.0  -0.0689
  C  C66  1  0.881000  0.246400  0.685200  1.0  -0.0197
  C  C67  1  0.781000  0.114300  0.525800  1.0  0.0053
  C  C68  1  0.736000  0.111500  0.466500  1.0  0.0014
  C  C69  1  0.651300  0.056500  0.356400  1.0  -0.1226
  C  C70  1  0.631700  0.981700  0.307800  1.0  0.0224
  C  C71  1  0.566000  0.883900  0.334000  1.0  -0.1313
  C  C72  1  0.553500  0.809000  0.290600  1.0  -0.077
  C  C73  1  0.610800  0.830000  0.220000  1.0  -0.1403
  C  C74  1  0.676200  0.926800  0.194400  1.0  -0.0447
  C  C75  1  0.686600  0.001800  0.237600  1.0  -0.113
  C  C76  1  0.643100  0.164800  0.347100  1.0  -0.1053
  C  C77  1  0.602900  0.236100  0.288000  1.0  0.0326
  C  C78  1  0.479200  0.216400  0.258700  1.0  -0.0984
  C  C79  1  0.440300  0.284900  0.203400  1.0  -0.0409
  C  C80  1  0.521000  0.375500  0.177000  1.0  -0.1243
  C  C81  1  0.641200  0.397000  0.207100  1.0  -0.0235
  C  C82  1  0.682300  0.327100  0.262000  1.0  -0.1477
  C  C83  1  0.480800  0.448700  0.117300  1.0  0.7234
  C  C84  1  0.601600  0.749800  0.172200  1.0  0.6752
  C  C85  1  0.269500  0.714400  0.026400  1.0  0.1945
  C  C86  1  0.136400  0.773400  0.029400  1.0  -0.2241
  C  C87  1  0.142900  0.884900  0.018300  1.0  0.1387
  C  C88  1  0.282600  0.927300  0.002900  1.0  -0.1807
  C  C89  1  0.410900  0.861900  0.001900  1.0  0.167
  C  C90  1  0.998600  0.954500  0.026600  1.0  -0.1735
  C  C91  1  0.148800  0.226400  0.100400  1.0  0.6879
  C  C92  1  0.136600  0.146300  0.164400  1.0  -0.0908
  C  C93  1  0.041300  0.164300  0.226300  1.0  -0.1495
  C  C94  1  0.045600  0.095900  0.285800  1.0  -0.0875
  C  C95  1  0.139800  0.005200  0.286700  1.0  0.0496
  C  C96  1  0.233800  0.986600  0.225300  1.0  -0.122
  C  C97  1  0.231000  0.055300  0.164900  1.0  -0.0278
  C  C98  1  0.149200  0.935500  0.352000  1.0  -0.1245
  C  C99  1  0.149600  0.827700  0.362000  1.0  -0.1354
  C  C100  1  0.028600  0.537600  0.178800  1.0  0.6364
  C  C101  1  0.014100  0.780400  0.271400  1.0  -0.0092
  C  C102  1  0.987400  0.710700  0.227000  1.0  -0.0375
  C  C103  1  0.064900  0.611800  0.227000  1.0  -0.1519
  C  C104  1  0.166100  0.584400  0.270300  1.0  -0.0252
  C  C105  1  0.195100  0.653400  0.313600  1.0  -0.0693
  C  C106  1  0.119000  0.753600  0.314800  1.0  -0.0216
  C  C107  1  0.219000  0.885700  0.474200  1.0  0.0075
  C  C108  1  0.264000  0.888500  0.533500  1.0  -0.0018
  C  C109  1  0.348700  0.943500  0.643600  1.0  -0.1292
  C  C110  1  0.368300  0.018300  0.692200  1.0  0.0224
  C  C111  1  0.434000  0.116100  0.666000  1.0  -0.1294
  C  C112  1  0.446500  0.191000  0.709400  1.0  -0.0793
  C  C113  1  0.389200  0.170000  0.780000  1.0  -0.1401
  C  C114  1  0.323800  0.073200  0.805600  1.0  -0.0434
  C  C115  1  0.313400  0.998200  0.762400  1.0  -0.1129
  C  C116  1  0.356900  0.835200  0.652900  1.0  -0.1153
  C  C117  1  0.397100  0.763900  0.712000  1.0  0.0342
  C  C118  1  0.520800  0.783600  0.741300  1.0  -0.101
  C  C119  1  0.559700  0.715100  0.796600  1.0  -0.0432
  C  C120  1  0.479000  0.624500  0.823000  1.0  -0.124
  C  C121  1  0.358800  0.603000  0.792900  1.0  -0.0237
  C  C122  1  0.317700  0.672900  0.738000  1.0  -0.1481
  C  C123  1  0.519200  0.551300  0.882700  1.0  0.7223
  C  C124  1  0.398400  0.250200  0.827800  1.0  0.6748
  C  C125  1  0.730500  0.285600  0.973600  1.0  0.1957
  C  C126  1  0.863600  0.226600  0.970600  1.0  -0.2231
  C  C127  1  0.857100  0.115100  0.981700  1.0  0.1378
  C  C128  1  0.717400  0.072700  0.997100  1.0  -0.1816
  C  C129  1  0.589100  0.138100  0.998100  1.0  0.1671
  C  C130  1  0.001400  0.045500  0.973400  1.0  -0.1723
  S  S131  1  0.697200  0.228990  0.412160  1.0  0.0442
  S  S132  1  0.708100  0.994260  0.433360  1.0  0.0336
  S  S133  1  0.821000  0.998330  0.579840  1.0  0.0766
  S  S134  1  0.816000  0.233450  0.555840  1.0  0.0762
  S  S135  1  0.302800  0.771010  0.587840  1.0  0.044
  S  S136  1  0.291900  0.005740  0.566640  1.0  0.0341
  S  S137  1  0.179000  0.001670  0.420160  1.0  0.0753
  S  S138  1  0.184000  0.766550  0.444160  1.0  0.0743
  N  N139  1  0.404500  0.756700  0.013900  1.0  -0.3158
  N  N140  1  0.595500  0.243300  0.986100  1.0  -0.319
  O  O141  1  0.938000  0.689600  0.897200  1.0  -0.6041
  O  O142  1  0.760000  0.793800  0.952700  1.0  -0.5783
  O  O143  1  0.913300  0.559900  0.807900  1.0  -0.4985
  O  O144  1  0.045000  0.435600  0.865300  1.0  -0.4901
  O  O145  1  0.545200  0.659400  0.203500  1.0  -0.5059
  O  O146  1  0.648900  0.765600  0.109700  1.0  -0.581
  O  O147  1  0.411300  0.416100  0.076600  1.0  -0.6798
  O  O148  1  0.523100  0.544900  0.110100  1.0  -0.6254
  O  O149  1  0.062000  0.310400  0.102800  1.0  -0.6039
  O  O150  1  0.240000  0.206200  0.047300  1.0  -0.58
  O  O151  1  0.086700  0.440100  0.192100  1.0  -0.4943
  O  O152  1  0.955000  0.564400  0.134700  1.0  -0.4897
  O  O153  1  0.454800  0.340600  0.796500  1.0  -0.5055
  O  O154  1  0.351100  0.234400  0.890300  1.0  -0.5805
  O  O155  1  0.588700  0.583900  0.923400  1.0  -0.6805
  O  O156  1  0.476900  0.455100  0.889900  1.0  -0.6269
