# generated using pymatgen
data_Cd2H58C59(N3O4)2
_symmetry_space_group_name_H-M   'P 1'
_cell_length_a   12.67390000
_cell_length_b   12.67390000
_cell_length_c   23.30700000
_cell_angle_alpha   83.00250000
_cell_angle_beta   83.00250000
_cell_angle_gamma   62.80560000
_symmetry_Int_Tables_number   1
_chemical_formula_structural   Cd2H58C59(N3O4)2
_chemical_formula_sum   'Cd4 H116 C118 N12 O16'
_cell_volume   3295.82628523
_cell_formula_units_Z   2
loop_
 _symmetry_equiv_pos_site_id
 _symmetry_equiv_pos_as_xyz
  1  'x, y, z'
loop_
 _atom_site_type_symbol
 _atom_site_label
 _atom_site_symmetry_multiplicity
 _atom_site_fract_x
 _atom_site_fract_y
 _atom_site_fract_z
 _atom_site_occupancy
 _atom_site_charge
  Cd  Cd1  1  0.350460  0.232270  0.856090  1.0  0.9097
  Cd  Cd2  1  0.767730  0.649540  0.643910  1.0  0.9157
  Cd  Cd3  1  0.649540  0.767730  0.143910  1.0  0.916
  Cd  Cd4  1  0.232270  0.350460  0.356090  1.0  0.9102
  H  H5  1  0.498700  0.429500  0.711200  1.0  0.1328
  H  H6  1  0.496300  0.332700  0.676300  1.0  0.1176
  H  H7  1  0.380900  0.633100  0.681400  1.0  0.1113
  H  H8  1  0.240200  0.777200  0.623500  1.0  0.0979
  H  H9  1  0.129700  0.727300  0.569600  1.0  0.1129
  H  H10  1  0.301000  0.389000  0.631600  1.0  0.1139
  H  H11  1  0.164600  0.436800  0.558400  1.0  0.1257
  H  H12  1  0.120700  0.561100  0.523000  1.0  0.1172
  H  H13  1  0.152300  0.515900  0.867800  1.0  0.0897
  H  H14  1  0.061200  0.653800  0.935600  1.0  0.1299
  H  H15  1  0.184700  0.390500  0.059600  1.0  0.1362
  H  H16  1  0.273100  0.259900  0.988700  1.0  0.0798
  H  H17  1  0.020100  0.599700  0.082500  1.0  0.0945
  H  H18  1  0.007700  0.703100  0.035000  1.0  0.0924
  H  H19  1  0.127000  0.691800  0.109300  1.0  0.0656
  H  H20  1  0.218500  0.563300  0.093200  1.0  0.0762
  H  H21  1  0.169600  0.768000  0.017200  1.0  0.0853
  H  H22  1  0.263700  0.639100  0.002600  1.0  0.0901
  H  H23  1  0.223300  0.879500  0.078600  1.0  0.131
  H  H24  1  0.369200  0.899000  0.117600  1.0  0.0739
  H  H25  1  0.592300  0.571900  0.094600  1.0  0.0631
  H  H26  1  0.452700  0.542700  0.054300  1.0  0.1245
  H  H27  1  0.133000  0.376800  0.775900  1.0  0.0819
  H  H28  1  0.965200  0.385000  0.746700  1.0  0.1296
  H  H29  1  0.048600  0.066400  0.828100  1.0  0.1155
  H  H30  1  0.212900  0.068100  0.857700  1.0  0.0628
  H  H31  1  0.811200  0.260800  0.799400  1.0  0.0918
  H  H32  1  0.843400  0.293800  0.735000  1.0  0.097
  H  H33  1  0.906600  0.060600  0.782200  1.0  0.0721
  H  H34  1  0.570500  0.501300  0.788800  1.0  0.1326
  H  H35  1  0.667300  0.503700  0.823700  1.0  0.1175
  H  H36  1  0.366900  0.619100  0.818600  1.0  0.1115
  H  H37  1  0.222800  0.759800  0.876500  1.0  0.0934
  H  H38  1  0.272700  0.870300  0.930400  1.0  0.1119
  H  H39  1  0.611000  0.699000  0.868400  1.0  0.1143
  H  H40  1  0.563200  0.835400  0.941600  1.0  0.1258
  H  H41  1  0.438900  0.879300  0.977000  1.0  0.1175
  H  H42  1  0.484100  0.847700  0.632200  1.0  0.0897
  H  H43  1  0.346200  0.938800  0.564400  1.0  0.1309
  H  H44  1  0.609500  0.815300  0.440400  1.0  0.1367
  H  H45  1  0.740100  0.726900  0.511300  1.0  0.0799
  H  H46  1  0.400300  0.979900  0.417500  1.0  0.0945
  H  H47  1  0.296900  0.992300  0.465000  1.0  0.0913
  H  H48  1  0.308200  0.873000  0.390700  1.0  0.0661
  H  H49  1  0.436700  0.781500  0.406800  1.0  0.074
  H  H50  1  0.232000  0.830400  0.482800  1.0  0.0858
  H  H51  1  0.360900  0.736300  0.497400  1.0  0.091
  H  H52  1  0.120500  0.776700  0.421400  1.0  0.1321
  H  H53  1  0.101000  0.630800  0.382400  1.0  0.074
  H  H54  1  0.428100  0.407700  0.405400  1.0  0.0629
  H  H55  1  0.457300  0.547300  0.445700  1.0  0.1238
  H  H56  1  0.623200  0.867000  0.724100  1.0  0.0828
  H  H57  1  0.615000  0.034800  0.753300  1.0  0.1306
  H  H58  1  0.933600  0.951400  0.671900  1.0  0.1146
  H  H59  1  0.931900  0.787100  0.642300  1.0  0.0616
  H  H60  1  0.739200  0.188800  0.700600  1.0  0.0916
  H  H61  1  0.706200  0.156600  0.765000  1.0  0.0972
  H  H62  1  0.939400  0.093400  0.717800  1.0  0.0753
  H  H63  1  0.501300  0.570500  0.288800  1.0  0.1335
  H  H64  1  0.503700  0.667300  0.323700  1.0  0.119
  H  H65  1  0.619100  0.366900  0.318600  1.0  0.1115
  H  H66  1  0.759800  0.222800  0.376500  1.0  0.0984
  H  H67  1  0.870300  0.272700  0.430400  1.0  0.1128
  H  H68  1  0.699000  0.611000  0.368400  1.0  0.1128
  H  H69  1  0.835400  0.563200  0.441600  1.0  0.1253
  H  H70  1  0.879300  0.438900  0.477000  1.0  0.1176
  H  H71  1  0.847700  0.484100  0.132200  1.0  0.0891
  H  H72  1  0.938800  0.346200  0.064400  1.0  0.1308
  H  H73  1  0.815300  0.609500  0.940400  1.0  0.1368
  H  H74  1  0.726900  0.740100  0.011300  1.0  0.0797
  H  H75  1  0.979900  0.400300  0.917500  1.0  0.0946
  H  H76  1  0.992300  0.296900  0.965000  1.0  0.0932
  H  H77  1  0.873000  0.308200  0.890700  1.0  0.0655
  H  H78  1  0.781500  0.436700  0.906800  1.0  0.0755
  H  H79  1  0.830400  0.232000  0.982800  1.0  0.0873
  H  H80  1  0.736300  0.360900  0.997400  1.0  0.0908
  H  H81  1  0.776700  0.120500  0.921400  1.0  0.1315
  H  H82  1  0.630800  0.101000  0.882400  1.0  0.0737
  H  H83  1  0.407700  0.428100  0.905400  1.0  0.0629
  H  H84  1  0.547300  0.457300  0.945700  1.0  0.1238
  H  H85  1  0.867000  0.623200  0.224100  1.0  0.0816
  H  H86  1  0.034800  0.615000  0.253300  1.0  0.1298
  H  H87  1  0.951400  0.933600  0.171900  1.0  0.1155
  H  H88  1  0.787100  0.931900  0.142300  1.0  0.0631
  H  H89  1  0.188800  0.739200  0.200600  1.0  0.0922
  H  H90  1  0.156600  0.706200  0.265000  1.0  0.0961
  H  H91  1  0.093400  0.939400  0.217800  1.0  0.0718
  H  H92  1  0.429500  0.498700  0.211200  1.0  0.1316
  H  H93  1  0.332700  0.496300  0.176300  1.0  0.1201
  H  H94  1  0.633100  0.380900  0.181400  1.0  0.1112
  H  H95  1  0.777200  0.240200  0.123500  1.0  0.0941
  H  H96  1  0.727300  0.129700  0.069600  1.0  0.1122
  H  H97  1  0.389000  0.301000  0.131600  1.0  0.113
  H  H98  1  0.436800  0.164600  0.058400  1.0  0.1252
  H  H99  1  0.561100  0.120700  0.023000  1.0  0.1167
  H  H100  1  0.515900  0.152300  0.367800  1.0  0.0897
  H  H101  1  0.653800  0.061200  0.435600  1.0  0.1306
  H  H102  1  0.390500  0.184700  0.559600  1.0  0.1355
  H  H103  1  0.259900  0.273100  0.488700  1.0  0.0792
  H  H104  1  0.599700  0.020100  0.582500  1.0  0.0944
  H  H105  1  0.703100  0.007700  0.535000  1.0  0.0915
  H  H106  1  0.691800  0.127000  0.609300  1.0  0.0669
  H  H107  1  0.563300  0.218500  0.593200  1.0  0.0758
  H  H108  1  0.768000  0.169600  0.517200  1.0  0.086
  H  H109  1  0.639100  0.263700  0.502600  1.0  0.0902
  H  H110  1  0.879500  0.223300  0.578600  1.0  0.1329
  H  H111  1  0.899000  0.369200  0.617600  1.0  0.0746
  H  H112  1  0.571900  0.592300  0.594600  1.0  0.0628
  H  H113  1  0.542700  0.452700  0.554300  1.0  0.1239
  H  H114  1  0.376800  0.133000  0.275900  1.0  0.0826
  H  H115  1  0.385000  0.965200  0.246700  1.0  0.1309
  H  H116  1  0.066400  0.048600  0.328100  1.0  0.115
  H  H117  1  0.068100  0.212900  0.357700  1.0  0.0619
  H  H118  1  0.260800  0.811200  0.299400  1.0  0.0921
  H  H119  1  0.293800  0.843400  0.235000  1.0  0.0971
  H  H120  1  0.060600  0.906600  0.282200  1.0  0.0677
  C  C121  1  0.395420  0.354420  0.753330  1.0  0.7264
  C  C122  1  0.447300  0.399300  0.699520  1.0  -0.3774
  C  C123  1  0.356000  0.495600  0.662470  1.0  0.146
  C  C124  1  0.336930  0.612330  0.659840  1.0  -0.1541
  C  C125  1  0.252500  0.698700  0.625200  1.0  -0.08
  C  C126  1  0.186000  0.668800  0.592800  1.0  -0.168
  C  C127  1  0.203280  0.553280  0.595170  1.0  0.1323
  C  C128  1  0.288660  0.467460  0.630010  1.0  -0.2042
  C  C129  1  0.127000  0.522000  0.561810  1.0  -0.3582
  C  C130  1  0.002850  0.560850  0.592490  1.0  0.7205
  C  C131  1  0.159990  0.490390  0.906870  1.0  0.1787
  C  C132  1  0.104820  0.574020  0.947500  1.0  -0.243
  C  C133  1  0.114980  0.538380  0.005990  1.0  0.1605
  C  C134  1  0.177860  0.418660  0.020850  1.0  -0.2478
  C  C135  1  0.230700  0.340500  0.977770  1.0  0.1765
  C  C136  1  0.063370  0.626570  0.051900  1.0  -0.1972
  C  C137  1  0.161830  0.640430  0.077570  1.0  -0.1023
  C  C138  1  0.226360  0.691760  0.033730  1.0  -0.1869
  C  C139  1  0.320860  0.708460  0.060520  1.0  0.1585
  C  C140  1  0.298300  0.815100  0.080800  1.0  -0.2333
  C  C141  1  0.386890  0.826090  0.104230  1.0  0.1811
  C  C142  1  0.517130  0.635330  0.090800  1.0  0.1848
  C  C143  1  0.433190  0.616990  0.066600  1.0  -0.2234
  C  C144  1  0.115260  0.313460  0.787400  1.0  0.1814
  C  C145  1  0.014270  0.318870  0.769370  1.0  -0.2249
  C  C146  1  0.985240  0.227040  0.784520  1.0  0.1545
  C  C147  1  0.063200  0.132000  0.817500  1.0  -0.2434
  C  C148  1  0.162630  0.133230  0.834900  1.0  0.1877
  C  C149  1  0.871030  0.234030  0.767200  1.0  -0.1936
  C  C150  1  0.645580  0.604580  0.746670  1.0  0.7281
  C  C151  1  0.600700  0.552700  0.800480  1.0  -0.3761
  C  C152  1  0.504400  0.644000  0.837530  1.0  0.1436
  C  C153  1  0.387670  0.663070  0.840160  1.0  -0.1537
  C  C154  1  0.301300  0.747500  0.874800  1.0  -0.0839
  C  C155  1  0.331200  0.814000  0.907200  1.0  -0.1648
  C  C156  1  0.446720  0.796720  0.904830  1.0  0.1333
  C  C157  1  0.532540  0.711340  0.869990  1.0  -0.2041
  C  C158  1  0.478000  0.873000  0.938190  1.0  -0.3579
  C  C159  1  0.439150  0.997150  0.907510  1.0  0.7207
  C  C160  1  0.509610  0.840010  0.593130  1.0  0.1769
  C  C161  1  0.425980  0.895180  0.552500  1.0  -0.2392
  C  C162  1  0.461620  0.885020  0.494010  1.0  0.1627
  C  C163  1  0.581340  0.822140  0.479150  1.0  -0.2475
  C  C164  1  0.659500  0.769300  0.522230  1.0  0.1776
  C  C165  1  0.373430  0.936630  0.448100  1.0  -0.1998
  C  C166  1  0.359570  0.838170  0.422430  1.0  -0.0973
  C  C167  1  0.308240  0.773640  0.466270  1.0  -0.188
  C  C168  1  0.291540  0.679140  0.439480  1.0  0.1582
  C  C169  1  0.184900  0.701700  0.419200  1.0  -0.2316
  C  C170  1  0.173910  0.613110  0.395770  1.0  0.1812
  C  C171  1  0.364670  0.482870  0.409200  1.0  0.1843
  C  C172  1  0.383010  0.566810  0.433400  1.0  -0.2247
  C  C173  1  0.686540  0.884740  0.712600  1.0  0.1791
  C  C174  1  0.681130  0.985730  0.730630  1.0  -0.2293
  C  C175  1  0.772960  0.014760  0.715480  1.0  0.1535
  C  C176  1  0.868000  0.936800  0.682500  1.0  -0.2487
  C  C177  1  0.866770  0.837370  0.665100  1.0  0.1881
  C  C178  1  0.765970  0.128970  0.732800  1.0  -0.1918
  C  C179  1  0.604580  0.645580  0.246670  1.0  0.7275
  C  C180  1  0.552700  0.600700  0.300480  1.0  -0.3818
  C  C181  1  0.644000  0.504400  0.337530  1.0  0.1451
  C  C182  1  0.663070  0.387670  0.340160  1.0  -0.1542
  C  C183  1  0.747500  0.301300  0.374800  1.0  -0.0818
  C  C184  1  0.814000  0.331200  0.407200  1.0  -0.1682
  C  C185  1  0.796720  0.446720  0.404830  1.0  0.1325
  C  C186  1  0.711340  0.532540  0.369990  1.0  -0.2046
  C  C187  1  0.873000  0.478000  0.438190  1.0  -0.3588
  C  C188  1  0.997150  0.439150  0.407510  1.0  0.7212
  C  C189  1  0.840010  0.509610  0.093130  1.0  0.1774
  C  C190  1  0.895180  0.425980  0.052500  1.0  -0.2386
  C  C191  1  0.885020  0.461620  0.994010  1.0  0.1608
  C  C192  1  0.822140  0.581340  0.979150  1.0  -0.2486
  C  C193  1  0.769300  0.659500  0.022230  1.0  0.1762
  C  C194  1  0.936630  0.373430  0.948100  1.0  -0.1965
  C  C195  1  0.838170  0.359570  0.922430  1.0  -0.0968
  C  C196  1  0.773640  0.308240  0.966270  1.0  -0.1886
  C  C197  1  0.679140  0.291540  0.939480  1.0  0.1583
  C  C198  1  0.701700  0.184900  0.919200  1.0  -0.2325
  C  C199  1  0.613110  0.173910  0.895770  1.0  0.18
  C  C200  1  0.482870  0.364670  0.909200  1.0  0.1838
  C  C201  1  0.566810  0.383010  0.933400  1.0  -0.2251
  C  C202  1  0.884740  0.686540  0.212600  1.0  0.1808
  C  C203  1  0.985730  0.681130  0.230630  1.0  -0.2242
  C  C204  1  0.014760  0.772960  0.215480  1.0  0.1538
  C  C205  1  0.936800  0.868000  0.182500  1.0  -0.2458
  C  C206  1  0.837370  0.866770  0.165100  1.0  0.1886
  C  C207  1  0.128970  0.765970  0.232800  1.0  -0.1931
  C  C208  1  0.354420  0.395420  0.253330  1.0  0.7265
  C  C209  1  0.399300  0.447300  0.199520  1.0  -0.3757
  C  C210  1  0.495600  0.356000  0.162470  1.0  0.1442
  C  C211  1  0.612330  0.336930  0.159840  1.0  -0.1548
  C  C212  1  0.698700  0.252500  0.125200  1.0  -0.0853
  C  C213  1  0.668800  0.186000  0.092800  1.0  -0.1661
  C  C214  1  0.553280  0.203280  0.095170  1.0  0.1329
  C  C215  1  0.467460  0.288660  0.130010  1.0  -0.2057
  C  C216  1  0.522000  0.127000  0.061810  1.0  -0.3572
  C  C217  1  0.560850  0.002850  0.092490  1.0  0.7222
  C  C218  1  0.490390  0.159990  0.406870  1.0  0.1782
  C  C219  1  0.574020  0.104820  0.447500  1.0  -0.2412
  C  C220  1  0.538380  0.114980  0.505990  1.0  0.1631
  C  C221  1  0.418660  0.177860  0.520850  1.0  -0.2483
  C  C222  1  0.340500  0.230700  0.477770  1.0  0.1773
  C  C223  1  0.626570  0.063370  0.551900  1.0  -0.1998
  C  C224  1  0.640430  0.161830  0.577570  1.0  -0.0995
  C  C225  1  0.691760  0.226360  0.533730  1.0  -0.1868
  C  C226  1  0.708460  0.320860  0.560520  1.0  0.1583
  C  C227  1  0.815100  0.298300  0.580800  1.0  -0.2303
  C  C228  1  0.826090  0.386890  0.604230  1.0  0.1822
  C  C229  1  0.635330  0.517130  0.590800  1.0  0.1843
  C  C230  1  0.616990  0.433190  0.566600  1.0  -0.2236
  C  C231  1  0.313460  0.115260  0.287400  1.0  0.1798
  C  C232  1  0.318870  0.014270  0.269370  1.0  -0.2297
  C  C233  1  0.227040  0.985240  0.284520  1.0  0.1557
  C  C234  1  0.132000  0.063200  0.317500  1.0  -0.2494
  C  C235  1  0.133230  0.162630  0.334900  1.0  0.1892
  C  C236  1  0.234030  0.871030  0.267200  1.0  -0.1913
  C  C237  1  0.879600  0.120400  0.750000  1.0  -0.0797
  C  C238  1  0.120400  0.879600  0.250000  1.0  -0.0776
  N  N239  1  0.223910  0.374510  0.921350  1.0  -0.3653
  N  N240  1  0.495930  0.738730  0.108830  1.0  -0.3413
  N  N241  1  0.190200  0.223000  0.820570  1.0  -0.3529
  N  N242  1  0.625490  0.776090  0.578650  1.0  -0.3618
  N  N243  1  0.261270  0.504070  0.391170  1.0  -0.3431
  N  N244  1  0.777000  0.809800  0.679430  1.0  -0.3541
  N  N245  1  0.776090  0.625490  0.078650  1.0  -0.365
  N  N246  1  0.504070  0.261270  0.891170  1.0  -0.343
  N  N247  1  0.809800  0.777000  0.179430  1.0  -0.3534
  N  N248  1  0.374510  0.223910  0.421350  1.0  -0.3648
  N  N249  1  0.738730  0.495930  0.608830  1.0  -0.3435
  N  N250  1  0.223000  0.190200  0.320570  1.0  -0.353
  O  O251  1  0.436360  0.243960  0.764380  1.0  -0.6239
  O  O252  1  0.316220  0.427820  0.785340  1.0  -0.6656
  O  O253  1  0.990750  0.511750  0.640390  1.0  -0.6349
  O  O254  1  0.916220  0.643020  0.569330  1.0  -0.6517
  O  O255  1  0.756040  0.563640  0.735620  1.0  -0.6223
  O  O256  1  0.572180  0.683780  0.714660  1.0  -0.665
  O  O257  1  0.488250  0.009250  0.859610  1.0  -0.6352
  O  O258  1  0.356980  0.083780  0.930670  1.0  -0.6525
  O  O259  1  0.563640  0.756040  0.235620  1.0  -0.6228
  O  O260  1  0.683780  0.572180  0.214660  1.0  -0.6634
  O  O261  1  0.009250  0.488250  0.359610  1.0  -0.6346
  O  O262  1  0.083780  0.356980  0.430670  1.0  -0.6513
  O  O263  1  0.243960  0.436360  0.264380  1.0  -0.6224
  O  O264  1  0.427820  0.316220  0.285340  1.0  -0.6608
  O  O265  1  0.511750  0.990750  0.140390  1.0  -0.6356
  O  O266  1  0.643020  0.916220  0.069330  1.0  -0.652
