# generated using pymatgen
data_Zn3H14(C2O)16
_symmetry_space_group_name_H-M   'P 1'
_cell_length_a   16.73180000
_cell_length_b   18.11050000
_cell_length_c   16.47210000
_cell_angle_alpha   90.00000000
_cell_angle_beta   110.61800000
_cell_angle_gamma   90.00000000
_symmetry_Int_Tables_number   1
_chemical_formula_structural   Zn3H14(C2O)16
_chemical_formula_sum   'Zn12 H56 C128 O64'
_cell_volume   4671.69239651
_cell_formula_units_Z   4
loop_
 _symmetry_equiv_pos_site_id
 _symmetry_equiv_pos_as_xyz
  1  'x, y, z'
loop_
 _atom_site_type_symbol
 _atom_site_label
 _atom_site_symmetry_multiplicity
 _atom_site_fract_x
 _atom_site_fract_y
 _atom_site_fract_z
 _atom_site_occupancy
 _atom_site_charge
  Zn  Zn1  1  0.185560  0.610500  0.127450  1.0  1.1211
  Zn  Zn2  1  0.307810  0.617360  0.362010  1.0  1.1299
  Zn  Zn3  1  0.814440  0.110500  0.372550  1.0  1.1219
  Zn  Zn4  1  0.692190  0.117360  0.137990  1.0  1.1306
  Zn  Zn5  1  0.814440  0.389500  0.872550  1.0  1.1217
  Zn  Zn6  1  0.692190  0.382640  0.637990  1.0  1.1303
  Zn  Zn7  1  0.185560  0.889500  0.627450  1.0  1.1216
  Zn  Zn8  1  0.307810  0.882640  0.862010  1.0  1.1299
  Zn  Zn9  1  0.000000  0.500000  0.000000  1.0  1.036
  Zn  Zn10  1  0.000000  0.000000  0.500000  1.0  1.0324
  Zn  Zn11  1  0.500000  0.500000  0.500000  1.0  1.0561
  Zn  Zn12  1  0.500000  0.000000  0.000000  1.0  1.0561
  H  H13  1  0.157000  0.765000  0.392100  1.0  0.1177
  H  H14  1  0.929100  0.862100  0.335400  1.0  0.1024
  H  H15  1  0.973100  0.729200  0.161100  1.0  0.1098
  H  H16  1  0.847100  0.918700  0.206100  1.0  0.1183
  H  H17  1  0.619700  0.846500  0.047400  1.0  0.1134
  H  H18  1  0.816600  0.706400  0.138200  1.0  0.1133
  H  H19  1  0.131000  0.329700  0.031500  1.0  0.1174
  H  H20  1  0.330100  0.200500  0.157700  1.0  0.1127
  H  H21  1  0.347200  0.418100  0.196300  1.0  0.1152
  H  H22  1  0.478300  0.221900  0.173700  1.0  0.1165
  H  H23  1  0.655500  0.252300  0.409100  1.0  0.1095
  H  H24  1  0.437600  0.367900  0.337800  1.0  0.0976
  H  H25  1  0.659300  0.604600  0.027100  1.0  0.4021
  H  H26  1  0.071600  0.158300  0.979700  1.0  0.3663
  H  H27  1  0.843000  0.265000  0.107900  1.0  0.1179
  H  H28  1  0.070900  0.362100  0.164600  1.0  0.1025
  H  H29  1  0.026900  0.229200  0.338900  1.0  0.1107
  H  H30  1  0.152900  0.418700  0.293900  1.0  0.1189
  H  H31  1  0.380300  0.346500  0.452600  1.0  0.1125
  H  H32  1  0.183400  0.206400  0.361800  1.0  0.1136
  H  H33  1  0.869000  0.829700  0.468500  1.0  0.117
  H  H34  1  0.669900  0.700500  0.342300  1.0  0.113
  H  H35  1  0.652800  0.918100  0.303700  1.0  0.1152
  H  H36  1  0.521700  0.721900  0.326300  1.0  0.117
  H  H37  1  0.344500  0.752300  0.090900  1.0  0.1091
  H  H38  1  0.562400  0.867900  0.162200  1.0  0.0975
  H  H39  1  0.340700  0.104600  0.472900  1.0  0.4019
  H  H40  1  0.928400  0.658300  0.520300  1.0  0.3636
  H  H41  1  0.843000  0.235000  0.607900  1.0  0.118
  H  H42  1  0.070900  0.137900  0.664600  1.0  0.1023
  H  H43  1  0.026900  0.270800  0.838900  1.0  0.1103
  H  H44  1  0.152900  0.081300  0.793900  1.0  0.1182
  H  H45  1  0.380300  0.153500  0.952600  1.0  0.1129
  H  H46  1  0.183400  0.293600  0.861800  1.0  0.1136
  H  H47  1  0.869000  0.670300  0.968500  1.0  0.1173
  H  H48  1  0.669900  0.799500  0.842300  1.0  0.1117
  H  H49  1  0.652800  0.581900  0.803700  1.0  0.1156
  H  H50  1  0.521700  0.778100  0.826300  1.0  0.1164
  H  H51  1  0.344500  0.747700  0.590900  1.0  0.1092
  H  H52  1  0.562400  0.632100  0.662200  1.0  0.0971
  H  H53  1  0.340700  0.395400  0.972900  1.0  0.4035
  H  H54  1  0.928400  0.841700  0.020300  1.0  0.366
  H  H55  1  0.157000  0.735000  0.892100  1.0  0.1178
  H  H56  1  0.929100  0.637900  0.835400  1.0  0.1027
  H  H57  1  0.973100  0.770800  0.661100  1.0  0.1099
  H  H58  1  0.847100  0.581300  0.706100  1.0  0.1176
  H  H59  1  0.619700  0.653500  0.547400  1.0  0.1134
  H  H60  1  0.816600  0.793600  0.638200  1.0  0.1128
  H  H61  1  0.131000  0.170300  0.531500  1.0  0.1172
  H  H62  1  0.330100  0.299500  0.657700  1.0  0.1109
  H  H63  1  0.347200  0.081900  0.696300  1.0  0.1151
  H  H64  1  0.478300  0.278100  0.673700  1.0  0.1164
  H  H65  1  0.655500  0.247700  0.909100  1.0  0.1094
  H  H66  1  0.437600  0.132100  0.837800  1.0  0.0974
  H  H67  1  0.659300  0.895400  0.527100  1.0  0.403
  H  H68  1  0.071600  0.341700  0.479700  1.0  0.3666
  C  C69  1  0.074200  0.739730  0.273000  1.0  -0.1561
  C  C70  1  0.101900  0.773460  0.353500  1.0  -0.0439
  C  C71  1  0.048000  0.819680  0.376900  1.0  -0.1536
  C  C72  1  0.965400  0.831140  0.319500  1.0  -0.0505
  C  C73  1  0.936100  0.797060  0.238700  1.0  0.0412
  C  C74  1  0.991400  0.751680  0.215300  1.0  -0.0664
  C  C75  1  0.846300  0.810240  0.181200  1.0  0.0279
  C  C76  1  0.812500  0.880300  0.176000  1.0  -0.0891
  C  C77  1  0.727100  0.894500  0.126200  1.0  -0.1334
  C  C78  1  0.676300  0.837600  0.081300  1.0  -0.0303
  C  C79  1  0.709500  0.766900  0.086400  1.0  -0.1794
  C  C80  1  0.794400  0.753800  0.135800  1.0  -0.079
  C  C81  1  0.135000  0.691310  0.250500  1.0  0.7459
  C  C82  1  0.076900  0.857370  0.462500  1.0  0.732
  C  C83  1  0.694800  0.970700  0.126600  1.0  0.7017
  C  C84  1  0.653600  0.703900  0.043600  1.0  0.7003
  C  C85  1  0.232900  0.385300  0.110000  1.0  -0.1421
  C  C86  1  0.186300  0.324210  0.070800  1.0  -0.0313
  C  C87  1  0.222100  0.254370  0.090000  1.0  -0.1973
  C  C88  1  0.305900  0.247280  0.146100  1.0  -0.0806
  C  C89  1  0.354000  0.307630  0.185000  1.0  0.0026
  C  C90  1  0.316600  0.376930  0.168500  1.0  -0.0587
  C  C91  1  0.443200  0.296000  0.246400  1.0  0.0212
  C  C92  1  0.496300  0.245540  0.227300  1.0  -0.0362
  C  C93  1  0.576700  0.230080  0.288100  1.0  -0.1554
  C  C94  1  0.602900  0.264290  0.367700  1.0  0.0323
  C  C95  1  0.551900  0.316270  0.386630  1.0  -0.1402
  C  C96  1  0.471900  0.332440  0.325500  1.0  -0.0702
  C  C97  1  0.193300  0.460500  0.091000  1.0  0.7317
  C  C98  1  0.172500  0.186200  0.054500  1.0  0.6623
  C  C99  1  0.636300  0.178200  0.267900  1.0  0.7549
  C  C100  1  0.580900  0.353260  0.473300  1.0  0.7355
  C  C101  1  0.925800  0.239730  0.227000  1.0  -0.157
  C  C102  1  0.898100  0.273460  0.146500  1.0  -0.0448
  C  C103  1  0.952000  0.319680  0.123100  1.0  -0.153
  C  C104  1  0.034600  0.331140  0.180500  1.0  -0.0516
  C  C105  1  0.063900  0.297060  0.261300  1.0  0.0398
  C  C106  1  0.008600  0.251680  0.284700  1.0  -0.0658
  C  C107  1  0.153700  0.310240  0.318800  1.0  0.026
  C  C108  1  0.187500  0.380300  0.324000  1.0  -0.0914
  C  C109  1  0.272900  0.394500  0.373800  1.0  -0.134
  C  C110  1  0.323700  0.337600  0.418700  1.0  -0.0314
  C  C111  1  0.290500  0.266900  0.413600  1.0  -0.1777
  C  C112  1  0.205600  0.253800  0.364200  1.0  -0.0815
  C  C113  1  0.865000  0.191310  0.249500  1.0  0.7464
  C  C114  1  0.923100  0.357370  0.037500  1.0  0.7324
  C  C115  1  0.305200  0.470700  0.373400  1.0  0.6998
  C  C116  1  0.346400  0.203900  0.456400  1.0  0.6999
  C  C117  1  0.767100  0.885300  0.390000  1.0  -0.142
  C  C118  1  0.813700  0.824210  0.429200  1.0  -0.0322
  C  C119  1  0.777900  0.754370  0.410000  1.0  -0.1982
  C  C120  1  0.694100  0.747280  0.353900  1.0  -0.0825
  C  C121  1  0.646000  0.807630  0.315000  1.0  0.0022
  C  C122  1  0.683400  0.876930  0.331500  1.0  -0.0577
  C  C123  1  0.556800  0.796000  0.253600  1.0  0.0211
  C  C124  1  0.503700  0.745540  0.272700  1.0  -0.0358
  C  C125  1  0.423300  0.730080  0.211900  1.0  -0.1557
  C  C126  1  0.397100  0.764290  0.132300  1.0  0.0316
  C  C127  1  0.448100  0.816270  0.113370  1.0  -0.139
  C  C128  1  0.528100  0.832440  0.174500  1.0  -0.0713
  C  C129  1  0.806700  0.960500  0.409000  1.0  0.7296
  C  C130  1  0.827500  0.686200  0.445500  1.0  0.6633
  C  C131  1  0.363700  0.678200  0.232100  1.0  0.7554
  C  C132  1  0.419100  0.853260  0.026700  1.0  0.7357
  C  C133  1  0.925800  0.260270  0.727000  1.0  -0.1568
  C  C134  1  0.898100  0.226540  0.646500  1.0  -0.0451
  C  C135  1  0.952000  0.180320  0.623100  1.0  -0.153
  C  C136  1  0.034600  0.168860  0.680500  1.0  -0.051
  C  C137  1  0.063900  0.202940  0.761300  1.0  0.0399
  C  C138  1  0.008600  0.248320  0.784700  1.0  -0.0658
  C  C139  1  0.153700  0.189760  0.818800  1.0  0.0258
  C  C140  1  0.187500  0.119700  0.824000  1.0  -0.0901
  C  C141  1  0.272900  0.105500  0.873800  1.0  -0.1351
  C  C142  1  0.323700  0.162400  0.918700  1.0  -0.0305
  C  C143  1  0.290500  0.233100  0.913600  1.0  -0.1778
  C  C144  1  0.205600  0.246200  0.864200  1.0  -0.081
  C  C145  1  0.865000  0.308690  0.749500  1.0  0.7464
  C  C146  1  0.923100  0.142630  0.537500  1.0  0.7319
  C  C147  1  0.305200  0.029300  0.873400  1.0  0.6999
  C  C148  1  0.346400  0.296100  0.956400  1.0  0.6992
  C  C149  1  0.767100  0.614700  0.890000  1.0  -0.143
  C  C150  1  0.813700  0.675790  0.929200  1.0  -0.0324
  C  C151  1  0.777900  0.745630  0.910000  1.0  -0.1975
  C  C152  1  0.694100  0.752720  0.853900  1.0  -0.0821
  C  C153  1  0.646000  0.692370  0.815000  1.0  0.0023
  C  C154  1  0.683400  0.623070  0.831500  1.0  -0.0572
  C  C155  1  0.556800  0.704000  0.753600  1.0  0.0211
  C  C156  1  0.503700  0.754460  0.772700  1.0  -0.036
  C  C157  1  0.423300  0.769920  0.711900  1.0  -0.1554
  C  C158  1  0.397100  0.735710  0.632300  1.0  0.0316
  C  C159  1  0.448100  0.683730  0.613370  1.0  -0.1397
  C  C160  1  0.528100  0.667560  0.674500  1.0  -0.0709
  C  C161  1  0.806700  0.539500  0.909000  1.0  0.7292
  C  C162  1  0.827500  0.813800  0.945500  1.0  0.663
  C  C163  1  0.363700  0.821800  0.732100  1.0  0.7561
  C  C164  1  0.419100  0.646740  0.526700  1.0  0.7355
  C  C165  1  0.074200  0.760270  0.773000  1.0  -0.1561
  C  C166  1  0.101900  0.726540  0.853500  1.0  -0.0442
  C  C167  1  0.048000  0.680320  0.876900  1.0  -0.1531
  C  C168  1  0.965400  0.668860  0.819500  1.0  -0.0498
  C  C169  1  0.936100  0.702940  0.738700  1.0  0.0413
  C  C170  1  0.991400  0.748320  0.715300  1.0  -0.0665
  C  C171  1  0.846300  0.689760  0.681200  1.0  0.0278
  C  C172  1  0.812500  0.619700  0.676000  1.0  -0.0887
  C  C173  1  0.727100  0.605500  0.626200  1.0  -0.1352
  C  C174  1  0.676300  0.662400  0.581300  1.0  -0.0298
  C  C175  1  0.709500  0.733100  0.586400  1.0  -0.1795
  C  C176  1  0.794400  0.746200  0.635800  1.0  -0.0786
  C  C177  1  0.135000  0.808690  0.750500  1.0  0.7462
  C  C178  1  0.076900  0.642630  0.962500  1.0  0.7316
  C  C179  1  0.694800  0.529300  0.626600  1.0  0.7007
  C  C180  1  0.653600  0.796100  0.543600  1.0  0.7015
  C  C181  1  0.232900  0.114700  0.610000  1.0  -0.1432
  C  C182  1  0.186300  0.175790  0.570800  1.0  -0.0319
  C  C183  1  0.222100  0.245630  0.590000  1.0  -0.1967
  C  C184  1  0.305900  0.252720  0.646100  1.0  -0.0805
  C  C185  1  0.354000  0.192370  0.685000  1.0  0.0026
  C  C186  1  0.316600  0.123070  0.668500  1.0  -0.0582
  C  C187  1  0.443200  0.204000  0.746400  1.0  0.0212
  C  C188  1  0.496300  0.254460  0.727300  1.0  -0.0358
  C  C189  1  0.576700  0.269920  0.788100  1.0  -0.1553
  C  C190  1  0.602900  0.235710  0.867700  1.0  0.0322
  C  C191  1  0.551900  0.183730  0.886630  1.0  -0.1399
  C  C192  1  0.471900  0.167560  0.825500  1.0  -0.0692
  C  C193  1  0.193300  0.039500  0.591000  1.0  0.7279
  C  C194  1  0.172500  0.313800  0.554500  1.0  0.6622
  C  C195  1  0.636300  0.321800  0.767900  1.0  0.7558
  C  C196  1  0.580900  0.146740  0.973300  1.0  0.7354
  O  O197  1  0.115400  0.670730  0.173150  1.0  -0.6004
  O  O198  1  0.201510  0.674510  0.310140  1.0  -0.6511
  O  O199  1  0.154150  0.850340  0.509450  1.0  -0.5808
  O  O200  1  0.023030  0.891890  0.484050  1.0  -0.6168
  O  O201  1  0.747800  0.022590  0.144140  1.0  -0.5777
  O  O202  1  0.616870  0.981720  0.114210  1.0  -0.6775
  O  O203  1  0.579200  0.717800  0.993500  1.0  -0.535
  O  O204  1  0.683400  0.640090  0.060600  1.0  -0.5118
  O  O205  1  0.129810  0.469030  0.022580  1.0  -0.6539
  O  O206  1  0.227630  0.510540  0.144980  1.0  -0.5777
  O  O207  1  0.096520  0.198740  0.999610  1.0  -0.4976
  O  O208  1  0.201040  0.124740  0.074900  1.0  -0.474
  O  O209  1  0.615770  0.156160  0.191460  1.0  -0.5824
  O  O210  1  0.701900  0.160670  0.328370  1.0  -0.6608
  O  O211  1  0.656890  0.339950  0.522350  1.0  -0.6023
  O  O212  1  0.531320  0.393310  0.493720  1.0  -0.599
  O  O213  1  0.884600  0.170730  0.326850  1.0  -0.6009
  O  O214  1  0.798490  0.174510  0.189860  1.0  -0.6486
  O  O215  1  0.845850  0.350340  0.990550  1.0  -0.5801
  O  O216  1  0.976970  0.391890  0.015950  1.0  -0.6168
  O  O217  1  0.252200  0.522590  0.355860  1.0  -0.5786
  O  O218  1  0.383130  0.481720  0.385790  1.0  -0.6773
  O  O219  1  0.420800  0.217800  0.506500  1.0  -0.5367
  O  O220  1  0.316600  0.140090  0.439400  1.0  -0.5113
  O  O221  1  0.870190  0.969030  0.477420  1.0  -0.6529
  O  O222  1  0.772370  0.010540  0.355020  1.0  -0.5779
  O  O223  1  0.903480  0.698740  0.500390  1.0  -0.498
  O  O224  1  0.798960  0.624740  0.425100  1.0  -0.4739
  O  O225  1  0.384230  0.656160  0.308540  1.0  -0.5837
  O  O226  1  0.298100  0.660670  0.171630  1.0  -0.6569
  O  O227  1  0.343110  0.839950  0.977650  1.0  -0.6018
  O  O228  1  0.468680  0.893310  0.006280  1.0  -0.5982
  O  O229  1  0.884600  0.329270  0.826850  1.0  -0.6008
  O  O230  1  0.798490  0.325490  0.689860  1.0  -0.6492
  O  O231  1  0.845850  0.149660  0.490550  1.0  -0.5806
  O  O232  1  0.976970  0.108110  0.515950  1.0  -0.6167
  O  O233  1  0.252200  0.977410  0.855860  1.0  -0.578
  O  O234  1  0.383130  0.018280  0.885790  1.0  -0.6774
  O  O235  1  0.420800  0.282200  0.006500  1.0  -0.5359
  O  O236  1  0.316600  0.359910  0.939400  1.0  -0.5113
  O  O237  1  0.870190  0.530970  0.977420  1.0  -0.6527
  O  O238  1  0.772370  0.489460  0.855020  1.0  -0.5779
  O  O239  1  0.903480  0.801260  0.000390  1.0  -0.5028
  O  O240  1  0.798960  0.875260  0.925100  1.0  -0.4725
  O  O241  1  0.384230  0.843840  0.808540  1.0  -0.584
  O  O242  1  0.298100  0.839330  0.671630  1.0  -0.6563
  O  O243  1  0.343110  0.660050  0.477650  1.0  -0.6013
  O  O244  1  0.468680  0.606690  0.506280  1.0  -0.5978
  O  O245  1  0.115400  0.829270  0.673150  1.0  -0.6003
  O  O246  1  0.201510  0.825490  0.810140  1.0  -0.6508
  O  O247  1  0.154150  0.649660  0.009450  1.0  -0.5801
  O  O248  1  0.023030  0.608110  0.984050  1.0  -0.6167
  O  O249  1  0.747800  0.477410  0.644140  1.0  -0.5774
  O  O250  1  0.616870  0.518280  0.614210  1.0  -0.6772
  O  O251  1  0.579200  0.782200  0.493500  1.0  -0.5365
  O  O252  1  0.683400  0.859910  0.560600  1.0  -0.5091
  O  O253  1  0.129810  0.030970  0.522580  1.0  -0.6531
  O  O254  1  0.227630  0.989460  0.644980  1.0  -0.5779
  O  O255  1  0.096520  0.301260  0.499610  1.0  -0.4999
  O  O256  1  0.201040  0.375260  0.574900  1.0  -0.4736
  O  O257  1  0.615770  0.343840  0.691460  1.0  -0.5824
  O  O258  1  0.701900  0.339330  0.828370  1.0  -0.661
  O  O259  1  0.656890  0.160050  0.022350  1.0  -0.6023
  O  O260  1  0.531320  0.106690  0.993720  1.0  -0.5982
