# generated using pymatgen
data_ZnH15(C9O2)3
_symmetry_space_group_name_H-M   'P 1'
_cell_length_a   14.32000000
_cell_length_b   8.77890000
_cell_length_c   27.65300000
_cell_angle_alpha   90.00000000
_cell_angle_beta   90.30540000
_cell_angle_gamma   90.00000000
_symmetry_Int_Tables_number   1
_chemical_formula_structural   ZnH15(C9O2)3
_chemical_formula_sum   'Zn4 H60 C108 O24'
_cell_volume   3476.31565464
_cell_formula_units_Z   4
loop_
 _symmetry_equiv_pos_site_id
 _symmetry_equiv_pos_as_xyz
  1  'x, y, z'
loop_
 _atom_site_type_symbol
 _atom_site_label
 _atom_site_symmetry_multiplicity
 _atom_site_fract_x
 _atom_site_fract_y
 _atom_site_fract_z
 _atom_site_occupancy
 _atom_site_charge
  Zn  Zn1  1  0.431190  0.770560  0.164060  1.0  1.0796
  Zn  Zn2  1  0.931190  0.729440  0.664060  1.0  1.0795
  Zn  Zn3  1  0.068810  0.270560  0.335940  1.0  1.0792
  Zn  Zn4  1  0.568810  0.229440  0.835940  1.0  1.078
  H  H5  1  0.336500  0.434000  0.444800  1.0  0.1091
  H  H6  1  0.440100  0.240600  0.566600  1.0  0.1172
  H  H7  1  0.597300  0.256300  0.445100  1.0  0.1033
  H  H8  1  0.403300  0.672500  0.312200  1.0  0.1162
  H  H9  1  0.393700  0.591400  0.392100  1.0  0.1087
  H  H10  1  0.571600  0.244400  0.363100  1.0  0.1152
  H  H11  1  0.583900  0.330300  0.283700  1.0  0.1086
  H  H12  1  0.067500  0.467200  0.513400  1.0  0.1082
  H  H13  1  0.198500  0.355400  0.478800  1.0  0.1099
  H  H14  1  0.350100  0.458800  0.598600  1.0  0.0937
  H  H15  1  0.220400  0.580100  0.632000  1.0  0.1113
  H  H16  1  0.653300  0.886600  0.614100  1.0  0.1093
  H  H17  1  0.529700  0.013800  0.576400  1.0  0.1101
  H  H18  1  0.714500  0.274700  0.502600  1.0  0.105
  H  H19  1  0.837500  0.150200  0.541200  1.0  0.1119
  H  H20  1  0.836500  0.066000  0.944800  1.0  0.1094
  H  H21  1  0.940100  0.259400  0.066600  1.0  0.117
  H  H22  1  0.097300  0.243700  0.945100  1.0  0.1038
  H  H23  1  0.903300  0.827500  0.812200  1.0  0.1156
  H  H24  1  0.893700  0.908600  0.892100  1.0  0.1086
  H  H25  1  0.071600  0.255600  0.863100  1.0  0.1159
  H  H26  1  0.083900  0.169700  0.783700  1.0  0.1088
  H  H27  1  0.567500  0.032800  0.013400  1.0  0.1085
  H  H28  1  0.698500  0.144600  0.978800  1.0  0.1096
  H  H29  1  0.850100  0.041200  0.098600  1.0  0.0931
  H  H30  1  0.720400  0.919900  0.132000  1.0  0.1117
  H  H31  1  0.153300  0.613400  0.114100  1.0  0.1087
  H  H32  1  0.029700  0.486200  0.076400  1.0  0.1102
  H  H33  1  0.214500  0.225300  0.002600  1.0  0.1053
  H  H34  1  0.337500  0.349800  0.041200  1.0  0.1118
  H  H35  1  0.163500  0.934000  0.055200  1.0  0.1085
  H  H36  1  0.059900  0.740600  0.933400  1.0  0.1181
  H  H37  1  0.902700  0.756300  0.054900  1.0  0.1043
  H  H38  1  0.096700  0.172500  0.187800  1.0  0.1156
  H  H39  1  0.106300  0.091400  0.107900  1.0  0.1083
  H  H40  1  0.928400  0.744400  0.136900  1.0  0.1158
  H  H41  1  0.916100  0.830300  0.216300  1.0  0.109
  H  H42  1  0.432500  0.967200  0.986600  1.0  0.108
  H  H43  1  0.301500  0.855400  0.021200  1.0  0.1096
  H  H44  1  0.149900  0.958800  0.901400  1.0  0.0943
  H  H45  1  0.279600  0.080100  0.868000  1.0  0.1117
  H  H46  1  0.846700  0.386600  0.885900  1.0  0.1086
  H  H47  1  0.970300  0.513800  0.923600  1.0  0.111
  H  H48  1  0.785500  0.774700  0.997400  1.0  0.1057
  H  H49  1  0.662500  0.650200  0.958800  1.0  0.1116
  H  H50  1  0.663500  0.566000  0.555200  1.0  0.1089
  H  H51  1  0.559900  0.759400  0.433400  1.0  0.1184
  H  H52  1  0.402700  0.743700  0.554900  1.0  0.1038
  H  H53  1  0.596700  0.327500  0.687800  1.0  0.1157
  H  H54  1  0.606300  0.408600  0.607900  1.0  0.1083
  H  H55  1  0.428400  0.755600  0.636900  1.0  0.116
  H  H56  1  0.416100  0.669700  0.716300  1.0  0.109
  H  H57  1  0.932500  0.532800  0.486600  1.0  0.1079
  H  H58  1  0.801500  0.644600  0.521200  1.0  0.1096
  H  H59  1  0.649900  0.541200  0.401400  1.0  0.0947
  H  H60  1  0.779600  0.419900  0.368000  1.0  0.1117
  H  H61  1  0.346700  0.113400  0.385900  1.0  0.1085
  H  H62  1  0.470300  0.986200  0.423600  1.0  0.1109
  H  H63  1  0.285500  0.725300  0.497400  1.0  0.1057
  H  H64  1  0.162500  0.849800  0.458800  1.0  0.1118
  C  C65  1  0.468960  0.354480  0.436690  1.0  0.0503
  C  C66  1  0.386330  0.385000  0.461450  1.0  -0.1433
  C  C67  1  0.375010  0.345510  0.509850  1.0  0.0386
  C  C68  1  0.447340  0.269240  0.533700  1.0  -0.1048
  C  C69  1  0.530480  0.234450  0.509670  1.0  0.0409
  C  C70  1  0.540700  0.278430  0.461390  1.0  -0.0995
  C  C71  1  0.496710  0.556100  0.237060  1.0  0.6353
  C  C72  1  0.493010  0.507060  0.289470  1.0  -0.1228
  C  C73  1  0.437240  0.585160  0.322380  1.0  -0.0365
  C  C74  1  0.431110  0.535930  0.369900  1.0  -0.1459
  C  C75  1  0.479000  0.405840  0.385930  1.0  0.0659
  C  C76  1  0.536800  0.330960  0.352950  1.0  -0.1217
  C  C77  1  0.543800  0.381890  0.305500  1.0  -0.0449
  C  C78  1  0.044290  0.607240  0.597250  1.0  0.6713
  C  C79  1  0.130650  0.537070  0.575890  1.0  -0.1184
  C  C80  1  0.125320  0.468060  0.530460  1.0  -0.0445
  C  C81  1  0.203310  0.400680  0.509870  1.0  -0.1455
  C  C82  1  0.289020  0.398790  0.534570  1.0  0.0561
  C  C83  1  0.293300  0.463220  0.580760  1.0  -0.1126
  C  C84  1  0.215590  0.533910  0.601010  1.0  -0.0356
  C  C85  1  0.838850  0.927090  0.606030  1.0  0.6847
  C  C86  1  0.757930  0.004920  0.581220  1.0  -0.1232
  C  C87  1  0.665850  0.965360  0.591520  1.0  -0.03
  C  C88  1  0.592110  0.040850  0.568770  1.0  -0.1225
  C  C89  1  0.608770  0.155760  0.534960  1.0  0.0504
  C  C90  1  0.701730  0.195880  0.525140  1.0  -0.1333
  C  C91  1  0.774980  0.121460  0.548110  1.0  -0.0303
  C  C92  1  0.968960  0.145520  0.936690  1.0  0.0499
  C  C93  1  0.886330  0.115000  0.961450  1.0  -0.1432
  C  C94  1  0.875010  0.154490  0.009850  1.0  0.0379
  C  C95  1  0.947340  0.230760  0.033700  1.0  -0.1048
  C  C96  1  0.030480  0.265550  0.009670  1.0  0.0401
  C  C97  1  0.040700  0.221570  0.961390  1.0  -0.0992
  C  C98  1  0.996710  0.943900  0.737060  1.0  0.6353
  C  C99  1  0.993010  0.992940  0.789470  1.0  -0.1234
  C  C100  1  0.937240  0.914840  0.822380  1.0  -0.0355
  C  C101  1  0.931110  0.964070  0.869900  1.0  -0.1462
  C  C102  1  0.979000  0.094160  0.885930  1.0  0.0659
  C  C103  1  0.036800  0.169040  0.852950  1.0  -0.1185
  C  C104  1  0.043800  0.118110  0.805500  1.0  -0.0459
  C  C105  1  0.544290  0.892760  0.097250  1.0  0.6716
  C  C106  1  0.630650  0.962930  0.075890  1.0  -0.1176
  C  C107  1  0.625320  0.031940  0.030460  1.0  -0.0449
  C  C108  1  0.703310  0.099320  0.009870  1.0  -0.144
  C  C109  1  0.789020  0.101210  0.034570  1.0  0.0582
  C  C110  1  0.793300  0.036780  0.080760  1.0  -0.1126
  C  C111  1  0.715590  0.966090  0.101010  1.0  -0.0349
  C  C112  1  0.338850  0.572910  0.106030  1.0  0.685
  C  C113  1  0.257930  0.495080  0.081220  1.0  -0.123
  C  C114  1  0.165850  0.534640  0.091520  1.0  -0.0301
  C  C115  1  0.092110  0.459150  0.068770  1.0  -0.1229
  C  C116  1  0.108770  0.344240  0.034960  1.0  0.0507
  C  C117  1  0.201730  0.304120  0.025140  1.0  -0.1337
  C  C118  1  0.274980  0.378540  0.048110  1.0  -0.0304
  C  C119  1  0.031040  0.854480  0.063310  1.0  0.0493
  C  C120  1  0.113670  0.885000  0.038550  1.0  -0.1407
  C  C121  1  0.124990  0.845510  0.990150  1.0  0.0392
  C  C122  1  0.052660  0.769240  0.966300  1.0  -0.106
  C  C123  1  0.969520  0.734450  0.990330  1.0  0.0409
  C  C124  1  0.959300  0.778430  0.038610  1.0  -0.0998
  C  C125  1  0.003290  0.056100  0.262940  1.0  0.6354
  C  C126  1  0.006990  0.007060  0.210530  1.0  -0.1241
  C  C127  1  0.062760  0.085160  0.177620  1.0  -0.0361
  C  C128  1  0.068890  0.035930  0.130100  1.0  -0.1492
  C  C129  1  0.021000  0.905840  0.114070  1.0  0.066
  C  C130  1  0.963200  0.830960  0.147050  1.0  -0.1197
  C  C131  1  0.956200  0.881890  0.194500  1.0  -0.0453
  C  C132  1  0.455710  0.107240  0.902750  1.0  0.6683
  C  C133  1  0.369350  0.037070  0.924110  1.0  -0.1177
  C  C134  1  0.374680  0.968060  0.969540  1.0  -0.0459
  C  C135  1  0.296690  0.900680  0.990130  1.0  -0.1453
  C  C136  1  0.210980  0.898790  0.965430  1.0  0.0577
  C  C137  1  0.206700  0.963220  0.919240  1.0  -0.1109
  C  C138  1  0.284410  0.033910  0.898990  1.0  -0.0337
  C  C139  1  0.661150  0.427090  0.893970  1.0  0.6833
  C  C140  1  0.742070  0.504920  0.918780  1.0  -0.1218
  C  C141  1  0.834150  0.465360  0.908480  1.0  -0.0312
  C  C142  1  0.907890  0.540850  0.931230  1.0  -0.1228
  C  C143  1  0.891230  0.655760  0.965040  1.0  0.0487
  C  C144  1  0.798270  0.695880  0.974860  1.0  -0.1325
  C  C145  1  0.725020  0.621460  0.951890  1.0  -0.0296
  C  C146  1  0.531040  0.645520  0.563310  1.0  0.0496
  C  C147  1  0.613670  0.615000  0.538550  1.0  -0.1408
  C  C148  1  0.624990  0.654490  0.490150  1.0  0.0378
  C  C149  1  0.552660  0.730760  0.466300  1.0  -0.1077
  C  C150  1  0.469520  0.765550  0.490330  1.0  0.0401
  C  C151  1  0.459300  0.721570  0.538610  1.0  -0.0999
  C  C152  1  0.503290  0.443900  0.762940  1.0  0.6356
  C  C153  1  0.506990  0.492940  0.710530  1.0  -0.1238
  C  C154  1  0.562760  0.414840  0.677620  1.0  -0.0377
  C  C155  1  0.568890  0.464070  0.630100  1.0  -0.1487
  C  C156  1  0.521000  0.594160  0.614070  1.0  0.0649
  C  C157  1  0.463200  0.669040  0.647050  1.0  -0.1207
  C  C158  1  0.456200  0.618110  0.694500  1.0  -0.0468
  C  C159  1  0.955710  0.392760  0.402750  1.0  0.6681
  C  C160  1  0.869350  0.462930  0.424110  1.0  -0.1193
  C  C161  1  0.874680  0.531940  0.469540  1.0  -0.046
  C  C162  1  0.796690  0.599320  0.490130  1.0  -0.145
  C  C163  1  0.710980  0.601210  0.465430  1.0  0.0591
  C  C164  1  0.706700  0.536780  0.419240  1.0  -0.1103
  C  C165  1  0.784410  0.466090  0.398990  1.0  -0.0332
  C  C166  1  0.161150  0.072910  0.393970  1.0  0.6834
  C  C167  1  0.242070  0.995080  0.418780  1.0  -0.1212
  C  C168  1  0.334150  0.034640  0.408480  1.0  -0.0307
  C  C169  1  0.407890  0.959150  0.431230  1.0  -0.1232
  C  C170  1  0.391230  0.844240  0.465040  1.0  0.0488
  C  C171  1  0.298270  0.804120  0.474860  1.0  -0.1321
  C  C172  1  0.225020  0.878540  0.451890  1.0  -0.0293
  O  O173  1  0.447700  0.674280  0.227250  1.0  -0.6097
  O  O174  1  0.543270  0.482260  0.208090  1.0  -0.4767
  O  O175  1  0.968470  0.592220  0.576420  1.0  -0.5108
  O  O176  1  0.054390  0.679920  0.637640  1.0  -0.5997
  O  O177  1  0.819240  0.813950  0.633370  1.0  -0.605
  O  O178  1  0.918830  0.976790  0.599580  1.0  -0.4941
  O  O179  1  0.947700  0.825720  0.727250  1.0  -0.6091
  O  O180  1  0.043270  0.017740  0.708090  1.0  -0.4763
  O  O181  1  0.468470  0.907780  0.076420  1.0  -0.5101
  O  O182  1  0.554390  0.820080  0.137640  1.0  -0.5993
  O  O183  1  0.319240  0.686050  0.133370  1.0  -0.6045
  O  O184  1  0.418830  0.523210  0.099580  1.0  -0.4947
  O  O185  1  0.052300  0.174280  0.272750  1.0  -0.6083
  O  O186  1  0.956730  0.982260  0.291910  1.0  -0.4748
  O  O187  1  0.531530  0.092220  0.923580  1.0  -0.5106
  O  O188  1  0.445610  0.179920  0.862360  1.0  -0.6004
  O  O189  1  0.680760  0.313950  0.866630  1.0  -0.6066
  O  O190  1  0.581170  0.476790  0.900420  1.0  -0.4967
  O  O191  1  0.552300  0.325720  0.772750  1.0  -0.6075
  O  O192  1  0.456730  0.517740  0.791910  1.0  -0.4759
  O  O193  1  0.031530  0.407780  0.423580  1.0  -0.51
  O  O194  1  0.945610  0.320080  0.362360  1.0  -0.5991
  O  O195  1  0.180760  0.186050  0.366630  1.0  -0.6073
  O  O196  1  0.081170  0.023210  0.400420  1.0  -0.4959
