# generated using pymatgen
data_Be3P4(HO4)4
_symmetry_space_group_name_H-M   'P 1'
_cell_length_a   7.52920000
_cell_length_b   14.09990000
_cell_length_c   16.59100000
_cell_angle_alpha   90.00000000
_cell_angle_beta   95.74000000
_cell_angle_gamma   90.00000000
_symmetry_Int_Tables_number   1
_chemical_formula_structural   Be3P4(HO4)4
_chemical_formula_sum   'Be12 P16 H16 O64'
_cell_volume   1752.48534437
_cell_formula_units_Z   4
loop_
 _symmetry_equiv_pos_site_id
 _symmetry_equiv_pos_as_xyz
  1  'x, y, z'
loop_
 _atom_site_type_symbol
 _atom_site_label
 _atom_site_symmetry_multiplicity
 _atom_site_fract_x
 _atom_site_fract_y
 _atom_site_fract_z
 _atom_site_occupancy
 _atom_site_charge
  Be  Be1  1  0.390400  0.891100  0.427500  1.0  1.1506
  Be  Be2  1  0.375700  0.618000  0.446800  1.0  1.1562
  Be  Be3  1  0.386300  0.750600  0.135100  1.0  1.1981
  Be  Be4  1  0.109600  0.391100  0.072500  1.0  1.1486
  Be  Be5  1  0.124300  0.118000  0.053200  1.0  1.1547
  Be  Be6  1  0.113700  0.250600  0.364900  1.0  1.1976
  Be  Be7  1  0.609600  0.108900  0.572500  1.0  1.1485
  Be  Be8  1  0.624300  0.382000  0.553200  1.0  1.1544
  Be  Be9  1  0.613700  0.249400  0.864900  1.0  1.1969
  Be  Be10  1  0.890400  0.608900  0.927500  1.0  1.1505
  Be  Be11  1  0.875700  0.882000  0.946800  1.0  1.1557
  Be  Be12  1  0.886300  0.749400  0.635100  1.0  1.1973
  P  P13  1  0.295140  0.089480  0.445580  1.0  1.7043
  P  P14  1  0.216840  0.763500  0.536190  1.0  1.7597
  P  P15  1  0.472160  0.742490  0.316640  1.0  1.7889
  P  P16  1  0.727500  0.589950  0.540880  1.0  1.7286
  P  P17  1  0.204860  0.589480  0.054420  1.0  1.7042
  P  P18  1  0.283160  0.263500  0.963810  1.0  1.7595
  P  P19  1  0.027840  0.242490  0.183360  1.0  1.7937
  P  P20  1  0.772500  0.089950  0.959120  1.0  1.7288
  P  P21  1  0.704860  0.910520  0.554420  1.0  1.7042
  P  P22  1  0.783160  0.236500  0.463810  1.0  1.7596
  P  P23  1  0.527840  0.257510  0.683360  1.0  1.7937
  P  P24  1  0.272500  0.410050  0.459120  1.0  1.7315
  P  P25  1  0.795140  0.410520  0.945580  1.0  1.7039
  P  P26  1  0.716840  0.736500  0.036190  1.0  1.7597
  P  P27  1  0.972160  0.757510  0.816640  1.0  1.7885
  P  P28  1  0.227500  0.910050  0.040880  1.0  1.7311
  H  H29  1  0.041000  0.115400  0.465300  1.0  0.4287
  H  H30  1  0.460100  0.788400  0.593000  1.0  0.4048
  H  H31  1  0.689300  0.707800  0.392000  1.0  0.4137
  H  H32  1  0.963100  0.613800  0.497000  1.0  0.3953
  H  H33  1  0.459000  0.615400  0.034700  1.0  0.4282
  H  H34  1  0.039900  0.288400  0.907000  1.0  0.4059
  H  H35  1  0.810700  0.207800  0.108000  1.0  0.4182
  H  H36  1  0.536900  0.113800  0.003000  1.0  0.3954
  H  H37  1  0.959000  0.884600  0.534700  1.0  0.4274
  H  H38  1  0.539900  0.211600  0.407000  1.0  0.4061
  H  H39  1  0.310700  0.292200  0.608000  1.0  0.4172
  H  H40  1  0.036900  0.386200  0.503000  1.0  0.3958
  H  H41  1  0.541000  0.384600  0.965300  1.0  0.4291
  H  H42  1  0.960100  0.711600  0.093000  1.0  0.4054
  H  H43  1  0.189300  0.792200  0.892000  1.0  0.4131
  H  H44  1  0.463100  0.886200  0.997000  1.0  0.3956
  O  O45  1  0.277600  0.174560  0.388420  1.0  -0.753
  O  O46  1  0.107800  0.070670  0.477620  1.0  -0.6393
  O  O47  1  0.423000  0.108220  0.518630  1.0  -0.7518
  O  O48  1  0.339000  0.000510  0.399000  1.0  -0.8491
  O  O49  1  0.235100  0.845270  0.477830  1.0  -0.7917
  O  O50  1  0.403700  0.838210  0.342430  1.0  -0.7879
  O  O51  1  0.042300  0.775330  0.574410  1.0  -0.7507
  O  O52  1  0.366600  0.770460  0.609480  1.0  -0.6849
  O  O53  1  0.221100  0.666460  0.496140  1.0  -0.737
  O  O54  1  0.462800  0.735480  0.226140  1.0  -0.8553
  O  O55  1  0.678200  0.733420  0.347430  1.0  -0.6478
  O  O56  1  0.375000  0.660230  0.353940  1.0  -0.8373
  O  O57  1  0.571100  0.641800  0.495670  1.0  -0.7921
  O  O58  1  0.808200  0.642190  0.616620  1.0  -0.8076
  O  O59  1  0.677900  0.491220  0.564780  1.0  -0.7881
  O  O60  1  0.873700  0.584700  0.478670  1.0  -0.6558
  O  O61  1  0.222400  0.674560  0.111580  1.0  -0.7511
  O  O62  1  0.392200  0.570670  0.022380  1.0  -0.6396
  O  O63  1  0.077000  0.608220  0.981370  1.0  -0.7514
  O  O64  1  0.161000  0.500510  0.101000  1.0  -0.8522
  O  O65  1  0.264900  0.345270  0.022170  1.0  -0.7939
  O  O66  1  0.096300  0.338210  0.157570  1.0  -0.7872
  O  O67  1  0.457700  0.275330  0.925590  1.0  -0.7495
  O  O68  1  0.133400  0.270460  0.890520  1.0  -0.6868
  O  O69  1  0.278900  0.166460  0.003860  1.0  -0.7374
  O  O70  1  0.037200  0.235480  0.273860  1.0  -0.8575
  O  O71  1  0.821800  0.233420  0.152570  1.0  -0.6489
  O  O72  1  0.125000  0.160230  0.146060  1.0  -0.8387
  O  O73  1  0.928900  0.141800  0.004330  1.0  -0.7927
  O  O74  1  0.691800  0.142190  0.883380  1.0  -0.8053
  O  O75  1  0.822100  0.991220  0.935220  1.0  -0.7867
  O  O76  1  0.626300  0.084700  0.021330  1.0  -0.6565
  O  O77  1  0.722400  0.825440  0.611580  1.0  -0.7515
  O  O78  1  0.892200  0.929330  0.522380  1.0  -0.6387
  O  O79  1  0.577000  0.891780  0.481370  1.0  -0.7513
  O  O80  1  0.661000  0.999490  0.601000  1.0  -0.8513
  O  O81  1  0.764900  0.154730  0.522170  1.0  -0.7944
  O  O82  1  0.596300  0.161790  0.657570  1.0  -0.7884
  O  O83  1  0.957700  0.224670  0.425590  1.0  -0.7493
  O  O84  1  0.633400  0.229540  0.390520  1.0  -0.6868
  O  O85  1  0.778900  0.333540  0.503860  1.0  -0.7371
  O  O86  1  0.537200  0.264520  0.773860  1.0  -0.857
  O  O87  1  0.321800  0.266580  0.652570  1.0  -0.6494
  O  O88  1  0.625000  0.339770  0.646060  1.0  -0.8372
  O  O89  1  0.428900  0.358200  0.504330  1.0  -0.793
  O  O90  1  0.191800  0.357810  0.383380  1.0  -0.8056
  O  O91  1  0.322100  0.508780  0.435220  1.0  -0.7861
  O  O92  1  0.126300  0.415300  0.521330  1.0  -0.6573
  O  O93  1  0.777600  0.325440  0.888420  1.0  -0.7541
  O  O94  1  0.607800  0.429330  0.977620  1.0  -0.6397
  O  O95  1  0.923000  0.391780  0.018630  1.0  -0.7516
  O  O96  1  0.839000  0.499490  0.899000  1.0  -0.8491
  O  O97  1  0.735100  0.654730  0.977830  1.0  -0.7927
  O  O98  1  0.903700  0.661790  0.842430  1.0  -0.7879
  O  O99  1  0.542300  0.724670  0.074410  1.0  -0.7506
  O  O100  1  0.866600  0.729540  0.109480  1.0  -0.6849
  O  O101  1  0.721100  0.833540  0.996140  1.0  -0.7364
  O  O102  1  0.962800  0.764520  0.726140  1.0  -0.8552
  O  O103  1  0.178200  0.766580  0.847430  1.0  -0.6486
  O  O104  1  0.875000  0.839770  0.853940  1.0  -0.8355
  O  O105  1  0.071100  0.858200  0.995670  1.0  -0.7924
  O  O106  1  0.308200  0.857810  0.116620  1.0  -0.8069
  O  O107  1  0.177900  0.008780  0.064780  1.0  -0.7879
  O  O108  1  0.373700  0.915300  0.978670  1.0  -0.6561
