# generated using pymatgen
data_BaCoPH6C5NO7
_symmetry_space_group_name_H-M   'P 1'
_cell_length_a   18.25690000
_cell_length_b   9.53820000
_cell_length_c   16.93730000
_cell_angle_alpha   90.00000000
_cell_angle_beta   120.43400000
_cell_angle_gamma   90.00000000
_symmetry_Int_Tables_number   1
_chemical_formula_structural   BaCoPH6C5NO7
_chemical_formula_sum   'Ba8 Co8 P8 H48 C40 N8 O56'
_cell_volume   2543.03492304
_cell_formula_units_Z   8
loop_
 _symmetry_equiv_pos_site_id
 _symmetry_equiv_pos_as_xyz
  1  'x, y, z'
loop_
 _atom_site_type_symbol
 _atom_site_label
 _atom_site_symmetry_multiplicity
 _atom_site_fract_x
 _atom_site_fract_y
 _atom_site_fract_z
 _atom_site_occupancy
 _atom_site_charge
  Ba  Ba1  1  0.011590  0.746780  0.998260  1.0  1.6358
  Ba  Ba2  1  0.511590  0.246780  0.998260  1.0  1.6358
  Ba  Ba3  1  0.988410  0.746780  0.501740  1.0  1.6353
  Ba  Ba4  1  0.488410  0.246780  0.501740  1.0  1.6353
  Ba  Ba5  1  0.988410  0.253220  0.001740  1.0  1.6373
  Ba  Ba6  1  0.488410  0.753220  0.001740  1.0  1.6352
  Ba  Ba7  1  0.011590  0.253220  0.498260  1.0  1.6367
  Ba  Ba8  1  0.511590  0.753220  0.498260  1.0  1.6365
  Co  Co9  1  0.222040  0.779950  0.304990  1.0  1.0046
  Co  Co10  1  0.722040  0.279950  0.304990  1.0  1.0046
  Co  Co11  1  0.777960  0.779950  0.195010  1.0  1.0039
  Co  Co12  1  0.277960  0.279950  0.195010  1.0  1.0039
  Co  Co13  1  0.777960  0.220050  0.695010  1.0  1.0042
  Co  Co14  1  0.277960  0.720050  0.695010  1.0  1.0042
  Co  Co15  1  0.222040  0.220050  0.804990  1.0  1.0042
  Co  Co16  1  0.722040  0.720050  0.804990  1.0  1.0042
  P  P17  1  0.149270  0.533550  0.180400  1.0  1.5393
  P  P18  1  0.649270  0.033550  0.180400  1.0  1.5393
  P  P19  1  0.850730  0.533550  0.319600  1.0  1.5394
  P  P20  1  0.350730  0.033550  0.319600  1.0  1.5394
  P  P21  1  0.850730  0.466450  0.819600  1.0  1.5394
  P  P22  1  0.350730  0.966450  0.819600  1.0  1.5394
  P  P23  1  0.149270  0.466450  0.680400  1.0  1.5394
  P  P24  1  0.649270  0.966450  0.680400  1.0  1.5394
  H  H25  1  0.063600  0.560300  0.244400  1.0  0.1242
  H  H26  1  0.114500  0.419000  0.278100  1.0  0.1515
  H  H27  1  0.250400  0.409500  0.374700  1.0  0.0839
  H  H28  1  0.267400  0.482800  0.465300  1.0  0.0922
  H  H29  1  0.187400  0.642500  0.468900  1.0  0.1001
  H  H30  1  0.100600  0.573800  0.397500  1.0  0.0878
  H  H31  1  0.563600  0.060300  0.244400  1.0  0.1242
  H  H32  1  0.614500  0.919000  0.278100  1.0  0.1515
  H  H33  1  0.750400  0.909500  0.374700  1.0  0.0839
  H  H34  1  0.767400  0.982800  0.465300  1.0  0.0922
  H  H35  1  0.687400  0.142500  0.468900  1.0  0.1001
  H  H36  1  0.600600  0.073800  0.397500  1.0  0.0878
  H  H37  1  0.936400  0.560300  0.255600  1.0  0.1252
  H  H38  1  0.885500  0.419000  0.221900  1.0  0.1517
  H  H39  1  0.749600  0.409500  0.125300  1.0  0.0835
  H  H40  1  0.732600  0.482800  0.034700  1.0  0.092
  H  H41  1  0.812600  0.642500  0.031100  1.0  0.0986
  H  H42  1  0.899400  0.573800  0.102500  1.0  0.0875
  H  H43  1  0.436400  0.060300  0.255600  1.0  0.1252
  H  H44  1  0.385500  0.919000  0.221900  1.0  0.1517
  H  H45  1  0.249600  0.909500  0.125300  1.0  0.0835
  H  H46  1  0.232600  0.982800  0.034700  1.0  0.092
  H  H47  1  0.312600  0.142500  0.031100  1.0  0.0986
  H  H48  1  0.399400  0.073800  0.102500  1.0  0.0875
  H  H49  1  0.936400  0.439700  0.755600  1.0  0.1256
  H  H50  1  0.885500  0.581000  0.721900  1.0  0.1515
  H  H51  1  0.749600  0.590500  0.625300  1.0  0.0841
  H  H52  1  0.732600  0.517200  0.534700  1.0  0.0919
  H  H53  1  0.812600  0.357500  0.531100  1.0  0.0989
  H  H54  1  0.899400  0.426200  0.602500  1.0  0.0885
  H  H55  1  0.436400  0.939700  0.755600  1.0  0.1256
  H  H56  1  0.385500  0.081000  0.721900  1.0  0.1515
  H  H57  1  0.249600  0.090500  0.625300  1.0  0.0841
  H  H58  1  0.232600  0.017200  0.534700  1.0  0.0919
  H  H59  1  0.312600  0.857500  0.531100  1.0  0.0989
  H  H60  1  0.399400  0.926200  0.602500  1.0  0.0885
  H  H61  1  0.063600  0.439700  0.744400  1.0  0.1246
  H  H62  1  0.114500  0.581000  0.778100  1.0  0.1521
  H  H63  1  0.250400  0.590500  0.874700  1.0  0.0844
  H  H64  1  0.267400  0.517200  0.965300  1.0  0.0923
  H  H65  1  0.187400  0.357500  0.968900  1.0  0.0996
  H  H66  1  0.100600  0.426200  0.897500  1.0  0.0874
  H  H67  1  0.563600  0.939700  0.744400  1.0  0.1246
  H  H68  1  0.614500  0.081000  0.778100  1.0  0.1521
  H  H69  1  0.750400  0.090500  0.874700  1.0  0.0844
  H  H70  1  0.767400  0.017200  0.965300  1.0  0.0923
  H  H71  1  0.687400  0.857500  0.968900  1.0  0.0996
  H  H72  1  0.600600  0.926200  0.897500  1.0  0.0874
  C  C73  1  0.118710  0.517300  0.266300  1.0  -0.4616
  C  C74  1  0.259360  0.499600  0.404900  1.0  -0.1888
  C  C75  1  0.338590  0.565700  0.414900  1.0  0.7242
  C  C76  1  0.144400  0.638600  0.404500  1.0  -0.1431
  C  C77  1  0.105800  0.783400  0.372700  1.0  0.7211
  C  C78  1  0.618710  0.017300  0.266300  1.0  -0.4616
  C  C79  1  0.759360  0.999600  0.404900  1.0  -0.1888
  C  C80  1  0.838590  0.065700  0.414900  1.0  0.7242
  C  C81  1  0.644400  0.138600  0.404500  1.0  -0.1431
  C  C82  1  0.605800  0.283400  0.372700  1.0  0.7211
  C  C83  1  0.881290  0.517300  0.233700  1.0  -0.4635
  C  C84  1  0.740640  0.499600  0.095100  1.0  -0.1905
  C  C85  1  0.661410  0.565700  0.085100  1.0  0.7265
  C  C86  1  0.855600  0.638600  0.095500  1.0  -0.1407
  C  C87  1  0.894200  0.783400  0.127300  1.0  0.7205
  C  C88  1  0.381290  0.017300  0.233700  1.0  -0.4635
  C  C89  1  0.240640  0.999600  0.095100  1.0  -0.1905
  C  C90  1  0.161410  0.065700  0.085100  1.0  0.7265
  C  C91  1  0.355600  0.138600  0.095500  1.0  -0.1407
  C  C92  1  0.394200  0.283400  0.127300  1.0  0.7205
  C  C93  1  0.881290  0.482700  0.733700  1.0  -0.4626
  C  C94  1  0.740640  0.500400  0.595100  1.0  -0.1899
  C  C95  1  0.661410  0.434300  0.585100  1.0  0.7264
  C  C96  1  0.855600  0.361400  0.595500  1.0  -0.1428
  C  C97  1  0.894200  0.216600  0.627300  1.0  0.7195
  C  C98  1  0.381290  0.982700  0.733700  1.0  -0.4626
  C  C99  1  0.240640  0.000400  0.595100  1.0  -0.1899
  C  C100  1  0.161410  0.934300  0.585100  1.0  0.7264
  C  C101  1  0.355600  0.861400  0.595500  1.0  -0.1428
  C  C102  1  0.394200  0.716600  0.627300  1.0  0.7195
  C  C103  1  0.118710  0.482700  0.766300  1.0  -0.462
  C  C104  1  0.259360  0.500400  0.904900  1.0  -0.19
  C  C105  1  0.338590  0.434300  0.914900  1.0  0.7236
  C  C106  1  0.144400  0.361400  0.904500  1.0  -0.1434
  C  C107  1  0.105800  0.216600  0.872700  1.0  0.7196
  C  C108  1  0.618710  0.982700  0.766300  1.0  -0.462
  C  C109  1  0.759360  0.000400  0.904900  1.0  -0.19
  C  C110  1  0.838590  0.934300  0.914900  1.0  0.7236
  C  C111  1  0.644400  0.861400  0.904500  1.0  -0.1434
  C  C112  1  0.605800  0.716600  0.872700  1.0  0.7196
  N  N113  1  0.182900  0.587000  0.351970  1.0  -0.1187
  N  N114  1  0.682900  0.087000  0.351970  1.0  -0.1187
  N  N115  1  0.817100  0.587000  0.148030  1.0  -0.1191
  N  N116  1  0.317100  0.087000  0.148030  1.0  -0.1191
  N  N117  1  0.817100  0.413000  0.648030  1.0  -0.1191
  N  N118  1  0.317100  0.913000  0.648030  1.0  -0.1191
  N  N119  1  0.182900  0.413000  0.851970  1.0  -0.1189
  N  N120  1  0.682900  0.913000  0.851970  1.0  -0.1189
  O  O121  1  0.074790  0.487300  0.091090  1.0  -0.9686
  O  O122  1  0.164250  0.693000  0.179680  1.0  -0.8419
  O  O123  1  0.232100  0.455800  0.213050  1.0  -0.8368
  O  O124  1  0.335340  0.693500  0.390390  1.0  -0.697
  O  O125  1  0.405030  0.496000  0.450100  1.0  -0.742
  O  O126  1  0.141570  0.863300  0.341410  1.0  -0.6219
  O  O127  1  0.045850  0.818900  0.382460  1.0  -0.6443
  O  O128  1  0.574790  0.987300  0.091090  1.0  -0.9686
  O  O129  1  0.664250  0.193000  0.179680  1.0  -0.8419
  O  O130  1  0.732100  0.955800  0.213050  1.0  -0.8368
  O  O131  1  0.835340  0.193500  0.390390  1.0  -0.697
  O  O132  1  0.905030  0.996000  0.450100  1.0  -0.742
  O  O133  1  0.641570  0.363300  0.341410  1.0  -0.6219
  O  O134  1  0.545850  0.318900  0.382460  1.0  -0.6443
  O  O135  1  0.925210  0.487300  0.408910  1.0  -0.9665
  O  O136  1  0.835750  0.693000  0.320320  1.0  -0.842
  O  O137  1  0.767900  0.455800  0.286950  1.0  -0.8378
  O  O138  1  0.664660  0.693500  0.109610  1.0  -0.6975
  O  O139  1  0.594970  0.496000  0.049900  1.0  -0.7411
  O  O140  1  0.858430  0.863300  0.158590  1.0  -0.6201
  O  O141  1  0.954150  0.818900  0.117540  1.0  -0.6435
  O  O142  1  0.425210  0.987300  0.408910  1.0  -0.9665
  O  O143  1  0.335750  0.193000  0.320320  1.0  -0.842
  O  O144  1  0.267900  0.955800  0.286950  1.0  -0.8378
  O  O145  1  0.164660  0.193500  0.109610  1.0  -0.6975
  O  O146  1  0.094970  0.996000  0.049900  1.0  -0.7411
  O  O147  1  0.358430  0.363300  0.158590  1.0  -0.6201
  O  O148  1  0.454150  0.318900  0.117540  1.0  -0.6435
  O  O149  1  0.925210  0.512700  0.908910  1.0  -0.9659
  O  O150  1  0.835750  0.307000  0.820320  1.0  -0.8409
  O  O151  1  0.767900  0.544200  0.786950  1.0  -0.8379
  O  O152  1  0.664660  0.306500  0.609610  1.0  -0.6951
  O  O153  1  0.594970  0.504000  0.549900  1.0  -0.7403
  O  O154  1  0.858430  0.136700  0.658590  1.0  -0.6259
  O  O155  1  0.954150  0.181100  0.617540  1.0  -0.6435
  O  O156  1  0.425210  0.012700  0.908910  1.0  -0.9659
  O  O157  1  0.335750  0.807000  0.820320  1.0  -0.8409
  O  O158  1  0.267900  0.044200  0.786950  1.0  -0.8379
  O  O159  1  0.164660  0.806500  0.609610  1.0  -0.6951
  O  O160  1  0.094970  0.004000  0.549900  1.0  -0.7403
  O  O161  1  0.358430  0.636700  0.658590  1.0  -0.6259
  O  O162  1  0.454150  0.681100  0.617540  1.0  -0.6435
  O  O163  1  0.074790  0.512700  0.591090  1.0  -0.9679
  O  O164  1  0.164250  0.307000  0.679680  1.0  -0.8411
  O  O165  1  0.232100  0.544200  0.713050  1.0  -0.8366
  O  O166  1  0.335340  0.306500  0.890390  1.0  -0.6964
  O  O167  1  0.405030  0.504000  0.950100  1.0  -0.7414
  O  O168  1  0.141570  0.136700  0.841410  1.0  -0.6269
  O  O169  1  0.045850  0.181100  0.882460  1.0  -0.6435
  O  O170  1  0.574790  0.012700  0.591090  1.0  -0.9679
  O  O171  1  0.664250  0.807000  0.679680  1.0  -0.8411
  O  O172  1  0.732100  0.044200  0.713050  1.0  -0.8366
  O  O173  1  0.835340  0.806500  0.890390  1.0  -0.6964
  O  O174  1  0.905030  0.004000  0.950100  1.0  -0.7414
  O  O175  1  0.641570  0.636700  0.841410  1.0  -0.6269
  O  O176  1  0.545850  0.681100  0.882460  1.0  -0.6435
