# generated using pymatgen
data_LaH25C28(NO4)2
_symmetry_space_group_name_H-M   'P 1'
_cell_length_a   32.98500000
_cell_length_b   8.99010000
_cell_length_c   34.43200000
_cell_angle_alpha   90.00000000
_cell_angle_beta   115.59100000
_cell_angle_gamma   90.00000000
_symmetry_Int_Tables_number   1
_chemical_formula_structural   LaH25C28(NO4)2
_chemical_formula_sum   'La8 H200 C224 N16 O64'
_cell_volume   9208.77440837
_cell_formula_units_Z   8
loop_
 _symmetry_equiv_pos_site_id
 _symmetry_equiv_pos_as_xyz
  1  'x, y, z'
loop_
 _atom_site_type_symbol
 _atom_site_label
 _atom_site_symmetry_multiplicity
 _atom_site_fract_x
 _atom_site_fract_y
 _atom_site_fract_z
 _atom_site_occupancy
 _atom_site_charge
  La  La1  1  0.996400  0.642500  0.119030  1.0  2.1042
  La  La2  1  0.496400  0.142500  0.119030  1.0  2.1042
  La  La3  1  0.003600  0.642500  0.380970  1.0  2.1041
  La  La4  1  0.503600  0.142500  0.380970  1.0  2.1041
  La  La5  1  0.003600  0.357500  0.880970  1.0  2.1039
  La  La6  1  0.503600  0.857500  0.880970  1.0  2.1039
  La  La7  1  0.996400  0.357500  0.619030  1.0  2.1041
  La  La8  1  0.496400  0.857500  0.619030  1.0  2.1041
  H  H9  1  0.378200  0.744400  0.554700  1.0  0.3493
  H  H10  1  0.185200  0.122300  0.325900  1.0  0.2632
  H  H11  1  0.298800  0.612600  0.384800  1.0  0.2678
  H  H12  1  0.336400  0.603100  0.330900  1.0  0.0687
  H  H13  1  0.296000  0.715800  0.314200  1.0  0.0985
  H  H14  1  0.155200  0.169800  0.242700  1.0  0.0717
  H  H15  1  0.195300  0.056100  0.256800  1.0  0.0673
  H  H16  1  0.142800  0.530800  0.268000  1.0  0.1067
  H  H17  1  0.133800  0.359000  0.265500  1.0  0.108
  H  H18  1  0.138000  0.441200  0.227200  1.0  0.1178
  H  H19  1  0.234200  0.754200  0.292000  1.0  0.1098
  H  H20  1  0.204100  0.703800  0.314500  1.0  0.1211
  H  H21  1  0.185200  0.696600  0.264200  1.0  0.101
  H  H22  1  0.355600  0.340100  0.322300  1.0  0.1336
  H  H23  1  0.347100  0.220200  0.351100  1.0  0.1035
  H  H24  1  0.356200  0.386100  0.366500  1.0  0.1054
  H  H25  1  0.254800  0.011100  0.293800  1.0  0.1101
  H  H26  1  0.290200  0.050800  0.340500  1.0  0.1087
  H  H27  1  0.302600  0.067600  0.301600  1.0  0.1088
  H  H28  1  0.115400  0.950100  0.230600  1.0  0.101
  H  H29  1  0.056500  0.676400  0.283300  1.0  0.1157
  H  H30  1  0.156300  0.947400  0.357900  1.0  0.1195
  H  H31  1  0.439300  0.987100  0.482500  1.0  0.1107
  H  H32  1  0.337700  0.698000  0.455300  1.0  0.1096
  H  H33  1  0.368800  0.842400  0.361000  1.0  0.1068
  H  H34  1  0.878200  0.244400  0.554700  1.0  0.3493
  H  H35  1  0.685200  0.622300  0.325900  1.0  0.2632
  H  H36  1  0.798800  0.112600  0.384800  1.0  0.2678
  H  H37  1  0.836400  0.103100  0.330900  1.0  0.0687
  H  H38  1  0.796000  0.215800  0.314200  1.0  0.0985
  H  H39  1  0.655200  0.669800  0.242700  1.0  0.0717
  H  H40  1  0.695300  0.556100  0.256800  1.0  0.0673
  H  H41  1  0.642800  0.030800  0.268000  1.0  0.1067
  H  H42  1  0.633800  0.859000  0.265500  1.0  0.108
  H  H43  1  0.638000  0.941200  0.227200  1.0  0.1178
  H  H44  1  0.734200  0.254200  0.292000  1.0  0.1098
  H  H45  1  0.704100  0.203800  0.314500  1.0  0.1211
  H  H46  1  0.685200  0.196600  0.264200  1.0  0.101
  H  H47  1  0.855600  0.840100  0.322300  1.0  0.1336
  H  H48  1  0.847100  0.720200  0.351100  1.0  0.1035
  H  H49  1  0.856200  0.886100  0.366500  1.0  0.1054
  H  H50  1  0.754800  0.511100  0.293800  1.0  0.1101
  H  H51  1  0.790200  0.550800  0.340500  1.0  0.1087
  H  H52  1  0.802600  0.567600  0.301600  1.0  0.1088
  H  H53  1  0.615400  0.450100  0.230600  1.0  0.101
  H  H54  1  0.556500  0.176400  0.283300  1.0  0.1157
  H  H55  1  0.656300  0.447400  0.357900  1.0  0.1195
  H  H56  1  0.939300  0.487100  0.482500  1.0  0.1107
  H  H57  1  0.837700  0.198000  0.455300  1.0  0.1096
  H  H58  1  0.868800  0.342400  0.361000  1.0  0.1068
  H  H59  1  0.621800  0.744400  0.945300  1.0  0.3487
  H  H60  1  0.814800  0.122300  0.174100  1.0  0.2679
  H  H61  1  0.701200  0.612600  0.115200  1.0  0.2713
  H  H62  1  0.663600  0.603100  0.169100  1.0  0.0666
  H  H63  1  0.704000  0.715800  0.185800  1.0  0.0985
  H  H64  1  0.844800  0.169800  0.257300  1.0  0.072
  H  H65  1  0.804700  0.056100  0.243200  1.0  0.0692
  H  H66  1  0.857200  0.530800  0.232000  1.0  0.1075
  H  H67  1  0.866200  0.359000  0.234500  1.0  0.1095
  H  H68  1  0.862000  0.441200  0.272800  1.0  0.1178
  H  H69  1  0.765800  0.754200  0.208000  1.0  0.1081
  H  H70  1  0.795900  0.703800  0.185500  1.0  0.1208
  H  H71  1  0.814800  0.696600  0.235800  1.0  0.1016
  H  H72  1  0.644400  0.340100  0.177700  1.0  0.1326
  H  H73  1  0.652900  0.220200  0.148900  1.0  0.1032
  H  H74  1  0.643800  0.386100  0.133500  1.0  0.105
  H  H75  1  0.745200  0.011100  0.206200  1.0  0.1104
  H  H76  1  0.709800  0.050800  0.159500  1.0  0.1052
  H  H77  1  0.697400  0.067600  0.198400  1.0  0.1079
  H  H78  1  0.884600  0.950100  0.269400  1.0  0.1009
  H  H79  1  0.943500  0.676400  0.216700  1.0  0.1173
  H  H80  1  0.843700  0.947400  0.142100  1.0  0.1202
  H  H81  1  0.560700  0.987100  0.017500  1.0  0.1108
  H  H82  1  0.662300  0.698000  0.044700  1.0  0.109
  H  H83  1  0.631200  0.842400  0.139000  1.0  0.107
  H  H84  1  0.121800  0.244400  0.945300  1.0  0.3487
  H  H85  1  0.314800  0.622300  0.174100  1.0  0.2679
  H  H86  1  0.201200  0.112600  0.115200  1.0  0.2713
  H  H87  1  0.163600  0.103100  0.169100  1.0  0.0666
  H  H88  1  0.204000  0.215800  0.185800  1.0  0.0985
  H  H89  1  0.344800  0.669800  0.257300  1.0  0.072
  H  H90  1  0.304700  0.556100  0.243200  1.0  0.0692
  H  H91  1  0.357200  0.030800  0.232000  1.0  0.1075
  H  H92  1  0.366200  0.859000  0.234500  1.0  0.1095
  H  H93  1  0.362000  0.941200  0.272800  1.0  0.1178
  H  H94  1  0.265800  0.254200  0.208000  1.0  0.1081
  H  H95  1  0.295900  0.203800  0.185500  1.0  0.1208
  H  H96  1  0.314800  0.196600  0.235800  1.0  0.1016
  H  H97  1  0.144400  0.840100  0.177700  1.0  0.1326
  H  H98  1  0.152900  0.720200  0.148900  1.0  0.1032
  H  H99  1  0.143800  0.886100  0.133500  1.0  0.105
  H  H100  1  0.245200  0.511100  0.206200  1.0  0.1104
  H  H101  1  0.209800  0.550800  0.159500  1.0  0.1052
  H  H102  1  0.197400  0.567600  0.198400  1.0  0.1079
  H  H103  1  0.384600  0.450100  0.269400  1.0  0.1009
  H  H104  1  0.443500  0.176400  0.216700  1.0  0.1173
  H  H105  1  0.343700  0.447400  0.142100  1.0  0.1202
  H  H106  1  0.060700  0.487100  0.017500  1.0  0.1108
  H  H107  1  0.162300  0.198000  0.044700  1.0  0.109
  H  H108  1  0.131200  0.342400  0.139000  1.0  0.107
  H  H109  1  0.621800  0.255600  0.445300  1.0  0.3492
  H  H110  1  0.814800  0.877700  0.674100  1.0  0.2666
  H  H111  1  0.701200  0.387400  0.615200  1.0  0.2713
  H  H112  1  0.663600  0.396900  0.669100  1.0  0.0666
  H  H113  1  0.704000  0.284200  0.685800  1.0  0.0991
  H  H114  1  0.844800  0.830200  0.757300  1.0  0.0722
  H  H115  1  0.804700  0.943900  0.743200  1.0  0.0682
  H  H116  1  0.857200  0.469200  0.732000  1.0  0.1067
  H  H117  1  0.866200  0.641000  0.734500  1.0  0.1097
  H  H118  1  0.862000  0.558800  0.772800  1.0  0.1178
  H  H119  1  0.765800  0.245800  0.708000  1.0  0.1075
  H  H120  1  0.795900  0.296200  0.685500  1.0  0.1208
  H  H121  1  0.814800  0.303400  0.735800  1.0  0.1016
  H  H122  1  0.644400  0.659900  0.677700  1.0  0.1324
  H  H123  1  0.652900  0.779800  0.648900  1.0  0.1048
  H  H124  1  0.643800  0.613900  0.633500  1.0  0.105
  H  H125  1  0.745200  0.988900  0.706200  1.0  0.1109
  H  H126  1  0.709800  0.949200  0.659500  1.0  0.1054
  H  H127  1  0.697400  0.932400  0.698400  1.0  0.1079
  H  H128  1  0.884600  0.049900  0.769400  1.0  0.1012
  H  H129  1  0.943500  0.323600  0.716700  1.0  0.1158
  H  H130  1  0.843700  0.052600  0.642100  1.0  0.1201
  H  H131  1  0.560700  0.012900  0.517500  1.0  0.1105
  H  H132  1  0.662300  0.302000  0.544700  1.0  0.1086
  H  H133  1  0.631200  0.157600  0.639000  1.0  0.1071
  H  H134  1  0.121800  0.755600  0.445300  1.0  0.3492
  H  H135  1  0.314800  0.377700  0.674100  1.0  0.2666
  H  H136  1  0.201200  0.887400  0.615200  1.0  0.2713
  H  H137  1  0.163600  0.896900  0.669100  1.0  0.0666
  H  H138  1  0.204000  0.784200  0.685800  1.0  0.0991
  H  H139  1  0.344800  0.330200  0.757300  1.0  0.0722
  H  H140  1  0.304700  0.443900  0.743200  1.0  0.0682
  H  H141  1  0.357200  0.969200  0.732000  1.0  0.1067
  H  H142  1  0.366200  0.141000  0.734500  1.0  0.1097
  H  H143  1  0.362000  0.058800  0.772800  1.0  0.1178
  H  H144  1  0.265800  0.745800  0.708000  1.0  0.1075
  H  H145  1  0.295900  0.796200  0.685500  1.0  0.1208
  H  H146  1  0.314800  0.803400  0.735800  1.0  0.1016
  H  H147  1  0.144400  0.159900  0.677700  1.0  0.1324
  H  H148  1  0.152900  0.279800  0.648900  1.0  0.1048
  H  H149  1  0.143800  0.113900  0.633500  1.0  0.105
  H  H150  1  0.245200  0.488900  0.706200  1.0  0.1109
  H  H151  1  0.209800  0.449200  0.659500  1.0  0.1054
  H  H152  1  0.197400  0.432400  0.698400  1.0  0.1079
  H  H153  1  0.384600  0.549900  0.769400  1.0  0.1012
  H  H154  1  0.443500  0.823600  0.716700  1.0  0.1158
  H  H155  1  0.343700  0.552600  0.642100  1.0  0.1201
  H  H156  1  0.060700  0.512900  0.517500  1.0  0.1105
  H  H157  1  0.162300  0.802000  0.544700  1.0  0.1086
  H  H158  1  0.131200  0.657600  0.639000  1.0  0.1071
  H  H159  1  0.378200  0.255600  0.054700  1.0  0.3483
  H  H160  1  0.185200  0.877700  0.825900  1.0  0.2631
  H  H161  1  0.298800  0.387400  0.884800  1.0  0.2675
  H  H162  1  0.336400  0.396900  0.830900  1.0  0.0688
  H  H163  1  0.296000  0.284200  0.814200  1.0  0.0986
  H  H164  1  0.155200  0.830200  0.742700  1.0  0.0712
  H  H165  1  0.195300  0.943900  0.756800  1.0  0.0663
  H  H166  1  0.142800  0.469200  0.768000  1.0  0.1069
  H  H167  1  0.133800  0.641000  0.765500  1.0  0.1076
  H  H168  1  0.138000  0.558800  0.727200  1.0  0.1182
  H  H169  1  0.234200  0.245800  0.792000  1.0  0.11
  H  H170  1  0.204100  0.296200  0.814500  1.0  0.1212
  H  H171  1  0.185200  0.303400  0.764200  1.0  0.1011
  H  H172  1  0.355600  0.659900  0.822300  1.0  0.1339
  H  H173  1  0.347100  0.779800  0.851100  1.0  0.1041
  H  H174  1  0.356200  0.613900  0.866500  1.0  0.1052
  H  H175  1  0.254800  0.988900  0.793800  1.0  0.1107
  H  H176  1  0.290200  0.949200  0.840500  1.0  0.1086
  H  H177  1  0.302600  0.932400  0.801600  1.0  0.1086
  H  H178  1  0.115400  0.049900  0.730600  1.0  0.1011
  H  H179  1  0.056500  0.323600  0.783300  1.0  0.1183
  H  H180  1  0.156300  0.052600  0.857900  1.0  0.1199
  H  H181  1  0.439300  0.012900  0.982500  1.0  0.1106
  H  H182  1  0.337700  0.302000  0.955300  1.0  0.1095
  H  H183  1  0.368800  0.157600  0.861000  1.0  0.1067
  H  H184  1  0.878200  0.755600  0.054700  1.0  0.3483
  H  H185  1  0.685200  0.377700  0.825900  1.0  0.2631
  H  H186  1  0.798800  0.887400  0.884800  1.0  0.2675
  H  H187  1  0.836400  0.896900  0.830900  1.0  0.0688
  H  H188  1  0.796000  0.784200  0.814200  1.0  0.0986
  H  H189  1  0.655200  0.330200  0.742700  1.0  0.0712
  H  H190  1  0.695300  0.443900  0.756800  1.0  0.0663
  H  H191  1  0.642800  0.969200  0.768000  1.0  0.1069
  H  H192  1  0.633800  0.141000  0.765500  1.0  0.1076
  H  H193  1  0.638000  0.058800  0.727200  1.0  0.1182
  H  H194  1  0.734200  0.745800  0.792000  1.0  0.11
  H  H195  1  0.704100  0.796200  0.814500  1.0  0.1212
  H  H196  1  0.685200  0.803400  0.764200  1.0  0.1011
  H  H197  1  0.855600  0.159900  0.822300  1.0  0.1339
  H  H198  1  0.847100  0.279800  0.851100  1.0  0.1041
  H  H199  1  0.856200  0.113900  0.866500  1.0  0.1052
  H  H200  1  0.754800  0.488900  0.793800  1.0  0.1107
  H  H201  1  0.790200  0.449200  0.840500  1.0  0.1086
  H  H202  1  0.802600  0.432400  0.801600  1.0  0.1086
  H  H203  1  0.615400  0.549900  0.730600  1.0  0.1011
  H  H204  1  0.556500  0.823600  0.783300  1.0  0.1183
  H  H205  1  0.656300  0.552600  0.857900  1.0  0.1199
  H  H206  1  0.939300  0.512900  0.982500  1.0  0.1106
  H  H207  1  0.837700  0.802000  0.955300  1.0  0.1095
  H  H208  1  0.868800  0.657600  0.861000  1.0  0.1067
  C  C209  1  0.308200  0.628000  0.331750  1.0  -0.0066
  C  C210  1  0.275400  0.499200  0.314020  1.0  -0.1325
  C  C211  1  0.229300  0.527800  0.294240  1.0  0.0909
  C  C212  1  0.198800  0.409200  0.278540  1.0  0.0387
  C  C213  1  0.215600  0.263200  0.283280  1.0  -0.1155
  C  C214  1  0.262200  0.234400  0.304260  1.0  0.0145
  C  C215  1  0.292300  0.354000  0.319500  1.0  0.0638
  C  C216  1  0.182400  0.136200  0.266750  1.0  -0.0138
  C  C217  1  0.148800  0.437700  0.257900  1.0  -0.3534
  C  C218  1  0.211600  0.685000  0.291000  1.0  -0.3606
  C  C219  1  0.342400  0.322200  0.341900  1.0  -0.3591
  C  C220  1  0.279000  0.076800  0.310600  1.0  -0.3503
  C  C221  1  0.140900  0.971300  0.294840  1.0  0.2183
  C  C222  1  0.113200  0.914100  0.254930  1.0  -0.1278
  C  C223  1  0.082130  0.804200  0.250460  1.0  -0.1495
  C  C224  1  0.077730  0.749000  0.286280  1.0  -0.0169
  C  C225  1  0.106000  0.805500  0.326470  1.0  -0.1212
  C  C226  1  0.137200  0.913000  0.330620  1.0  -0.1156
  C  C227  1  0.052730  0.745000  0.206130  1.0  0.7007
  C  C228  1  0.435920  0.021100  0.404610  1.0  0.679
  C  C229  1  0.407310  0.930800  0.419280  1.0  -0.1507
  C  C230  1  0.416100  0.930100  0.462560  1.0  0.0179
  C  C231  1  0.389000  0.841100  0.475650  1.0  -0.158
  C  C232  1  0.355500  0.755300  0.446240  1.0  -0.1463
  C  C233  1  0.347500  0.751900  0.402930  1.0  0.2272
  C  C234  1  0.373800  0.842000  0.389740  1.0  -0.1705
  C  C235  1  0.397100  0.841300  0.521990  1.0  0.6526
  C  C236  1  0.100000  0.755000  0.365120  1.0  0.6894
  C  C237  1  0.808200  0.128000  0.331750  1.0  -0.0066
  C  C238  1  0.775400  0.999200  0.314020  1.0  -0.1325
  C  C239  1  0.729300  0.027800  0.294240  1.0  0.0909
  C  C240  1  0.698800  0.909200  0.278540  1.0  0.0387
  C  C241  1  0.715600  0.763200  0.283280  1.0  -0.1155
  C  C242  1  0.762200  0.734400  0.304260  1.0  0.0145
  C  C243  1  0.792300  0.854000  0.319500  1.0  0.0638
  C  C244  1  0.682400  0.636200  0.266750  1.0  -0.0138
  C  C245  1  0.648800  0.937700  0.257900  1.0  -0.3534
  C  C246  1  0.711600  0.185000  0.291000  1.0  -0.3606
  C  C247  1  0.842400  0.822200  0.341900  1.0  -0.3591
  C  C248  1  0.779000  0.576800  0.310600  1.0  -0.3503
  C  C249  1  0.640900  0.471300  0.294840  1.0  0.2183
  C  C250  1  0.613200  0.414100  0.254930  1.0  -0.1278
  C  C251  1  0.582130  0.304200  0.250460  1.0  -0.1495
  C  C252  1  0.577730  0.249000  0.286280  1.0  -0.0169
  C  C253  1  0.606000  0.305500  0.326470  1.0  -0.1212
  C  C254  1  0.637200  0.413000  0.330620  1.0  -0.1156
  C  C255  1  0.552730  0.245000  0.206130  1.0  0.7007
  C  C256  1  0.935920  0.521100  0.404610  1.0  0.679
  C  C257  1  0.907310  0.430800  0.419280  1.0  -0.1507
  C  C258  1  0.916100  0.430100  0.462560  1.0  0.0179
  C  C259  1  0.889000  0.341100  0.475650  1.0  -0.158
  C  C260  1  0.855500  0.255300  0.446240  1.0  -0.1463
  C  C261  1  0.847500  0.251900  0.402930  1.0  0.2272
  C  C262  1  0.873800  0.342000  0.389740  1.0  -0.1705
  C  C263  1  0.897100  0.341300  0.521990  1.0  0.6526
  C  C264  1  0.600000  0.255000  0.365120  1.0  0.6894
  C  C265  1  0.691800  0.628000  0.168250  1.0  -0.0047
  C  C266  1  0.724600  0.499200  0.185980  1.0  -0.1356
  C  C267  1  0.770700  0.527800  0.205760  1.0  0.0864
  C  C268  1  0.801200  0.409200  0.221460  1.0  0.0383
  C  C269  1  0.784400  0.263200  0.216720  1.0  -0.1161
  C  C270  1  0.737800  0.234400  0.195740  1.0  0.0125
  C  C271  1  0.707700  0.354000  0.180500  1.0  0.062
  C  C272  1  0.817600  0.136200  0.233250  1.0  -0.0121
  C  C273  1  0.851200  0.437700  0.242100  1.0  -0.3521
  C  C274  1  0.788400  0.685000  0.209000  1.0  -0.3614
  C  C275  1  0.657600  0.322200  0.158100  1.0  -0.3569
  C  C276  1  0.721000  0.076800  0.189400  1.0  -0.3502
  C  C277  1  0.859100  0.971300  0.205160  1.0  0.2194
  C  C278  1  0.886800  0.914100  0.245070  1.0  -0.1273
  C  C279  1  0.917870  0.804200  0.249540  1.0  -0.149
  C  C280  1  0.922270  0.749000  0.213720  1.0  -0.0172
  C  C281  1  0.894000  0.805500  0.173530  1.0  -0.1261
  C  C282  1  0.862800  0.913000  0.169380  1.0  -0.1151
  C  C283  1  0.947270  0.745000  0.293870  1.0  0.7006
  C  C284  1  0.564080  0.021100  0.095390  1.0  0.6791
  C  C285  1  0.592690  0.930800  0.080720  1.0  -0.1497
  C  C286  1  0.583900  0.930100  0.037440  1.0  0.018
  C  C287  1  0.611000  0.841100  0.024350  1.0  -0.1585
  C  C288  1  0.644500  0.755300  0.053760  1.0  -0.1475
  C  C289  1  0.652500  0.751900  0.097070  1.0  0.2269
  C  C290  1  0.626200  0.842000  0.110260  1.0  -0.1713
  C  C291  1  0.602900  0.841300  0.978010  1.0  0.6524
  C  C292  1  0.900000  0.755000  0.134880  1.0  0.6887
  C  C293  1  0.191800  0.128000  0.168250  1.0  -0.0047
  C  C294  1  0.224600  0.999200  0.185980  1.0  -0.1356
  C  C295  1  0.270700  0.027800  0.205760  1.0  0.0864
  C  C296  1  0.301200  0.909200  0.221460  1.0  0.0383
  C  C297  1  0.284400  0.763200  0.216720  1.0  -0.1161
  C  C298  1  0.237800  0.734400  0.195740  1.0  0.0125
  C  C299  1  0.207700  0.854000  0.180500  1.0  0.062
  C  C300  1  0.317600  0.636200  0.233250  1.0  -0.0121
  C  C301  1  0.351200  0.937700  0.242100  1.0  -0.3521
  C  C302  1  0.288400  0.185000  0.209000  1.0  -0.3614
  C  C303  1  0.157600  0.822200  0.158100  1.0  -0.3569
  C  C304  1  0.221000  0.576800  0.189400  1.0  -0.3502
  C  C305  1  0.359100  0.471300  0.205160  1.0  0.2194
  C  C306  1  0.386800  0.414100  0.245070  1.0  -0.1273
  C  C307  1  0.417870  0.304200  0.249540  1.0  -0.149
  C  C308  1  0.422270  0.249000  0.213720  1.0  -0.0172
  C  C309  1  0.394000  0.305500  0.173530  1.0  -0.1261
  C  C310  1  0.362800  0.413000  0.169380  1.0  -0.1151
  C  C311  1  0.447270  0.245000  0.293870  1.0  0.7006
  C  C312  1  0.064080  0.521100  0.095390  1.0  0.6791
  C  C313  1  0.092690  0.430800  0.080720  1.0  -0.1497
  C  C314  1  0.083900  0.430100  0.037440  1.0  0.018
  C  C315  1  0.111000  0.341100  0.024350  1.0  -0.1585
  C  C316  1  0.144500  0.255300  0.053760  1.0  -0.1475
  C  C317  1  0.152500  0.251900  0.097070  1.0  0.2269
  C  C318  1  0.126200  0.342000  0.110260  1.0  -0.1713
  C  C319  1  0.102900  0.341300  0.978010  1.0  0.6524
  C  C320  1  0.400000  0.255000  0.134880  1.0  0.6887
  C  C321  1  0.691800  0.372000  0.668250  1.0  -0.005
  C  C322  1  0.724600  0.500800  0.685980  1.0  -0.1343
  C  C323  1  0.770700  0.472200  0.705760  1.0  0.0877
  C  C324  1  0.801200  0.590800  0.721460  1.0  0.0388
  C  C325  1  0.784400  0.736800  0.716720  1.0  -0.1167
  C  C326  1  0.737800  0.765600  0.695740  1.0  0.0122
  C  C327  1  0.707700  0.646000  0.680500  1.0  0.062
  C  C328  1  0.817600  0.863800  0.733250  1.0  -0.0125
  C  C329  1  0.851200  0.562300  0.742100  1.0  -0.3523
  C  C330  1  0.788400  0.315000  0.709000  1.0  -0.3622
  C  C331  1  0.657600  0.677800  0.658100  1.0  -0.3569
  C  C332  1  0.721000  0.923200  0.689400  1.0  -0.3486
  C  C333  1  0.859100  0.028700  0.705160  1.0  0.2193
  C  C334  1  0.886800  0.085900  0.745070  1.0  -0.1276
  C  C335  1  0.917870  0.195800  0.749540  1.0  -0.1491
  C  C336  1  0.922270  0.251000  0.713720  1.0  -0.0168
  C  C337  1  0.894000  0.194500  0.673530  1.0  -0.1254
  C  C338  1  0.862800  0.087000  0.669380  1.0  -0.116
  C  C339  1  0.947270  0.255000  0.793870  1.0  0.7005
  C  C340  1  0.564080  0.978900  0.595390  1.0  0.6792
  C  C341  1  0.592690  0.069200  0.580720  1.0  -0.1502
  C  C342  1  0.583900  0.069900  0.537440  1.0  0.0179
  C  C343  1  0.611000  0.158900  0.524350  1.0  -0.1588
  C  C344  1  0.644500  0.244700  0.553760  1.0  -0.1474
  C  C345  1  0.652500  0.248100  0.597070  1.0  0.2271
  C  C346  1  0.626200  0.158000  0.610260  1.0  -0.1712
  C  C347  1  0.602900  0.158700  0.478010  1.0  0.6523
  C  C348  1  0.900000  0.245000  0.634880  1.0  0.6893
  C  C349  1  0.191800  0.872000  0.668250  1.0  -0.005
  C  C350  1  0.224600  0.000800  0.685980  1.0  -0.1343
  C  C351  1  0.270700  0.972200  0.705760  1.0  0.0877
  C  C352  1  0.301200  0.090800  0.721460  1.0  0.0388
  C  C353  1  0.284400  0.236800  0.716720  1.0  -0.1167
  C  C354  1  0.237800  0.265600  0.695740  1.0  0.0122
  C  C355  1  0.207700  0.146000  0.680500  1.0  0.062
  C  C356  1  0.317600  0.363800  0.733250  1.0  -0.0125
  C  C357  1  0.351200  0.062300  0.742100  1.0  -0.3523
  C  C358  1  0.288400  0.815000  0.709000  1.0  -0.3622
  C  C359  1  0.157600  0.177800  0.658100  1.0  -0.3569
  C  C360  1  0.221000  0.423200  0.689400  1.0  -0.3486
  C  C361  1  0.359100  0.528700  0.705160  1.0  0.2193
  C  C362  1  0.386800  0.585900  0.745070  1.0  -0.1276
  C  C363  1  0.417870  0.695800  0.749540  1.0  -0.1491
  C  C364  1  0.422270  0.751000  0.713720  1.0  -0.0168
  C  C365  1  0.394000  0.694500  0.673530  1.0  -0.1254
  C  C366  1  0.362800  0.587000  0.669380  1.0  -0.116
  C  C367  1  0.447270  0.755000  0.793870  1.0  0.7005
  C  C368  1  0.064080  0.478900  0.595390  1.0  0.6792
  C  C369  1  0.092690  0.569200  0.580720  1.0  -0.1502
  C  C370  1  0.083900  0.569900  0.537440  1.0  0.0179
  C  C371  1  0.111000  0.658900  0.524350  1.0  -0.1588
  C  C372  1  0.144500  0.744700  0.553760  1.0  -0.1474
  C  C373  1  0.152500  0.748100  0.597070  1.0  0.2271
  C  C374  1  0.126200  0.658000  0.610260  1.0  -0.1712
  C  C375  1  0.102900  0.658700  0.478010  1.0  0.6523
  C  C376  1  0.400000  0.745000  0.634880  1.0  0.6893
  C  C377  1  0.308200  0.372000  0.831750  1.0  -0.0063
  C  C378  1  0.275400  0.500800  0.814020  1.0  -0.1323
  C  C379  1  0.229300  0.472200  0.794240  1.0  0.0905
  C  C380  1  0.198800  0.590800  0.778540  1.0  0.0379
  C  C381  1  0.215600  0.736800  0.783280  1.0  -0.1139
  C  C382  1  0.262200  0.765600  0.804260  1.0  0.0158
  C  C383  1  0.292300  0.646000  0.819500  1.0  0.0644
  C  C384  1  0.182400  0.863800  0.766750  1.0  -0.0142
  C  C385  1  0.148800  0.562300  0.757900  1.0  -0.3531
  C  C386  1  0.211600  0.315000  0.791000  1.0  -0.3615
  C  C387  1  0.342400  0.677800  0.841900  1.0  -0.359
  C  C388  1  0.279000  0.923200  0.810600  1.0  -0.3482
  C  C389  1  0.140900  0.028700  0.794840  1.0  0.2194
  C  C390  1  0.113200  0.085900  0.754930  1.0  -0.1267
  C  C391  1  0.082130  0.195800  0.750460  1.0  -0.1499
  C  C392  1  0.077730  0.251000  0.786280  1.0  -0.0167
  C  C393  1  0.106000  0.194500  0.826470  1.0  -0.1215
  C  C394  1  0.137200  0.087000  0.830620  1.0  -0.115
  C  C395  1  0.052730  0.255000  0.706130  1.0  0.701
  C  C396  1  0.435920  0.978900  0.904610  1.0  0.679
  C  C397  1  0.407310  0.069200  0.919280  1.0  -0.1498
  C  C398  1  0.416100  0.069900  0.962560  1.0  0.018
  C  C399  1  0.389000  0.158900  0.975650  1.0  -0.1579
  C  C400  1  0.355500  0.244700  0.946240  1.0  -0.1467
  C  C401  1  0.347500  0.248100  0.902930  1.0  0.228
  C  C402  1  0.373800  0.158000  0.889740  1.0  -0.1704
  C  C403  1  0.397100  0.158700  0.021990  1.0  0.6528
  C  C404  1  0.100000  0.245000  0.865120  1.0  0.6898
  C  C405  1  0.808200  0.872000  0.831750  1.0  -0.0063
  C  C406  1  0.775400  0.000800  0.814020  1.0  -0.1323
  C  C407  1  0.729300  0.972200  0.794240  1.0  0.0905
  C  C408  1  0.698800  0.090800  0.778540  1.0  0.0379
  C  C409  1  0.715600  0.236800  0.783280  1.0  -0.1139
  C  C410  1  0.762200  0.265600  0.804260  1.0  0.0158
  C  C411  1  0.792300  0.146000  0.819500  1.0  0.0644
  C  C412  1  0.682400  0.363800  0.766750  1.0  -0.0142
  C  C413  1  0.648800  0.062300  0.757900  1.0  -0.3531
  C  C414  1  0.711600  0.815000  0.791000  1.0  -0.3615
  C  C415  1  0.842400  0.177800  0.841900  1.0  -0.359
  C  C416  1  0.779000  0.423200  0.810600  1.0  -0.3482
  C  C417  1  0.640900  0.528700  0.794840  1.0  0.2194
  C  C418  1  0.613200  0.585900  0.754930  1.0  -0.1267
  C  C419  1  0.582130  0.695800  0.750460  1.0  -0.1499
  C  C420  1  0.577730  0.751000  0.786280  1.0  -0.0167
  C  C421  1  0.606000  0.694500  0.826470  1.0  -0.1215
  C  C422  1  0.637200  0.587000  0.830620  1.0  -0.115
  C  C423  1  0.552730  0.755000  0.706130  1.0  0.701
  C  C424  1  0.935920  0.478900  0.904610  1.0  0.679
  C  C425  1  0.907310  0.569200  0.919280  1.0  -0.1498
  C  C426  1  0.916100  0.569900  0.962560  1.0  0.018
  C  C427  1  0.889000  0.658900  0.975650  1.0  -0.1579
  C  C428  1  0.855500  0.744700  0.946240  1.0  -0.1467
  C  C429  1  0.847500  0.748100  0.902930  1.0  0.228
  C  C430  1  0.873800  0.658000  0.889740  1.0  -0.1704
  C  C431  1  0.897100  0.658700  0.021990  1.0  0.6528
  C  C432  1  0.600000  0.745000  0.865120  1.0  0.6898
  N  N433  1  0.171700  0.082800  0.300800  1.0  -0.386
  N  N434  1  0.315700  0.657800  0.375400  1.0  -0.3986
  N  N435  1  0.671700  0.582800  0.300800  1.0  -0.386
  N  N436  1  0.815700  0.157800  0.375400  1.0  -0.3986
  N  N437  1  0.828300  0.082800  0.199200  1.0  -0.3879
  N  N438  1  0.684300  0.657800  0.124600  1.0  -0.4
  N  N439  1  0.328300  0.582800  0.199200  1.0  -0.3879
  N  N440  1  0.184300  0.157800  0.124600  1.0  -0.4
  N  N441  1  0.828300  0.917200  0.699200  1.0  -0.387
  N  N442  1  0.684300  0.342200  0.624600  1.0  -0.3996
  N  N443  1  0.328300  0.417200  0.699200  1.0  -0.387
  N  N444  1  0.184300  0.842200  0.624600  1.0  -0.3996
  N  N445  1  0.171700  0.917200  0.800800  1.0  -0.3863
  N  N446  1  0.315700  0.342200  0.875400  1.0  -0.3998
  N  N447  1  0.671700  0.417200  0.800800  1.0  -0.3863
  N  N448  1  0.815700  0.842200  0.875400  1.0  -0.3998
  O  O449  1  0.049280  0.819000  0.173940  1.0  -0.7208
  O  O450  1  0.032340  0.621800  0.202130  1.0  -0.6624
  O  O451  1  0.428730  0.017900  0.365860  1.0  -0.6398
  O  O452  1  0.467660  0.097400  0.431490  1.0  -0.6985
  O  O453  1  0.429240  0.906900  0.549280  1.0  -0.5521
  O  O454  1  0.367530  0.768900  0.529320  1.0  -0.5085
  O  O455  1  0.065150  0.701000  0.361540  1.0  -0.6918
  O  O456  1  0.133300  0.775200  0.401440  1.0  -0.5728
  O  O457  1  0.549280  0.319000  0.173940  1.0  -0.7208
  O  O458  1  0.532340  0.121800  0.202130  1.0  -0.6624
  O  O459  1  0.928730  0.517900  0.365860  1.0  -0.6398
  O  O460  1  0.967660  0.597400  0.431490  1.0  -0.6985
  O  O461  1  0.929240  0.406900  0.549280  1.0  -0.5521
  O  O462  1  0.867530  0.268900  0.529320  1.0  -0.5085
  O  O463  1  0.565150  0.201000  0.361540  1.0  -0.6918
  O  O464  1  0.633300  0.275200  0.401440  1.0  -0.5728
  O  O465  1  0.950720  0.819000  0.326060  1.0  -0.7189
  O  O466  1  0.967660  0.621800  0.297870  1.0  -0.6616
  O  O467  1  0.571270  0.017900  0.134140  1.0  -0.6431
  O  O468  1  0.532340  0.097400  0.068510  1.0  -0.6985
  O  O469  1  0.570760  0.906900  0.950720  1.0  -0.5517
  O  O470  1  0.632470  0.768900  0.970680  1.0  -0.5042
  O  O471  1  0.934850  0.701000  0.138460  1.0  -0.6925
  O  O472  1  0.866700  0.775200  0.098560  1.0  -0.5749
  O  O473  1  0.450720  0.319000  0.326060  1.0  -0.7189
  O  O474  1  0.467660  0.121800  0.297870  1.0  -0.6616
  O  O475  1  0.071270  0.517900  0.134140  1.0  -0.6431
  O  O476  1  0.032340  0.597400  0.068510  1.0  -0.6985
  O  O477  1  0.070760  0.406900  0.950720  1.0  -0.5517
  O  O478  1  0.132470  0.268900  0.970680  1.0  -0.5042
  O  O479  1  0.434850  0.201000  0.138460  1.0  -0.6925
  O  O480  1  0.366700  0.275200  0.098560  1.0  -0.5749
  O  O481  1  0.950720  0.181000  0.826060  1.0  -0.7165
  O  O482  1  0.967660  0.378200  0.797870  1.0  -0.6601
  O  O483  1  0.571270  0.982100  0.634140  1.0  -0.6433
  O  O484  1  0.532340  0.902600  0.568510  1.0  -0.6987
  O  O485  1  0.570760  0.093100  0.450720  1.0  -0.5532
  O  O486  1  0.632470  0.231100  0.470680  1.0  -0.5047
  O  O487  1  0.934850  0.299000  0.638460  1.0  -0.6917
  O  O488  1  0.866700  0.224800  0.598560  1.0  -0.5756
  O  O489  1  0.450720  0.681000  0.826060  1.0  -0.7165
  O  O490  1  0.467660  0.878200  0.797870  1.0  -0.6601
  O  O491  1  0.071270  0.482100  0.634140  1.0  -0.6433
  O  O492  1  0.032340  0.402600  0.568510  1.0  -0.6987
  O  O493  1  0.070760  0.593100  0.450720  1.0  -0.5532
  O  O494  1  0.132470  0.731100  0.470680  1.0  -0.5047
  O  O495  1  0.434850  0.799000  0.638460  1.0  -0.6917
  O  O496  1  0.366700  0.724800  0.598560  1.0  -0.5756
  O  O497  1  0.049280  0.181000  0.673940  1.0  -0.7211
  O  O498  1  0.032340  0.378200  0.702130  1.0  -0.6624
  O  O499  1  0.428730  0.982100  0.865860  1.0  -0.6399
  O  O500  1  0.467660  0.902600  0.931490  1.0  -0.698
  O  O501  1  0.429240  0.093100  0.049280  1.0  -0.5527
  O  O502  1  0.367530  0.231100  0.029320  1.0  -0.5085
  O  O503  1  0.065150  0.299000  0.861540  1.0  -0.6917
  O  O504  1  0.133300  0.224800  0.901440  1.0  -0.5732
  O  O505  1  0.549280  0.681000  0.673940  1.0  -0.7211
  O  O506  1  0.532340  0.878200  0.702130  1.0  -0.6624
  O  O507  1  0.928730  0.482100  0.865860  1.0  -0.6399
  O  O508  1  0.967660  0.402600  0.931490  1.0  -0.698
  O  O509  1  0.929240  0.593100  0.049280  1.0  -0.5527
  O  O510  1  0.867530  0.731100  0.029320  1.0  -0.5085
  O  O511  1  0.565150  0.799000  0.861540  1.0  -0.6917
  O  O512  1  0.633300  0.724800  0.901440  1.0  -0.5732
