# generated using pymatgen
data_SmH25C28(NO4)2
_symmetry_space_group_name_H-M   'P 1'
_cell_length_a   32.84000000
_cell_length_b   8.99800000
_cell_length_c   34.21000000
_cell_angle_alpha   90.00000000
_cell_angle_beta   115.56400000
_cell_angle_gamma   90.00000000
_symmetry_Int_Tables_number   1
_chemical_formula_structural   SmH25C28(NO4)2
_chemical_formula_sum   'Sm8 H200 C224 N16 O64'
_cell_volume   9119.24200205
_cell_formula_units_Z   8
loop_
 _symmetry_equiv_pos_site_id
 _symmetry_equiv_pos_as_xyz
  1  'x, y, z'
loop_
 _atom_site_type_symbol
 _atom_site_label
 _atom_site_symmetry_multiplicity
 _atom_site_fract_x
 _atom_site_fract_y
 _atom_site_fract_z
 _atom_site_occupancy
 _atom_site_charge
  Sm  Sm1  1  0.003810  0.857550  0.881030  1.0  2.1247
  Sm  Sm2  1  0.503810  0.357550  0.881030  1.0  2.1247
  Sm  Sm3  1  0.996190  0.857550  0.618970  1.0  2.1229
  Sm  Sm4  1  0.496190  0.357550  0.618970  1.0  2.1229
  Sm  Sm5  1  0.996190  0.142450  0.118970  1.0  2.1229
  Sm  Sm6  1  0.496190  0.642450  0.118970  1.0  2.1229
  Sm  Sm7  1  0.003810  0.142450  0.381030  1.0  2.1247
  Sm  Sm8  1  0.503810  0.642450  0.381030  1.0  2.1247
  H  H9  1  0.373500  0.736400  0.079900  1.0  0.3274
  H  H10  1  0.317600  0.121800  0.174800  1.0  0.2647
  H  H11  1  0.199900  0.614000  0.114900  1.0  0.2614
  H  H12  1  0.445000  0.672600  0.218200  1.0  0.1151
  H  H13  1  0.386800  0.947400  0.271600  1.0  0.1012
  H  H14  1  0.345100  0.942300  0.142500  1.0  0.1162
  H  H15  1  0.344800  0.172300  0.258100  1.0  0.0744
  H  H16  1  0.305100  0.057000  0.243400  1.0  0.0828
  H  H17  1  0.212400  0.045100  0.159500  1.0  0.1136
  H  H18  1  0.194600  0.069500  0.194800  1.0  0.1028
  H  H19  1  0.243800  0.011000  0.208300  1.0  0.1131
  H  H20  1  0.145100  0.335200  0.178700  1.0  0.1238
  H  H21  1  0.152600  0.225500  0.146800  1.0  0.103
  H  H22  1  0.143000  0.394100  0.134800  1.0  0.1087
  H  H23  1  0.368000  0.352200  0.245300  1.0  0.0987
  H  H24  1  0.360600  0.493700  0.268200  1.0  0.116
  H  H25  1  0.358300  0.506300  0.221600  1.0  0.1137
  H  H26  1  0.162800  0.605900  0.169700  1.0  0.0592
  H  H27  1  0.203600  0.717900  0.186300  1.0  0.0836
  H  H28  1  0.161700  0.704600  0.044500  1.0  0.1192
  H  H29  1  0.059300  0.994700  0.017300  1.0  0.111
  H  H30  1  0.130200  0.848100  0.139100  1.0  0.1018
  H  H31  1  0.264500  0.752400  0.192400  1.0  0.1124
  H  H32  1  0.311300  0.688900  0.198300  1.0  0.0994
  H  H33  1  0.301800  0.715800  0.238900  1.0  0.1112
  H  H34  1  0.873500  0.236400  0.079900  1.0  0.3274
  H  H35  1  0.817600  0.621800  0.174800  1.0  0.2647
  H  H36  1  0.699900  0.114000  0.114900  1.0  0.2614
  H  H37  1  0.945000  0.172600  0.218200  1.0  0.1151
  H  H38  1  0.886800  0.447400  0.271600  1.0  0.1012
  H  H39  1  0.845100  0.442300  0.142500  1.0  0.1162
  H  H40  1  0.844800  0.672300  0.258100  1.0  0.0744
  H  H41  1  0.805100  0.557000  0.243400  1.0  0.0828
  H  H42  1  0.712400  0.545100  0.159500  1.0  0.1136
  H  H43  1  0.694600  0.569500  0.194800  1.0  0.1028
  H  H44  1  0.743800  0.511000  0.208300  1.0  0.1131
  H  H45  1  0.645100  0.835200  0.178700  1.0  0.1238
  H  H46  1  0.652600  0.725500  0.146800  1.0  0.103
  H  H47  1  0.643000  0.894100  0.134800  1.0  0.1087
  H  H48  1  0.868000  0.852200  0.245300  1.0  0.0987
  H  H49  1  0.860600  0.993700  0.268200  1.0  0.116
  H  H50  1  0.858300  0.006300  0.221600  1.0  0.1137
  H  H51  1  0.662800  0.105900  0.169700  1.0  0.0592
  H  H52  1  0.703600  0.217900  0.186300  1.0  0.0836
  H  H53  1  0.661700  0.204600  0.044500  1.0  0.1192
  H  H54  1  0.559300  0.494700  0.017300  1.0  0.111
  H  H55  1  0.630200  0.348100  0.139100  1.0  0.1018
  H  H56  1  0.764500  0.252400  0.192400  1.0  0.1124
  H  H57  1  0.811300  0.188900  0.198300  1.0  0.0994
  H  H58  1  0.801800  0.215800  0.238900  1.0  0.1112
  H  H59  1  0.626500  0.736400  0.420100  1.0  0.3281
  H  H60  1  0.682400  0.121800  0.325200  1.0  0.2612
  H  H61  1  0.800100  0.614000  0.385100  1.0  0.2593
  H  H62  1  0.555000  0.672600  0.281800  1.0  0.1155
  H  H63  1  0.613200  0.947400  0.228400  1.0  0.1006
  H  H64  1  0.654900  0.942300  0.357500  1.0  0.1164
  H  H65  1  0.655200  0.172300  0.241900  1.0  0.0743
  H  H66  1  0.694900  0.057000  0.256600  1.0  0.081
  H  H67  1  0.787600  0.045100  0.340500  1.0  0.1145
  H  H68  1  0.805400  0.069500  0.305200  1.0  0.1023
  H  H69  1  0.756200  0.011000  0.291700  1.0  0.1143
  H  H70  1  0.854900  0.335200  0.321300  1.0  0.1234
  H  H71  1  0.847400  0.225500  0.353200  1.0  0.104
  H  H72  1  0.857000  0.394100  0.365200  1.0  0.1091
  H  H73  1  0.632000  0.352200  0.254700  1.0  0.0992
  H  H74  1  0.639400  0.493700  0.231800  1.0  0.1164
  H  H75  1  0.641700  0.506300  0.278400  1.0  0.1134
  H  H76  1  0.837200  0.605900  0.330300  1.0  0.0613
  H  H77  1  0.796400  0.717900  0.313700  1.0  0.0822
  H  H78  1  0.838300  0.704600  0.455500  1.0  0.1197
  H  H79  1  0.940700  0.994700  0.482700  1.0  0.1108
  H  H80  1  0.869800  0.848100  0.360900  1.0  0.1021
  H  H81  1  0.735500  0.752400  0.307600  1.0  0.1135
  H  H82  1  0.688700  0.688900  0.301700  1.0  0.1004
  H  H83  1  0.698200  0.715800  0.261100  1.0  0.1121
  H  H84  1  0.126500  0.236400  0.420100  1.0  0.3281
  H  H85  1  0.182400  0.621800  0.325200  1.0  0.2612
  H  H86  1  0.300100  0.114000  0.385100  1.0  0.2593
  H  H87  1  0.055000  0.172600  0.281800  1.0  0.1155
  H  H88  1  0.113200  0.447400  0.228400  1.0  0.1006
  H  H89  1  0.154900  0.442300  0.357500  1.0  0.1164
  H  H90  1  0.155200  0.672300  0.241900  1.0  0.0743
  H  H91  1  0.194900  0.557000  0.256600  1.0  0.081
  H  H92  1  0.287600  0.545100  0.340500  1.0  0.1145
  H  H93  1  0.305400  0.569500  0.305200  1.0  0.1023
  H  H94  1  0.256200  0.511000  0.291700  1.0  0.1143
  H  H95  1  0.354900  0.835200  0.321300  1.0  0.1234
  H  H96  1  0.347400  0.725500  0.353200  1.0  0.104
  H  H97  1  0.357000  0.894100  0.365200  1.0  0.1091
  H  H98  1  0.132000  0.852200  0.254700  1.0  0.0992
  H  H99  1  0.139400  0.993700  0.231800  1.0  0.1164
  H  H100  1  0.141700  0.006300  0.278400  1.0  0.1134
  H  H101  1  0.337200  0.105900  0.330300  1.0  0.0613
  H  H102  1  0.296400  0.217900  0.313700  1.0  0.0822
  H  H103  1  0.338300  0.204600  0.455500  1.0  0.1197
  H  H104  1  0.440700  0.494700  0.482700  1.0  0.1108
  H  H105  1  0.369800  0.348100  0.360900  1.0  0.1021
  H  H106  1  0.235500  0.252400  0.307600  1.0  0.1135
  H  H107  1  0.188700  0.188900  0.301700  1.0  0.1004
  H  H108  1  0.198200  0.215800  0.261100  1.0  0.1121
  H  H109  1  0.626500  0.263600  0.920100  1.0  0.3277
  H  H110  1  0.682400  0.878200  0.825200  1.0  0.2614
  H  H111  1  0.800100  0.386000  0.885100  1.0  0.2586
  H  H112  1  0.555000  0.327400  0.781800  1.0  0.1157
  H  H113  1  0.613200  0.052600  0.728400  1.0  0.1005
  H  H114  1  0.654900  0.057700  0.857500  1.0  0.1162
  H  H115  1  0.655200  0.827700  0.741900  1.0  0.0741
  H  H116  1  0.694900  0.943000  0.756600  1.0  0.0808
  H  H117  1  0.787600  0.954900  0.840500  1.0  0.1146
  H  H118  1  0.805400  0.930500  0.805200  1.0  0.1018
  H  H119  1  0.756200  0.989000  0.791700  1.0  0.1145
  H  H120  1  0.854900  0.664800  0.821300  1.0  0.1239
  H  H121  1  0.847400  0.774500  0.853200  1.0  0.1032
  H  H122  1  0.857000  0.605900  0.865200  1.0  0.1092
  H  H123  1  0.632000  0.647800  0.754700  1.0  0.0994
  H  H124  1  0.639400  0.506300  0.731800  1.0  0.1168
  H  H125  1  0.641700  0.493700  0.778400  1.0  0.1137
  H  H126  1  0.837200  0.394100  0.830300  1.0  0.0612
  H  H127  1  0.796400  0.282100  0.813700  1.0  0.0827
  H  H128  1  0.838300  0.295400  0.955500  1.0  0.1199
  H  H129  1  0.940700  0.005300  0.982700  1.0  0.1108
  H  H130  1  0.869800  0.151900  0.860900  1.0  0.102
  H  H131  1  0.735500  0.247600  0.807600  1.0  0.1143
  H  H132  1  0.688700  0.311100  0.801700  1.0  0.1002
  H  H133  1  0.698200  0.284200  0.761100  1.0  0.113
  H  H134  1  0.126500  0.763600  0.920100  1.0  0.3277
  H  H135  1  0.182400  0.378200  0.825200  1.0  0.2614
  H  H136  1  0.300100  0.886000  0.885100  1.0  0.2586
  H  H137  1  0.055000  0.827400  0.781800  1.0  0.1157
  H  H138  1  0.113200  0.552600  0.728400  1.0  0.1005
  H  H139  1  0.154900  0.557700  0.857500  1.0  0.1162
  H  H140  1  0.155200  0.327700  0.741900  1.0  0.0741
  H  H141  1  0.194900  0.443000  0.756600  1.0  0.0808
  H  H142  1  0.287600  0.454900  0.840500  1.0  0.1146
  H  H143  1  0.305400  0.430500  0.805200  1.0  0.1018
  H  H144  1  0.256200  0.489000  0.791700  1.0  0.1145
  H  H145  1  0.354900  0.164800  0.821300  1.0  0.1239
  H  H146  1  0.347400  0.274500  0.853200  1.0  0.1032
  H  H147  1  0.357000  0.105900  0.865200  1.0  0.1092
  H  H148  1  0.132000  0.147800  0.754700  1.0  0.0994
  H  H149  1  0.139400  0.006300  0.731800  1.0  0.1168
  H  H150  1  0.141700  0.993700  0.778400  1.0  0.1137
  H  H151  1  0.337200  0.894100  0.830300  1.0  0.0612
  H  H152  1  0.296400  0.782100  0.813700  1.0  0.0827
  H  H153  1  0.338300  0.795400  0.955500  1.0  0.1199
  H  H154  1  0.440700  0.505300  0.982700  1.0  0.1108
  H  H155  1  0.369800  0.651900  0.860900  1.0  0.102
  H  H156  1  0.235500  0.747600  0.807600  1.0  0.1143
  H  H157  1  0.188700  0.811100  0.801700  1.0  0.1002
  H  H158  1  0.198200  0.784200  0.761100  1.0  0.113
  H  H159  1  0.373500  0.263600  0.579900  1.0  0.3267
  H  H160  1  0.317600  0.878200  0.674800  1.0  0.2637
  H  H161  1  0.199900  0.386000  0.614900  1.0  0.261
  H  H162  1  0.445000  0.327400  0.718200  1.0  0.1157
  H  H163  1  0.386800  0.052600  0.771600  1.0  0.1013
  H  H164  1  0.345100  0.057700  0.642500  1.0  0.1158
  H  H165  1  0.344800  0.827700  0.758100  1.0  0.0742
  H  H166  1  0.305100  0.943000  0.743400  1.0  0.0824
  H  H167  1  0.212400  0.954900  0.659500  1.0  0.1139
  H  H168  1  0.194600  0.930500  0.694800  1.0  0.1027
  H  H169  1  0.243800  0.989000  0.708300  1.0  0.1138
  H  H170  1  0.145100  0.664800  0.678700  1.0  0.1236
  H  H171  1  0.152600  0.774500  0.646800  1.0  0.1038
  H  H172  1  0.143000  0.605900  0.634800  1.0  0.1088
  H  H173  1  0.368000  0.647800  0.745300  1.0  0.0997
  H  H174  1  0.360600  0.506300  0.768200  1.0  0.1155
  H  H175  1  0.358300  0.493700  0.721600  1.0  0.1143
  H  H176  1  0.162800  0.394100  0.669700  1.0  0.0592
  H  H177  1  0.203600  0.282100  0.686300  1.0  0.0845
  H  H178  1  0.161700  0.295400  0.544500  1.0  0.1196
  H  H179  1  0.059300  0.005300  0.517300  1.0  0.1107
  H  H180  1  0.130200  0.151900  0.639100  1.0  0.1021
  H  H181  1  0.264500  0.247600  0.692400  1.0  0.1122
  H  H182  1  0.311300  0.311100  0.698300  1.0  0.0995
  H  H183  1  0.301800  0.284200  0.738900  1.0  0.1116
  H  H184  1  0.873500  0.763600  0.579900  1.0  0.3267
  H  H185  1  0.817600  0.378200  0.674800  1.0  0.2637
  H  H186  1  0.699900  0.886000  0.614900  1.0  0.261
  H  H187  1  0.945000  0.827400  0.718200  1.0  0.1157
  H  H188  1  0.886800  0.552600  0.771600  1.0  0.1013
  H  H189  1  0.845100  0.557700  0.642500  1.0  0.1158
  H  H190  1  0.844800  0.327700  0.758100  1.0  0.0742
  H  H191  1  0.805100  0.443000  0.743400  1.0  0.0824
  H  H192  1  0.712400  0.454900  0.659500  1.0  0.1139
  H  H193  1  0.694600  0.430500  0.694800  1.0  0.1027
  H  H194  1  0.743800  0.489000  0.708300  1.0  0.1138
  H  H195  1  0.645100  0.164800  0.678700  1.0  0.1236
  H  H196  1  0.652600  0.274500  0.646800  1.0  0.1038
  H  H197  1  0.643000  0.105900  0.634800  1.0  0.1088
  H  H198  1  0.868000  0.147800  0.745300  1.0  0.0997
  H  H199  1  0.860600  0.006300  0.768200  1.0  0.1155
  H  H200  1  0.858300  0.993700  0.721600  1.0  0.1143
  H  H201  1  0.662800  0.894100  0.669700  1.0  0.0592
  H  H202  1  0.703600  0.782100  0.686300  1.0  0.0845
  H  H203  1  0.661700  0.795400  0.544500  1.0  0.1196
  H  H204  1  0.559300  0.505300  0.517300  1.0  0.1107
  H  H205  1  0.630200  0.651900  0.639100  1.0  0.1021
  H  H206  1  0.764500  0.747600  0.692400  1.0  0.1122
  H  H207  1  0.811300  0.811100  0.698300  1.0  0.0995
  H  H208  1  0.801800  0.784200  0.738900  1.0  0.1116
  C  C209  1  0.402800  0.751900  0.135600  1.0  0.662
  C  C210  1  0.397300  0.808000  0.175500  1.0  -0.116
  C  C211  1  0.424500  0.747900  0.215400  1.0  -0.0558
  C  C212  1  0.420200  0.803900  0.251100  1.0  -0.1215
  C  C213  1  0.389300  0.912800  0.247100  1.0  -0.1329
  C  C214  1  0.361200  0.972800  0.205700  1.0  0.2125
  C  C215  1  0.364800  0.912200  0.170200  1.0  -0.1132
  C  C216  1  0.449600  0.741100  0.296000  1.0  0.6977
  C  C217  1  0.318000  0.137500  0.233500  1.0  -0.0288
  C  C218  1  0.284200  0.263200  0.216800  1.0  -0.0969
  C  C219  1  0.237700  0.232800  0.195100  1.0  0.05
  C  C220  1  0.208000  0.356700  0.180200  1.0  -0.03
  C  C221  1  0.224200  0.500100  0.185900  1.0  -0.1216
  C  C222  1  0.270500  0.529700  0.205200  1.0  0.0497
  C  C223  1  0.300500  0.411700  0.221000  1.0  0.0324
  C  C224  1  0.220600  0.075400  0.188900  1.0  -0.3484
  C  C225  1  0.157500  0.325000  0.158100  1.0  -0.3665
  C  C226  1  0.351700  0.444000  0.240900  1.0  -0.3463
  C  C227  1  0.191100  0.630500  0.168500  1.0  -0.0085
  C  C228  1  0.151400  0.755400  0.097200  1.0  0.2289
  C  C229  1  0.143600  0.760100  0.053800  1.0  -0.1099
  C  C230  1  0.108800  0.847300  0.024100  1.0  -0.139
  C  C231  1  0.082100  0.935600  0.037100  1.0  0.0066
  C  C232  1  0.090600  0.932600  0.080500  1.0  -0.1464
  C  C233  1  0.124800  0.846100  0.110100  1.0  -0.1768
  C  C234  1  0.101200  0.844300  0.976700  1.0  0.6638
  C  C235  1  0.063200  0.030000  0.096000  1.0  0.7053
  C  C236  1  0.288700  0.686000  0.209100  1.0  -0.3502
  C  C237  1  0.902800  0.251900  0.135600  1.0  0.662
  C  C238  1  0.897300  0.308000  0.175500  1.0  -0.116
  C  C239  1  0.924500  0.247900  0.215400  1.0  -0.0558
  C  C240  1  0.920200  0.303900  0.251100  1.0  -0.1215
  C  C241  1  0.889300  0.412800  0.247100  1.0  -0.1329
  C  C242  1  0.861200  0.472800  0.205700  1.0  0.2125
  C  C243  1  0.864800  0.412200  0.170200  1.0  -0.1132
  C  C244  1  0.949600  0.241100  0.296000  1.0  0.6977
  C  C245  1  0.818000  0.637500  0.233500  1.0  -0.0288
  C  C246  1  0.784200  0.763200  0.216800  1.0  -0.0969
  C  C247  1  0.737700  0.732800  0.195100  1.0  0.05
  C  C248  1  0.708000  0.856700  0.180200  1.0  -0.03
  C  C249  1  0.724200  0.000100  0.185900  1.0  -0.1216
  C  C250  1  0.770500  0.029700  0.205200  1.0  0.0497
  C  C251  1  0.800500  0.911700  0.221000  1.0  0.0324
  C  C252  1  0.720600  0.575400  0.188900  1.0  -0.3484
  C  C253  1  0.657500  0.825000  0.158100  1.0  -0.3665
  C  C254  1  0.851700  0.944000  0.240900  1.0  -0.3463
  C  C255  1  0.691100  0.130500  0.168500  1.0  -0.0085
  C  C256  1  0.651400  0.255400  0.097200  1.0  0.2289
  C  C257  1  0.643600  0.260100  0.053800  1.0  -0.1099
  C  C258  1  0.608800  0.347300  0.024100  1.0  -0.139
  C  C259  1  0.582100  0.435600  0.037100  1.0  0.0066
  C  C260  1  0.590600  0.432600  0.080500  1.0  -0.1464
  C  C261  1  0.624800  0.346100  0.110100  1.0  -0.1768
  C  C262  1  0.601200  0.344300  0.976700  1.0  0.6638
  C  C263  1  0.563200  0.530000  0.096000  1.0  0.7053
  C  C264  1  0.788700  0.186000  0.209100  1.0  -0.3502
  C  C265  1  0.597200  0.751900  0.364400  1.0  0.6618
  C  C266  1  0.602700  0.808000  0.324500  1.0  -0.1105
  C  C267  1  0.575500  0.747900  0.284600  1.0  -0.0542
  C  C268  1  0.579800  0.803900  0.248900  1.0  -0.1201
  C  C269  1  0.610700  0.912800  0.252900  1.0  -0.1336
  C  C270  1  0.638800  0.972800  0.294300  1.0  0.2122
  C  C271  1  0.635200  0.912200  0.329800  1.0  -0.1151
  C  C272  1  0.550400  0.741100  0.204000  1.0  0.6986
  C  C273  1  0.682000  0.137500  0.266500  1.0  -0.0312
  C  C274  1  0.715800  0.263200  0.283200  1.0  -0.0974
  C  C275  1  0.762300  0.232800  0.304900  1.0  0.0514
  C  C276  1  0.792000  0.356700  0.319800  1.0  -0.0303
  C  C277  1  0.775800  0.500100  0.314100  1.0  -0.1194
  C  C278  1  0.729500  0.529700  0.294800  1.0  0.053
  C  C279  1  0.699500  0.411700  0.279000  1.0  0.0313
  C  C280  1  0.779400  0.075400  0.311100  1.0  -0.3488
  C  C281  1  0.842500  0.325000  0.341900  1.0  -0.3649
  C  C282  1  0.648300  0.444000  0.259100  1.0  -0.3494
  C  C283  1  0.808900  0.630500  0.331500  1.0  -0.0101
  C  C284  1  0.848600  0.755400  0.402800  1.0  0.2286
  C  C285  1  0.856400  0.760100  0.446200  1.0  -0.1116
  C  C286  1  0.891200  0.847300  0.475900  1.0  -0.1404
  C  C287  1  0.917900  0.935600  0.462900  1.0  0.0059
  C  C288  1  0.909400  0.932600  0.419500  1.0  -0.1461
  C  C289  1  0.875200  0.846100  0.389900  1.0  -0.1761
  C  C290  1  0.898800  0.844300  0.523300  1.0  0.665
  C  C291  1  0.936800  0.030000  0.404000  1.0  0.7031
  C  C292  1  0.711300  0.686000  0.290900  1.0  -0.3475
  C  C293  1  0.097200  0.251900  0.364400  1.0  0.6618
  C  C294  1  0.102700  0.308000  0.324500  1.0  -0.1105
  C  C295  1  0.075500  0.247900  0.284600  1.0  -0.0542
  C  C296  1  0.079800  0.303900  0.248900  1.0  -0.1201
  C  C297  1  0.110700  0.412800  0.252900  1.0  -0.1336
  C  C298  1  0.138800  0.472800  0.294300  1.0  0.2122
  C  C299  1  0.135200  0.412200  0.329800  1.0  -0.1151
  C  C300  1  0.050400  0.241100  0.204000  1.0  0.6986
  C  C301  1  0.182000  0.637500  0.266500  1.0  -0.0312
  C  C302  1  0.215800  0.763200  0.283200  1.0  -0.0974
  C  C303  1  0.262300  0.732800  0.304900  1.0  0.0514
  C  C304  1  0.292000  0.856700  0.319800  1.0  -0.0303
  C  C305  1  0.275800  0.000100  0.314100  1.0  -0.1194
  C  C306  1  0.229500  0.029700  0.294800  1.0  0.053
  C  C307  1  0.199500  0.911700  0.279000  1.0  0.0313
  C  C308  1  0.279400  0.575400  0.311100  1.0  -0.3488
  C  C309  1  0.342500  0.825000  0.341900  1.0  -0.3649
  C  C310  1  0.148300  0.944000  0.259100  1.0  -0.3494
  C  C311  1  0.308900  0.130500  0.331500  1.0  -0.0101
  C  C312  1  0.348600  0.255400  0.402800  1.0  0.2286
  C  C313  1  0.356400  0.260100  0.446200  1.0  -0.1116
  C  C314  1  0.391200  0.347300  0.475900  1.0  -0.1404
  C  C315  1  0.417900  0.435600  0.462900  1.0  0.0059
  C  C316  1  0.409400  0.432600  0.419500  1.0  -0.1461
  C  C317  1  0.375200  0.346100  0.389900  1.0  -0.1761
  C  C318  1  0.398800  0.344300  0.523300  1.0  0.665
  C  C319  1  0.436800  0.530000  0.404000  1.0  0.7031
  C  C320  1  0.211300  0.186000  0.290900  1.0  -0.3475
  C  C321  1  0.597200  0.248100  0.864400  1.0  0.6614
  C  C322  1  0.602700  0.192000  0.824500  1.0  -0.1107
  C  C323  1  0.575500  0.252100  0.784600  1.0  -0.0549
  C  C324  1  0.579800  0.196100  0.748900  1.0  -0.1199
  C  C325  1  0.610700  0.087200  0.752900  1.0  -0.1327
  C  C326  1  0.638800  0.027200  0.794300  1.0  0.2132
  C  C327  1  0.635200  0.087800  0.829800  1.0  -0.1148
  C  C328  1  0.550400  0.258900  0.704000  1.0  0.699
  C  C329  1  0.682000  0.862500  0.766500  1.0  -0.0312
  C  C330  1  0.715800  0.736800  0.783200  1.0  -0.0965
  C  C331  1  0.762300  0.767200  0.804900  1.0  0.0513
  C  C332  1  0.792000  0.643300  0.819800  1.0  -0.0304
  C  C333  1  0.775800  0.499900  0.814100  1.0  -0.1192
  C  C334  1  0.729500  0.470300  0.794800  1.0  0.0526
  C  C335  1  0.699500  0.588300  0.779000  1.0  0.0309
  C  C336  1  0.779400  0.924600  0.811100  1.0  -0.3478
  C  C337  1  0.842500  0.675000  0.841900  1.0  -0.3648
  C  C338  1  0.648300  0.556000  0.759100  1.0  -0.3492
  C  C339  1  0.808900  0.369500  0.831500  1.0  -0.0102
  C  C340  1  0.848600  0.244600  0.902800  1.0  0.2292
  C  C341  1  0.856400  0.239900  0.946200  1.0  -0.1115
  C  C342  1  0.891200  0.152700  0.975900  1.0  -0.1403
  C  C343  1  0.917900  0.064400  0.962900  1.0  0.0062
  C  C344  1  0.909400  0.067400  0.919500  1.0  -0.1464
  C  C345  1  0.875200  0.153900  0.889900  1.0  -0.1758
  C  C346  1  0.898800  0.155700  0.023300  1.0  0.6653
  C  C347  1  0.936800  0.970000  0.904000  1.0  0.7029
  C  C348  1  0.711300  0.314000  0.790900  1.0  -0.3487
  C  C349  1  0.097200  0.748100  0.864400  1.0  0.6614
  C  C350  1  0.102700  0.692000  0.824500  1.0  -0.1107
  C  C351  1  0.075500  0.752100  0.784600  1.0  -0.0549
  C  C352  1  0.079800  0.696100  0.748900  1.0  -0.1199
  C  C353  1  0.110700  0.587200  0.752900  1.0  -0.1327
  C  C354  1  0.138800  0.527200  0.794300  1.0  0.2132
  C  C355  1  0.135200  0.587800  0.829800  1.0  -0.1148
  C  C356  1  0.050400  0.758900  0.704000  1.0  0.699
  C  C357  1  0.182000  0.362500  0.766500  1.0  -0.0312
  C  C358  1  0.215800  0.236800  0.783200  1.0  -0.0965
  C  C359  1  0.262300  0.267200  0.804900  1.0  0.0513
  C  C360  1  0.292000  0.143300  0.819800  1.0  -0.0304
  C  C361  1  0.275800  0.999900  0.814100  1.0  -0.1192
  C  C362  1  0.229500  0.970300  0.794800  1.0  0.0526
  C  C363  1  0.199500  0.088300  0.779000  1.0  0.0309
  C  C364  1  0.279400  0.424600  0.811100  1.0  -0.3478
  C  C365  1  0.342500  0.175000  0.841900  1.0  -0.3648
  C  C366  1  0.148300  0.056000  0.759100  1.0  -0.3492
  C  C367  1  0.308900  0.869500  0.831500  1.0  -0.0102
  C  C368  1  0.348600  0.744600  0.902800  1.0  0.2292
  C  C369  1  0.356400  0.739900  0.946200  1.0  -0.1115
  C  C370  1  0.391200  0.652700  0.975900  1.0  -0.1403
  C  C371  1  0.417900  0.564400  0.962900  1.0  0.0062
  C  C372  1  0.409400  0.567400  0.919500  1.0  -0.1464
  C  C373  1  0.375200  0.653900  0.889900  1.0  -0.1758
  C  C374  1  0.398800  0.655700  0.023300  1.0  0.6653
  C  C375  1  0.436800  0.470000  0.904000  1.0  0.7029
  C  C376  1  0.211300  0.814000  0.790900  1.0  -0.3487
  C  C377  1  0.402800  0.248100  0.635600  1.0  0.6617
  C  C378  1  0.397300  0.192000  0.675500  1.0  -0.1156
  C  C379  1  0.424500  0.252100  0.715400  1.0  -0.0563
  C  C380  1  0.420200  0.196100  0.751100  1.0  -0.1212
  C  C381  1  0.389300  0.087200  0.747100  1.0  -0.133
  C  C382  1  0.361200  0.027200  0.705700  1.0  0.2113
  C  C383  1  0.364800  0.087800  0.670200  1.0  -0.1138
  C  C384  1  0.449600  0.258900  0.796000  1.0  0.6976
  C  C385  1  0.318000  0.862500  0.733500  1.0  -0.0286
  C  C386  1  0.284200  0.736800  0.716800  1.0  -0.0969
  C  C387  1  0.237700  0.767200  0.695100  1.0  0.0487
  C  C388  1  0.208000  0.643300  0.680200  1.0  -0.0304
  C  C389  1  0.224200  0.499900  0.685900  1.0  -0.1206
  C  C390  1  0.270500  0.470300  0.705200  1.0  0.0505
  C  C391  1  0.300500  0.588300  0.721000  1.0  0.0327
  C  C392  1  0.220600  0.924600  0.688900  1.0  -0.3476
  C  C393  1  0.157500  0.675000  0.658100  1.0  -0.3663
  C  C394  1  0.351700  0.556000  0.740900  1.0  -0.3468
  C  C395  1  0.191100  0.369500  0.668500  1.0  -0.009
  C  C396  1  0.151400  0.244600  0.597200  1.0  0.2287
  C  C397  1  0.143600  0.239900  0.553800  1.0  -0.1097
  C  C398  1  0.108800  0.152700  0.524100  1.0  -0.1391
  C  C399  1  0.082100  0.064400  0.537100  1.0  0.0065
  C  C400  1  0.090600  0.067400  0.580500  1.0  -0.147
  C  C401  1  0.124800  0.153900  0.610100  1.0  -0.1765
  C  C402  1  0.101200  0.155700  0.476700  1.0  0.6641
  C  C403  1  0.063200  0.970000  0.596000  1.0  0.7051
  C  C404  1  0.288700  0.314000  0.709100  1.0  -0.3507
  C  C405  1  0.902800  0.748100  0.635600  1.0  0.6617
  C  C406  1  0.897300  0.692000  0.675500  1.0  -0.1156
  C  C407  1  0.924500  0.752100  0.715400  1.0  -0.0563
  C  C408  1  0.920200  0.696100  0.751100  1.0  -0.1212
  C  C409  1  0.889300  0.587200  0.747100  1.0  -0.133
  C  C410  1  0.861200  0.527200  0.705700  1.0  0.2113
  C  C411  1  0.864800  0.587800  0.670200  1.0  -0.1138
  C  C412  1  0.949600  0.758900  0.796000  1.0  0.6976
  C  C413  1  0.818000  0.362500  0.733500  1.0  -0.0286
  C  C414  1  0.784200  0.236800  0.716800  1.0  -0.0969
  C  C415  1  0.737700  0.267200  0.695100  1.0  0.0487
  C  C416  1  0.708000  0.143300  0.680200  1.0  -0.0304
  C  C417  1  0.724200  0.999900  0.685900  1.0  -0.1206
  C  C418  1  0.770500  0.970300  0.705200  1.0  0.0505
  C  C419  1  0.800500  0.088300  0.721000  1.0  0.0327
  C  C420  1  0.720600  0.424600  0.688900  1.0  -0.3476
  C  C421  1  0.657500  0.175000  0.658100  1.0  -0.3663
  C  C422  1  0.851700  0.056000  0.740900  1.0  -0.3468
  C  C423  1  0.691100  0.869500  0.668500  1.0  -0.009
  C  C424  1  0.651400  0.744600  0.597200  1.0  0.2287
  C  C425  1  0.643600  0.739900  0.553800  1.0  -0.1097
  C  C426  1  0.608800  0.652700  0.524100  1.0  -0.1391
  C  C427  1  0.582100  0.564400  0.537100  1.0  0.0065
  C  C428  1  0.590600  0.567400  0.580500  1.0  -0.147
  C  C429  1  0.624800  0.653900  0.610100  1.0  -0.1765
  C  C430  1  0.601200  0.655700  0.476700  1.0  0.6641
  C  C431  1  0.563200  0.470000  0.596000  1.0  0.7051
  C  C432  1  0.788700  0.814000  0.709100  1.0  -0.3507
  N  N433  1  0.330600  0.082000  0.200000  1.0  -0.4059
  N  N434  1  0.183300  0.659900  0.124700  1.0  -0.411
  N  N435  1  0.830600  0.582000  0.200000  1.0  -0.4059
  N  N436  1  0.683300  0.159900  0.124700  1.0  -0.411
  N  N437  1  0.669400  0.082000  0.300000  1.0  -0.4085
  N  N438  1  0.816700  0.659900  0.375300  1.0  -0.4092
  N  N439  1  0.169400  0.582000  0.300000  1.0  -0.4085
  N  N440  1  0.316700  0.159900  0.375300  1.0  -0.4092
  N  N441  1  0.669400  0.918000  0.800000  1.0  -0.4087
  N  N442  1  0.816700  0.340100  0.875300  1.0  -0.41
  N  N443  1  0.169400  0.418000  0.800000  1.0  -0.4087
  N  N444  1  0.316700  0.840100  0.875300  1.0  -0.41
  N  N445  1  0.330600  0.918000  0.700000  1.0  -0.4044
  N  N446  1  0.183300  0.340100  0.624700  1.0  -0.4112
  N  N447  1  0.830600  0.418000  0.700000  1.0  -0.4044
  N  N448  1  0.683300  0.840100  0.624700  1.0  -0.4112
  O  O449  1  0.068500  0.913500  0.949060  1.0  -0.6747
  O  O450  1  0.130900  0.771100  0.969500  1.0  -0.5545
  O  O451  1  0.029800  0.098600  0.068390  1.0  -0.6869
  O  O452  1  0.070500  0.029000  0.134440  1.0  -0.6458
  O  O453  1  0.453200  0.817600  0.327860  1.0  -0.6595
  O  O454  1  0.468900  0.617100  0.300340  1.0  -0.6184
  O  O455  1  0.438800  0.704700  0.139400  1.0  -0.6287
  O  O456  1  0.368400  0.770400  0.099600  1.0  -0.4771
  O  O457  1  0.568500  0.413500  0.949060  1.0  -0.6747
  O  O458  1  0.630900  0.271100  0.969500  1.0  -0.5545
  O  O459  1  0.529800  0.598600  0.068390  1.0  -0.6869
  O  O460  1  0.570500  0.529000  0.134440  1.0  -0.6458
  O  O461  1  0.953200  0.317600  0.327860  1.0  -0.6595
  O  O462  1  0.968900  0.117100  0.300340  1.0  -0.6184
  O  O463  1  0.938800  0.204700  0.139400  1.0  -0.6287
  O  O464  1  0.868400  0.270400  0.099600  1.0  -0.4771
  O  O465  1  0.931500  0.913500  0.550940  1.0  -0.6756
  O  O466  1  0.869100  0.771100  0.530500  1.0  -0.5534
  O  O467  1  0.970200  0.098600  0.431610  1.0  -0.6876
  O  O468  1  0.929500  0.029000  0.365560  1.0  -0.6439
  O  O469  1  0.546800  0.817600  0.172140  1.0  -0.6606
  O  O470  1  0.531100  0.617100  0.199660  1.0  -0.6165
  O  O471  1  0.561200  0.704700  0.360600  1.0  -0.6289
  O  O472  1  0.631600  0.770400  0.400400  1.0  -0.477
  O  O473  1  0.431500  0.413500  0.550940  1.0  -0.6756
  O  O474  1  0.369100  0.271100  0.530500  1.0  -0.5534
  O  O475  1  0.470200  0.598600  0.431610  1.0  -0.6876
  O  O476  1  0.429500  0.529000  0.365560  1.0  -0.6439
  O  O477  1  0.046800  0.317600  0.172140  1.0  -0.6606
  O  O478  1  0.031100  0.117100  0.199660  1.0  -0.6165
  O  O479  1  0.061200  0.204700  0.360600  1.0  -0.6289
  O  O480  1  0.131600  0.270400  0.400400  1.0  -0.477
  O  O481  1  0.931500  0.086500  0.050940  1.0  -0.6757
  O  O482  1  0.869100  0.228900  0.030500  1.0  -0.553
  O  O483  1  0.970200  0.901400  0.931610  1.0  -0.686
  O  O484  1  0.929500  0.971000  0.865560  1.0  -0.644
  O  O485  1  0.546800  0.182400  0.672140  1.0  -0.6614
  O  O486  1  0.531100  0.382900  0.699660  1.0  -0.6164
  O  O487  1  0.561200  0.295300  0.860600  1.0  -0.6288
  O  O488  1  0.631600  0.229600  0.900400  1.0  -0.4773
  O  O489  1  0.431500  0.586500  0.050940  1.0  -0.6757
  O  O490  1  0.369100  0.728900  0.030500  1.0  -0.553
  O  O491  1  0.470200  0.401400  0.931610  1.0  -0.686
  O  O492  1  0.429500  0.471000  0.865560  1.0  -0.644
  O  O493  1  0.046800  0.682400  0.672140  1.0  -0.6614
  O  O494  1  0.031100  0.882900  0.699660  1.0  -0.6164
  O  O495  1  0.061200  0.795300  0.860600  1.0  -0.6288
  O  O496  1  0.131600  0.729600  0.900400  1.0  -0.4773
  O  O497  1  0.068500  0.086500  0.449060  1.0  -0.6756
  O  O498  1  0.130900  0.228900  0.469500  1.0  -0.554
  O  O499  1  0.029800  0.901400  0.568390  1.0  -0.6866
  O  O500  1  0.070500  0.971000  0.634440  1.0  -0.6469
  O  O501  1  0.453200  0.182400  0.827860  1.0  -0.6621
  O  O502  1  0.468900  0.382900  0.800340  1.0  -0.6152
  O  O503  1  0.438800  0.295300  0.639400  1.0  -0.6284
  O  O504  1  0.368400  0.229600  0.599600  1.0  -0.4773
  O  O505  1  0.568500  0.586500  0.449060  1.0  -0.6756
  O  O506  1  0.630900  0.728900  0.469500  1.0  -0.554
  O  O507  1  0.529800  0.401400  0.568390  1.0  -0.6866
  O  O508  1  0.570500  0.471000  0.634440  1.0  -0.6469
  O  O509  1  0.953200  0.682400  0.827860  1.0  -0.6621
  O  O510  1  0.968900  0.882900  0.800340  1.0  -0.6152
  O  O511  1  0.938800  0.795300  0.639400  1.0  -0.6284
  O  O512  1  0.868400  0.729600  0.599600  1.0  -0.4773
