# generated using pymatgen
data_SmH25C28(NO4)2
_symmetry_space_group_name_H-M   'P 1'
_cell_length_a   32.14000000
_cell_length_b   9.15600000
_cell_length_c   26.86400000
_cell_angle_alpha   90.00000000
_cell_angle_beta   112.85900000
_cell_angle_gamma   90.00000000
_symmetry_Int_Tables_number   1
_chemical_formula_structural   SmH25C28(NO4)2
_chemical_formula_sum   'Sm8 H200 C224 N16 O64'
_cell_volume   7284.51311145
_cell_formula_units_Z   8
loop_
 _symmetry_equiv_pos_site_id
 _symmetry_equiv_pos_as_xyz
  1  'x, y, z'
loop_
 _atom_site_type_symbol
 _atom_site_label
 _atom_site_symmetry_multiplicity
 _atom_site_fract_x
 _atom_site_fract_y
 _atom_site_fract_z
 _atom_site_occupancy
 _atom_site_charge
  Sm  Sm1  1  0.111660  0.894890  0.908810  1.0  2.2487
  Sm  Sm2  1  0.611660  0.394890  0.908810  1.0  2.2487
  Sm  Sm3  1  0.888340  0.894890  0.591190  1.0  2.2495
  Sm  Sm4  1  0.388340  0.394890  0.591190  1.0  2.2495
  Sm  Sm5  1  0.888340  0.105110  0.091190  1.0  2.25
  Sm  Sm6  1  0.388340  0.605110  0.091190  1.0  2.25
  Sm  Sm7  1  0.111660  0.105110  0.408810  1.0  2.2495
  Sm  Sm8  1  0.611660  0.605110  0.408810  1.0  2.2495
  H  H9  1  0.424300  0.947900  0.036800  1.0  0.3907
  H  H10  1  0.380400  0.893300  0.842200  1.0  0.2578
  H  H11  1  0.323200  0.419000  0.925500  1.0  0.2336
  H  H12  1  0.474900  0.333333  0.790400  1.0  0.0968
  H  H13  1  0.361400  0.094700  0.726100  1.0  0.1078
  H  H14  1  0.445700  0.030400  0.880400  1.0  0.1151
  H  H15  1  0.333200  0.864500  0.738600  1.0  0.1046
  H  H16  1  0.307800  0.975100  0.761900  1.0  0.0713
  H  H17  1  0.289400  0.021700  0.817600  1.0  0.0967
  H  H18  1  0.290700  0.971500  0.873900  1.0  0.1071
  H  H19  1  0.244900  0.971500  0.823400  1.0  0.1181
  H  H20  1  0.217700  0.652200  0.870900  1.0  0.1154
  H  H21  1  0.231600  0.817000  0.873800  1.0  0.1052
  H  H22  1  0.261800  0.707200  0.917800  1.0  0.1194
  H  H23  1  0.310400  0.331900  0.763800  1.0  0.1068
  H  H24  1  0.297100  0.287300  0.812000  1.0  0.105
  H  H25  1  0.347100  0.331100  0.823000  1.0  0.118
  H  H26  1  0.341700  0.659400  0.722900  1.0  0.1076
  H  H27  1  0.339800  0.492900  0.735500  1.0  0.1146
  H  H28  1  0.379500  0.590000  0.773700  1.0  0.1342
  H  H29  1  0.236400  0.453500  0.871700  1.0  0.087
  H  H30  1  0.251300  0.338800  0.838300  1.0  0.0724
  H  H31  1  0.225100  0.229500  0.903800  1.0  0.1088
  H  H32  1  0.282100  0.905200  0.008900  1.0  0.115
  H  H33  1  0.359600  0.217000  0.983300  1.0  0.1127
  H  H34  1  0.924300  0.447900  0.036800  1.0  0.3907
  H  H35  1  0.880400  0.393300  0.842200  1.0  0.2578
  H  H36  1  0.823200  0.919000  0.925500  1.0  0.2336
  H  H37  1  0.974900  0.833300  0.790400  1.0  0.0962
  H  H38  1  0.861400  0.594700  0.726100  1.0  0.1078
  H  H39  1  0.945700  0.530400  0.880400  1.0  0.1151
  H  H40  1  0.833200  0.364500  0.738600  1.0  0.1046
  H  H41  1  0.807800  0.475100  0.761900  1.0  0.0713
  H  H42  1  0.789400  0.521700  0.817600  1.0  0.0967
  H  H43  1  0.790700  0.471500  0.873900  1.0  0.1071
  H  H44  1  0.744900  0.471500  0.823400  1.0  0.1181
  H  H45  1  0.717700  0.152200  0.870900  1.0  0.1154
  H  H46  1  0.731600  0.317000  0.873800  1.0  0.1052
  H  H47  1  0.761800  0.207200  0.917800  1.0  0.1194
  H  H48  1  0.810400  0.831900  0.763800  1.0  0.1068
  H  H49  1  0.797100  0.787300  0.812000  1.0  0.105
  H  H50  1  0.847100  0.831100  0.823000  1.0  0.118
  H  H51  1  0.841700  0.159400  0.722900  1.0  0.1076
  H  H52  1  0.839800  0.992900  0.735500  1.0  0.1146
  H  H53  1  0.879500  0.090000  0.773700  1.0  0.1342
  H  H54  1  0.736400  0.953500  0.871700  1.0  0.087
  H  H55  1  0.751300  0.838800  0.838300  1.0  0.0724
  H  H56  1  0.725100  0.729500  0.903800  1.0  0.1088
  H  H57  1  0.782100  0.405200  0.008900  1.0  0.115
  H  H58  1  0.859600  0.717000  0.983300  1.0  0.1127
  H  H59  1  0.575700  0.947900  0.463200  1.0  0.389
  H  H60  1  0.619600  0.893300  0.657800  1.0  0.2632
  H  H61  1  0.676800  0.419000  0.574500  1.0  0.2341
  H  H62  1  0.525100  0.333333  0.709600  1.0  0.0964
  H  H63  1  0.638600  0.094700  0.773900  1.0  0.109
  H  H64  1  0.554300  0.030400  0.619600  1.0  0.1152
  H  H65  1  0.666800  0.864500  0.761400  1.0  0.1054
  H  H66  1  0.692200  0.975100  0.738100  1.0  0.0692
  H  H67  1  0.710600  0.021700  0.682400  1.0  0.0953
  H  H68  1  0.709300  0.971500  0.626100  1.0  0.1073
  H  H69  1  0.755100  0.971500  0.676600  1.0  0.118
  H  H70  1  0.782300  0.652200  0.629100  1.0  0.1184
  H  H71  1  0.768400  0.817000  0.626200  1.0  0.1059
  H  H72  1  0.738200  0.707200  0.582200  1.0  0.1185
  H  H73  1  0.689600  0.331900  0.736200  1.0  0.1055
  H  H74  1  0.702900  0.287300  0.688000  1.0  0.102
  H  H75  1  0.652900  0.331100  0.677000  1.0  0.1199
  H  H76  1  0.658300  0.659400  0.777100  1.0  0.1056
  H  H77  1  0.660200  0.492900  0.764500  1.0  0.1146
  H  H78  1  0.620500  0.590000  0.726300  1.0  0.1334
  H  H79  1  0.763600  0.453500  0.628300  1.0  0.0883
  H  H80  1  0.748700  0.338800  0.661700  1.0  0.0719
  H  H81  1  0.774900  0.229500  0.596200  1.0  0.1083
  H  H82  1  0.717900  0.905200  0.491100  1.0  0.1144
  H  H83  1  0.640400  0.217000  0.516700  1.0  0.1114
  H  H84  1  0.075700  0.447900  0.463200  1.0  0.389
  H  H85  1  0.119600  0.393300  0.657800  1.0  0.2632
  H  H86  1  0.176800  0.919000  0.574500  1.0  0.2341
  H  H87  1  0.025100  0.833300  0.709600  1.0  0.0959
  H  H88  1  0.138600  0.594700  0.773900  1.0  0.109
  H  H89  1  0.054300  0.530400  0.619600  1.0  0.1152
  H  H90  1  0.166800  0.364500  0.761400  1.0  0.1054
  H  H91  1  0.192200  0.475100  0.738100  1.0  0.0692
  H  H92  1  0.210600  0.521700  0.682400  1.0  0.0953
  H  H93  1  0.209300  0.471500  0.626100  1.0  0.1073
  H  H94  1  0.255100  0.471500  0.676600  1.0  0.118
  H  H95  1  0.282300  0.152200  0.629100  1.0  0.1184
  H  H96  1  0.268400  0.317000  0.626200  1.0  0.1059
  H  H97  1  0.238200  0.207200  0.582200  1.0  0.1185
  H  H98  1  0.189600  0.831900  0.736200  1.0  0.1055
  H  H99  1  0.202900  0.787300  0.688000  1.0  0.102
  H  H100  1  0.152900  0.831100  0.677000  1.0  0.1199
  H  H101  1  0.158300  0.159400  0.777100  1.0  0.1056
  H  H102  1  0.160200  0.992900  0.764500  1.0  0.1146
  H  H103  1  0.120500  0.090000  0.726300  1.0  0.1334
  H  H104  1  0.263600  0.953500  0.628300  1.0  0.0883
  H  H105  1  0.248700  0.838800  0.661700  1.0  0.0719
  H  H106  1  0.274900  0.729500  0.596200  1.0  0.1083
  H  H107  1  0.217900  0.405200  0.491100  1.0  0.1144
  H  H108  1  0.140400  0.717000  0.516700  1.0  0.1114
  H  H109  1  0.575700  0.052100  0.963200  1.0  0.3884
  H  H110  1  0.619600  0.106700  0.157800  1.0  0.2627
  H  H111  1  0.676800  0.581000  0.074500  1.0  0.2341
  H  H112  1  0.525100  0.666667  0.209600  1.0  0.096
  H  H113  1  0.638600  0.905300  0.273900  1.0  0.1085
  H  H114  1  0.554300  0.969600  0.119600  1.0  0.1154
  H  H115  1  0.666800  0.135500  0.261400  1.0  0.1044
  H  H116  1  0.692200  0.024900  0.238100  1.0  0.07
  H  H117  1  0.710600  0.978300  0.182400  1.0  0.095
  H  H118  1  0.709300  0.028500  0.126100  1.0  0.1074
  H  H119  1  0.755100  0.028500  0.176600  1.0  0.1183
  H  H120  1  0.782300  0.347800  0.129100  1.0  0.1187
  H  H121  1  0.768400  0.183000  0.126200  1.0  0.1056
  H  H122  1  0.738200  0.292800  0.082200  1.0  0.1184
  H  H123  1  0.689600  0.668100  0.236200  1.0  0.1059
  H  H124  1  0.702900  0.712700  0.188000  1.0  0.1035
  H  H125  1  0.652900  0.668900  0.177000  1.0  0.1196
  H  H126  1  0.658300  0.340600  0.277100  1.0  0.1069
  H  H127  1  0.660200  0.507100  0.264500  1.0  0.1152
  H  H128  1  0.620500  0.410000  0.226300  1.0  0.1334
  H  H129  1  0.763600  0.546500  0.128300  1.0  0.0885
  H  H130  1  0.748700  0.661200  0.161700  1.0  0.0714
  H  H131  1  0.774900  0.770500  0.096200  1.0  0.1082
  H  H132  1  0.717900  0.094800  0.991100  1.0  0.1152
  H  H133  1  0.640400  0.783000  0.016700  1.0  0.111
  H  H134  1  0.075700  0.552100  0.963200  1.0  0.3884
  H  H135  1  0.119600  0.606700  0.157800  1.0  0.2627
  H  H136  1  0.176800  0.081000  0.074500  1.0  0.2341
  H  H137  1  0.025100  0.166700  0.209600  1.0  0.0956
  H  H138  1  0.138600  0.405300  0.273900  1.0  0.1085
  H  H139  1  0.054300  0.469600  0.119600  1.0  0.1154
  H  H140  1  0.166800  0.635500  0.261400  1.0  0.1044
  H  H141  1  0.192200  0.524900  0.238100  1.0  0.07
  H  H142  1  0.210600  0.478300  0.182400  1.0  0.095
  H  H143  1  0.209300  0.528500  0.126100  1.0  0.1074
  H  H144  1  0.255100  0.528500  0.176600  1.0  0.1183
  H  H145  1  0.282300  0.847800  0.129100  1.0  0.1187
  H  H146  1  0.268400  0.683000  0.126200  1.0  0.1056
  H  H147  1  0.238200  0.792800  0.082200  1.0  0.1184
  H  H148  1  0.189600  0.168100  0.236200  1.0  0.1059
  H  H149  1  0.202900  0.212700  0.188000  1.0  0.1035
  H  H150  1  0.152900  0.168900  0.177000  1.0  0.1196
  H  H151  1  0.158300  0.840600  0.277100  1.0  0.1069
  H  H152  1  0.160200  0.007100  0.264500  1.0  0.1152
  H  H153  1  0.120500  0.910000  0.226300  1.0  0.1334
  H  H154  1  0.263600  0.046500  0.128300  1.0  0.0885
  H  H155  1  0.248700  0.161200  0.161700  1.0  0.0714
  H  H156  1  0.274900  0.270500  0.096200  1.0  0.1082
  H  H157  1  0.217900  0.594800  0.991100  1.0  0.1152
  H  H158  1  0.140400  0.283000  0.016700  1.0  0.111
  H  H159  1  0.424300  0.052100  0.536800  1.0  0.3909
  H  H160  1  0.380400  0.106700  0.342200  1.0  0.2586
  H  H161  1  0.323200  0.581000  0.425500  1.0  0.2336
  H  H162  1  0.474900  0.666667  0.290400  1.0  0.0964
  H  H163  1  0.361400  0.905300  0.226100  1.0  0.1083
  H  H164  1  0.445700  0.969600  0.380400  1.0  0.1156
  H  H165  1  0.333200  0.135500  0.238600  1.0  0.1048
  H  H166  1  0.307800  0.024900  0.261900  1.0  0.0718
  H  H167  1  0.289400  0.978300  0.317600  1.0  0.0958
  H  H168  1  0.290700  0.028500  0.373900  1.0  0.1071
  H  H169  1  0.244900  0.028500  0.323400  1.0  0.1174
  H  H170  1  0.217700  0.347800  0.370900  1.0  0.1144
  H  H171  1  0.231600  0.183000  0.373800  1.0  0.1049
  H  H172  1  0.261800  0.292800  0.417800  1.0  0.1194
  H  H173  1  0.310400  0.668100  0.263800  1.0  0.1062
  H  H174  1  0.297100  0.712700  0.312000  1.0  0.1055
  H  H175  1  0.347100  0.668900  0.323000  1.0  0.1178
  H  H176  1  0.341700  0.340600  0.222900  1.0  0.1069
  H  H177  1  0.339800  0.507100  0.235500  1.0  0.1154
  H  H178  1  0.379500  0.410000  0.273700  1.0  0.1342
  H  H179  1  0.236400  0.546500  0.371700  1.0  0.0872
  H  H180  1  0.251300  0.661200  0.338300  1.0  0.0718
  H  H181  1  0.225100  0.770500  0.403800  1.0  0.1089
  H  H182  1  0.282100  0.094800  0.508900  1.0  0.1152
  H  H183  1  0.359600  0.783000  0.483300  1.0  0.112
  H  H184  1  0.924300  0.552100  0.536800  1.0  0.3909
  H  H185  1  0.880400  0.606700  0.342200  1.0  0.2586
  H  H186  1  0.823200  0.081000  0.425500  1.0  0.2336
  H  H187  1  0.974900  0.166700  0.290400  1.0  0.096
  H  H188  1  0.861400  0.405300  0.226100  1.0  0.1083
  H  H189  1  0.945700  0.469600  0.380400  1.0  0.1156
  H  H190  1  0.833200  0.635500  0.238600  1.0  0.1048
  H  H191  1  0.807800  0.524900  0.261900  1.0  0.0718
  H  H192  1  0.789400  0.478300  0.317600  1.0  0.0958
  H  H193  1  0.790700  0.528500  0.373900  1.0  0.1071
  H  H194  1  0.744900  0.528500  0.323400  1.0  0.1174
  H  H195  1  0.717700  0.847800  0.370900  1.0  0.1144
  H  H196  1  0.731600  0.683000  0.373800  1.0  0.1049
  H  H197  1  0.761800  0.792800  0.417800  1.0  0.1194
  H  H198  1  0.810400  0.168100  0.263800  1.0  0.1062
  H  H199  1  0.797100  0.212700  0.312000  1.0  0.1055
  H  H200  1  0.847100  0.168900  0.323000  1.0  0.1178
  H  H201  1  0.841700  0.840600  0.222900  1.0  0.1069
  H  H202  1  0.839800  0.007100  0.235500  1.0  0.1154
  H  H203  1  0.879500  0.910000  0.273700  1.0  0.1342
  H  H204  1  0.736400  0.046500  0.371700  1.0  0.0872
  H  H205  1  0.751300  0.161200  0.338300  1.0  0.0718
  H  H206  1  0.725100  0.270500  0.403800  1.0  0.1089
  H  H207  1  0.782100  0.594800  0.508900  1.0  0.1152
  H  H208  1  0.859600  0.283000  0.483300  1.0  0.112
  C  C209  1  0.512800  0.209400  0.889100  1.0  0.7123
  C  C210  1  0.467400  0.188100  0.843000  1.0  -0.1481
  C  C211  1  0.455800  0.261600  0.794000  1.0  0.0036
  C  C212  1  0.416300  0.229300  0.750900  1.0  -0.137
  C  C213  1  0.387500  0.119700  0.755700  1.0  -0.1508
  C  C214  1  0.398400  0.047800  0.805700  1.0  0.1827
  C  C215  1  0.438100  0.080400  0.847900  1.0  -0.0943
  C  C216  1  0.404200  0.297500  0.697400  1.0  0.6858
  C  C217  1  0.328900  0.894100  0.771000  1.0  -0.0197
  C  C218  1  0.310100  0.766500  0.792600  1.0  -0.0935
  C  C219  1  0.320700  0.623900  0.784700  1.0  0.0318
  C  C220  1  0.304900  0.509900  0.807900  1.0  0.0532
  C  C221  1  0.278800  0.543800  0.838200  1.0  -0.0663
  C  C222  1  0.269200  0.686400  0.846500  1.0  0.0506
  C  C223  1  0.285600  0.797600  0.823000  1.0  0.0325
  C  C224  1  0.276800  0.955400  0.835700  1.0  -0.3552
  C  C225  1  0.242700  0.718600  0.880300  1.0  -0.3532
  C  C226  1  0.315900  0.350100  0.801100  1.0  -0.36
  C  C227  1  0.347900  0.588300  0.751100  1.0  -0.361
  C  C228  1  0.261600  0.419500  0.863500  1.0  -0.0658
  C  C229  1  0.292400  0.247700  0.939300  1.0  0.2143
  C  C230  1  0.250700  0.186100  0.929100  1.0  -0.1793
  C  C231  1  0.246000  0.061700  0.955600  1.0  -0.1804
  C  C232  1  0.284600  0.989700  0.991100  1.0  -0.0828
  C  C233  1  0.326500  0.046800  0.999200  1.0  -0.1215
  C  C234  1  0.331200  0.176900  0.975400  1.0  -0.1369
  C  C235  1  0.367200  0.960100  0.028700  1.0  0.5691
  C  C236  1  0.200800  0.999000  0.942100  1.0  0.683
  C  C237  1  0.012800  0.709400  0.889100  1.0  0.7123
  C  C238  1  0.967400  0.688100  0.843000  1.0  -0.1481
  C  C239  1  0.955800  0.761600  0.794000  1.0  0.0043
  C  C240  1  0.916300  0.729300  0.750900  1.0  -0.15
  C  C241  1  0.887500  0.619700  0.755700  1.0  -0.1508
  C  C242  1  0.898400  0.547800  0.805700  1.0  0.1827
  C  C243  1  0.938100  0.580400  0.847900  1.0  -0.0942
  C  C244  1  0.904200  0.797500  0.697400  1.0  0.6858
  C  C245  1  0.828900  0.394100  0.771000  1.0  -0.0197
  C  C246  1  0.810100  0.266500  0.792600  1.0  -0.0935
  C  C247  1  0.820700  0.123900  0.784700  1.0  0.0318
  C  C248  1  0.804900  0.009900  0.807900  1.0  0.0532
  C  C249  1  0.778800  0.043800  0.838200  1.0  -0.0663
  C  C250  1  0.769200  0.186400  0.846500  1.0  0.0506
  C  C251  1  0.785600  0.297600  0.823000  1.0  0.0325
  C  C252  1  0.776800  0.455400  0.835700  1.0  -0.3552
  C  C253  1  0.742700  0.218600  0.880300  1.0  -0.3532
  C  C254  1  0.815900  0.850100  0.801100  1.0  -0.36
  C  C255  1  0.847900  0.088300  0.751100  1.0  -0.361
  C  C256  1  0.761600  0.919500  0.863500  1.0  -0.0658
  C  C257  1  0.792400  0.747700  0.939300  1.0  0.2143
  C  C258  1  0.750700  0.686100  0.929100  1.0  -0.1793
  C  C259  1  0.746000  0.561700  0.955600  1.0  -0.1804
  C  C260  1  0.784600  0.489700  0.991100  1.0  -0.0828
  C  C261  1  0.826500  0.546800  0.999200  1.0  -0.1215
  C  C262  1  0.831200  0.676900  0.975400  1.0  -0.1369
  C  C263  1  0.867200  0.460100  0.028700  1.0  0.5691
  C  C264  1  0.700800  0.499000  0.942100  1.0  0.683
  C  C265  1  0.487200  0.209400  0.610900  1.0  0.7104
  C  C266  1  0.532600  0.188100  0.657000  1.0  -0.1478
  C  C267  1  0.544200  0.261600  0.706000  1.0  0.0037
  C  C268  1  0.583700  0.229300  0.749100  1.0  -0.1373
  C  C269  1  0.612500  0.119700  0.744300  1.0  -0.1541
  C  C270  1  0.601600  0.047800  0.694300  1.0  0.1839
  C  C271  1  0.561900  0.080400  0.652100  1.0  -0.0915
  C  C272  1  0.595800  0.297500  0.802600  1.0  0.6844
  C  C273  1  0.671100  0.894100  0.729000  1.0  -0.0202
  C  C274  1  0.689900  0.766500  0.707400  1.0  -0.0931
  C  C275  1  0.679300  0.623900  0.715300  1.0  0.0309
  C  C276  1  0.695100  0.509900  0.692100  1.0  0.0503
  C  C277  1  0.721200  0.543800  0.661800  1.0  -0.0674
  C  C278  1  0.730800  0.686400  0.653500  1.0  0.0501
  C  C279  1  0.714400  0.797600  0.677000  1.0  0.0322
  C  C280  1  0.723200  0.955400  0.664300  1.0  -0.3556
  C  C281  1  0.757300  0.718600  0.619700  1.0  -0.3522
  C  C282  1  0.684100  0.350100  0.698900  1.0  -0.36
  C  C283  1  0.652100  0.588300  0.748900  1.0  -0.362
  C  C284  1  0.738400  0.419500  0.636500  1.0  -0.067
  C  C285  1  0.707600  0.247700  0.560700  1.0  0.2145
  C  C286  1  0.749300  0.186100  0.570900  1.0  -0.1793
  C  C287  1  0.754000  0.061700  0.544400  1.0  -0.1814
  C  C288  1  0.715400  0.989700  0.508900  1.0  -0.0828
  C  C289  1  0.673500  0.046800  0.500800  1.0  -0.121
  C  C290  1  0.668800  0.176900  0.524600  1.0  -0.1361
  C  C291  1  0.632800  0.960100  0.471300  1.0  0.5705
  C  C292  1  0.799200  0.999000  0.557900  1.0  0.6841
  C  C293  1  0.987200  0.709400  0.610900  1.0  0.7104
  C  C294  1  0.032600  0.688100  0.657000  1.0  -0.1478
  C  C295  1  0.044200  0.761600  0.706000  1.0  0.0043
  C  C296  1  0.083700  0.729300  0.749100  1.0  -0.1502
  C  C297  1  0.112500  0.619700  0.744300  1.0  -0.1541
  C  C298  1  0.101600  0.547800  0.694300  1.0  0.1839
  C  C299  1  0.061900  0.580400  0.652100  1.0  -0.0914
  C  C300  1  0.095800  0.797500  0.802600  1.0  0.6844
  C  C301  1  0.171100  0.394100  0.729000  1.0  -0.0202
  C  C302  1  0.189900  0.266500  0.707400  1.0  -0.0931
  C  C303  1  0.179300  0.123900  0.715300  1.0  0.0309
  C  C304  1  0.195100  0.009900  0.692100  1.0  0.0503
  C  C305  1  0.221200  0.043800  0.661800  1.0  -0.0674
  C  C306  1  0.230800  0.186400  0.653500  1.0  0.0501
  C  C307  1  0.214400  0.297600  0.677000  1.0  0.0322
  C  C308  1  0.223200  0.455400  0.664300  1.0  -0.3556
  C  C309  1  0.257300  0.218600  0.619700  1.0  -0.3522
  C  C310  1  0.184100  0.850100  0.698900  1.0  -0.36
  C  C311  1  0.152100  0.088300  0.748900  1.0  -0.362
  C  C312  1  0.238400  0.919500  0.636500  1.0  -0.067
  C  C313  1  0.207600  0.747700  0.560700  1.0  0.2145
  C  C314  1  0.249300  0.686100  0.570900  1.0  -0.1793
  C  C315  1  0.254000  0.561700  0.544400  1.0  -0.1814
  C  C316  1  0.215400  0.489700  0.508900  1.0  -0.0828
  C  C317  1  0.173500  0.546800  0.500800  1.0  -0.121
  C  C318  1  0.168800  0.676900  0.524600  1.0  -0.1361
  C  C319  1  0.132800  0.460100  0.471300  1.0  0.5705
  C  C320  1  0.299200  0.499000  0.557900  1.0  0.6841
  C  C321  1  0.487200  0.790600  0.110900  1.0  0.7104
  C  C322  1  0.532600  0.811900  0.157000  1.0  -0.1491
  C  C323  1  0.544200  0.738400  0.206000  1.0  0.0041
  C  C324  1  0.583700  0.770700  0.249100  1.0  -0.1369
  C  C325  1  0.612500  0.880300  0.244300  1.0  -0.1545
  C  C326  1  0.601600  0.952200  0.194300  1.0  0.1845
  C  C327  1  0.561900  0.919600  0.152100  1.0  -0.0913
  C  C328  1  0.595800  0.702500  0.302600  1.0  0.685
  C  C329  1  0.671100  0.105900  0.229000  1.0  -0.0205
  C  C330  1  0.689900  0.233500  0.207400  1.0  -0.0923
  C  C331  1  0.679300  0.376100  0.215300  1.0  0.0307
  C  C332  1  0.695100  0.490100  0.192100  1.0  0.0491
  C  C333  1  0.721200  0.456200  0.161800  1.0  -0.0675
  C  C334  1  0.730800  0.313600  0.153500  1.0  0.0502
  C  C335  1  0.714400  0.202400  0.177000  1.0  0.0321
  C  C336  1  0.723200  0.044600  0.164300  1.0  -0.3581
  C  C337  1  0.757300  0.281400  0.119700  1.0  -0.3519
  C  C338  1  0.684100  0.649900  0.198900  1.0  -0.3584
  C  C339  1  0.652100  0.411700  0.248900  1.0  -0.3619
  C  C340  1  0.738400  0.580500  0.136500  1.0  -0.0669
  C  C341  1  0.707600  0.752300  0.060700  1.0  0.2145
  C  C342  1  0.749300  0.813900  0.070900  1.0  -0.1788
  C  C343  1  0.754000  0.938300  0.044400  1.0  -0.1814
  C  C344  1  0.715400  0.010300  0.008900  1.0  -0.0834
  C  C345  1  0.673500  0.953200  0.000800  1.0  -0.1213
  C  C346  1  0.668800  0.823100  0.024600  1.0  -0.1354
  C  C347  1  0.632800  0.039900  0.971300  1.0  0.5714
  C  C348  1  0.799200  0.001000  0.057900  1.0  0.684
  C  C349  1  0.987200  0.290600  0.110900  1.0  0.7104
  C  C350  1  0.032600  0.311900  0.157000  1.0  -0.1491
  C  C351  1  0.044200  0.238400  0.206000  1.0  0.0046
  C  C352  1  0.083700  0.270700  0.249100  1.0  -0.1498
  C  C353  1  0.112500  0.380300  0.244300  1.0  -0.1545
  C  C354  1  0.101600  0.452200  0.194300  1.0  0.1845
  C  C355  1  0.061900  0.419600  0.152100  1.0  -0.0912
  C  C356  1  0.095800  0.202500  0.302600  1.0  0.685
  C  C357  1  0.171100  0.605900  0.229000  1.0  -0.0205
  C  C358  1  0.189900  0.733500  0.207400  1.0  -0.0923
  C  C359  1  0.179300  0.876100  0.215300  1.0  0.0307
  C  C360  1  0.195100  0.990100  0.192100  1.0  0.0491
  C  C361  1  0.221200  0.956200  0.161800  1.0  -0.0675
  C  C362  1  0.230800  0.813600  0.153500  1.0  0.0502
  C  C363  1  0.214400  0.702400  0.177000  1.0  0.0321
  C  C364  1  0.223200  0.544600  0.164300  1.0  -0.3581
  C  C365  1  0.257300  0.781400  0.119700  1.0  -0.3519
  C  C366  1  0.184100  0.149900  0.198900  1.0  -0.3584
  C  C367  1  0.152100  0.911700  0.248900  1.0  -0.3619
  C  C368  1  0.238400  0.080500  0.136500  1.0  -0.0669
  C  C369  1  0.207600  0.252300  0.060700  1.0  0.2145
  C  C370  1  0.249300  0.313900  0.070900  1.0  -0.1788
  C  C371  1  0.254000  0.438300  0.044400  1.0  -0.1814
  C  C372  1  0.215400  0.510300  0.008900  1.0  -0.0834
  C  C373  1  0.173500  0.453200  0.000800  1.0  -0.1213
  C  C374  1  0.168800  0.323100  0.024600  1.0  -0.1354
  C  C375  1  0.132800  0.539900  0.971300  1.0  0.5714
  C  C376  1  0.299200  0.501000  0.057900  1.0  0.684
  C  C377  1  0.512800  0.790600  0.389100  1.0  0.7128
  C  C378  1  0.467400  0.811900  0.343000  1.0  -0.1479
  C  C379  1  0.455800  0.738400  0.294000  1.0  0.004
  C  C380  1  0.416300  0.770700  0.250900  1.0  -0.1373
  C  C381  1  0.387500  0.880300  0.255700  1.0  -0.151
  C  C382  1  0.398400  0.952200  0.305700  1.0  0.1829
  C  C383  1  0.438100  0.919600  0.347900  1.0  -0.0938
  C  C384  1  0.404200  0.702500  0.197400  1.0  0.6858
  C  C385  1  0.328900  0.105900  0.271000  1.0  -0.0194
  C  C386  1  0.310100  0.233500  0.292600  1.0  -0.0931
  C  C387  1  0.320700  0.376100  0.284700  1.0  0.0317
  C  C388  1  0.304900  0.490100  0.307900  1.0  0.0522
  C  C389  1  0.278800  0.456200  0.338200  1.0  -0.0661
  C  C390  1  0.269200  0.313600  0.346500  1.0  0.0507
  C  C391  1  0.285600  0.202400  0.323000  1.0  0.0323
  C  C392  1  0.276800  0.044600  0.335700  1.0  -0.3563
  C  C393  1  0.242700  0.281400  0.380300  1.0  -0.3534
  C  C394  1  0.315900  0.649900  0.301100  1.0  -0.3575
  C  C395  1  0.347900  0.411700  0.251100  1.0  -0.3611
  C  C396  1  0.261600  0.580500  0.363500  1.0  -0.0659
  C  C397  1  0.292400  0.752300  0.439300  1.0  0.2144
  C  C398  1  0.250700  0.813900  0.429100  1.0  -0.1791
  C  C399  1  0.246000  0.938300  0.455600  1.0  -0.1807
  C  C400  1  0.284600  0.010300  0.491100  1.0  -0.0825
  C  C401  1  0.326500  0.953200  0.499200  1.0  -0.1218
  C  C402  1  0.331200  0.823100  0.475400  1.0  -0.1357
  C  C403  1  0.367200  0.039900  0.528700  1.0  0.5701
  C  C404  1  0.200800  0.001000  0.442100  1.0  0.6832
  C  C405  1  0.012800  0.290600  0.389100  1.0  0.7128
  C  C406  1  0.967400  0.311900  0.343000  1.0  -0.1479
  C  C407  1  0.955800  0.238400  0.294000  1.0  0.0046
  C  C408  1  0.916300  0.270700  0.250900  1.0  -0.1504
  C  C409  1  0.887500  0.380300  0.255700  1.0  -0.151
  C  C410  1  0.898400  0.452200  0.305700  1.0  0.1829
  C  C411  1  0.938100  0.419600  0.347900  1.0  -0.0937
  C  C412  1  0.904200  0.202500  0.197400  1.0  0.6857
  C  C413  1  0.828900  0.605900  0.271000  1.0  -0.0194
  C  C414  1  0.810100  0.733500  0.292600  1.0  -0.0931
  C  C415  1  0.820700  0.876100  0.284700  1.0  0.0317
  C  C416  1  0.804900  0.990100  0.307900  1.0  0.0522
  C  C417  1  0.778800  0.956200  0.338200  1.0  -0.0661
  C  C418  1  0.769200  0.813600  0.346500  1.0  0.0507
  C  C419  1  0.785600  0.702400  0.323000  1.0  0.0323
  C  C420  1  0.776800  0.544600  0.335700  1.0  -0.3563
  C  C421  1  0.742700  0.781400  0.380300  1.0  -0.3534
  C  C422  1  0.815900  0.149900  0.301100  1.0  -0.3575
  C  C423  1  0.847900  0.911700  0.251100  1.0  -0.3611
  C  C424  1  0.761600  0.080500  0.363500  1.0  -0.0659
  C  C425  1  0.792400  0.252300  0.439300  1.0  0.2144
  C  C426  1  0.750700  0.313900  0.429100  1.0  -0.1791
  C  C427  1  0.746000  0.438300  0.455600  1.0  -0.1807
  C  C428  1  0.784600  0.510300  0.491100  1.0  -0.0825
  C  C429  1  0.826500  0.453200  0.499200  1.0  -0.1218
  C  C430  1  0.831200  0.323100  0.475400  1.0  -0.1357
  C  C431  1  0.867200  0.539900  0.528700  1.0  0.5701
  C  C432  1  0.700800  0.501000  0.442100  1.0  0.6832
  N  N433  1  0.371200  0.938400  0.811700  1.0  -0.3357
  N  N434  1  0.298200  0.371100  0.912900  1.0  -0.4112
  N  N435  1  0.871200  0.438400  0.811700  1.0  -0.3357
  N  N436  1  0.798200  0.871100  0.912900  1.0  -0.4112
  N  N437  1  0.628800  0.938400  0.688300  1.0  -0.3381
  N  N438  1  0.701800  0.371100  0.587100  1.0  -0.4129
  N  N439  1  0.128800  0.438400  0.688300  1.0  -0.3381
  N  N440  1  0.201800  0.871100  0.587100  1.0  -0.4129
  N  N441  1  0.628800  0.061600  0.188300  1.0  -0.3372
  N  N442  1  0.701800  0.628900  0.087100  1.0  -0.4121
  N  N443  1  0.128800  0.561600  0.188300  1.0  -0.3372
  N  N444  1  0.201800  0.128900  0.087100  1.0  -0.4121
  N  N445  1  0.371200  0.061600  0.311700  1.0  -0.3354
  N  N446  1  0.298200  0.628900  0.412900  1.0  -0.4106
  N  N447  1  0.871200  0.561600  0.311700  1.0  -0.3354
  N  N448  1  0.798200  0.128900  0.412900  1.0  -0.4106
  O  O449  1  0.423000  0.416200  0.692800  1.0  -0.6347
  O  O450  1  0.376700  0.236600  0.656500  1.0  -0.6673
  O  O451  1  0.537800  0.307200  0.884100  1.0  -0.765
  O  O452  1  0.522600  0.125000  0.929300  1.0  -0.5836
  O  O453  1  0.171100  0.033100  0.897300  1.0  -0.6403
  O  O454  1  0.192200  0.914300  0.971900  1.0  -0.5859
  O  O455  1  0.405500  0.013600  0.030100  1.0  -0.4916
  O  O456  1  0.367500  0.841400  0.049600  1.0  -0.6532
  O  O457  1  0.923000  0.916200  0.692800  1.0  -0.6347
  O  O458  1  0.876700  0.736600  0.656500  1.0  -0.6673
  O  O459  1  0.037800  0.807200  0.884100  1.0  -0.765
  O  O460  1  0.022600  0.625000  0.929300  1.0  -0.5836
  O  O461  1  0.671100  0.533100  0.897300  1.0  -0.6403
  O  O462  1  0.692200  0.414300  0.971900  1.0  -0.5859
  O  O463  1  0.905500  0.513600  0.030100  1.0  -0.4916
  O  O464  1  0.867500  0.341400  0.049600  1.0  -0.6532
  O  O465  1  0.577000  0.416200  0.807200  1.0  -0.6362
  O  O466  1  0.623300  0.236600  0.843500  1.0  -0.6669
  O  O467  1  0.462200  0.307200  0.615900  1.0  -0.7643
  O  O468  1  0.477400  0.125000  0.570700  1.0  -0.5833
  O  O469  1  0.828900  0.033100  0.602700  1.0  -0.6381
  O  O470  1  0.807800  0.914300  0.528100  1.0  -0.5871
  O  O471  1  0.594500  0.013600  0.469900  1.0  -0.4956
  O  O472  1  0.632500  0.841400  0.450400  1.0  -0.655
  O  O473  1  0.077000  0.916200  0.807200  1.0  -0.6362
  O  O474  1  0.123300  0.736600  0.843500  1.0  -0.6669
  O  O475  1  0.962200  0.807200  0.615900  1.0  -0.7643
  O  O476  1  0.977400  0.625000  0.570700  1.0  -0.5833
  O  O477  1  0.328900  0.533100  0.602700  1.0  -0.6381
  O  O478  1  0.307800  0.414300  0.528100  1.0  -0.5871
  O  O479  1  0.094500  0.513600  0.469900  1.0  -0.4956
  O  O480  1  0.132500  0.341400  0.450400  1.0  -0.655
  O  O481  1  0.577000  0.583800  0.307200  1.0  -0.6359
  O  O482  1  0.623300  0.763400  0.343500  1.0  -0.6683
  O  O483  1  0.462200  0.692800  0.115900  1.0  -0.7637
  O  O484  1  0.477400  0.875000  0.070700  1.0  -0.5835
  O  O485  1  0.828900  0.966900  0.102700  1.0  -0.6373
  O  O486  1  0.807800  0.085700  0.028100  1.0  -0.5868
  O  O487  1  0.594500  0.986400  0.969900  1.0  -0.4976
  O  O488  1  0.632500  0.158600  0.950400  1.0  -0.6551
  O  O489  1  0.077000  0.083800  0.307200  1.0  -0.6359
  O  O490  1  0.123300  0.263400  0.343500  1.0  -0.6683
  O  O491  1  0.962200  0.192800  0.115900  1.0  -0.7637
  O  O492  1  0.977400  0.375000  0.070700  1.0  -0.5835
  O  O493  1  0.328900  0.466900  0.102700  1.0  -0.6373
  O  O494  1  0.307800  0.585700  0.028100  1.0  -0.5868
  O  O495  1  0.094500  0.486400  0.969900  1.0  -0.4976
  O  O496  1  0.132500  0.658600  0.950400  1.0  -0.6551
  O  O497  1  0.423000  0.583800  0.192800  1.0  -0.6374
  O  O498  1  0.376700  0.763400  0.156500  1.0  -0.669
  O  O499  1  0.537800  0.692800  0.384100  1.0  -0.7641
  O  O500  1  0.522600  0.875000  0.429300  1.0  -0.5829
  O  O501  1  0.171100  0.966900  0.397300  1.0  -0.639
  O  O502  1  0.192200  0.085700  0.471900  1.0  -0.5865
  O  O503  1  0.405500  0.986400  0.530100  1.0  -0.4979
  O  O504  1  0.367500  0.158600  0.549600  1.0  -0.6529
  O  O505  1  0.923000  0.083800  0.192800  1.0  -0.6374
  O  O506  1  0.876700  0.263400  0.156500  1.0  -0.669
  O  O507  1  0.037800  0.192800  0.384100  1.0  -0.7641
  O  O508  1  0.022600  0.375000  0.429300  1.0  -0.5829
  O  O509  1  0.671100  0.466900  0.397300  1.0  -0.639
  O  O510  1  0.692200  0.585700  0.471900  1.0  -0.5865
  O  O511  1  0.905500  0.486400  0.530100  1.0  -0.4979
  O  O512  1  0.867500  0.658600  0.549600  1.0  -0.6529
