# generated using pymatgen
data_La2P5H40C23N5O19
_symmetry_space_group_name_H-M   'P 1'
_cell_length_a   13.32990000
_cell_length_b   13.63620000
_cell_length_c   15.29000000
_cell_angle_alpha   108.91600000
_cell_angle_beta   101.89800000
_cell_angle_gamma   111.69100000
_symmetry_Int_Tables_number   1
_chemical_formula_structural   La2P5H40C23N5O19
_chemical_formula_sum   'La4 P10 H80 C46 N10 O38'
_cell_volume   2268.77748556
_cell_formula_units_Z   2
loop_
 _symmetry_equiv_pos_site_id
 _symmetry_equiv_pos_as_xyz
  1  'x, y, z'
loop_
 _atom_site_type_symbol
 _atom_site_label
 _atom_site_symmetry_multiplicity
 _atom_site_fract_x
 _atom_site_fract_y
 _atom_site_fract_z
 _atom_site_occupancy
 _atom_site_charge
  La  La1  1  0.316040  0.352350  0.573500  1.0  2.2744
  La  La2  1  0.099360  0.106530  0.653920  1.0  2.2919
  La  La3  1  0.683960  0.647650  0.426500  1.0  2.278
  La  La4  1  0.900640  0.893470  0.346070  1.0  2.291
  P  P5  1  0.987400  0.176020  0.442510  1.0  1.4844
  P  P6  1  0.418570  0.225570  0.734600  1.0  1.5707
  P  P7  1  0.217650  0.077750  0.439680  1.0  1.5473
  P  P8  1  0.384990  0.408170  0.368890  1.0  1.5338
  P  P9  1  0.816880  0.823150  0.070880  1.0  1.5177
  P  P10  1  0.012600  0.823980  0.557490  1.0  1.4832
  P  P11  1  0.581430  0.774430  0.265400  1.0  1.5709
  P  P12  1  0.782350  0.922250  0.560320  1.0  1.548
  P  P13  1  0.615010  0.591830  0.631110  1.0  1.5329
  P  P14  1  0.183120  0.176850  0.929120  1.0  1.5185
  H  H15  1  0.066900  0.415200  0.533300  1.0  0.2506
  H  H16  1  0.416300  0.338600  0.932500  1.0  0.2629
  H  H17  1  0.410000  0.056100  0.559100  1.0  0.2595
  H  H18  1  0.158000  0.237000  0.125800  1.0  0.2439
  H  H19  1  0.965400  0.083300  0.227800  1.0  0.2604
  H  H20  1  0.061100  0.443700  0.869000  1.0  0.1163
  H  H21  1  0.115300  0.637800  0.973100  1.0  0.1128
  H  H22  1  0.245300  0.789900  0.953400  1.0  0.1103
  H  H23  1  0.324900  0.750300  0.835800  1.0  0.1198
  H  H24  1  0.921200  0.270900  0.557800  1.0  0.1575
  H  H25  1  0.842400  0.234800  0.449400  1.0  0.1537
  H  H26  1  0.881800  0.454500  0.551900  1.0  0.1282
  H  H27  1  0.982900  0.476300  0.641700  1.0  0.1155
  H  H28  1  0.984000  0.345400  0.365100  1.0  0.1082
  H  H29  1  0.883400  0.374200  0.380200  1.0  0.1002
  H  H30  1  0.596800  0.361600  0.865600  1.0  0.1451
  H  H31  1  0.531700  0.258200  0.890200  1.0  0.1761
  H  H32  1  0.583900  0.400600  0.058200  1.0  0.1028
  H  H33  1  0.646500  0.504500  0.033100  1.0  0.103
  H  H34  1  0.531400  0.519200  0.889500  1.0  0.1113
  H  H35  1  0.400200  0.424800  0.830000  1.0  0.1107
  H  H36  1  0.253000  0.923200  0.365900  1.0  0.1706
  H  H37  1  0.218200  0.914900  0.455500  1.0  0.1344
  H  H38  1  0.451300  0.019300  0.384100  1.0  0.1154
  H  H39  1  0.470800  0.140800  0.459700  1.0  0.1267
  H  H40  1  0.351300  0.861400  0.518300  1.0  0.1069
  H  H41  1  0.378300  0.846600  0.421100  1.0  0.1121
  H  H42  1  0.344000  0.347500  0.200600  1.0  0.169
  H  H43  1  0.292000  0.431200  0.238000  1.0  0.1767
  H  H44  1  0.234500  0.140100  0.193900  1.0  0.134
  H  H45  1  0.189200  0.176600  0.279800  1.0  0.0985
  H  H46  1  0.105600  0.304700  0.292200  1.0  0.0931
  H  H47  1  0.093800  0.356500  0.214900  1.0  0.1098
  H  H48  1  0.954200  0.170200  0.089500  1.0  0.1142
  H  H49  1  0.912700  0.200900  0.178800  1.0  0.1003
  H  H50  1  0.055500  0.986100  0.163100  1.0  0.1354
  H  H51  1  0.046100  0.025800  0.077600  1.0  0.0906
  H  H52  1  0.782900  0.985400  0.121200  1.0  0.1927
  H  H53  1  0.822900  0.976400  0.031000  1.0  0.1557
  H  H54  1  0.392400  0.269000  0.382700  1.0  0.4358
  H  H55  1  0.933100  0.584800  0.466700  1.0  0.252
  H  H56  1  0.583700  0.661400  0.067500  1.0  0.2606
  H  H57  1  0.590000  0.943900  0.440900  1.0  0.258
  H  H58  1  0.842000  0.763000  0.874200  1.0  0.2433
  H  H59  1  0.034600  0.916700  0.772200  1.0  0.2588
  H  H60  1  0.938900  0.556300  0.131000  1.0  0.1157
  H  H61  1  0.884700  0.362200  0.026900  1.0  0.1129
  H  H62  1  0.754700  0.210100  0.046600  1.0  0.1102
  H  H63  1  0.675100  0.249700  0.164200  1.0  0.1192
  H  H64  1  0.078800  0.729100  0.442200  1.0  0.1585
  H  H65  1  0.157600  0.765200  0.550600  1.0  0.1536
  H  H66  1  0.118200  0.545500  0.448100  1.0  0.1221
  H  H67  1  0.017100  0.523700  0.358300  1.0  0.1152
  H  H68  1  0.016000  0.654600  0.634900  1.0  0.1077
  H  H69  1  0.116600  0.625800  0.619800  1.0  0.0997
  H  H70  1  0.403200  0.638400  0.134400  1.0  0.1462
  H  H71  1  0.468300  0.741800  0.109800  1.0  0.1769
  H  H72  1  0.416100  0.599400  0.941800  1.0  0.1024
  H  H73  1  0.353500  0.495500  0.966900  1.0  0.1028
  H  H74  1  0.468600  0.480800  0.110500  1.0  0.1122
  H  H75  1  0.599800  0.575200  0.170000  1.0  0.1121
  H  H76  1  0.747000  0.076800  0.634100  1.0  0.1685
  H  H77  1  0.781800  0.085100  0.544500  1.0  0.1397
  H  H78  1  0.548700  0.980700  0.615900  1.0  0.1138
  H  H79  1  0.529200  0.859200  0.540300  1.0  0.126
  H  H80  1  0.648700  0.138600  0.481700  1.0  0.1069
  H  H81  1  0.621700  0.153400  0.578900  1.0  0.1091
  H  H82  1  0.656000  0.652500  0.799400  1.0  0.1693
  H  H83  1  0.708000  0.568800  0.762000  1.0  0.1775
  H  H84  1  0.765500  0.859900  0.806100  1.0  0.1333
  H  H85  1  0.810800  0.823400  0.720200  1.0  0.1104
  H  H86  1  0.894400  0.695300  0.707800  1.0  0.1035
  H  H87  1  0.906200  0.643500  0.785100  1.0  0.1036
  H  H88  1  0.045800  0.829800  0.910500  1.0  0.1132
  H  H89  1  0.087300  0.799100  0.821200  1.0  0.1029
  H  H90  1  0.944500  0.013900  0.836900  1.0  0.1358
  H  H91  1  0.953900  0.974200  0.922400  1.0  0.0898
  H  H92  1  0.217100  0.014600  0.878800  1.0  0.193
  H  H93  1  0.177100  0.023600  0.969000  1.0  0.1543
  H  H94  1  0.607600  0.731000  0.617300  1.0  0.436
  C  C95  1  0.294000  0.547200  0.705000  1.0  0.644
  C  C96  1  0.129600  0.354800  0.728800  1.0  0.6886
  C  C97  1  0.241200  0.573400  0.780800  1.0  -0.0503
  C  C98  1  0.161700  0.480600  0.790600  1.0  -0.1589
  C  C99  1  0.114500  0.505000  0.862000  1.0  -0.0378
  C  C100  1  0.146500  0.621700  0.924400  1.0  -0.1094
  C  C101  1  0.224700  0.712400  0.913000  1.0  -0.0786
  C  C102  1  0.271800  0.688700  0.842500  1.0  -0.0918
  C  C103  1  0.922100  0.268900  0.493900  1.0  -0.4637
  C  C104  1  0.964000  0.477700  0.577500  1.0  -0.1152
  C  C105  1  0.965600  0.399000  0.409900  1.0  -0.0959
  C  C106  1  0.521900  0.311500  0.864100  1.0  -0.4868
  C  C107  1  0.572900  0.455000  0.034200  1.0  -0.0909
  C  C108  1  0.461700  0.469300  0.895400  1.0  -0.099
  C  C109  1  0.267500  0.968500  0.435100  1.0  -0.506
  C  C110  1  0.474300  0.069300  0.454100  1.0  -0.0957
  C  C111  1  0.402600  0.900700  0.490100  1.0  -0.086
  C  C112  1  0.299600  0.364100  0.240900  1.0  -0.5131
  C  C113  1  0.174300  0.157300  0.210000  1.0  -0.1162
  C  C114  1  0.090500  0.287700  0.222700  1.0  -0.0919
  C  C115  1  0.970500  0.183000  0.158300  1.0  -0.1118
  C  C116  1  0.057200  0.050000  0.147400  1.0  -0.0896
  C  C117  1  0.839200  0.972600  0.094300  1.0  -0.4905
  C  C118  1  0.706000  0.452800  0.295000  1.0  0.6452
  C  C119  1  0.870400  0.645200  0.271200  1.0  0.6887
  C  C120  1  0.758800  0.426600  0.219200  1.0  -0.0504
  C  C121  1  0.838300  0.519400  0.209400  1.0  -0.1559
  C  C122  1  0.885500  0.495000  0.138000  1.0  -0.0373
  C  C123  1  0.853500  0.378300  0.075600  1.0  -0.1087
  C  C124  1  0.775300  0.287600  0.087000  1.0  -0.0772
  C  C125  1  0.728200  0.311300  0.157500  1.0  -0.0919
  C  C126  1  0.077900  0.731100  0.506100  1.0  -0.4618
  C  C127  1  0.036000  0.522300  0.422500  1.0  -0.1128
  C  C128  1  0.034400  0.601000  0.590100  1.0  -0.0957
  C  C129  1  0.478100  0.688500  0.135900  1.0  -0.4885
  C  C130  1  0.427100  0.545000  0.965800  1.0  -0.0911
  C  C131  1  0.538300  0.530700  0.104600  1.0  -0.101
  C  C132  1  0.732500  0.031500  0.564900  1.0  -0.5026
  C  C133  1  0.525700  0.930700  0.545900  1.0  -0.0946
  C  C134  1  0.597400  0.099300  0.509900  1.0  -0.0864
  C  C135  1  0.700400  0.635900  0.759100  1.0  -0.5129
  C  C136  1  0.825700  0.842700  0.790000  1.0  -0.107
  C  C137  1  0.909500  0.712300  0.777300  1.0  -0.089
  C  C138  1  0.029500  0.817000  0.841700  1.0  -0.1131
  C  C139  1  0.942800  0.950000  0.852600  1.0  -0.0913
  C  C140  1  0.160800  0.027400  0.905700  1.0  -0.4875
  N  N141  1  0.989800  0.392700  0.507000  1.0  0.147
  N  N142  1  0.483700  0.387000  0.930600  1.0  0.1514
  N  N143  1  0.391500  0.007200  0.494700  1.0  0.1571
  N  N144  1  0.179700  0.260400  0.192600  1.0  0.1649
  N  N145  1  0.959900  0.072800  0.164800  1.0  0.1475
  N  N146  1  0.010200  0.607300  0.493000  1.0  0.147
  N  N147  1  0.516300  0.613000  0.069400  1.0  0.1521
  N  N148  1  0.608500  0.992800  0.505300  1.0  0.1562
  N  N149  1  0.820300  0.739600  0.807400  1.0  0.1661
  N  N150  1  0.040100  0.927200  0.835200  1.0  0.1499
  O  O151  1  0.229900  0.501000  0.614500  1.0  -0.6771
  O  O152  1  0.396800  0.563400  0.732700  1.0  -0.6251
  O  O153  1  0.202000  0.332500  0.694000  1.0  -0.7724
  O  O154  1  0.034400  0.274400  0.714200  1.0  -0.6374
  O  O155  1  0.976500  0.098700  0.497000  1.0  -0.9795
  O  O156  1  0.109000  0.264000  0.462900  1.0  -0.901
  O  O157  1  0.914200  0.094400  0.332000  1.0  -0.894
  O  O158  1  0.435100  0.311700  0.689100  1.0  -0.9489
  O  O159  1  0.454700  0.133900  0.688300  1.0  -0.9099
  O  O160  1  0.301900  0.173800  0.744200  1.0  -0.9461
  O  O161  1  0.211700  0.131300  0.541400  1.0  -1.0169
  O  O162  1  0.306800  0.179600  0.430200  1.0  -0.9323
  O  O163  1  0.101700  0.005400  0.355500  1.0  -0.9031
  O  O164  1  0.309600  0.403100  0.429100  1.0  -0.8982
  O  O165  1  0.428500  0.313500  0.361900  1.0  -0.7222
  O  O166  1  0.483900  0.526900  0.399500  1.0  -0.9015
  O  O167  1  0.686500  0.746000  0.025500  1.0  -0.8702
  O  O168  1  0.875000  0.792000  0.997100  1.0  -0.91
  O  O169  1  0.877700  0.832800  0.170500  1.0  -0.9282
  O  O170  1  0.770100  0.499000  0.385500  1.0  -0.6802
  O  O171  1  0.603200  0.436600  0.267300  1.0  -0.6254
  O  O172  1  0.798000  0.667500  0.306000  1.0  -0.7731
  O  O173  1  0.965600  0.725600  0.285800  1.0  -0.6379
  O  O174  1  0.023500  0.901300  0.503000  1.0  -0.9797
  O  O175  1  0.891000  0.736000  0.537100  1.0  -0.9015
  O  O176  1  0.085800  0.905600  0.668000  1.0  -0.8928
  O  O177  1  0.564900  0.688300  0.310900  1.0  -0.952
  O  O178  1  0.545300  0.866100  0.311700  1.0  -0.9082
  O  O179  1  0.698100  0.826200  0.255800  1.0  -0.9481
  O  O180  1  0.788300  0.868700  0.458600  1.0  -1.0172
  O  O181  1  0.693200  0.820400  0.569800  1.0  -0.9315
  O  O182  1  0.898300  0.994600  0.644500  1.0  -0.906
  O  O183  1  0.690400  0.596900  0.570900  1.0  -0.9
  O  O184  1  0.571500  0.686500  0.638100  1.0  -0.7194
  O  O185  1  0.516100  0.473100  0.600500  1.0  -0.9002
  O  O186  1  0.313500  0.254000  0.974500  1.0  -0.871
  O  O187  1  0.125000  0.208000  0.002900  1.0  -0.9138
  O  O188  1  0.122300  0.167200  0.829500  1.0  -0.9283
