# generated using pymatgen
data_Nd2P5H40C23N5O19
_symmetry_space_group_name_H-M   'P 1'
_cell_length_a   13.17100000
_cell_length_b   13.56610000
_cell_length_c   15.14720000
_cell_angle_alpha   108.55000000
_cell_angle_beta   101.69100000
_cell_angle_gamma   111.93300000
_symmetry_Int_Tables_number   1
_chemical_formula_structural   Nd2P5H40C23N5O19
_chemical_formula_sum   'Nd4 P10 H80 C46 N10 O38'
_cell_volume   2215.44733232
_cell_formula_units_Z   2
loop_
 _symmetry_equiv_pos_site_id
 _symmetry_equiv_pos_as_xyz
  1  'x, y, z'
loop_
 _atom_site_type_symbol
 _atom_site_label
 _atom_site_symmetry_multiplicity
 _atom_site_fract_x
 _atom_site_fract_y
 _atom_site_fract_z
 _atom_site_occupancy
 _atom_site_charge
  Nd  Nd1  1  0.186650  0.650340  0.928830  1.0  2.4296
  Nd  Nd2  1  0.400560  0.895340  0.847690  1.0  2.4341
  Nd  Nd3  1  0.813350  0.349660  0.071170  1.0  2.428
  Nd  Nd4  1  0.599440  0.104660  0.152310  1.0  2.4333
  P  P5  1  0.111500  0.588720  0.129380  1.0  1.5333
  P  P6  1  0.680990  0.175030  0.426940  1.0  1.519
  P  P7  1  0.284240  0.921080  0.060590  1.0  1.5571
  P  P8  1  0.513820  0.825600  0.057090  1.0  1.5014
  P  P9  1  0.082440  0.773490  0.767500  1.0  1.5958
  P  P10  1  0.888500  0.411280  0.870620  1.0  1.5355
  P  P11  1  0.319010  0.824970  0.573060  1.0  1.5208
  P  P12  1  0.715760  0.078920  0.939410  1.0  1.558
  P  P13  1  0.486180  0.174400  0.942910  1.0  1.5018
  P  P14  1  0.917560  0.226510  0.232500  1.0  1.597
  H  H15  1  0.338700  0.758600  0.374800  1.0  0.241
  H  H16  1  0.533900  0.916400  0.271800  1.0  0.2603
  H  H17  1  0.091400  0.942300  0.942700  1.0  0.2552
  H  H18  1  0.432700  0.584000  0.964600  1.0  0.2454
  H  H19  1  0.452700  0.567100  0.636900  1.0  0.1114
  H  H20  1  0.083800  0.663300  0.567400  1.0  0.2586
  H  H21  1  0.398600  0.374200  0.531100  1.0  0.117
  H  H22  1  0.101600  0.728400  0.116700  1.0  0.4359
  H  H23  1  0.262600  0.220900  0.544000  1.0  0.1033
  H  H24  1  0.175900  0.254400  0.661400  1.0  0.1257
  H  H25  1  0.204900  0.563100  0.260700  1.0  0.1792
  H  H26  1  0.150300  0.644900  0.298700  1.0  0.1684
  H  H27  1  0.307100  0.820600  0.219500  1.0  0.1088
  H  H28  1  0.259900  0.855600  0.305500  1.0  0.1365
  H  H29  1  0.450600  0.969600  0.423400  1.0  0.0893
  H  H30  1  0.441400  0.012200  0.338600  1.0  0.1399
  H  H31  1  0.587300  0.797200  0.320900  1.0  0.1014
  H  H32  1  0.543900  0.826300  0.410300  1.0  0.1091
  H  H33  1  0.404400  0.640000  0.283100  1.0  0.1118
  H  H34  1  0.392600  0.694500  0.206500  1.0  0.1032
  H  H35  1  0.675500  0.022300  0.469400  1.0  0.1378
  H  H36  1  0.717300  0.013600  0.378900  1.0  0.186
  H  H37  1  0.284400  0.085800  0.045800  1.0  0.1419
  H  H38  1  0.248500  0.075700  0.135800  1.0  0.1621
  H  H39  1  0.029900  0.861200  0.045200  1.0  0.1281
  H  H40  1  0.049400  0.983900  0.118800  1.0  0.1156
  H  H41  1  0.122600  0.154200  0.076800  1.0  0.1089
  H  H42  1  0.150300  0.136700  0.978700  1.0  0.1063
  H  H43  1  0.581900  0.731200  0.941800  1.0  0.1475
  H  H44  1  0.660100  0.766000  0.050900  1.0  0.1502
  H  H45  1  0.515600  0.654600  0.134800  1.0  0.1085
  H  H46  1  0.616900  0.624700  0.119900  1.0  0.1022
  H  H47  1  0.622100  0.546800  0.951500  1.0  0.1309
  H  H48  1  0.523300  0.526100  0.859200  1.0  0.1073
  H  H49  1  0.965700  0.740000  0.612300  1.0  0.1734
  H  H50  1  0.903000  0.635100  0.637600  1.0  0.1516
  H  H51  1  0.851200  0.492700  0.468900  1.0  0.1033
  H  H52  1  0.910600  0.597200  0.441800  1.0  0.1021
  H  H53  1  0.101600  0.574400  0.670500  1.0  0.1053
  H  H54  1  0.969300  0.479000  0.610600  1.0  0.1062
  H  H55  1  0.661300  0.241400  0.625200  1.0  0.2405
  H  H56  1  0.466100  0.083600  0.728200  1.0  0.2608
  H  H57  1  0.908600  0.057700  0.057300  1.0  0.2545
  H  H58  1  0.567300  0.416000  0.035400  1.0  0.2434
  H  H59  1  0.547300  0.432900  0.363100  1.0  0.1116
  H  H60  1  0.916200  0.336700  0.432600  1.0  0.2619
  H  H61  1  0.601400  0.625800  0.468900  1.0  0.1168
  H  H62  1  0.898400  0.271600  0.883300  1.0  0.4371
  H  H63  1  0.737400  0.779100  0.456000  1.0  0.1039
  H  H64  1  0.824100  0.745600  0.338600  1.0  0.1258
  H  H65  1  0.795100  0.436900  0.739300  1.0  0.1794
  H  H66  1  0.849700  0.355100  0.701300  1.0  0.1692
  H  H67  1  0.692900  0.179400  0.780500  1.0  0.103
  H  H68  1  0.740100  0.144400  0.694500  1.0  0.1371
  H  H69  1  0.549400  0.030400  0.576600  1.0  0.0902
  H  H70  1  0.558600  0.987800  0.661400  1.0  0.1396
  H  H71  1  0.412700  0.202800  0.679100  1.0  0.0974
  H  H72  1  0.456100  0.173700  0.589700  1.0  0.1102
  H  H73  1  0.595600  0.360000  0.716900  1.0  0.1126
  H  H74  1  0.607400  0.305500  0.793500  1.0  0.0997
  H  H75  1  0.324500  0.977700  0.530600  1.0  0.1418
  H  H76  1  0.282700  0.986400  0.621100  1.0  0.1859
  H  H77  1  0.715600  0.914200  0.954200  1.0  0.1485
  H  H78  1  0.751500  0.924300  0.864200  1.0  0.1621
  H  H79  1  0.970100  0.138800  0.954800  1.0  0.1308
  H  H80  1  0.950600  0.016100  0.881200  1.0  0.1164
  H  H81  1  0.877400  0.845800  0.923200  1.0  0.1125
  H  H82  1  0.849700  0.863300  0.021300  1.0  0.1053
  H  H83  1  0.418100  0.268800  0.058200  1.0  0.1451
  H  H84  1  0.339900  0.234000  0.949100  1.0  0.1519
  H  H85  1  0.484400  0.345400  0.865200  1.0  0.1097
  H  H86  1  0.383100  0.375300  0.880100  1.0  0.1026
  H  H87  1  0.377900  0.453200  0.048500  1.0  0.1329
  H  H88  1  0.476700  0.473900  0.140800  1.0  0.107
  H  H89  1  0.034300  0.260000  0.387700  1.0  0.1728
  H  H90  1  0.097000  0.364900  0.362400  1.0  0.1502
  H  H91  1  0.148800  0.507300  0.531100  1.0  0.1025
  H  H92  1  0.089400  0.402800  0.558200  1.0  0.1025
  H  H93  1  0.898400  0.425600  0.329500  1.0  0.0978
  H  H94  1  0.030700  0.521000  0.389400  1.0  0.1059
  C  C95  1  0.206600  0.457500  0.795100  1.0  0.6385
  C  C96  1  0.375200  0.653300  0.774700  1.0  0.6866
  C  C97  1  0.262000  0.432600  0.720100  1.0  -0.0405
  C  C98  1  0.344300  0.527000  0.712000  1.0  -0.134
  C  C99  1  0.396400  0.504600  0.641700  1.0  -0.0435
  C  C100  1  0.364400  0.388900  0.578500  1.0  -0.1234
  C  C101  1  0.283500  0.297900  0.586400  1.0  -0.0659
  C  C102  1  0.231200  0.317700  0.656800  1.0  -0.0974
  C  C103  1  0.196300  0.630400  0.258500  1.0  -0.5136
  C  C104  1  0.321300  0.839100  0.289600  1.0  -0.1138
  C  C105  1  0.439900  0.947200  0.353400  1.0  -0.1017
  C  C106  1  0.528300  0.814500  0.341300  1.0  -0.1167
  C  C107  1  0.407600  0.709700  0.276200  1.0  -0.0923
  C  C108  1  0.659600  0.025800  0.405400  1.0  -0.4973
  C  C109  1  0.234300  0.031300  0.066200  1.0  -0.5025
  C  C110  1  0.026500  0.932500  0.048900  1.0  -0.0939
  C  C111  1  0.098200  0.098500  0.008000  1.0  -0.0872
  C  C112  1  0.579800  0.732300  0.005800  1.0  -0.4596
  C  C113  1  0.534100  0.600800  0.089900  1.0  -0.1015
  C  C114  1  0.539300  0.523600  0.923600  1.0  -0.1104
  C  C115  1  0.977900  0.686800  0.638200  1.0  -0.4971
  C  C116  1  0.924300  0.543700  0.466400  1.0  -0.0919
  C  C117  1  0.039700  0.530200  0.604800  1.0  -0.0884
  C  C118  1  0.793400  0.542500  0.204900  1.0  0.6384
  C  C119  1  0.624800  0.346700  0.225300  1.0  0.6857
  C  C120  1  0.738000  0.567400  0.279900  1.0  -0.0393
  C  C121  1  0.655700  0.473000  0.288000  1.0  -0.1378
  C  C122  1  0.603600  0.495400  0.358300  1.0  -0.0438
  C  C123  1  0.635600  0.611100  0.421500  1.0  -0.124
  C  C124  1  0.716500  0.702100  0.413600  1.0  -0.067
  C  C125  1  0.768800  0.682300  0.343200  1.0  -0.0983
  C  C126  1  0.803700  0.369600  0.741500  1.0  -0.5125
  C  C127  1  0.678700  0.160900  0.710400  1.0  -0.1171
  C  C128  1  0.560100  0.052800  0.646600  1.0  -0.0998
  C  C129  1  0.471700  0.185500  0.658700  1.0  -0.1161
  C  C130  1  0.592400  0.290300  0.723800  1.0  -0.0946
  C  C131  1  0.340400  0.974200  0.594600  1.0  -0.5002
  C  C132  1  0.765700  0.968700  0.933800  1.0  -0.5051
  C  C133  1  0.973500  0.067500  0.951100  1.0  -0.0976
  C  C134  1  0.901800  0.901500  0.992000  1.0  -0.087
  C  C135  1  0.420200  0.267700  0.994200  1.0  -0.4601
  C  C136  1  0.465900  0.399200  0.910100  1.0  -0.1015
  C  C137  1  0.460700  0.476400  0.076400  1.0  -0.1123
  C  C138  1  0.022100  0.313200  0.361800  1.0  -0.4941
  C  C139  1  0.075700  0.456300  0.533600  1.0  -0.0916
  C  C140  1  0.960300  0.469800  0.395200  1.0  -0.0808
  N  N141  1  0.316900  0.735900  0.307600  1.0  0.1593
  N  N142  1  0.539300  0.926000  0.335200  1.0  0.1561
  N  N143  1  0.110100  0.992600  0.007000  1.0  0.1616
  N  N144  1  0.510700  0.607200  0.991900  1.0  0.1518
  N  N145  1  0.016400  0.613900  0.570300  1.0  0.1534
  N  N146  1  0.683100  0.264100  0.692400  1.0  0.1582
  N  N147  1  0.460700  0.074000  0.664800  1.0  0.1528
  N  N148  1  0.889900  0.007400  0.993000  1.0  0.1621
  N  N149  1  0.489300  0.392800  0.008100  1.0  0.1511
  N  N150  1  0.983600  0.386100  0.429700  1.0  0.154
  O  O151  1  0.104000  0.442900  0.767200  1.0  -0.6163
  O  O152  1  0.268400  0.503000  0.887500  1.0  -0.7015
  O  O153  1  0.301200  0.674000  0.809300  1.0  -0.8076
  O  O154  1  0.470600  0.734800  0.788400  1.0  -0.6446
  O  O155  1  0.191000  0.597100  0.070100  1.0  -0.9274
  O  O156  1  0.011800  0.468800  0.097300  1.0  -0.9204
  O  O157  1  0.065400  0.682500  0.137200  1.0  -0.7173
  O  O158  1  0.620100  0.206600  0.499900  1.0  -0.9076
  O  O159  1  0.622400  0.165100  0.325900  1.0  -0.9548
  O  O160  1  0.813400  0.251900  0.474200  1.0  -0.8774
  O  O161  1  0.289200  0.867900  0.957200  1.0  -1.054
  O  O162  1  0.192500  0.817900  0.069100  1.0  -0.943
  O  O163  1  0.401700  0.992600  0.145200  1.0  -0.917
  O  O164  1  0.068400  0.687000  0.813300  1.0  -0.9797
  O  O165  1  0.042500  0.862900  0.813900  1.0  -0.9175
  O  O166  1  0.199700  0.828900  0.758200  1.0  -0.9623
  O  O167  1  0.524300  0.903600  0.002100  1.0  -1.0166
  O  O168  1  0.588500  0.907400  0.167900  1.0  -0.8967
  O  O169  1  0.391100  0.737700  0.037700  1.0  -0.9238
  O  O170  1  0.896000  0.557100  0.232800  1.0  -0.6158
  O  O171  1  0.731600  0.497000  0.112500  1.0  -0.6988
  O  O172  1  0.698800  0.326000  0.190700  1.0  -0.8082
  O  O173  1  0.529400  0.265200  0.211600  1.0  -0.6407
  O  O174  1  0.809000  0.402900  0.929900  1.0  -0.9268
  O  O175  1  0.988200  0.531200  0.902700  1.0  -0.921
  O  O176  1  0.934600  0.317500  0.862800  1.0  -0.7216
  O  O177  1  0.379900  0.793400  0.500100  1.0  -0.8993
  O  O178  1  0.377600  0.834900  0.674100  1.0  -0.9538
  O  O179  1  0.186600  0.748100  0.525800  1.0  -0.8766
  O  O180  1  0.710800  0.132100  0.042800  1.0  -1.0546
  O  O181  1  0.807500  0.182100  0.930900  1.0  -0.9437
  O  O182  1  0.598300  0.007400  0.854800  1.0  -0.9156
  O  O183  1  0.931600  0.313000  0.186700  1.0  -0.9775
  O  O184  1  0.957500  0.137100  0.186100  1.0  -0.9172
  O  O185  1  0.800300  0.171100  0.241800  1.0  -0.959
  O  O186  1  0.475700  0.096400  0.997900  1.0  -1.016
  O  O187  1  0.411500  0.092600  0.832100  1.0  -0.9001
  O  O188  1  0.608900  0.262300  0.962300  1.0  -0.9243
