# generated using pymatgen
data_Cu2H16C24S(N3O2)2
_symmetry_space_group_name_H-M   'P 1'
_cell_length_a   12.35880000
_cell_length_b   15.50110000
_cell_length_c   34.30500000
_cell_angle_alpha   90.00000000
_cell_angle_beta   90.00000000
_cell_angle_gamma   90.00000000
_symmetry_Int_Tables_number   1
_chemical_formula_structural   Cu2H16C24S(N3O2)2
_chemical_formula_sum   'Cu16 H128 C192 S8 N48 O32'
_cell_volume   6571.98019250
_cell_formula_units_Z   8
loop_
 _symmetry_equiv_pos_site_id
 _symmetry_equiv_pos_as_xyz
  1  'x, y, z'
loop_
 _atom_site_type_symbol
 _atom_site_label
 _atom_site_symmetry_multiplicity
 _atom_site_fract_x
 _atom_site_fract_y
 _atom_site_fract_z
 _atom_site_occupancy
 _atom_site_charge
  Cu  Cu1  1  0.650090  0.642290  0.513700  1.0  0.9395
  Cu  Cu2  1  0.150090  0.142290  0.013700  1.0  0.9395
  Cu  Cu3  1  0.849910  0.357710  0.013700  1.0  0.9389
  Cu  Cu4  1  0.349910  0.857710  0.513700  1.0  0.9389
  Cu  Cu5  1  0.349910  0.142290  0.986300  1.0  0.9393
  Cu  Cu6  1  0.849910  0.642290  0.486300  1.0  0.9393
  Cu  Cu7  1  0.150090  0.857710  0.486300  1.0  0.9413
  Cu  Cu8  1  0.650090  0.357710  0.986300  1.0  0.9413
  Cu  Cu9  1  0.000000  0.250000  0.260010  1.0  0.3414
  Cu  Cu10  1  0.500000  0.750000  0.760010  1.0  0.3413
  Cu  Cu11  1  0.000000  0.750000  0.239990  1.0  0.3431
  Cu  Cu12  1  0.500000  0.250000  0.739990  1.0  0.3429
  Cu  Cu13  1  0.005370  0.500000  0.250000  1.0  0.4264
  Cu  Cu14  1  0.494630  0.500000  0.750000  1.0  0.4256
  Cu  Cu15  1  0.994630  0.000000  0.250000  1.0  0.4256
  Cu  Cu16  1  0.505370  0.000000  0.750000  1.0  0.4264
  H  H17  1  0.877100  0.193800  0.328100  1.0  0.115
  H  H18  1  0.750300  0.207900  0.321100  1.0  0.1099
  H  H19  1  0.804100  0.236000  0.361600  1.0  0.1162
  H  H20  1  0.626900  0.538700  0.295800  1.0  0.0962
  H  H21  1  0.619600  0.698200  0.291600  1.0  0.0985
  H  H22  1  0.839600  0.063100  0.301700  1.0  0.1137
  H  H23  1  0.813600  0.025700  0.344200  1.0  0.1019
  H  H24  1  0.718700  0.035300  0.312700  1.0  0.1128
  H  H25  1  0.580600  0.329000  0.334400  1.0  0.1152
  H  H26  1  0.461700  0.346100  0.387600  1.0  0.0912
  H  H27  1  0.507300  0.439700  0.438700  1.0  0.0975
  H  H28  1  0.800000  0.479900  0.389400  1.0  0.0981
  H  H29  1  0.568300  0.914400  0.323600  1.0  0.108
  H  H30  1  0.458800  0.906900  0.378800  1.0  0.0759
  H  H31  1  0.516700  0.835200  0.434800  1.0  0.1063
  H  H32  1  0.805800  0.788600  0.382000  1.0  0.1137
  H  H33  1  0.377100  0.693800  0.828100  1.0  0.1151
  H  H34  1  0.250300  0.707900  0.821100  1.0  0.1092
  H  H35  1  0.304100  0.736000  0.861600  1.0  0.1153
  H  H36  1  0.126900  0.038700  0.795800  1.0  0.0963
  H  H37  1  0.119600  0.198200  0.791600  1.0  0.1014
  H  H38  1  0.339600  0.563100  0.801700  1.0  0.1132
  H  H39  1  0.313600  0.525700  0.844200  1.0  0.102
  H  H40  1  0.218700  0.535300  0.812700  1.0  0.1128
  H  H41  1  0.080600  0.829000  0.834400  1.0  0.1152
  H  H42  1  0.961700  0.846100  0.887600  1.0  0.0912
  H  H43  1  0.007300  0.939700  0.938700  1.0  0.0975
  H  H44  1  0.300000  0.979900  0.889400  1.0  0.0981
  H  H45  1  0.068300  0.414400  0.823600  1.0  0.108
  H  H46  1  0.958800  0.406900  0.878800  1.0  0.0759
  H  H47  1  0.016700  0.335200  0.934800  1.0  0.1063
  H  H48  1  0.305800  0.288600  0.882000  1.0  0.1137
  H  H49  1  0.622900  0.806200  0.828100  1.0  0.1151
  H  H50  1  0.749700  0.792100  0.821100  1.0  0.1102
  H  H51  1  0.695900  0.764000  0.861600  1.0  0.1155
  H  H52  1  0.873100  0.461300  0.795800  1.0  0.0964
  H  H53  1  0.880400  0.301800  0.791600  1.0  0.1018
  H  H54  1  0.660400  0.936900  0.801700  1.0  0.1137
  H  H55  1  0.686400  0.974300  0.844200  1.0  0.1021
  H  H56  1  0.781300  0.964700  0.812700  1.0  0.1113
  H  H57  1  0.919400  0.671000  0.834400  1.0  0.1156
  H  H58  1  0.038300  0.653900  0.887600  1.0  0.0908
  H  H59  1  0.992700  0.560300  0.938700  1.0  0.0967
  H  H60  1  0.700000  0.520100  0.889400  1.0  0.1
  H  H61  1  0.931700  0.085600  0.823600  1.0  0.108
  H  H62  1  0.041200  0.093100  0.878800  1.0  0.0754
  H  H63  1  0.983300  0.164800  0.934800  1.0  0.1063
  H  H64  1  0.694200  0.211400  0.882000  1.0  0.114
  H  H65  1  0.122900  0.306200  0.328100  1.0  0.1151
  H  H66  1  0.249700  0.292100  0.321100  1.0  0.111
  H  H67  1  0.195900  0.264000  0.361600  1.0  0.1165
  H  H68  1  0.373100  0.961300  0.295800  1.0  0.0965
  H  H69  1  0.380400  0.801800  0.291600  1.0  0.1018
  H  H70  1  0.160400  0.436900  0.301700  1.0  0.1142
  H  H71  1  0.186400  0.474300  0.344200  1.0  0.102
  H  H72  1  0.281300  0.464700  0.312700  1.0  0.1113
  H  H73  1  0.419400  0.171000  0.334400  1.0  0.1156
  H  H74  1  0.538300  0.153900  0.387600  1.0  0.0908
  H  H75  1  0.492700  0.060300  0.438700  1.0  0.0967
  H  H76  1  0.200000  0.020100  0.389400  1.0  0.1
  H  H77  1  0.431700  0.585600  0.323600  1.0  0.108
  H  H78  1  0.541200  0.593100  0.378800  1.0  0.0754
  H  H79  1  0.483300  0.664800  0.434800  1.0  0.1063
  H  H80  1  0.194200  0.711400  0.382000  1.0  0.114
  H  H81  1  0.122900  0.693800  0.171900  1.0  0.1147
  H  H82  1  0.249700  0.707900  0.178900  1.0  0.1105
  H  H83  1  0.195900  0.736000  0.138400  1.0  0.1154
  H  H84  1  0.373100  0.038700  0.204200  1.0  0.0964
  H  H85  1  0.380400  0.198200  0.208400  1.0  0.1018
  H  H86  1  0.160400  0.563100  0.198300  1.0  0.1127
  H  H87  1  0.186400  0.525700  0.155800  1.0  0.1034
  H  H88  1  0.281300  0.535300  0.187300  1.0  0.1114
  H  H89  1  0.419400  0.829000  0.165600  1.0  0.1161
  H  H90  1  0.538300  0.846100  0.112400  1.0  0.091
  H  H91  1  0.492700  0.939700  0.061300  1.0  0.0959
  H  H92  1  0.200000  0.979900  0.110600  1.0  0.0987
  H  H93  1  0.431700  0.414400  0.176400  1.0  0.1074
  H  H94  1  0.541200  0.406900  0.121200  1.0  0.0753
  H  H95  1  0.483300  0.335200  0.065200  1.0  0.1061
  H  H96  1  0.194200  0.288600  0.118000  1.0  0.1134
  H  H97  1  0.622900  0.193800  0.671900  1.0  0.1147
  H  H98  1  0.749700  0.207900  0.678900  1.0  0.1112
  H  H99  1  0.695900  0.236000  0.638400  1.0  0.1167
  H  H100  1  0.873100  0.538700  0.704200  1.0  0.0965
  H  H101  1  0.880400  0.698200  0.708400  1.0  0.099
  H  H102  1  0.660400  0.063100  0.698300  1.0  0.1134
  H  H103  1  0.686400  0.025700  0.655800  1.0  0.1033
  H  H104  1  0.781300  0.035300  0.687300  1.0  0.1114
  H  H105  1  0.919400  0.329000  0.665600  1.0  0.1161
  H  H106  1  0.038300  0.346100  0.612400  1.0  0.091
  H  H107  1  0.992700  0.439700  0.561300  1.0  0.0959
  H  H108  1  0.700000  0.479900  0.610600  1.0  0.0987
  H  H109  1  0.931700  0.914400  0.676400  1.0  0.1074
  H  H110  1  0.041200  0.906900  0.621200  1.0  0.0753
  H  H111  1  0.983300  0.835200  0.565200  1.0  0.1061
  H  H112  1  0.694200  0.788600  0.618000  1.0  0.1134
  H  H113  1  0.377100  0.306200  0.671900  1.0  0.1161
  H  H114  1  0.250300  0.292100  0.678900  1.0  0.1098
  H  H115  1  0.304100  0.264000  0.638400  1.0  0.1171
  H  H116  1  0.126900  0.961300  0.704200  1.0  0.0965
  H  H117  1  0.119600  0.801800  0.708400  1.0  0.1009
  H  H118  1  0.339600  0.436900  0.698300  1.0  0.1131
  H  H119  1  0.313600  0.474300  0.655800  1.0  0.1036
  H  H120  1  0.218700  0.464700  0.687300  1.0  0.1114
  H  H121  1  0.080600  0.171000  0.665600  1.0  0.1157
  H  H122  1  0.961700  0.153900  0.612400  1.0  0.0906
  H  H123  1  0.007300  0.060300  0.561300  1.0  0.0959
  H  H124  1  0.300000  0.020100  0.610600  1.0  0.0989
  H  H125  1  0.068300  0.585600  0.676400  1.0  0.1077
  H  H126  1  0.958800  0.593100  0.621200  1.0  0.0761
  H  H127  1  0.016700  0.664800  0.565200  1.0  0.1059
  H  H128  1  0.305800  0.711400  0.618000  1.0  0.1131
  H  H129  1  0.877100  0.806200  0.171900  1.0  0.1161
  H  H130  1  0.750300  0.792100  0.178900  1.0  0.1091
  H  H131  1  0.804100  0.764000  0.138400  1.0  0.1158
  H  H132  1  0.626900  0.461300  0.204200  1.0  0.0965
  H  H133  1  0.619600  0.301800  0.208400  1.0  0.1009
  H  H134  1  0.839600  0.936900  0.198300  1.0  0.1124
  H  H135  1  0.813600  0.974300  0.155800  1.0  0.1037
  H  H136  1  0.718700  0.964700  0.187300  1.0  0.1114
  H  H137  1  0.580600  0.671000  0.165600  1.0  0.1157
  H  H138  1  0.461700  0.653900  0.112400  1.0  0.0906
  H  H139  1  0.507300  0.560300  0.061300  1.0  0.0959
  H  H140  1  0.800000  0.520100  0.110600  1.0  0.0989
  H  H141  1  0.568300  0.085600  0.176400  1.0  0.1077
  H  H142  1  0.458800  0.093100  0.121200  1.0  0.0761
  H  H143  1  0.516700  0.164800  0.065200  1.0  0.1059
  H  H144  1  0.805800  0.211400  0.118000  1.0  0.1131
  C  C145  1  0.815400  0.231700  0.333333  1.0  -0.4051
  C  C146  1  0.837400  0.318400  0.317200  1.0  0.3801
  C  C147  1  0.825600  0.457200  0.306600  1.0  0.2952
  C  C148  1  0.789300  0.546400  0.306100  1.0  -0.0974
  C  C149  1  0.688100  0.575200  0.298800  1.0  -0.0979
  C  C150  1  0.684300  0.666667  0.296000  1.0  -0.0996
  C  C151  1  0.782700  0.703800  0.300400  1.0  -0.1034
  C  C152  1  0.814000  0.794300  0.295600  1.0  0.3282
  C  C153  1  0.817500  0.933900  0.302300  1.0  0.4176
  C  C154  1  0.795500  0.021900  0.316400  1.0  -0.4175
  C  C155  1  0.702300  0.401900  0.358300  1.0  0.136
  C  C156  1  0.600700  0.362800  0.356300  1.0  -0.1502
  C  C157  1  0.529600  0.374800  0.387500  1.0  -0.1051
  C  C158  1  0.557900  0.429000  0.418500  1.0  -0.0617
  C  C159  1  0.661200  0.468000  0.419800  1.0  -0.1133
  C  C160  1  0.730600  0.453500  0.389200  1.0  -0.1021
  C  C161  1  0.692200  0.527800  0.450800  1.0  0.679
  C  C162  1  0.697500  0.853700  0.348800  1.0  0.1244
  C  C163  1  0.593800  0.887800  0.346800  1.0  -0.1772
  C  C164  1  0.528900  0.881800  0.379300  1.0  -0.1033
  C  C165  1  0.563400  0.840100  0.413000  1.0  -0.1516
  C  C166  1  0.667600  0.805600  0.414100  1.0  -0.1567
  C  C167  1  0.734900  0.812300  0.381600  1.0  -0.1054
  C  C168  1  0.702000  0.753600  0.448300  1.0  0.6797
  C  C169  1  0.315400  0.731700  0.833300  1.0  -0.4014
  C  C170  1  0.337400  0.818400  0.817200  1.0  0.3804
  C  C171  1  0.325600  0.957200  0.806600  1.0  0.2952
  C  C172  1  0.289300  0.046400  0.806100  1.0  -0.0961
  C  C173  1  0.188100  0.075200  0.798800  1.0  -0.0981
  C  C174  1  0.184300  0.166600  0.796000  1.0  -0.0892
  C  C175  1  0.282700  0.203800  0.800400  1.0  -0.1033
  C  C176  1  0.314000  0.294300  0.795600  1.0  0.3282
  C  C177  1  0.317500  0.433900  0.802300  1.0  0.4176
  C  C178  1  0.295500  0.521900  0.816400  1.0  -0.4175
  C  C179  1  0.202300  0.901900  0.858300  1.0  0.136
  C  C180  1  0.100700  0.862800  0.856300  1.0  -0.1502
  C  C181  1  0.029600  0.874800  0.887500  1.0  -0.1051
  C  C182  1  0.057900  0.929000  0.918500  1.0  -0.0617
  C  C183  1  0.161200  0.968000  0.919800  1.0  -0.1133
  C  C184  1  0.230600  0.953500  0.889200  1.0  -0.1021
  C  C185  1  0.192200  0.027800  0.950800  1.0  0.679
  C  C186  1  0.197500  0.353700  0.848800  1.0  0.1244
  C  C187  1  0.093800  0.387800  0.846800  1.0  -0.1772
  C  C188  1  0.028900  0.381800  0.879300  1.0  -0.1033
  C  C189  1  0.063400  0.340100  0.913000  1.0  -0.1516
  C  C190  1  0.167600  0.305600  0.914100  1.0  -0.1567
  C  C191  1  0.234900  0.312300  0.881600  1.0  -0.1054
  C  C192  1  0.202000  0.253600  0.948300  1.0  0.6797
  C  C193  1  0.684600  0.768300  0.833300  1.0  -0.4
  C  C194  1  0.662600  0.681600  0.817200  1.0  0.3809
  C  C195  1  0.674400  0.542800  0.806600  1.0  0.2961
  C  C196  1  0.710700  0.453600  0.806100  1.0  -0.0944
  C  C197  1  0.811900  0.424800  0.798800  1.0  -0.0986
  C  C198  1  0.815700  0.333400  0.796000  1.0  -0.0889
  C  C199  1  0.717300  0.296200  0.800400  1.0  -0.1025
  C  C200  1  0.686000  0.205700  0.795600  1.0  0.328
  C  C201  1  0.682500  0.066100  0.802300  1.0  0.4177
  C  C202  1  0.704500  0.978100  0.816400  1.0  -0.4169
  C  C203  1  0.797700  0.598100  0.858300  1.0  0.1361
  C  C204  1  0.899300  0.637200  0.856300  1.0  -0.1493
  C  C205  1  0.970400  0.625200  0.887500  1.0  -0.1038
  C  C206  1  0.942100  0.571000  0.918500  1.0  -0.0598
  C  C207  1  0.838800  0.532000  0.919800  1.0  -0.1123
  C  C208  1  0.769400  0.546500  0.889200  1.0  -0.1037
  C  C209  1  0.807800  0.472200  0.950800  1.0  0.6794
  C  C210  1  0.802500  0.146300  0.848800  1.0  0.1243
  C  C211  1  0.906200  0.112200  0.846800  1.0  -0.1769
  C  C212  1  0.971100  0.118200  0.879300  1.0  -0.1038
  C  C213  1  0.936600  0.159900  0.913000  1.0  -0.1529
  C  C214  1  0.832400  0.194400  0.914100  1.0  -0.1565
  C  C215  1  0.765100  0.187700  0.881600  1.0  -0.1085
  C  C216  1  0.798000  0.246400  0.948300  1.0  0.6799
  C  C217  1  0.184600  0.268300  0.333333  1.0  -0.4038
  C  C218  1  0.162600  0.181600  0.317200  1.0  0.3806
  C  C219  1  0.174400  0.042800  0.306600  1.0  0.2961
  C  C220  1  0.210700  0.953600  0.306100  1.0  -0.0944
  C  C221  1  0.311900  0.924800  0.298800  1.0  -0.0986
  C  C222  1  0.315700  0.833400  0.296000  1.0  -0.0889
  C  C223  1  0.217300  0.796200  0.300400  1.0  -0.1025
  C  C224  1  0.186000  0.705700  0.295600  1.0  0.328
  C  C225  1  0.182500  0.566100  0.302300  1.0  0.4177
  C  C226  1  0.204500  0.478100  0.316400  1.0  -0.4169
  C  C227  1  0.297700  0.098100  0.358300  1.0  0.1361
  C  C228  1  0.399300  0.137200  0.356300  1.0  -0.1493
  C  C229  1  0.470400  0.125200  0.387500  1.0  -0.1038
  C  C230  1  0.442100  0.071000  0.418500  1.0  -0.0598
  C  C231  1  0.338800  0.032000  0.419800  1.0  -0.1123
  C  C232  1  0.269400  0.046500  0.389200  1.0  -0.1037
  C  C233  1  0.307800  0.972200  0.450800  1.0  0.6794
  C  C234  1  0.302500  0.646300  0.348800  1.0  0.1243
  C  C235  1  0.406200  0.612200  0.346800  1.0  -0.1769
  C  C236  1  0.471100  0.618200  0.379300  1.0  -0.1038
  C  C237  1  0.436600  0.659900  0.413000  1.0  -0.1529
  C  C238  1  0.332400  0.694400  0.414100  1.0  -0.1565
  C  C239  1  0.265100  0.687700  0.381600  1.0  -0.1085
  C  C240  1  0.298000  0.746400  0.448300  1.0  0.6799
  C  C241  1  0.184600  0.731700  0.166700  1.0  -0.4002
  C  C242  1  0.162600  0.818400  0.182800  1.0  0.3803
  C  C243  1  0.174400  0.957200  0.193400  1.0  0.2949
  C  C244  1  0.210700  0.046400  0.193900  1.0  -0.0946
  C  C245  1  0.311900  0.075200  0.201200  1.0  -0.0983
  C  C246  1  0.315700  0.166600  0.204000  1.0  -0.089
  C  C247  1  0.217300  0.203800  0.199600  1.0  -0.1024
  C  C248  1  0.186000  0.294300  0.204400  1.0  0.3282
  C  C249  1  0.182500  0.433900  0.197700  1.0  0.4185
  C  C250  1  0.204500  0.521900  0.183600  1.0  -0.4172
  C  C251  1  0.297700  0.901900  0.141700  1.0  0.1361
  C  C252  1  0.399300  0.862800  0.143700  1.0  -0.1496
  C  C253  1  0.470400  0.874800  0.112500  1.0  -0.1046
  C  C254  1  0.442100  0.929000  0.081500  1.0  -0.0622
  C  C255  1  0.338800  0.968000  0.080200  1.0  -0.1129
  C  C256  1  0.269400  0.953500  0.110800  1.0  -0.1033
  C  C257  1  0.307800  0.027800  0.049200  1.0  0.6802
  C  C258  1  0.302500  0.353700  0.151200  1.0  0.1243
  C  C259  1  0.406200  0.387800  0.153200  1.0  -0.176
  C  C260  1  0.471100  0.381800  0.120700  1.0  -0.1043
  C  C261  1  0.436600  0.340100  0.087000  1.0  -0.1507
  C  C262  1  0.332400  0.305600  0.085900  1.0  -0.1559
  C  C263  1  0.265100  0.312300  0.118400  1.0  -0.108
  C  C264  1  0.298000  0.253600  0.051700  1.0  0.6825
  C  C265  1  0.684600  0.231700  0.666667  1.0  -0.404
  C  C266  1  0.662600  0.318400  0.682800  1.0  0.3799
  C  C267  1  0.674400  0.457200  0.693400  1.0  0.2949
  C  C268  1  0.710700  0.546400  0.693900  1.0  -0.0959
  C  C269  1  0.811900  0.575200  0.701200  1.0  -0.0981
  C  C270  1  0.815700  0.666667  0.704000  1.0  -0.0994
  C  C271  1  0.717300  0.703800  0.699600  1.0  -0.1025
  C  C272  1  0.686000  0.794300  0.704400  1.0  0.3282
  C  C273  1  0.682500  0.933900  0.697700  1.0  0.4185
  C  C274  1  0.704500  0.021900  0.683600  1.0  -0.4172
  C  C275  1  0.797700  0.401900  0.641700  1.0  0.1361
  C  C276  1  0.899300  0.362800  0.643700  1.0  -0.1496
  C  C277  1  0.970400  0.374800  0.612500  1.0  -0.1046
  C  C278  1  0.942100  0.429000  0.581500  1.0  -0.0622
  C  C279  1  0.838800  0.468000  0.580200  1.0  -0.1129
  C  C280  1  0.769400  0.453500  0.610800  1.0  -0.1033
  C  C281  1  0.807800  0.527800  0.549200  1.0  0.6802
  C  C282  1  0.802500  0.853700  0.651200  1.0  0.1243
  C  C283  1  0.906200  0.887800  0.653200  1.0  -0.176
  C  C284  1  0.971100  0.881800  0.620700  1.0  -0.1043
  C  C285  1  0.936600  0.840100  0.587000  1.0  -0.1507
  C  C286  1  0.832400  0.805600  0.585900  1.0  -0.1559
  C  C287  1  0.765100  0.812300  0.618400  1.0  -0.108
  C  C288  1  0.798000  0.753600  0.551700  1.0  0.6825
  C  C289  1  0.315400  0.268300  0.666667  1.0  -0.4021
  C  C290  1  0.337400  0.181600  0.682800  1.0  0.3798
  C  C291  1  0.325600  0.042800  0.693400  1.0  0.2954
  C  C292  1  0.289300  0.953600  0.693900  1.0  -0.0964
  C  C293  1  0.188100  0.924800  0.701200  1.0  -0.0982
  C  C294  1  0.184300  0.833400  0.704000  1.0  -0.0875
  C  C295  1  0.282700  0.796200  0.699600  1.0  -0.1035
  C  C296  1  0.314000  0.705700  0.704400  1.0  0.3271
  C  C297  1  0.317500  0.566100  0.697700  1.0  0.4183
  C  C298  1  0.295500  0.478100  0.683600  1.0  -0.418
  C  C299  1  0.202300  0.098100  0.641700  1.0  0.1354
  C  C300  1  0.100700  0.137200  0.643700  1.0  -0.1497
  C  C301  1  0.029600  0.125200  0.612500  1.0  -0.106
  C  C302  1  0.057900  0.071000  0.581500  1.0  -0.0606
  C  C303  1  0.161200  0.032000  0.580200  1.0  -0.1115
  C  C304  1  0.230600  0.046500  0.610800  1.0  -0.1024
  C  C305  1  0.192200  0.972200  0.549200  1.0  0.6804
  C  C306  1  0.197500  0.646300  0.651200  1.0  0.1251
  C  C307  1  0.093800  0.612200  0.653200  1.0  -0.1761
  C  C308  1  0.028900  0.618200  0.620700  1.0  -0.1026
  C  C309  1  0.063400  0.659900  0.587000  1.0  -0.151
  C  C310  1  0.167600  0.694400  0.585900  1.0  -0.1544
  C  C311  1  0.234900  0.687700  0.618400  1.0  -0.1055
  C  C312  1  0.202000  0.746400  0.551700  1.0  0.6798
  C  C313  1  0.815400  0.768300  0.166700  1.0  -0.3984
  C  C314  1  0.837400  0.681600  0.182800  1.0  0.3802
  C  C315  1  0.825600  0.542800  0.193400  1.0  0.2954
  C  C316  1  0.789300  0.453600  0.193900  1.0  -0.0964
  C  C317  1  0.688100  0.424800  0.201200  1.0  -0.0982
  C  C318  1  0.684300  0.333400  0.204000  1.0  -0.0875
  C  C319  1  0.782700  0.296200  0.199600  1.0  -0.1035
  C  C320  1  0.814000  0.205700  0.204400  1.0  0.3271
  C  C321  1  0.817500  0.066100  0.197700  1.0  0.4183
  C  C322  1  0.795500  0.978100  0.183600  1.0  -0.418
  C  C323  1  0.702300  0.598100  0.141700  1.0  0.1354
  C  C324  1  0.600700  0.637200  0.143700  1.0  -0.1497
  C  C325  1  0.529600  0.625200  0.112500  1.0  -0.106
  C  C326  1  0.557900  0.571000  0.081500  1.0  -0.0606
  C  C327  1  0.661200  0.532000  0.080200  1.0  -0.1115
  C  C328  1  0.730600  0.546500  0.110800  1.0  -0.1024
  C  C329  1  0.692200  0.472200  0.049200  1.0  0.6804
  C  C330  1  0.697500  0.146300  0.151200  1.0  0.1251
  C  C331  1  0.593800  0.112200  0.153200  1.0  -0.1761
  C  C332  1  0.528900  0.118200  0.120700  1.0  -0.1026
  C  C333  1  0.563400  0.159900  0.087000  1.0  -0.151
  C  C334  1  0.667600  0.194400  0.085900  1.0  -0.1544
  C  C335  1  0.734900  0.187700  0.118400  1.0  -0.1055
  C  C336  1  0.702000  0.246400  0.051700  1.0  0.6798
  S  S337  1  0.880490  0.628630  0.309330  1.0  0.1125
  S  S338  1  0.380490  0.128630  0.809330  1.0  0.1125
  S  S339  1  0.619510  0.371370  0.809330  1.0  0.1113
  S  S340  1  0.119510  0.871370  0.309330  1.0  0.1113
  S  S341  1  0.119510  0.128630  0.190670  1.0  0.1127
  S  S342  1  0.619510  0.628630  0.690670  1.0  0.1128
  S  S343  1  0.380490  0.871370  0.690670  1.0  0.1122
  S  S344  1  0.880490  0.371370  0.190670  1.0  0.1122
  N  N345  1  0.779600  0.391200  0.327000  1.0  -0.0958
  N  N346  1  0.913400  0.338200  0.292300  1.0  -0.2556
  N  N347  1  0.908100  0.427200  0.285900  1.0  -0.3218
  N  N348  1  0.768400  0.861600  0.315560  1.0  -0.0574
  N  N349  1  0.889900  0.823000  0.271800  1.0  -0.3017
  N  N350  1  0.891300  0.912800  0.275600  1.0  -0.2785
  N  N351  1  0.279600  0.891200  0.827000  1.0  -0.096
  N  N352  1  0.413400  0.838200  0.792300  1.0  -0.256
  N  N353  1  0.408100  0.927200  0.785900  1.0  -0.3218
  N  N354  1  0.268400  0.361600  0.815560  1.0  -0.0574
  N  N355  1  0.389900  0.323000  0.771800  1.0  -0.3017
  N  N356  1  0.391300  0.412800  0.775600  1.0  -0.2785
  N  N357  1  0.720400  0.608800  0.827000  1.0  -0.0964
  N  N358  1  0.586600  0.661800  0.792300  1.0  -0.2557
  N  N359  1  0.591900  0.572800  0.785900  1.0  -0.3217
  N  N360  1  0.731600  0.138400  0.815560  1.0  -0.058
  N  N361  1  0.610100  0.177000  0.771800  1.0  -0.3004
  N  N362  1  0.608700  0.087200  0.775600  1.0  -0.2783
  N  N363  1  0.220400  0.108800  0.327000  1.0  -0.0962
  N  N364  1  0.086600  0.161800  0.292300  1.0  -0.2553
  N  N365  1  0.091900  0.072800  0.285900  1.0  -0.3217
  N  N366  1  0.231600  0.638400  0.315560  1.0  -0.058
  N  N367  1  0.110100  0.677000  0.271800  1.0  -0.3004
  N  N368  1  0.108700  0.587200  0.275600  1.0  -0.2783
  N  N369  1  0.220400  0.891200  0.173000  1.0  -0.097
  N  N370  1  0.086600  0.838200  0.207700  1.0  -0.2553
  N  N371  1  0.091900  0.927200  0.214100  1.0  -0.3213
  N  N372  1  0.231600  0.361600  0.184440  1.0  -0.0585
  N  N373  1  0.110100  0.323000  0.228200  1.0  -0.3005
  N  N374  1  0.108700  0.412800  0.224400  1.0  -0.2779
  N  N375  1  0.720400  0.391200  0.673000  1.0  -0.0967
  N  N376  1  0.586600  0.338200  0.707700  1.0  -0.2549
  N  N377  1  0.591900  0.427200  0.714100  1.0  -0.3213
  N  N378  1  0.731600  0.861600  0.684440  1.0  -0.0585
  N  N379  1  0.610100  0.823000  0.728200  1.0  -0.3005
  N  N380  1  0.608700  0.912800  0.724400  1.0  -0.2779
  N  N381  1  0.279600  0.108800  0.673000  1.0  -0.0966
  N  N382  1  0.413400  0.161800  0.707700  1.0  -0.2553
  N  N383  1  0.408100  0.072800  0.714100  1.0  -0.3209
  N  N384  1  0.268400  0.638400  0.684440  1.0  -0.0578
  N  N385  1  0.389900  0.677000  0.728200  1.0  -0.302
  N  N386  1  0.391300  0.587200  0.724400  1.0  -0.2777
  N  N387  1  0.779600  0.608800  0.173000  1.0  -0.0968
  N  N388  1  0.913400  0.661800  0.207700  1.0  -0.2557
  N  N389  1  0.908100  0.572800  0.214100  1.0  -0.3209
  N  N390  1  0.768400  0.138400  0.184440  1.0  -0.0578
  N  N391  1  0.889900  0.177000  0.228200  1.0  -0.302
  N  N392  1  0.891300  0.087200  0.224400  1.0  -0.2777
  O  O393  1  0.618800  0.555400  0.474130  1.0  -0.598
  O  O394  1  0.790300  0.553000  0.452100  1.0  -0.6052
  O  O395  1  0.633300  0.732800  0.473640  1.0  -0.5954
  O  O396  1  0.801200  0.730200  0.449000  1.0  -0.6065
  O  O397  1  0.118800  0.055400  0.974130  1.0  -0.598
  O  O398  1  0.290300  0.053000  0.952100  1.0  -0.6052
  O  O399  1  0.133300  0.232800  0.973640  1.0  -0.5954
  O  O400  1  0.301200  0.230200  0.949000  1.0  -0.6065
  O  O401  1  0.881200  0.444600  0.974130  1.0  -0.5962
  O  O402  1  0.709700  0.447000  0.952100  1.0  -0.6061
  O  O403  1  0.866700  0.267200  0.973640  1.0  -0.595
  O  O404  1  0.698800  0.269800  0.949000  1.0  -0.6076
  O  O405  1  0.381200  0.944600  0.474130  1.0  -0.5962
  O  O406  1  0.209700  0.947000  0.452100  1.0  -0.6061
  O  O407  1  0.366700  0.767200  0.473640  1.0  -0.595
  O  O408  1  0.198800  0.769800  0.449000  1.0  -0.6076
  O  O409  1  0.381200  0.055400  0.025870  1.0  -0.5975
  O  O410  1  0.209700  0.053000  0.047900  1.0  -0.6056
  O  O411  1  0.366700  0.232800  0.026360  1.0  -0.5963
  O  O412  1  0.198800  0.230200  0.051000  1.0  -0.6089
  O  O413  1  0.881200  0.555400  0.525870  1.0  -0.5975
  O  O414  1  0.709700  0.553000  0.547900  1.0  -0.6056
  O  O415  1  0.866700  0.732800  0.526360  1.0  -0.5963
  O  O416  1  0.698800  0.730200  0.551000  1.0  -0.6089
  O  O417  1  0.118800  0.944600  0.525870  1.0  -0.5976
  O  O418  1  0.290300  0.947000  0.547900  1.0  -0.6053
  O  O419  1  0.133300  0.767200  0.526360  1.0  -0.5964
  O  O420  1  0.301200  0.769800  0.551000  1.0  -0.6082
  O  O421  1  0.618800  0.444600  0.025870  1.0  -0.5976
  O  O422  1  0.790300  0.447000  0.047900  1.0  -0.6053
  O  O423  1  0.633300  0.267200  0.026360  1.0  -0.5964
  O  O424  1  0.801200  0.269800  0.051000  1.0  -0.6082
