# generated using pymatgen
data_Cu2H16C24S(N3O2)2
_symmetry_space_group_name_H-M   'P 1'
_cell_length_a   12.35880000
_cell_length_b   15.50110000
_cell_length_c   34.30500000
_cell_angle_alpha   90.00000000
_cell_angle_beta   90.00000000
_cell_angle_gamma   90.00000000
_symmetry_Int_Tables_number   1
_chemical_formula_structural   Cu2H16C24S(N3O2)2
_chemical_formula_sum   'Cu16 H128 C192 S8 N48 O32'
_cell_volume   6571.98019250
_cell_formula_units_Z   8
loop_
 _symmetry_equiv_pos_site_id
 _symmetry_equiv_pos_as_xyz
  1  'x, y, z'
loop_
 _atom_site_type_symbol
 _atom_site_label
 _atom_site_symmetry_multiplicity
 _atom_site_fract_x
 _atom_site_fract_y
 _atom_site_fract_z
 _atom_site_occupancy
 _atom_site_charge
  Cu  Cu1  1  0.650090  0.642260  0.513690  1.0  0.9423
  Cu  Cu2  1  0.150090  0.142260  0.013690  1.0  0.9423
  Cu  Cu3  1  0.849910  0.357740  0.013690  1.0  0.942
  Cu  Cu4  1  0.349910  0.857740  0.513690  1.0  0.942
  Cu  Cu5  1  0.349910  0.142260  0.986310  1.0  0.9428
  Cu  Cu6  1  0.849910  0.642260  0.486310  1.0  0.9428
  Cu  Cu7  1  0.150090  0.857740  0.486310  1.0  0.9443
  Cu  Cu8  1  0.650090  0.357740  0.986310  1.0  0.9443
  Cu  Cu9  1  0.000000  0.250000  0.260020  1.0  0.3454
  Cu  Cu10  1  0.500000  0.750000  0.760020  1.0  0.3453
  Cu  Cu11  1  0.000000  0.750000  0.239980  1.0  0.3481
  Cu  Cu12  1  0.500000  0.250000  0.739980  1.0  0.3481
  Cu  Cu13  1  0.005310  0.500000  0.250000  1.0  0.4225
  Cu  Cu14  1  0.494690  0.500000  0.750000  1.0  0.4214
  Cu  Cu15  1  0.994690  0.000000  0.250000  1.0  0.4214
  Cu  Cu16  1  0.505310  0.000000  0.750000  1.0  0.4225
  H  H17  1  0.877500  0.194000  0.328400  1.0  0.11
  H  H18  1  0.751000  0.207300  0.320500  1.0  0.116
  H  H19  1  0.802300  0.235800  0.361300  1.0  0.12
  H  H20  1  0.627100  0.539000  0.295800  1.0  0.0976
  H  H21  1  0.619600  0.698100  0.291400  1.0  0.0969
  H  H22  1  0.836100  0.063500  0.300900  1.0  0.0954
  H  H23  1  0.817200  0.026500  0.343900  1.0  0.1121
  H  H24  1  0.717700  0.034100  0.314300  1.0  0.1091
  H  H25  1  0.580900  0.328500  0.334600  1.0  0.1156
  H  H26  1  0.461300  0.346700  0.387500  1.0  0.0919
  H  H27  1  0.507300  0.439100  0.438800  1.0  0.0986
  H  H28  1  0.800000  0.480100  0.389300  1.0  0.1011
  H  H29  1  0.568200  0.914500  0.323600  1.0  0.1087
  H  H30  1  0.459100  0.906900  0.378700  1.0  0.0734
  H  H31  1  0.516600  0.835200  0.434700  1.0  0.1075
  H  H32  1  0.805500  0.788400  0.381900  1.0  0.1135
  H  H33  1  0.377500  0.694000  0.828400  1.0  0.11
  H  H34  1  0.251000  0.707300  0.820500  1.0  0.116
  H  H35  1  0.302300  0.735800  0.861300  1.0  0.12
  H  H36  1  0.127100  0.039000  0.795800  1.0  0.0976
  H  H37  1  0.119600  0.198100  0.791400  1.0  0.0977
  H  H38  1  0.336100  0.563500  0.800900  1.0  0.0954
  H  H39  1  0.317200  0.526500  0.843900  1.0  0.1121
  H  H40  1  0.217700  0.534100  0.814300  1.0  0.1091
  H  H41  1  0.080900  0.828500  0.834600  1.0  0.1156
  H  H42  1  0.961300  0.846700  0.887500  1.0  0.0919
  H  H43  1  0.007300  0.939100  0.938800  1.0  0.0986
  H  H44  1  0.300000  0.980100  0.889300  1.0  0.1011
  H  H45  1  0.068200  0.414500  0.823600  1.0  0.1087
  H  H46  1  0.959100  0.406900  0.878700  1.0  0.0733
  H  H47  1  0.016600  0.335200  0.934700  1.0  0.1075
  H  H48  1  0.305500  0.288400  0.881900  1.0  0.1128
  H  H49  1  0.622500  0.806000  0.828400  1.0  0.1084
  H  H50  1  0.749000  0.792700  0.820500  1.0  0.1169
  H  H51  1  0.697700  0.764200  0.861300  1.0  0.1203
  H  H52  1  0.872900  0.461000  0.795800  1.0  0.0974
  H  H53  1  0.880400  0.301900  0.791400  1.0  0.098
  H  H54  1  0.663900  0.936500  0.800900  1.0  0.0962
  H  H55  1  0.682800  0.973500  0.843900  1.0  0.1123
  H  H56  1  0.782300  0.965900  0.814300  1.0  0.1073
  H  H57  1  0.919100  0.671500  0.834600  1.0  0.1161
  H  H58  1  0.038700  0.653300  0.887500  1.0  0.0919
  H  H59  1  0.992700  0.560900  0.938800  1.0  0.0979
  H  H60  1  0.700000  0.519900  0.889300  1.0  0.1028
  H  H61  1  0.931800  0.085500  0.823600  1.0  0.1087
  H  H62  1  0.040900  0.093100  0.878700  1.0  0.0727
  H  H63  1  0.983400  0.164800  0.934700  1.0  0.1077
  H  H64  1  0.694500  0.211600  0.881900  1.0  0.1132
  H  H65  1  0.122500  0.306000  0.328400  1.0  0.1084
  H  H66  1  0.249000  0.292700  0.320500  1.0  0.1169
  H  H67  1  0.197700  0.264200  0.361300  1.0  0.1203
  H  H68  1  0.372900  0.961000  0.295800  1.0  0.0975
  H  H69  1  0.380400  0.801900  0.291400  1.0  0.098
  H  H70  1  0.163900  0.436500  0.300900  1.0  0.0962
  H  H71  1  0.182800  0.473500  0.343900  1.0  0.1123
  H  H72  1  0.282300  0.465900  0.314300  1.0  0.1073
  H  H73  1  0.419100  0.171500  0.334600  1.0  0.1161
  H  H74  1  0.538700  0.153300  0.387500  1.0  0.0919
  H  H75  1  0.492700  0.060900  0.438800  1.0  0.0979
  H  H76  1  0.200000  0.019900  0.389300  1.0  0.1028
  H  H77  1  0.431800  0.585500  0.323600  1.0  0.1087
  H  H78  1  0.540900  0.593100  0.378700  1.0  0.075
  H  H79  1  0.483400  0.664800  0.434700  1.0  0.1077
  H  H80  1  0.194500  0.711600  0.381900  1.0  0.1132
  H  H81  1  0.122500  0.694000  0.171600  1.0  0.1084
  H  H82  1  0.249000  0.707300  0.179500  1.0  0.1169
  H  H83  1  0.197700  0.735800  0.138700  1.0  0.1201
  H  H84  1  0.372900  0.039000  0.204200  1.0  0.0977
  H  H85  1  0.380400  0.198100  0.208600  1.0  0.0979
  H  H86  1  0.163900  0.563500  0.199100  1.0  0.0959
  H  H87  1  0.182800  0.526500  0.156100  1.0  0.1131
  H  H88  1  0.282300  0.534100  0.185700  1.0  0.1071
  H  H89  1  0.419100  0.828500  0.165400  1.0  0.1167
  H  H90  1  0.538700  0.846700  0.112500  1.0  0.0922
  H  H91  1  0.492700  0.939100  0.061200  1.0  0.0972
  H  H92  1  0.200000  0.980100  0.110700  1.0  0.1018
  H  H93  1  0.431800  0.414500  0.176400  1.0  0.1079
  H  H94  1  0.540900  0.406900  0.121300  1.0  0.0726
  H  H95  1  0.483400  0.335200  0.065300  1.0  0.1069
  H  H96  1  0.194500  0.288400  0.118100  1.0  0.1127
  H  H97  1  0.622500  0.194000  0.671600  1.0  0.1084
  H  H98  1  0.749000  0.207300  0.679500  1.0  0.1169
  H  H99  1  0.697700  0.235800  0.638700  1.0  0.1201
  H  H100  1  0.872900  0.539000  0.704200  1.0  0.0977
  H  H101  1  0.880400  0.698100  0.708600  1.0  0.0972
  H  H102  1  0.663900  0.063500  0.699100  1.0  0.0959
  H  H103  1  0.682800  0.026500  0.656100  1.0  0.1131
  H  H104  1  0.782300  0.034100  0.685700  1.0  0.1071
  H  H105  1  0.919100  0.328500  0.665400  1.0  0.1167
  H  H106  1  0.038700  0.346700  0.612500  1.0  0.0922
  H  H107  1  0.992700  0.439100  0.561200  1.0  0.0972
  H  H108  1  0.700000  0.480100  0.610700  1.0  0.1018
  H  H109  1  0.931800  0.914500  0.676400  1.0  0.1079
  H  H110  1  0.040900  0.906900  0.621300  1.0  0.0726
  H  H111  1  0.983400  0.835200  0.565300  1.0  0.1069
  H  H112  1  0.694500  0.788400  0.618100  1.0  0.1133
  H  H113  1  0.377500  0.306000  0.671600  1.0  0.1102
  H  H114  1  0.251000  0.292700  0.679500  1.0  0.1158
  H  H115  1  0.302300  0.264200  0.638700  1.0  0.1204
  H  H116  1  0.127100  0.961000  0.704200  1.0  0.0979
  H  H117  1  0.119600  0.801900  0.708600  1.0  0.0969
  H  H118  1  0.336100  0.436500  0.699100  1.0  0.0961
  H  H119  1  0.317200  0.473500  0.656100  1.0  0.1136
  H  H120  1  0.217700  0.465900  0.685700  1.0  0.1081
  H  H121  1  0.080900  0.171500  0.665400  1.0  0.1164
  H  H122  1  0.961300  0.153300  0.612500  1.0  0.0915
  H  H123  1  0.007300  0.060900  0.561200  1.0  0.0974
  H  H124  1  0.300000  0.019900  0.610700  1.0  0.1018
  H  H125  1  0.068200  0.585500  0.676400  1.0  0.1083
  H  H126  1  0.959100  0.593100  0.621300  1.0  0.0761
  H  H127  1  0.016600  0.664800  0.565300  1.0  0.1067
  H  H128  1  0.305500  0.711600  0.618100  1.0  0.1122
  H  H129  1  0.877500  0.806000  0.171600  1.0  0.1102
  H  H130  1  0.751000  0.792700  0.179500  1.0  0.1158
  H  H131  1  0.802300  0.764200  0.138700  1.0  0.1204
  H  H132  1  0.627100  0.461000  0.204200  1.0  0.0979
  H  H133  1  0.619600  0.301900  0.208600  1.0  0.0969
  H  H134  1  0.836100  0.936500  0.199100  1.0  0.0961
  H  H135  1  0.817200  0.973500  0.156100  1.0  0.1136
  H  H136  1  0.717700  0.965900  0.185700  1.0  0.1081
  H  H137  1  0.580900  0.671500  0.165400  1.0  0.1164
  H  H138  1  0.461300  0.653300  0.112500  1.0  0.0915
  H  H139  1  0.507300  0.560900  0.061200  1.0  0.0974
  H  H140  1  0.800000  0.519900  0.110700  1.0  0.1018
  H  H141  1  0.568200  0.085500  0.176400  1.0  0.1083
  H  H142  1  0.459100  0.093100  0.121300  1.0  0.0734
  H  H143  1  0.516600  0.164800  0.065300  1.0  0.1067
  H  H144  1  0.805500  0.211600  0.118100  1.0  0.1122
  C  C145  1  0.815200  0.231500  0.333200  1.0  -0.4041
  C  C146  1  0.837300  0.318600  0.317200  1.0  0.3893
  C  C147  1  0.825600  0.457100  0.306800  1.0  0.3003
  C  C148  1  0.789400  0.546300  0.306200  1.0  -0.0841
  C  C149  1  0.688400  0.575500  0.298800  1.0  -0.1014
  C  C150  1  0.684200  0.666667  0.296000  1.0  -0.0853
  C  C151  1  0.782500  0.703900  0.300500  1.0  -0.0916
  C  C152  1  0.814200  0.794200  0.295500  1.0  0.315
  C  C153  1  0.817200  0.933800  0.302300  1.0  0.4124
  C  C154  1  0.795200  0.021900  0.316500  1.0  -0.414
  C  C155  1  0.702200  0.401900  0.358200  1.0  0.1267
  C  C156  1  0.600900  0.362700  0.356400  1.0  -0.161
  C  C157  1  0.529500  0.375000  0.387500  1.0  -0.105
  C  C158  1  0.557900  0.428700  0.418500  1.0  -0.068
  C  C159  1  0.661200  0.467900  0.419900  1.0  -0.112
  C  C160  1  0.730700  0.453600  0.389100  1.0  -0.0988
  C  C161  1  0.692100  0.527500  0.450900  1.0  0.682
  C  C162  1  0.697500  0.853700  0.348800  1.0  0.1312
  C  C163  1  0.593800  0.887800  0.346800  1.0  -0.1968
  C  C164  1  0.529200  0.881800  0.379200  1.0  -0.122
  C  C165  1  0.563400  0.840200  0.412900  1.0  -0.1386
  C  C166  1  0.667600  0.805700  0.414100  1.0  -0.1559
  C  C167  1  0.734700  0.812300  0.381500  1.0  -0.0979
  C  C168  1  0.702200  0.753500  0.448200  1.0  0.6773
  C  C169  1  0.315200  0.731500  0.833200  1.0  -0.4041
  C  C170  1  0.337300  0.818600  0.817200  1.0  0.3893
  C  C171  1  0.325600  0.957100  0.806800  1.0  0.3003
  C  C172  1  0.289400  0.046300  0.806200  1.0  -0.0871
  C  C173  1  0.188400  0.075500  0.798800  1.0  -0.1009
  C  C174  1  0.184200  0.166600  0.796000  1.0  -0.0852
  C  C175  1  0.282500  0.203900  0.800500  1.0  -0.1029
  C  C176  1  0.314200  0.294200  0.795500  1.0  0.315
  C  C177  1  0.317200  0.433800  0.802300  1.0  0.4124
  C  C178  1  0.295200  0.521900  0.816500  1.0  -0.414
  C  C179  1  0.202200  0.901900  0.858200  1.0  0.1267
  C  C180  1  0.100900  0.862700  0.856400  1.0  -0.1609
  C  C181  1  0.029500  0.875000  0.887500  1.0  -0.105
  C  C182  1  0.057900  0.928700  0.918500  1.0  -0.068
  C  C183  1  0.161200  0.967900  0.919900  1.0  -0.112
  C  C184  1  0.230700  0.953600  0.889100  1.0  -0.0988
  C  C185  1  0.192100  0.027500  0.950900  1.0  0.682
  C  C186  1  0.197500  0.353700  0.848800  1.0  0.1312
  C  C187  1  0.093800  0.387800  0.846800  1.0  -0.1971
  C  C188  1  0.029200  0.381800  0.879200  1.0  -0.122
  C  C189  1  0.063400  0.340200  0.912900  1.0  -0.1386
  C  C190  1  0.167600  0.305700  0.914100  1.0  -0.1559
  C  C191  1  0.234700  0.312300  0.881500  1.0  -0.0979
  C  C192  1  0.202200  0.253500  0.948200  1.0  0.6773
  C  C193  1  0.684800  0.768500  0.833200  1.0  -0.4029
  C  C194  1  0.662700  0.681400  0.817200  1.0  0.3897
  C  C195  1  0.674400  0.542900  0.806800  1.0  0.3008
  C  C196  1  0.710600  0.453700  0.806200  1.0  -0.0841
  C  C197  1  0.811600  0.424500  0.798800  1.0  -0.1015
  C  C198  1  0.815800  0.333400  0.796000  1.0  -0.0849
  C  C199  1  0.717500  0.296100  0.800500  1.0  -0.1023
  C  C200  1  0.685800  0.205800  0.795500  1.0  0.3144
  C  C201  1  0.682800  0.066200  0.802300  1.0  0.4122
  C  C202  1  0.704800  0.978100  0.816500  1.0  -0.4133
  C  C203  1  0.797800  0.598100  0.858200  1.0  0.1263
  C  C204  1  0.899100  0.637300  0.856400  1.0  -0.16
  C  C205  1  0.970500  0.625000  0.887500  1.0  -0.1039
  C  C206  1  0.942100  0.571300  0.918500  1.0  -0.0664
  C  C207  1  0.838800  0.532100  0.919900  1.0  -0.111
  C  C208  1  0.769300  0.546400  0.889100  1.0  -0.1005
  C  C209  1  0.807900  0.472500  0.950900  1.0  0.6827
  C  C210  1  0.802500  0.146300  0.848800  1.0  0.1309
  C  C211  1  0.906200  0.112200  0.846800  1.0  -0.1961
  C  C212  1  0.970800  0.118200  0.879200  1.0  -0.123
  C  C213  1  0.936600  0.159800  0.912900  1.0  -0.1395
  C  C214  1  0.832400  0.194300  0.914100  1.0  -0.1563
  C  C215  1  0.765300  0.187700  0.881500  1.0  -0.1011
  C  C216  1  0.797800  0.246500  0.948200  1.0  0.6775
  C  C217  1  0.184800  0.268500  0.333200  1.0  -0.4029
  C  C218  1  0.162700  0.181400  0.317200  1.0  0.3897
  C  C219  1  0.174400  0.042900  0.306800  1.0  0.3008
  C  C220  1  0.210600  0.953700  0.306200  1.0  -0.0841
  C  C221  1  0.311600  0.924500  0.298800  1.0  -0.1015
  C  C222  1  0.315800  0.833400  0.296000  1.0  -0.0849
  C  C223  1  0.217500  0.796100  0.300500  1.0  -0.1023
  C  C224  1  0.185800  0.705800  0.295500  1.0  0.3144
  C  C225  1  0.182800  0.566200  0.302300  1.0  0.4122
  C  C226  1  0.204800  0.478100  0.316500  1.0  -0.4133
  C  C227  1  0.297800  0.098100  0.358200  1.0  0.1263
  C  C228  1  0.399100  0.137300  0.356400  1.0  -0.16
  C  C229  1  0.470500  0.125000  0.387500  1.0  -0.1039
  C  C230  1  0.442100  0.071300  0.418500  1.0  -0.0664
  C  C231  1  0.338800  0.032100  0.419900  1.0  -0.111
  C  C232  1  0.269300  0.046400  0.389100  1.0  -0.1005
  C  C233  1  0.307900  0.972500  0.450900  1.0  0.6827
  C  C234  1  0.302500  0.646300  0.348800  1.0  0.1309
  C  C235  1  0.406200  0.612200  0.346800  1.0  -0.1964
  C  C236  1  0.470800  0.618200  0.379200  1.0  -0.123
  C  C237  1  0.436600  0.659800  0.412900  1.0  -0.1395
  C  C238  1  0.332400  0.694300  0.414100  1.0  -0.1563
  C  C239  1  0.265300  0.687700  0.381500  1.0  -0.1011
  C  C240  1  0.297800  0.746500  0.448200  1.0  0.6775
  C  C241  1  0.184800  0.731500  0.166800  1.0  -0.4035
  C  C242  1  0.162700  0.818600  0.182800  1.0  0.3894
  C  C243  1  0.174400  0.957100  0.193200  1.0  0.2996
  C  C244  1  0.210600  0.046300  0.193800  1.0  -0.0843
  C  C245  1  0.311600  0.075500  0.201200  1.0  -0.1017
  C  C246  1  0.315800  0.166600  0.204000  1.0  -0.0846
  C  C247  1  0.217500  0.203900  0.199500  1.0  -0.1021
  C  C248  1  0.185800  0.294200  0.204500  1.0  0.3145
  C  C249  1  0.182800  0.433800  0.197700  1.0  0.4134
  C  C250  1  0.204800  0.521900  0.183500  1.0  -0.4132
  C  C251  1  0.297800  0.901900  0.141800  1.0  0.1258
  C  C252  1  0.399100  0.862700  0.143600  1.0  -0.159
  C  C253  1  0.470500  0.875000  0.112500  1.0  -0.1045
  C  C254  1  0.442100  0.928700  0.081500  1.0  -0.0675
  C  C255  1  0.338800  0.967900  0.080100  1.0  -0.1119
  C  C256  1  0.269300  0.953600  0.110900  1.0  -0.0997
  C  C257  1  0.307900  0.027500  0.049100  1.0  0.6831
  C  C258  1  0.302500  0.353700  0.151200  1.0  0.1307
  C  C259  1  0.406200  0.387800  0.153200  1.0  -0.1958
  C  C260  1  0.470800  0.381800  0.120800  1.0  -0.1231
  C  C261  1  0.436600  0.340200  0.087100  1.0  -0.1376
  C  C262  1  0.332400  0.305700  0.085900  1.0  -0.1561
  C  C263  1  0.265300  0.312300  0.118500  1.0  -0.1008
  C  C264  1  0.297800  0.253500  0.051800  1.0  0.6799
  C  C265  1  0.684800  0.231500  0.666800  1.0  -0.4035
  C  C266  1  0.662700  0.318600  0.682800  1.0  0.3894
  C  C267  1  0.674400  0.457100  0.693200  1.0  0.2997
  C  C268  1  0.710600  0.546300  0.693800  1.0  -0.0818
  C  C269  1  0.811600  0.575500  0.701200  1.0  -0.1022
  C  C270  1  0.815800  0.666667  0.704000  1.0  -0.0841
  C  C271  1  0.717500  0.703900  0.699500  1.0  -0.0899
  C  C272  1  0.685800  0.794200  0.704500  1.0  0.3145
  C  C273  1  0.682800  0.933800  0.697700  1.0  0.4134
  C  C274  1  0.704800  0.021900  0.683500  1.0  -0.4132
  C  C275  1  0.797800  0.401900  0.641800  1.0  0.1258
  C  C276  1  0.899100  0.362700  0.643600  1.0  -0.159
  C  C277  1  0.970500  0.375000  0.612500  1.0  -0.1045
  C  C278  1  0.942100  0.428700  0.581500  1.0  -0.0675
  C  C279  1  0.838800  0.467900  0.580100  1.0  -0.1119
  C  C280  1  0.769300  0.453600  0.610900  1.0  -0.0997
  C  C281  1  0.807900  0.527500  0.549100  1.0  0.6831
  C  C282  1  0.802500  0.853700  0.651200  1.0  0.1307
  C  C283  1  0.906200  0.887800  0.653200  1.0  -0.1955
  C  C284  1  0.970800  0.881800  0.620800  1.0  -0.1231
  C  C285  1  0.936600  0.840200  0.587100  1.0  -0.1376
  C  C286  1  0.832400  0.805700  0.585900  1.0  -0.1561
  C  C287  1  0.765300  0.812300  0.618500  1.0  -0.1008
  C  C288  1  0.797800  0.753500  0.551800  1.0  0.6799
  C  C289  1  0.315200  0.268500  0.666800  1.0  -0.4015
  C  C290  1  0.337300  0.181400  0.682800  1.0  0.3893
  C  C291  1  0.325600  0.042900  0.693200  1.0  0.3004
  C  C292  1  0.289400  0.953700  0.693800  1.0  -0.087
  C  C293  1  0.188400  0.924500  0.701200  1.0  -0.1011
  C  C294  1  0.184200  0.833400  0.704000  1.0  -0.0832
  C  C295  1  0.282500  0.796100  0.699500  1.0  -0.1031
  C  C296  1  0.314200  0.705800  0.704500  1.0  0.3141
  C  C297  1  0.317200  0.566200  0.697700  1.0  0.4133
  C  C298  1  0.295200  0.478100  0.683500  1.0  -0.4145
  C  C299  1  0.202200  0.098100  0.641800  1.0  0.1256
  C  C300  1  0.100900  0.137300  0.643600  1.0  -0.1597
  C  C301  1  0.029500  0.125000  0.612500  1.0  -0.1057
  C  C302  1  0.057900  0.071300  0.581500  1.0  -0.0666
  C  C303  1  0.161200  0.032100  0.580100  1.0  -0.11
  C  C304  1  0.230700  0.046400  0.610900  1.0  -0.0988
  C  C305  1  0.192100  0.972500  0.549100  1.0  0.6834
  C  C306  1  0.197500  0.646300  0.651200  1.0  0.1317
  C  C307  1  0.093800  0.612200  0.653200  1.0  -0.1961
  C  C308  1  0.029200  0.618200  0.620800  1.0  -0.1211
  C  C309  1  0.063400  0.659800  0.587100  1.0  -0.1379
  C  C310  1  0.167600  0.694300  0.585900  1.0  -0.1538
  C  C311  1  0.234700  0.687700  0.618500  1.0  -0.0973
  C  C312  1  0.202200  0.746500  0.551800  1.0  0.6772
  C  C313  1  0.815200  0.768500  0.166800  1.0  -0.4015
  C  C314  1  0.837300  0.681400  0.182800  1.0  0.3893
  C  C315  1  0.825600  0.542900  0.193200  1.0  0.3004
  C  C316  1  0.789400  0.453700  0.193800  1.0  -0.087
  C  C317  1  0.688400  0.424500  0.201200  1.0  -0.1011
  C  C318  1  0.684200  0.333400  0.204000  1.0  -0.0832
  C  C319  1  0.782500  0.296100  0.199500  1.0  -0.1031
  C  C320  1  0.814200  0.205800  0.204500  1.0  0.3141
  C  C321  1  0.817200  0.066200  0.197700  1.0  0.4133
  C  C322  1  0.795200  0.978100  0.183500  1.0  -0.4145
  C  C323  1  0.702200  0.598100  0.141800  1.0  0.1256
  C  C324  1  0.600900  0.637300  0.143600  1.0  -0.1597
  C  C325  1  0.529500  0.625000  0.112500  1.0  -0.1057
  C  C326  1  0.557900  0.571300  0.081500  1.0  -0.0666
  C  C327  1  0.661200  0.532100  0.080100  1.0  -0.11
  C  C328  1  0.730700  0.546400  0.110900  1.0  -0.0988
  C  C329  1  0.692100  0.472500  0.049100  1.0  0.6834
  C  C330  1  0.697500  0.146300  0.151200  1.0  0.1317
  C  C331  1  0.593800  0.112200  0.153200  1.0  -0.1957
  C  C332  1  0.529200  0.118200  0.120800  1.0  -0.1211
  C  C333  1  0.563400  0.159800  0.087100  1.0  -0.1379
  C  C334  1  0.667600  0.194300  0.085900  1.0  -0.1538
  C  C335  1  0.734700  0.187700  0.118500  1.0  -0.0973
  C  C336  1  0.702200  0.246500  0.051800  1.0  0.6772
  S  S337  1  0.880480  0.628680  0.309320  1.0  0.1123
  S  S338  1  0.380480  0.128680  0.809320  1.0  0.1123
  S  S339  1  0.619520  0.371320  0.809320  1.0  0.1106
  S  S340  1  0.119520  0.871320  0.309320  1.0  0.1106
  S  S341  1  0.119520  0.128680  0.190680  1.0  0.1121
  S  S342  1  0.619520  0.628680  0.690680  1.0  0.1121
  S  S343  1  0.380480  0.871320  0.690680  1.0  0.1116
  S  S344  1  0.880480  0.371320  0.190680  1.0  0.1116
  N  N345  1  0.779500  0.391100  0.327000  1.0  -0.0941
  N  N346  1  0.913300  0.338100  0.292200  1.0  -0.2735
  N  N347  1  0.908300  0.427000  0.286000  1.0  -0.3215
  N  N348  1  0.768500  0.861700  0.315570  1.0  -0.0586
  N  N349  1  0.890000  0.823000  0.271790  1.0  -0.3011
  N  N350  1  0.891200  0.912500  0.275700  1.0  -0.2425
  N  N351  1  0.279500  0.891100  0.827000  1.0  -0.0941
  N  N352  1  0.413300  0.838100  0.792200  1.0  -0.2735
  N  N353  1  0.408300  0.927000  0.786000  1.0  -0.3215
  N  N354  1  0.268500  0.361700  0.815570  1.0  -0.0586
  N  N355  1  0.390000  0.323000  0.771790  1.0  -0.3011
  N  N356  1  0.391200  0.412500  0.775700  1.0  -0.2425
  N  N357  1  0.720500  0.608900  0.827000  1.0  -0.094
  N  N358  1  0.586700  0.661900  0.792200  1.0  -0.2735
  N  N359  1  0.591700  0.573000  0.786000  1.0  -0.3203
  N  N360  1  0.731500  0.138300  0.815570  1.0  -0.0591
  N  N361  1  0.610000  0.177000  0.771790  1.0  -0.3
  N  N362  1  0.608800  0.087500  0.775700  1.0  -0.2422
  N  N363  1  0.220500  0.108900  0.327000  1.0  -0.094
  N  N364  1  0.086700  0.161900  0.292200  1.0  -0.2735
  N  N365  1  0.091700  0.073000  0.286000  1.0  -0.3203
  N  N366  1  0.231500  0.638300  0.315570  1.0  -0.0591
  N  N367  1  0.110000  0.677000  0.271790  1.0  -0.3
  N  N368  1  0.108800  0.587500  0.275700  1.0  -0.2422
  N  N369  1  0.220500  0.891100  0.173000  1.0  -0.0944
  N  N370  1  0.086700  0.838100  0.207800  1.0  -0.2734
  N  N371  1  0.091700  0.927000  0.214000  1.0  -0.3205
  N  N372  1  0.231500  0.361700  0.184430  1.0  -0.0591
  N  N373  1  0.110000  0.323000  0.228210  1.0  -0.3004
  N  N374  1  0.108800  0.412500  0.224300  1.0  -0.2419
  N  N375  1  0.720500  0.391100  0.673000  1.0  -0.0944
  N  N376  1  0.586700  0.338100  0.707800  1.0  -0.2734
  N  N377  1  0.591700  0.427000  0.714000  1.0  -0.3205
  N  N378  1  0.731500  0.861700  0.684430  1.0  -0.0591
  N  N379  1  0.610000  0.823000  0.728210  1.0  -0.3004
  N  N380  1  0.608800  0.912500  0.724300  1.0  -0.2419
  N  N381  1  0.279500  0.108900  0.673000  1.0  -0.095
  N  N382  1  0.413300  0.161900  0.707800  1.0  -0.2733
  N  N383  1  0.408300  0.073000  0.714000  1.0  -0.3205
  N  N384  1  0.268500  0.638300  0.684430  1.0  -0.0589
  N  N385  1  0.390000  0.677000  0.728210  1.0  -0.3012
  N  N386  1  0.391200  0.587500  0.724300  1.0  -0.2419
  N  N387  1  0.779500  0.608900  0.173000  1.0  -0.095
  N  N388  1  0.913300  0.661900  0.207800  1.0  -0.2733
  N  N389  1  0.908300  0.573000  0.214000  1.0  -0.3205
  N  N390  1  0.768500  0.138300  0.184430  1.0  -0.0589
  N  N391  1  0.890000  0.177000  0.228210  1.0  -0.3012
  N  N392  1  0.891200  0.087500  0.224300  1.0  -0.2419
  O  O393  1  0.618800  0.555100  0.474210  1.0  -0.6066
  O  O394  1  0.790200  0.552900  0.452100  1.0  -0.605
  O  O395  1  0.633300  0.732700  0.473630  1.0  -0.5965
  O  O396  1  0.801200  0.730100  0.448890  1.0  -0.6015
  O  O397  1  0.118800  0.055100  0.974210  1.0  -0.6066
  O  O398  1  0.290200  0.052900  0.952100  1.0  -0.605
  O  O399  1  0.133300  0.232700  0.973630  1.0  -0.5965
  O  O400  1  0.301200  0.230100  0.948890  1.0  -0.6015
  O  O401  1  0.881200  0.444900  0.974210  1.0  -0.6041
  O  O402  1  0.709800  0.447100  0.952100  1.0  -0.6061
  O  O403  1  0.866700  0.267300  0.973630  1.0  -0.5956
  O  O404  1  0.698800  0.269900  0.948890  1.0  -0.6026
  O  O405  1  0.381200  0.944900  0.474210  1.0  -0.6041
  O  O406  1  0.209800  0.947100  0.452100  1.0  -0.6061
  O  O407  1  0.366700  0.767300  0.473630  1.0  -0.5956
  O  O408  1  0.198800  0.769900  0.448890  1.0  -0.6026
  O  O409  1  0.381200  0.055100  0.025790  1.0  -0.6062
  O  O410  1  0.209800  0.052900  0.047900  1.0  -0.6057
  O  O411  1  0.366700  0.232700  0.026370  1.0  -0.597
  O  O412  1  0.198800  0.230100  0.051110  1.0  -0.6026
  O  O413  1  0.881200  0.555100  0.525790  1.0  -0.6062
  O  O414  1  0.709800  0.552900  0.547900  1.0  -0.6057
  O  O415  1  0.866700  0.732700  0.526370  1.0  -0.597
  O  O416  1  0.698800  0.730100  0.551110  1.0  -0.6026
  O  O417  1  0.118800  0.944900  0.525790  1.0  -0.6057
  O  O418  1  0.290200  0.947100  0.547900  1.0  -0.605
  O  O419  1  0.133300  0.767300  0.526370  1.0  -0.5972
  O  O420  1  0.301200  0.769900  0.551110  1.0  -0.6014
  O  O421  1  0.618800  0.444900  0.025790  1.0  -0.6057
  O  O422  1  0.790200  0.447100  0.047900  1.0  -0.605
  O  O423  1  0.633300  0.267300  0.026370  1.0  -0.5972
  O  O424  1  0.801200  0.269900  0.051110  1.0  -0.6014
