# generated using pymatgen
data_Cu2Mo2H8C11(NO3)2
_symmetry_space_group_name_H-M   'P 1'
_cell_length_a   5.88210000
_cell_length_b   10.73670000
_cell_length_c   27.79200000
_cell_angle_alpha   97.81100000
_cell_angle_beta   90.00000000
_cell_angle_gamma   90.00000000
_symmetry_Int_Tables_number   1
_chemical_formula_structural   Cu2Mo2H8C11(NO3)2
_chemical_formula_sum   'Cu8 Mo8 H32 C44 N8 O24'
_cell_volume   1738.90048201
_cell_formula_units_Z   4
loop_
 _symmetry_equiv_pos_site_id
 _symmetry_equiv_pos_as_xyz
  1  'x, y, z'
loop_
 _atom_site_type_symbol
 _atom_site_label
 _atom_site_symmetry_multiplicity
 _atom_site_fract_x
 _atom_site_fract_y
 _atom_site_fract_z
 _atom_site_occupancy
 _atom_site_charge
  Cu  Cu1  1  0.624190  0.708160  0.293910  1.0  0.9454
  Cu  Cu2  1  0.395010  0.802960  0.210200  1.0  0.7512
  Cu  Cu3  1  0.624190  0.291840  0.206090  1.0  0.9452
  Cu  Cu4  1  0.395010  0.197040  0.289800  1.0  0.7515
  Cu  Cu5  1  0.375810  0.291840  0.706090  1.0  0.945
  Cu  Cu6  1  0.604990  0.197040  0.789800  1.0  0.7492
  Cu  Cu7  1  0.375810  0.708160  0.793910  1.0  0.9451
  Cu  Cu8  1  0.604990  0.802960  0.710200  1.0  0.7492
  Mo  Mo9  1  0.863170  0.579130  0.197130  1.0  0.8533
  Mo  Mo10  1  0.154730  0.076350  0.183690  1.0  1.3705
  Mo  Mo11  1  0.863170  0.420870  0.302870  1.0  0.8536
  Mo  Mo12  1  0.154730  0.923650  0.316310  1.0  1.3698
  Mo  Mo13  1  0.136830  0.420870  0.802870  1.0  0.8536
  Mo  Mo14  1  0.845270  0.923650  0.816310  1.0  1.3702
  Mo  Mo15  1  0.136830  0.579130  0.697130  1.0  0.8534
  Mo  Mo16  1  0.845270  0.076350  0.683690  1.0  1.3709
  H  H17  1  0.244000  0.893800  0.653600  1.0  0.082
  H  H18  1  0.088800  0.854700  0.576200  1.0  0.1155
  H  H19  1  0.637800  0.637400  0.534600  1.0  0.1152
  H  H20  1  0.775900  0.680400  0.613700  1.0  0.0532
  H  H21  1  0.784100  0.788200  0.396600  1.0  0.0746
  H  H22  1  0.639400  0.785100  0.474600  1.0  0.1218
  H  H23  1  0.098100  0.587500  0.414400  1.0  0.1108
  H  H24  1  0.256500  0.596100  0.338500  1.0  0.0645
  H  H25  1  0.244000  0.106200  0.846400  1.0  0.0818
  H  H26  1  0.088800  0.145300  0.923800  1.0  0.1155
  H  H27  1  0.637800  0.362600  0.965400  1.0  0.1143
  H  H28  1  0.775900  0.319600  0.886300  1.0  0.0506
  H  H29  1  0.784100  0.211800  0.103400  1.0  0.0752
  H  H30  1  0.639400  0.214900  0.025400  1.0  0.122
  H  H31  1  0.098100  0.412500  0.085600  1.0  0.1109
  H  H32  1  0.256500  0.403900  0.161500  1.0  0.0648
  H  H33  1  0.756000  0.106200  0.346400  1.0  0.082
  H  H34  1  0.911200  0.145300  0.423800  1.0  0.115
  H  H35  1  0.362200  0.362600  0.465400  1.0  0.1143
  H  H36  1  0.224100  0.319600  0.386300  1.0  0.0543
  H  H37  1  0.215900  0.211800  0.603400  1.0  0.0752
  H  H38  1  0.360600  0.214900  0.525400  1.0  0.1218
  H  H39  1  0.901900  0.412500  0.585600  1.0  0.1107
  H  H40  1  0.743500  0.403900  0.661500  1.0  0.0653
  H  H41  1  0.756000  0.893800  0.153600  1.0  0.082
  H  H42  1  0.911200  0.854700  0.076200  1.0  0.1152
  H  H43  1  0.362200  0.637400  0.034600  1.0  0.1151
  H  H44  1  0.224100  0.680400  0.113700  1.0  0.0569
  H  H45  1  0.215900  0.788200  0.896600  1.0  0.0746
  H  H46  1  0.360600  0.785100  0.974600  1.0  0.1217
  H  H47  1  0.901900  0.587500  0.914400  1.0  0.1108
  H  H48  1  0.743500  0.596100  0.838500  1.0  0.0648
  C  C49  1  0.322100  0.839700  0.629200  1.0  0.1391
  C  C50  1  0.228700  0.816900  0.583330  1.0  -0.1713
  C  C51  1  0.343800  0.737400  0.547570  1.0  -1e-04
  C  C52  1  0.552400  0.688400  0.558800  1.0  -0.1799
  C  C53  1  0.634200  0.715000  0.605830  1.0  0.1655
  C  C54  1  0.642400  0.748300  0.400490  1.0  0.164
  C  C55  1  0.557000  0.747200  0.447030  1.0  -0.1795
  C  C56  1  0.348700  0.689700  0.452500  1.0  -0.033
  C  C57  1  0.237400  0.630600  0.411500  1.0  -0.1429
  C  C58  1  0.333100  0.635700  0.366580  1.0  0.1432
  C  C59  1  0.224700  0.698200  0.500120  1.0  0.3246
  C  C60  1  0.322100  0.160300  0.870800  1.0  0.1386
  C  C61  1  0.228700  0.183100  0.916670  1.0  -0.17
  C  C62  1  0.343800  0.262600  0.952430  1.0  0.0002
  C  C63  1  0.552400  0.311600  0.941200  1.0  -0.1802
  C  C64  1  0.634200  0.285000  0.894170  1.0  0.1646
  C  C65  1  0.642400  0.251700  0.099510  1.0  0.1641
  C  C66  1  0.557000  0.252800  0.052970  1.0  -0.18
  C  C67  1  0.348700  0.310300  0.047500  1.0  -0.0327
  C  C68  1  0.237400  0.369400  0.088500  1.0  -0.1424
  C  C69  1  0.333100  0.364300  0.133420  1.0  0.1422
  C  C70  1  0.224700  0.301800  0.999880  1.0  0.3253
  C  C71  1  0.677900  0.160300  0.370800  1.0  0.1384
  C  C72  1  0.771300  0.183100  0.416670  1.0  -0.1701
  C  C73  1  0.656200  0.262600  0.452430  1.0  -0.0002
  C  C74  1  0.447600  0.311600  0.441200  1.0  -0.1809
  C  C75  1  0.365800  0.285000  0.394170  1.0  0.165
  C  C76  1  0.357600  0.251700  0.599510  1.0  0.1641
  C  C77  1  0.443000  0.252800  0.552970  1.0  -0.1795
  C  C78  1  0.651300  0.310300  0.547500  1.0  -0.0321
  C  C79  1  0.762600  0.369400  0.588500  1.0  -0.1424
  C  C80  1  0.666900  0.364300  0.633420  1.0  0.1424
  C  C81  1  0.775300  0.301800  0.499880  1.0  0.3224
  C  C82  1  0.677900  0.839700  0.129200  1.0  0.1391
  C  C83  1  0.771300  0.816900  0.083330  1.0  -0.1712
  C  C84  1  0.656200  0.737400  0.047570  1.0  -0.0005
  C  C85  1  0.447600  0.688400  0.058800  1.0  -0.1808
  C  C86  1  0.365800  0.715000  0.105830  1.0  0.1659
  C  C87  1  0.357600  0.748300  0.900490  1.0  0.1637
  C  C88  1  0.443000  0.747200  0.947030  1.0  -0.1792
  C  C89  1  0.651300  0.689700  0.952500  1.0  -0.0324
  C  C90  1  0.762600  0.630600  0.911500  1.0  -0.1429
  C  C91  1  0.666900  0.635700  0.866580  1.0  0.1427
  C  C92  1  0.775300  0.698200  0.000120  1.0  0.322
  N  N93  1  0.519400  0.788110  0.640580  1.0  -0.3702
  N  N94  1  0.531100  0.694800  0.361060  1.0  -0.4263
  N  N95  1  0.519400  0.211890  0.859420  1.0  -0.3699
  N  N96  1  0.531100  0.305200  0.138940  1.0  -0.4244
  N  N97  1  0.480600  0.211890  0.359420  1.0  -0.3706
  N  N98  1  0.468900  0.305200  0.638940  1.0  -0.4237
  N  N99  1  0.480600  0.788110  0.140580  1.0  -0.3699
  N  N100  1  0.468900  0.694800  0.861060  1.0  -0.4259
  O  O101  1  0.659300  0.701540  0.224030  1.0  -0.7726
  O  O102  1  0.866700  0.417600  0.210620  1.0  -0.704
  O  O103  1  0.157200  0.925110  0.202740  1.0  -0.7064
  O  O104  1  0.875000  0.868100  0.311210  1.0  -0.6611
  O  O105  1  0.352100  0.812400  0.282150  1.0  -0.8213
  O  O106  1  0.023300  0.674500  0.500520  1.0  -0.426
  O  O107  1  0.659300  0.298460  0.275970  1.0  -0.7679
  O  O108  1  0.866700  0.582400  0.289380  1.0  -0.704
  O  O109  1  0.157200  0.074890  0.297260  1.0  -0.7062
  O  O110  1  0.875000  0.131900  0.188790  1.0  -0.6607
  O  O111  1  0.352100  0.187600  0.217850  1.0  -0.8219
  O  O112  1  0.023300  0.325500  0.999480  1.0  -0.4258
  O  O113  1  0.340700  0.298460  0.775970  1.0  -0.7739
  O  O114  1  0.133300  0.582400  0.789380  1.0  -0.7041
  O  O115  1  0.842800  0.074890  0.797260  1.0  -0.7062
  O  O116  1  0.125000  0.131900  0.688790  1.0  -0.6607
  O  O117  1  0.647900  0.187600  0.717850  1.0  -0.8221
  O  O118  1  0.976700  0.325500  0.499480  1.0  -0.4272
  O  O119  1  0.340700  0.701540  0.724030  1.0  -0.7686
  O  O120  1  0.133300  0.417600  0.710620  1.0  -0.7041
  O  O121  1  0.842800  0.925110  0.702740  1.0  -0.7064
  O  O122  1  0.125000  0.868100  0.811210  1.0  -0.6611
  O  O123  1  0.647900  0.812400  0.782150  1.0  -0.8215
  O  O124  1  0.976700  0.674500  0.000520  1.0  -0.4274
