# generated using pymatgen
data_CdH15C15SN9O4
_symmetry_space_group_name_H-M   'P 1'
_cell_length_a   9.24800000
_cell_length_b   11.21600000
_cell_length_c   11.87500000
_cell_angle_alpha   79.63900000
_cell_angle_beta   74.73600000
_cell_angle_gamma   88.30100000
_symmetry_Int_Tables_number   1
_chemical_formula_structural   CdH15C15SN9O4
_chemical_formula_sum   'Cd2 H30 C30 S2 N18 O8'
_cell_volume   1168.70959189
_cell_formula_units_Z   2
loop_
 _symmetry_equiv_pos_site_id
 _symmetry_equiv_pos_as_xyz
  1  'x, y, z'
loop_
 _atom_site_type_symbol
 _atom_site_label
 _atom_site_symmetry_multiplicity
 _atom_site_fract_x
 _atom_site_fract_y
 _atom_site_fract_z
 _atom_site_occupancy
 _atom_site_charge
  Cd  Cd1  1  0.000000  0.000000  0.000000  1.0  1.1044
  Cd  Cd2  1  0.000000  0.000000  0.500000  1.0  0.9731
  H  H3  1  0.643700  0.058100  0.628500  1.0  0.0717
  H  H4  1  0.789400  0.108600  0.288800  1.0  0.1077
  H  H5  1  0.560500  0.213000  0.231000  1.0  0.1255
  H  H6  1  0.411100  0.180800  0.330700  1.0  0.1272
  H  H7  1  0.290500  0.364100  0.279300  1.0  0.1127
  H  H8  1  0.134100  0.528500  0.270800  1.0  0.1141
  H  H9  1  0.231800  0.641200  0.194300  1.0  0.1191
  H  H10  1  0.987200  0.706500  0.607800  1.0  0.0864
  H  H11  1  0.105600  0.829600  0.270500  1.0  0.0962
  H  H12  1  0.434700  0.680000  0.323600  1.0  0.1075
  H  H13  1  0.677500  0.379900  0.368400  1.0  0.1057
  H  H14  1  0.756000  0.563700  0.418700  1.0  0.1
  H  H15  1  0.646400  0.673300  0.428000  1.0  0.0908
  H  H16  1  0.012900  0.696900  0.035800  1.0  0.082
  H  H17  1  0.751100  0.858800  0.267700  1.0  0.0992
  H  H18  1  0.356300  0.941900  0.371500  1.0  0.0729
  H  H19  1  0.210600  0.891400  0.711200  1.0  0.1084
  H  H20  1  0.439500  0.787000  0.769000  1.0  0.1263
  H  H21  1  0.588900  0.819200  0.669300  1.0  0.128
  H  H22  1  0.709500  0.635900  0.720700  1.0  0.1139
  H  H23  1  0.865900  0.471500  0.729200  1.0  0.1145
  H  H24  1  0.768200  0.358800  0.805700  1.0  0.1201
  H  H25  1  0.012800  0.293500  0.392200  1.0  0.0861
  H  H26  1  0.894400  0.170400  0.729500  1.0  0.0964
  H  H27  1  0.565300  0.320000  0.676400  1.0  0.1075
  H  H28  1  0.322500  0.620100  0.631600  1.0  0.1053
  H  H29  1  0.244000  0.436300  0.581300  1.0  0.0993
  H  H30  1  0.353600  0.326700  0.572000  1.0  0.0904
  H  H31  1  0.987100  0.303100  0.964200  1.0  0.0826
  H  H32  1  0.248900  0.141200  0.732300  1.0  0.0992
  C  C33  1  0.648000  0.081100  0.548400  1.0  0.2794
  C  C34  1  0.729000  0.107100  0.365300  1.0  0.1455
  C  C35  1  0.509000  0.219500  0.312100  1.0  -0.1096
  C  C36  1  0.489000  0.351400  0.321000  1.0  0.0807
  C  C37  1  0.362500  0.408300  0.297000  1.0  -0.1818
  C  C38  1  0.343400  0.530300  0.299300  1.0  0.0779
  C  C39  1  0.204300  0.590500  0.272300  1.0  -0.0906
  C  C40  1  0.026700  0.710300  0.526700  1.0  0.2837
  C  C41  1  0.089300  0.779000  0.344000  1.0  0.152
  C  C42  1  0.448200  0.597500  0.324100  1.0  -0.1914
  C  C43  1  0.594200  0.418000  0.349500  1.0  -0.1725
  C  C44  1  0.575500  0.542100  0.350000  1.0  0.0689
  C  C45  1  0.695100  0.617200  0.377200  1.0  -0.0757
  C  C46  1  0.942500  0.710700  0.104000  1.0  0.283
  C  C47  1  0.802300  0.799700  0.227800  1.0  0.1632
  C  C48  1  0.352000  0.918900  0.451600  1.0  0.2791
  C  C49  1  0.271000  0.892900  0.634700  1.0  0.1445
  C  C50  1  0.491000  0.780500  0.687900  1.0  -0.1188
  C  C51  1  0.511000  0.648600  0.679000  1.0  0.0812
  C  C52  1  0.637500  0.591700  0.703000  1.0  -0.1828
  C  C53  1  0.656600  0.469700  0.700700  1.0  0.0785
  C  C54  1  0.795700  0.409500  0.727700  1.0  -0.0939
  C  C55  1  0.973300  0.289700  0.473300  1.0  0.283
  C  C56  1  0.910700  0.221000  0.656000  1.0  0.1516
  C  C57  1  0.551800  0.402500  0.675900  1.0  -0.1907
  C  C58  1  0.405800  0.582000  0.650500  1.0  -0.1702
  C  C59  1  0.424500  0.457900  0.650000  1.0  0.0688
  C  C60  1  0.304900  0.382800  0.622800  1.0  -0.0733
  C  C61  1  0.057500  0.289300  0.896000  1.0  0.2827
  C  C62  1  0.197700  0.200300  0.772200  1.0  0.1617
  S  S63  1  0.845600  0.881100  0.806900  1.0  1.7368
  S  S64  1  0.154400  0.118900  0.193100  1.0  1.7358
  N  N65  1  0.594700  0.154600  0.392100  1.0  0.1584
  N  N66  1  0.539100  0.139000  0.512800  1.0  -0.3787
  N  N67  1  0.765000  0.056800  0.464400  1.0  -0.4382
  N  N68  1  0.130800  0.665000  0.360400  1.0  0.1524
  N  N69  1  0.091600  0.620100  0.480600  1.0  -0.365
  N  N70  1  0.022100  0.811100  0.445300  1.0  -0.4356
  N  N71  1  0.788600  0.683300  0.268700  1.0  0.187
  N  N72  1  0.879400  0.622500  0.189200  1.0  -0.3686
  N  N73  1  0.899200  0.822200  0.121500  1.0  -0.4576
  N  N74  1  0.405300  0.845400  0.607900  1.0  0.1582
  N  N75  1  0.460900  0.861000  0.487200  1.0  -0.389
  N  N76  1  0.235000  0.943200  0.535600  1.0  -0.4377
  N  N77  1  0.869200  0.335000  0.639600  1.0  0.1531
  N  N78  1  0.908400  0.379900  0.519400  1.0  -0.3639
  N  N79  1  0.977900  0.188900  0.554700  1.0  -0.4365
  N  N80  1  0.211400  0.316700  0.731300  1.0  0.1882
  N  N81  1  0.120600  0.377500  0.810800  1.0  -0.37
  N  N82  1  0.100800  0.177800  0.878500  1.0  -0.4508
  O  O83  1  0.854800  0.908400  0.682000  1.0  -0.7554
  O  O84  1  0.851900  0.751700  0.840100  1.0  -0.79
  O  O85  1  0.968100  0.940300  0.831900  1.0  -0.8061
  O  O86  1  0.701300  0.913100  0.875100  1.0  -0.7127
  O  O87  1  0.145200  0.091600  0.318000  1.0  -0.7553
  O  O88  1  0.148100  0.248300  0.159900  1.0  -0.7932
  O  O89  1  0.031900  0.059700  0.168100  1.0  -0.8047
  O  O90  1  0.298700  0.086900  0.124900  1.0  -0.7493
