# generated using pymatgen
data_MnH15C15SN9O4
_symmetry_space_group_name_H-M   'P 1'
_cell_length_a   9.24100000
_cell_length_b   11.24500000
_cell_length_c   11.84500000
_cell_angle_alpha   78.97000000
_cell_angle_beta   74.58000000
_cell_angle_gamma   87.60900000
_symmetry_Int_Tables_number   1
_chemical_formula_structural   MnH15C15SN9O4
_chemical_formula_sum   'Mn2 H30 C30 S2 N18 O8'
_cell_volume   1164.59176945
_cell_formula_units_Z   2
loop_
 _symmetry_equiv_pos_site_id
 _symmetry_equiv_pos_as_xyz
  1  'x, y, z'
loop_
 _atom_site_type_symbol
 _atom_site_label
 _atom_site_symmetry_multiplicity
 _atom_site_fract_x
 _atom_site_fract_y
 _atom_site_fract_z
 _atom_site_occupancy
 _atom_site_charge
  Mn  Mn1  1  0.000000  0.000000  0.000000  1.0  0.9022
  Mn  Mn2  1  0.000000  0.000000  0.500000  1.0  0.7663
  H  H3  1  0.644900  0.053500  0.631500  1.0  0.0847
  H  H4  1  0.793000  0.103800  0.288500  1.0  0.1051
  H  H5  1  0.566000  0.214400  0.229700  1.0  0.1263
  H  H6  1  0.415600  0.180600  0.328600  1.0  0.1249
  H  H7  1  0.289800  0.363400  0.282200  1.0  0.1083
  H  H8  1  0.122700  0.525300  0.286800  1.0  0.1153
  H  H9  1  0.215100  0.637100  0.202500  1.0  0.1182
  H  H10  1  0.986200  0.710000  0.614100  1.0  0.088
  H  H11  1  0.100300  0.830300  0.274800  1.0  0.1013
  H  H12  1  0.428100  0.678900  0.330900  1.0  0.1046
  H  H13  1  0.679200  0.380500  0.366300  1.0  0.1028
  H  H14  1  0.752700  0.563700  0.419600  1.0  0.107
  H  H15  1  0.641100  0.672900  0.427500  1.0  0.1
  H  H16  1  0.009200  0.701400  0.031000  1.0  0.0831
  H  H17  1  0.751900  0.860900  0.268200  1.0  0.0988
  H  H18  1  0.355100  0.946500  0.368500  1.0  0.0859
  H  H19  1  0.207000  0.896200  0.711500  1.0  0.1053
  H  H20  1  0.434000  0.785600  0.770300  1.0  0.128
  H  H21  1  0.584400  0.819400  0.671400  1.0  0.1258
  H  H22  1  0.710200  0.636600  0.717800  1.0  0.1091
  H  H23  1  0.877300  0.474700  0.713200  1.0  0.1161
  H  H24  1  0.784900  0.362900  0.797500  1.0  0.1197
  H  H25  1  0.013800  0.290000  0.385900  1.0  0.0879
  H  H26  1  0.899700  0.169700  0.725200  1.0  0.1009
  H  H27  1  0.571900  0.321100  0.669100  1.0  0.1043
  H  H28  1  0.320800  0.619500  0.633700  1.0  0.1023
  H  H29  1  0.247300  0.436300  0.580400  1.0  0.1071
  H  H30  1  0.358900  0.327100  0.572500  1.0  0.1003
  H  H31  1  0.990800  0.298600  0.969000  1.0  0.0836
  H  H32  1  0.248100  0.139100  0.731800  1.0  0.0986
  C  C33  1  0.650300  0.077800  0.550900  1.0  0.2619
  C  C34  1  0.733200  0.103600  0.365300  1.0  0.1392
  C  C35  1  0.512900  0.219500  0.311000  1.0  -0.1098
  C  C36  1  0.490200  0.352000  0.321300  1.0  0.0765
  C  C37  1  0.361000  0.407800  0.299700  1.0  -0.1772
  C  C38  1  0.337600  0.530800  0.304100  1.0  0.0782
  C  C39  1  0.193500  0.588500  0.282200  1.0  -0.1088
  C  C40  1  0.024900  0.713300  0.532600  1.0  0.2859
  C  C41  1  0.084600  0.780500  0.349400  1.0  0.1395
  C  C42  1  0.443500  0.597000  0.328700  1.0  -0.1682
  C  C43  1  0.594400  0.418500  0.348600  1.0  -0.1722
  C  C44  1  0.574100  0.541700  0.350200  1.0  0.0788
  C  C45  1  0.691400  0.617000  0.377000  1.0  -0.0929
  C  C46  1  0.940600  0.714500  0.100600  1.0  0.2872
  C  C47  1  0.802600  0.802600  0.226800  1.0  0.1594
  C  C48  1  0.349700  0.922200  0.449100  1.0  0.2606
  C  C49  1  0.266800  0.896400  0.634700  1.0  0.138
  C  C50  1  0.487100  0.780500  0.689000  1.0  -0.1129
  C  C51  1  0.509800  0.648000  0.678700  1.0  0.0773
  C  C52  1  0.639000  0.592200  0.700300  1.0  -0.1794
  C  C53  1  0.662400  0.469200  0.695900  1.0  0.0793
  C  C54  1  0.806500  0.411500  0.717800  1.0  -0.1085
  C  C55  1  0.975100  0.286700  0.467400  1.0  0.285
  C  C56  1  0.915400  0.219500  0.650600  1.0  0.139
  C  C57  1  0.556500  0.403000  0.671300  1.0  -0.1671
  C  C58  1  0.405600  0.581500  0.651400  1.0  -0.1708
  C  C59  1  0.425900  0.458300  0.649800  1.0  0.0781
  C  C60  1  0.308600  0.383000  0.623000  1.0  -0.092
  C  C61  1  0.059400  0.285500  0.899400  1.0  0.2868
  C  C62  1  0.197400  0.197400  0.773200  1.0  0.1582
  S  S63  1  0.850180  0.885930  0.805770  1.0  1.6616
  S  S64  1  0.149820  0.114070  0.194230  1.0  1.6608
  N  N65  1  0.597400  0.154400  0.391700  1.0  0.1563
  N  N66  1  0.541100  0.139300  0.512500  1.0  -0.3743
  N  N67  1  0.769900  0.053200  0.464300  1.0  -0.3932
  N  N68  1  0.125200  0.665200  0.368900  1.0  0.1574
  N  N69  1  0.089700  0.619600  0.488800  1.0  -0.3647
  N  N70  1  0.018300  0.814000  0.452500  1.0  -0.3963
  N  N71  1  0.787000  0.684600  0.266600  1.0  0.1754
  N  N72  1  0.877200  0.625200  0.185700  1.0  -0.3635
  N  N73  1  0.899600  0.827100  0.120600  1.0  -0.4296
  N  N74  1  0.402600  0.845600  0.608300  1.0  0.1567
  N  N75  1  0.458900  0.860700  0.487500  1.0  -0.384
  N  N76  1  0.230100  0.946800  0.535700  1.0  -0.3937
  N  N77  1  0.874800  0.334800  0.631100  1.0  0.1584
  N  N78  1  0.910300  0.380400  0.511200  1.0  -0.3644
  N  N79  1  0.981700  0.186000  0.547500  1.0  -0.396
  N  N80  1  0.213000  0.315400  0.733400  1.0  0.1776
  N  N81  1  0.122800  0.374800  0.814300  1.0  -0.3642
  N  N82  1  0.100400  0.172900  0.879400  1.0  -0.4275
  O  O83  1  0.877300  0.920200  0.677600  1.0  -0.7033
  O  O84  1  0.854400  0.754100  0.836000  1.0  -0.7191
  O  O85  1  0.965000  0.939300  0.845200  1.0  -0.7474
  O  O86  1  0.702300  0.924200  0.864200  1.0  -0.724
  O  O87  1  0.122700  0.079800  0.322400  1.0  -0.7152
  O  O88  1  0.145600  0.245900  0.164000  1.0  -0.7258
  O  O89  1  0.035000  0.060700  0.154800  1.0  -0.747
  O  O90  1  0.297700  0.075800  0.135800  1.0  -0.732
