# generated using pymatgen
data_Cd2H40C50(SN2)5
_symmetry_space_group_name_H-M   'P 1'
_cell_length_a   16.86870000
_cell_length_b   16.86870000
_cell_length_c   28.56130000
_cell_angle_alpha   90.00000000
_cell_angle_beta   90.00000000
_cell_angle_gamma   90.00000000
_symmetry_Int_Tables_number   1
_chemical_formula_structural   Cd2H40C50(SN2)5
_chemical_formula_sum   'Cd8 H160 C200 S20 N40'
_cell_volume   8127.20473250
_cell_formula_units_Z   4
loop_
 _symmetry_equiv_pos_site_id
 _symmetry_equiv_pos_as_xyz
  1  'x, y, z'
loop_
 _atom_site_type_symbol
 _atom_site_label
 _atom_site_symmetry_multiplicity
 _atom_site_fract_x
 _atom_site_fract_y
 _atom_site_fract_z
 _atom_site_occupancy
 _atom_site_charge
  Cd  Cd1  1  0.693510  0.218040  0.006580  1.0  0.7926
  Cd  Cd2  1  0.306490  0.781960  0.506580  1.0  0.7913
  Cd  Cd3  1  0.281960  0.193510  0.256580  1.0  0.7907
  Cd  Cd4  1  0.718040  0.806490  0.756580  1.0  0.7889
  Cd  Cd5  1  0.806490  0.718040  0.243420  1.0  0.7921
  Cd  Cd6  1  0.193510  0.281960  0.743420  1.0  0.7899
  Cd  Cd7  1  0.218040  0.693510  0.993420  1.0  0.7895
  Cd  Cd8  1  0.781960  0.306490  0.493420  1.0  0.7888
  H  H9  1  0.569700  0.343500  0.964200  1.0  0.0655
  H  H10  1  0.535400  0.477600  0.962100  1.0  0.1084
  H  H11  1  0.736500  0.523500  0.035700  1.0  0.1065
  H  H12  1  0.765000  0.389100  0.033600  1.0  0.0666
  H  H13  1  0.740900  0.296900  0.910400  1.0  0.0558
  H  H14  1  0.707500  0.313200  0.832700  1.0  0.1042
  H  H15  1  0.544200  0.138300  0.848900  1.0  0.1099
  H  H16  1  0.582200  0.129700  0.927100  1.0  0.0643
  H  H17  1  0.340000  0.317700  0.817900  1.0  0.0629
  H  H18  1  0.474200  0.304500  0.830300  1.0  0.0991
  H  H19  1  0.488300  0.184500  0.707800  1.0  0.1064
  H  H20  1  0.354600  0.204800  0.697900  1.0  0.0633
  H  H21  1  0.640300  0.325900  0.098200  1.0  0.0587
  H  H22  1  0.689200  0.369400  0.169300  1.0  0.1086
  H  H23  1  0.852300  0.193100  0.163000  1.0  0.1
  H  H24  1  0.796300  0.153800  0.093200  1.0  0.0626
  H  H25  1  0.840400  0.580200  0.171200  1.0  0.0667
  H  H26  1  0.845300  0.444700  0.162100  1.0  0.104
  H  H27  1  0.771600  0.421700  0.296300  1.0  0.0932
  H  H28  1  0.768500  0.559300  0.301800  1.0  0.062
  H  H29  1  0.430300  0.656500  0.464200  1.0  0.0659
  H  H30  1  0.464600  0.522400  0.462100  1.0  0.1082
  H  H31  1  0.263500  0.476500  0.535700  1.0  0.1063
  H  H32  1  0.235000  0.610900  0.533600  1.0  0.0676
  H  H33  1  0.259100  0.703100  0.410400  1.0  0.0553
  H  H34  1  0.292500  0.686800  0.332700  1.0  0.1032
  H  H35  1  0.455800  0.861700  0.348900  1.0  0.1104
  H  H36  1  0.417800  0.870300  0.427100  1.0  0.0641
  H  H37  1  0.660000  0.682300  0.317900  1.0  0.062
  H  H38  1  0.525800  0.695500  0.330300  1.0  0.099
  H  H39  1  0.511700  0.815500  0.207800  1.0  0.1062
  H  H40  1  0.645400  0.795200  0.197900  1.0  0.0624
  H  H41  1  0.359700  0.674100  0.598200  1.0  0.0585
  H  H42  1  0.310800  0.630600  0.669300  1.0  0.1084
  H  H43  1  0.147700  0.806900  0.663000  1.0  0.0999
  H  H44  1  0.203700  0.846200  0.593200  1.0  0.0632
  H  H45  1  0.159600  0.419800  0.671200  1.0  0.0668
  H  H46  1  0.154700  0.555300  0.662100  1.0  0.104
  H  H47  1  0.228400  0.578300  0.796300  1.0  0.0932
  H  H48  1  0.231500  0.440700  0.801800  1.0  0.0617
  H  H49  1  0.156500  0.069700  0.214200  1.0  0.0664
  H  H50  1  0.022400  0.035400  0.212100  1.0  0.1091
  H  H51  1  0.976500  0.236500  0.285700  1.0  0.1075
  H  H52  1  0.110900  0.265000  0.283600  1.0  0.068
  H  H53  1  0.203100  0.240900  0.160400  1.0  0.0552
  H  H54  1  0.186800  0.207500  0.082700  1.0  0.1039
  H  H55  1  0.361700  0.044200  0.098900  1.0  0.1095
  H  H56  1  0.370300  0.082200  0.177100  1.0  0.0635
  H  H57  1  0.182300  0.840000  0.067900  1.0  0.0618
  H  H58  1  0.195500  0.974200  0.080300  1.0  0.0996
  H  H59  1  0.315500  0.988300  0.957800  1.0  0.1068
  H  H60  1  0.295200  0.854600  0.947900  1.0  0.0612
  H  H61  1  0.174100  0.140300  0.348200  1.0  0.0588
  H  H62  1  0.130600  0.189200  0.419300  1.0  0.1079
  H  H63  1  0.306900  0.352300  0.413000  1.0  0.1001
  H  H64  1  0.346200  0.296300  0.343200  1.0  0.0634
  H  H65  1  0.919800  0.340400  0.421200  1.0  0.0673
  H  H66  1  0.055300  0.345300  0.412100  1.0  0.1036
  H  H67  1  0.078300  0.271600  0.546300  1.0  0.0932
  H  H68  1  0.940700  0.268500  0.551800  1.0  0.0613
  H  H69  1  0.843500  0.930300  0.714200  1.0  0.0666
  H  H70  1  0.977600  0.964600  0.712100  1.0  0.1093
  H  H71  1  0.023500  0.763500  0.785700  1.0  0.1075
  H  H72  1  0.889100  0.735000  0.783600  1.0  0.0676
  H  H73  1  0.796900  0.759100  0.660400  1.0  0.055
  H  H74  1  0.813200  0.792500  0.582700  1.0  0.1035
  H  H75  1  0.638300  0.955800  0.598900  1.0  0.1101
  H  H76  1  0.629700  0.917800  0.677100  1.0  0.064
  H  H77  1  0.817700  0.160000  0.567900  1.0  0.0613
  H  H78  1  0.804500  0.025800  0.580300  1.0  0.0999
  H  H79  1  0.684500  0.011700  0.457800  1.0  0.106
  H  H80  1  0.704800  0.145400  0.447900  1.0  0.0622
  H  H81  1  0.825900  0.859700  0.848200  1.0  0.0581
  H  H82  1  0.869400  0.810800  0.919300  1.0  0.1078
  H  H83  1  0.693100  0.647700  0.913000  1.0  0.1003
  H  H84  1  0.653800  0.703700  0.843200  1.0  0.063
  H  H85  1  0.080200  0.659600  0.921200  1.0  0.0671
  H  H86  1  0.944700  0.654700  0.912100  1.0  0.1036
  H  H87  1  0.921700  0.728400  0.046300  1.0  0.0928
  H  H88  1  0.059300  0.731500  0.051800  1.0  0.0615
  H  H89  1  0.930300  0.843500  0.285800  1.0  0.0658
  H  H90  1  0.964600  0.977600  0.287900  1.0  0.1082
  H  H91  1  0.763500  0.023500  0.214300  1.0  0.1066
  H  H92  1  0.735000  0.889100  0.216400  1.0  0.0668
  H  H93  1  0.759100  0.796900  0.339600  1.0  0.057
  H  H94  1  0.792500  0.813200  0.417300  1.0  0.1058
  H  H95  1  0.955800  0.638300  0.401100  1.0  0.1101
  H  H96  1  0.917800  0.629700  0.322900  1.0  0.0646
  H  H97  1  0.160000  0.817700  0.432100  1.0  0.0625
  H  H98  1  0.025800  0.804500  0.419700  1.0  0.0997
  H  H99  1  0.011700  0.684500  0.542200  1.0  0.1065
  H  H100  1  0.145400  0.704800  0.552100  1.0  0.0643
  H  H101  1  0.859700  0.825900  0.151800  1.0  0.0583
  H  H102  1  0.810800  0.869400  0.080700  1.0  0.1093
  H  H103  1  0.647700  0.693100  0.087000  1.0  0.1
  H  H104  1  0.703700  0.653800  0.156800  1.0  0.0625
  H  H105  1  0.659600  0.080200  0.078800  1.0  0.067
  H  H106  1  0.654700  0.944700  0.087900  1.0  0.1041
  H  H107  1  0.728400  0.921700  0.953700  1.0  0.0925
  H  H108  1  0.731500  0.059300  0.948200  1.0  0.0625
  H  H109  1  0.069700  0.156500  0.785800  1.0  0.0665
  H  H110  1  0.035400  0.022400  0.787900  1.0  0.1085
  H  H111  1  0.236500  0.976500  0.714300  1.0  0.1068
  H  H112  1  0.265000  0.110900  0.716400  1.0  0.0667
  H  H113  1  0.240900  0.203100  0.839600  1.0  0.0563
  H  H114  1  0.207500  0.186800  0.917300  1.0  0.1047
  H  H115  1  0.044200  0.361700  0.901100  1.0  0.1113
  H  H116  1  0.082200  0.370300  0.822900  1.0  0.0646
  H  H117  1  0.840000  0.182300  0.932100  1.0  0.063
  H  H118  1  0.974200  0.195500  0.919700  1.0  0.0994
  H  H119  1  0.988300  0.315500  0.042200  1.0  0.1064
  H  H120  1  0.854600  0.295200  0.052100  1.0  0.064
  H  H121  1  0.140300  0.174100  0.651800  1.0  0.0583
  H  H122  1  0.189200  0.130600  0.580700  1.0  0.1086
  H  H123  1  0.352300  0.306900  0.587000  1.0  0.1
  H  H124  1  0.296300  0.346200  0.656800  1.0  0.0628
  H  H125  1  0.340400  0.919800  0.578800  1.0  0.0662
  H  H126  1  0.345300  0.055300  0.587900  1.0  0.103
  H  H127  1  0.271600  0.078300  0.453700  1.0  0.0929
  H  H128  1  0.268500  0.940700  0.448200  1.0  0.062
  H  H129  1  0.343500  0.569700  0.035800  1.0  0.0665
  H  H130  1  0.477600  0.535400  0.037900  1.0  0.1094
  H  H131  1  0.523500  0.736500  0.964300  1.0  0.1083
  H  H132  1  0.389100  0.765000  0.966400  1.0  0.0676
  H  H133  1  0.296900  0.740900  0.089600  1.0  0.0556
  H  H134  1  0.313200  0.707500  0.167300  1.0  0.1053
  H  H135  1  0.138300  0.544200  0.151100  1.0  0.1099
  H  H136  1  0.129700  0.582200  0.072900  1.0  0.0638
  H  H137  1  0.317700  0.340000  0.182100  1.0  0.0622
  H  H138  1  0.304500  0.474200  0.169700  1.0  0.0999
  H  H139  1  0.184500  0.488300  0.292200  1.0  0.1068
  H  H140  1  0.204800  0.354600  0.302100  1.0  0.0634
  H  H141  1  0.325900  0.640300  0.901800  1.0  0.0588
  H  H142  1  0.369400  0.689200  0.830700  1.0  0.1082
  H  H143  1  0.193100  0.852300  0.837000  1.0  0.1008
  H  H144  1  0.153800  0.796300  0.906800  1.0  0.0629
  H  H145  1  0.580200  0.840400  0.828800  1.0  0.0672
  H  H146  1  0.444700  0.845300  0.837900  1.0  0.1033
  H  H147  1  0.421700  0.771600  0.703700  1.0  0.0924
  H  H148  1  0.559300  0.768500  0.698200  1.0  0.0623
  H  H149  1  0.656500  0.430300  0.535800  1.0  0.0668
  H  H150  1  0.522400  0.464600  0.537900  1.0  0.1095
  H  H151  1  0.476500  0.263500  0.464300  1.0  0.1068
  H  H152  1  0.610900  0.235000  0.466400  1.0  0.0676
  H  H153  1  0.703100  0.259100  0.589600  1.0  0.056
  H  H154  1  0.686800  0.292500  0.667300  1.0  0.1053
  H  H155  1  0.861700  0.455800  0.651100  1.0  0.1094
  H  H156  1  0.870300  0.417800  0.572900  1.0  0.0643
  H  H157  1  0.682300  0.660000  0.682100  1.0  0.0619
  H  H158  1  0.695500  0.525800  0.669700  1.0  0.1007
  H  H159  1  0.815500  0.511700  0.792200  1.0  0.1062
  H  H160  1  0.795200  0.645400  0.802100  1.0  0.0642
  H  H161  1  0.674100  0.359700  0.401800  1.0  0.0581
  H  H162  1  0.630600  0.310800  0.330700  1.0  0.1091
  H  H163  1  0.806900  0.147700  0.337000  1.0  0.1001
  H  H164  1  0.846200  0.203700  0.406800  1.0  0.0633
  H  H165  1  0.419800  0.159600  0.328800  1.0  0.0673
  H  H166  1  0.555300  0.154700  0.337900  1.0  0.1033
  H  H167  1  0.578300  0.228400  0.203700  1.0  0.0926
  H  H168  1  0.440700  0.231500  0.198200  1.0  0.0614
  C  C169  1  0.603600  0.380800  0.979000  1.0  0.1328
  C  C170  1  0.582200  0.460600  0.977670  1.0  -0.1748
  C  C171  1  0.631900  0.514100  0.999910  1.0  -0.0873
  C  C172  1  0.701200  0.487500  0.020940  1.0  -0.1731
  C  C173  1  0.717200  0.407500  0.019730  1.0  0.1499
  C  C174  1  0.699800  0.265000  0.897670  1.0  0.1331
  C  C175  1  0.680900  0.274900  0.851360  1.0  -0.133
  C  C176  1  0.621700  0.227400  0.832560  1.0  -0.1228
  C  C177  1  0.584400  0.172000  0.860980  1.0  -0.143
  C  C178  1  0.607700  0.167400  0.907510  1.0  0.1266
  C  C179  1  0.370800  0.291200  0.794900  1.0  0.1338
  C  C180  1  0.450800  0.283100  0.802860  1.0  -0.1481
  C  C181  1  0.496800  0.243400  0.770430  1.0  -0.0619
  C  C182  1  0.459000  0.213100  0.730720  1.0  -0.1444
  C  C183  1  0.379300  0.225100  0.725300  1.0  0.144
  C  C184  1  0.684400  0.299100  0.111500  1.0  0.1393
  C  C185  1  0.713300  0.325900  0.153720  1.0  -0.185
  C  C186  1  0.778500  0.287600  0.173050  1.0  -0.0713
  C  C187  1  0.809100  0.221800  0.150160  1.0  -0.1543
  C  C188  1  0.775400  0.199200  0.108450  1.0  0.1446
  C  C189  1  0.826400  0.547600  0.196960  1.0  0.1342
  C  C190  1  0.829900  0.467000  0.191300  1.0  -0.1482
  C  C191  1  0.810400  0.418200  0.228880  1.0  -0.1009
  C  C192  1  0.786500  0.453300  0.270220  1.0  -0.1198
  C  C193  1  0.784500  0.535600  0.273140  1.0  0.1351
  C  C194  1  0.396400  0.619200  0.479000  1.0  0.1331
  C  C195  1  0.417800  0.539400  0.477670  1.0  -0.175
  C  C196  1  0.368100  0.485900  0.499910  1.0  -0.0889
  C  C197  1  0.298800  0.512500  0.520940  1.0  -0.1723
  C  C198  1  0.282800  0.592500  0.519730  1.0  0.1503
  C  C199  1  0.300200  0.735000  0.397670  1.0  0.135
  C  C200  1  0.319100  0.725100  0.351360  1.0  -0.1318
  C  C201  1  0.378300  0.772600  0.332560  1.0  -0.1239
  C  C202  1  0.415600  0.828000  0.360980  1.0  -0.1429
  C  C203  1  0.392300  0.832600  0.407510  1.0  0.1248
  C  C204  1  0.629200  0.708800  0.294900  1.0  0.134
  C  C205  1  0.549200  0.716900  0.302860  1.0  -0.148
  C  C206  1  0.503200  0.756600  0.270430  1.0  -0.0651
  C  C207  1  0.541000  0.786900  0.230720  1.0  -0.1448
  C  C208  1  0.620700  0.774900  0.225300  1.0  0.1423
  C  C209  1  0.315600  0.700900  0.611500  1.0  0.1398
  C  C210  1  0.286700  0.674100  0.653720  1.0  -0.1845
  C  C211  1  0.221500  0.712400  0.673050  1.0  -0.0729
  C  C212  1  0.190900  0.778200  0.650160  1.0  -0.1543
  C  C213  1  0.224600  0.800800  0.608450  1.0  0.1452
  C  C214  1  0.173600  0.452400  0.696960  1.0  0.1339
  C  C215  1  0.170100  0.533000  0.691300  1.0  -0.1506
  C  C216  1  0.189600  0.581800  0.728880  1.0  -0.1037
  C  C217  1  0.213500  0.546700  0.770220  1.0  -0.1185
  C  C218  1  0.215500  0.464400  0.773140  1.0  0.1355
  C  C219  1  0.119200  0.103600  0.229000  1.0  0.1341
  C  C220  1  0.039400  0.082200  0.227670  1.0  -0.1754
  C  C221  1  0.985900  0.131900  0.249910  1.0  -0.0908
  C  C222  1  0.012500  0.201200  0.270940  1.0  -0.1744
  C  C223  1  0.092500  0.217200  0.269730  1.0  0.1495
  C  C224  1  0.235000  0.199800  0.147670  1.0  0.1342
  C  C225  1  0.225100  0.180900  0.101360  1.0  -0.1316
  C  C226  1  0.272600  0.121700  0.082560  1.0  -0.124
  C  C227  1  0.328000  0.084400  0.110980  1.0  -0.1414
  C  C228  1  0.332600  0.107700  0.157510  1.0  0.125
  C  C229  1  0.208800  0.870800  0.044900  1.0  0.1339
  C  C230  1  0.216900  0.950800  0.052860  1.0  -0.148
  C  C231  1  0.256600  0.996800  0.020430  1.0  -0.0585
  C  C232  1  0.286900  0.959000  0.980720  1.0  -0.1479
  C  C233  1  0.274900  0.879300  0.975300  1.0  0.1394
  C  C234  1  0.200900  0.184400  0.361500  1.0  0.1389
  C  C235  1  0.174100  0.213300  0.403720  1.0  -0.1848
  C  C236  1  0.212400  0.278500  0.423050  1.0  -0.0731
  C  C237  1  0.278200  0.309100  0.400160  1.0  -0.1559
  C  C238  1  0.300800  0.275400  0.358450  1.0  0.1461
  C  C239  1  0.952400  0.326400  0.446960  1.0  0.1336
  C  C240  1  0.033000  0.329900  0.441300  1.0  -0.1503
  C  C241  1  0.081800  0.310400  0.478880  1.0  -0.1024
  C  C242  1  0.046700  0.286500  0.520220  1.0  -0.1179
  C  C243  1  0.964400  0.284500  0.523140  1.0  0.1328
  C  C244  1  0.880800  0.896400  0.729000  1.0  0.1344
  C  C245  1  0.960600  0.917800  0.727670  1.0  -0.1753
  C  C246  1  0.014100  0.868100  0.749910  1.0  -0.0886
  C  C247  1  0.987500  0.798800  0.770940  1.0  -0.1731
  C  C248  1  0.907500  0.782800  0.769730  1.0  0.1498
  C  C249  1  0.765000  0.800200  0.647670  1.0  0.1329
  C  C250  1  0.774900  0.819100  0.601360  1.0  -0.1324
  C  C251  1  0.727400  0.878300  0.582560  1.0  -0.1244
  C  C252  1  0.672000  0.915600  0.610980  1.0  -0.1427
  C  C253  1  0.667400  0.892300  0.657510  1.0  0.1247
  C  C254  1  0.791200  0.129200  0.544900  1.0  0.1337
  C  C255  1  0.783100  0.049200  0.552860  1.0  -0.1463
  C  C256  1  0.743400  0.003200  0.520430  1.0  -0.0604
  C  C257  1  0.713100  0.041000  0.480720  1.0  -0.1476
  C  C258  1  0.725100  0.120700  0.475300  1.0  0.1397
  C  C259  1  0.799100  0.815600  0.861500  1.0  0.1385
  C  C260  1  0.825900  0.786700  0.903720  1.0  -0.1866
  C  C261  1  0.787600  0.721500  0.923050  1.0  -0.0733
  C  C262  1  0.721800  0.690900  0.900160  1.0  -0.1556
  C  C263  1  0.699200  0.724600  0.858450  1.0  0.1467
  C  C264  1  0.047600  0.673600  0.946960  1.0  0.1327
  C  C265  1  0.967000  0.670100  0.941300  1.0  -0.1512
  C  C266  1  0.918200  0.689600  0.978880  1.0  -0.1039
  C  C267  1  0.953300  0.713500  0.020220  1.0  -0.1196
  C  C268  1  0.035600  0.715500  0.023140  1.0  0.1332
  C  C269  1  0.896400  0.880800  0.271000  1.0  0.1334
  C  C270  1  0.917800  0.960600  0.272330  1.0  -0.1744
  C  C271  1  0.868100  0.014100  0.250090  1.0  -0.0874
  C  C272  1  0.798800  0.987500  0.229060  1.0  -0.172
  C  C273  1  0.782800  0.907500  0.230270  1.0  0.1494
  C  C274  1  0.800200  0.765000  0.352330  1.0  0.1356
  C  C275  1  0.819100  0.774900  0.398640  1.0  -0.1331
  C  C276  1  0.878300  0.727400  0.417440  1.0  -0.1232
  C  C277  1  0.915600  0.672000  0.389020  1.0  -0.1432
  C  C278  1  0.892300  0.667400  0.342490  1.0  0.1257
  C  C279  1  0.129200  0.791200  0.455100  1.0  0.1352
  C  C280  1  0.049200  0.783100  0.447140  1.0  -0.1512
  C  C281  1  0.003200  0.743400  0.479570  1.0  -0.0651
  C  C282  1  0.041000  0.713100  0.519280  1.0  -0.1452
  C  C283  1  0.120700  0.725100  0.524700  1.0  0.1432
  C  C284  1  0.815600  0.799100  0.138500  1.0  0.1399
  C  C285  1  0.786700  0.825900  0.096280  1.0  -0.1847
  C  C286  1  0.721500  0.787600  0.076950  1.0  -0.0774
  C  C287  1  0.690900  0.721800  0.099840  1.0  -0.1553
  C  C288  1  0.724600  0.699200  0.141550  1.0  0.1449
  C  C289  1  0.673600  0.047600  0.053040  1.0  0.1343
  C  C290  1  0.670100  0.967000  0.058700  1.0  -0.1527
  C  C291  1  0.689600  0.918200  0.021120  1.0  -0.101
  C  C292  1  0.713500  0.953300  0.979780  1.0  -0.1204
  C  C293  1  0.715500  0.035600  0.976860  1.0  0.1353
  C  C294  1  0.103600  0.119200  0.771000  1.0  0.1338
  C  C295  1  0.082200  0.039400  0.772330  1.0  -0.1741
  C  C296  1  0.131900  0.985900  0.750090  1.0  -0.089
  C  C297  1  0.201200  0.012500  0.729060  1.0  -0.1741
  C  C298  1  0.217200  0.092500  0.730270  1.0  0.1492
  C  C299  1  0.199800  0.235000  0.852330  1.0  0.1345
  C  C300  1  0.180900  0.225100  0.898640  1.0  -0.1318
  C  C301  1  0.121700  0.272600  0.917440  1.0  -0.1218
  C  C302  1  0.084400  0.328000  0.889020  1.0  -0.1435
  C  C303  1  0.107700  0.332600  0.842490  1.0  0.1264
  C  C304  1  0.870800  0.208800  0.955100  1.0  0.1351
  C  C305  1  0.950800  0.216900  0.947140  1.0  -0.1492
  C  C306  1  0.996800  0.256600  0.979570  1.0  -0.0623
  C  C307  1  0.959000  0.286900  0.019280  1.0  -0.1426
  C  C308  1  0.879300  0.274900  0.024700  1.0  0.1445
  C  C309  1  0.184400  0.200900  0.638500  1.0  0.1393
  C  C310  1  0.213300  0.174100  0.596280  1.0  -0.1834
  C  C311  1  0.278500  0.212400  0.576950  1.0  -0.0749
  C  C312  1  0.309100  0.278200  0.599840  1.0  -0.1539
  C  C313  1  0.275400  0.300800  0.641550  1.0  0.1446
  C  C314  1  0.326400  0.952400  0.553040  1.0  0.1331
  C  C315  1  0.329900  0.033000  0.558700  1.0  -0.1518
  C  C316  1  0.310400  0.081800  0.521120  1.0  -0.1034
  C  C317  1  0.286500  0.046700  0.479780  1.0  -0.1203
  C  C318  1  0.284500  0.964400  0.476860  1.0  0.135
  C  C319  1  0.380800  0.603600  0.021000  1.0  0.1359
  C  C320  1  0.460600  0.582200  0.022330  1.0  -0.1741
  C  C321  1  0.514100  0.631900  0.000090  1.0  -0.0886
  C  C322  1  0.487500  0.701200  0.979060  1.0  -0.1738
  C  C323  1  0.407500  0.717200  0.980270  1.0  0.1492
  C  C324  1  0.265000  0.699800  0.102330  1.0  0.1341
  C  C325  1  0.274900  0.680900  0.148640  1.0  -0.1309
  C  C326  1  0.227400  0.621700  0.167440  1.0  -0.1236
  C  C327  1  0.172000  0.584400  0.139020  1.0  -0.1412
  C  C328  1  0.167400  0.607700  0.092490  1.0  0.1251
  C  C329  1  0.291200  0.370800  0.205100  1.0  0.1348
  C  C330  1  0.283100  0.450800  0.197140  1.0  -0.1486
  C  C331  1  0.243400  0.496800  0.229570  1.0  -0.0587
  C  C332  1  0.213100  0.459000  0.269280  1.0  -0.1493
  C  C333  1  0.225100  0.379300  0.274700  1.0  0.1397
  C  C334  1  0.299100  0.684400  0.888500  1.0  0.1386
  C  C335  1  0.325900  0.713300  0.846280  1.0  -0.185
  C  C336  1  0.287600  0.778500  0.826950  1.0  -0.0773
  C  C337  1  0.221800  0.809100  0.849840  1.0  -0.1555
  C  C338  1  0.199200  0.775400  0.891550  1.0  0.1465
  C  C339  1  0.547600  0.826400  0.803040  1.0  0.1327
  C  C340  1  0.467000  0.829900  0.808700  1.0  -0.1553
  C  C341  1  0.418200  0.810400  0.771120  1.0  -0.1028
  C  C342  1  0.453300  0.786500  0.729780  1.0  -0.12
  C  C343  1  0.535600  0.784500  0.726860  1.0  0.1331
  C  C344  1  0.619200  0.396400  0.521000  1.0  0.1336
  C  C345  1  0.539400  0.417800  0.522330  1.0  -0.1752
  C  C346  1  0.485900  0.368100  0.500090  1.0  -0.0908
  C  C347  1  0.512500  0.298800  0.479060  1.0  -0.1729
  C  C348  1  0.592500  0.282800  0.480270  1.0  0.1497
  C  C349  1  0.735000  0.300200  0.602330  1.0  0.135
  C  C350  1  0.725100  0.319100  0.648640  1.0  -0.1314
  C  C351  1  0.772600  0.378300  0.667440  1.0  -0.1231
  C  C352  1  0.828000  0.415600  0.639020  1.0  -0.1418
  C  C353  1  0.832600  0.392300  0.592490  1.0  0.1238
  C  C354  1  0.708800  0.629200  0.705100  1.0  0.1357
  C  C355  1  0.716900  0.549200  0.697140  1.0  -0.15
  C  C356  1  0.756600  0.503200  0.729570  1.0  -0.0608
  C  C357  1  0.786900  0.541000  0.769280  1.0  -0.1465
  C  C358  1  0.774900  0.620700  0.774700  1.0  0.1404
  C  C359  1  0.700900  0.315600  0.388500  1.0  0.1379
  C  C360  1  0.674100  0.286700  0.346280  1.0  -0.1858
  C  C361  1  0.712400  0.221500  0.326950  1.0  -0.078
  C  C362  1  0.778200  0.190900  0.349840  1.0  -0.1571
  C  C363  1  0.800800  0.224600  0.391550  1.0  0.1464
  C  C364  1  0.452400  0.173600  0.303040  1.0  0.1336
  C  C365  1  0.533000  0.170100  0.308700  1.0  -0.1526
  C  C366  1  0.581800  0.189600  0.271120  1.0  -0.1022
  C  C367  1  0.546700  0.213500  0.229780  1.0  -0.1197
  C  C368  1  0.464400  0.215500  0.226860  1.0  0.1324
  S  S369  1  0.600800  0.234650  0.772120  1.0  -0.0062
  S  S370  1  0.823400  0.314680  0.226800  1.0  -0.0192
  S  S371  1  0.399200  0.765350  0.272120  1.0  -0.0061
  S  S372  1  0.176600  0.685320  0.726800  1.0  -0.0182
  S  S373  1  0.265350  0.100800  0.022120  1.0  -0.0069
  S  S374  1  0.185320  0.323400  0.476800  1.0  -0.0171
  S  S375  1  0.734650  0.899200  0.522120  1.0  -0.0086
  S  S376  1  0.814680  0.676600  0.976800  1.0  -0.0192
  S  S377  1  0.899200  0.734650  0.477880  1.0  -0.006
  S  S378  1  0.676600  0.814680  0.023200  1.0  -0.02
  S  S379  1  0.100800  0.265350  0.977880  1.0  -0.0058
  S  S380  1  0.323400  0.185320  0.523200  1.0  -0.0188
  S  S381  1  0.234650  0.600800  0.227880  1.0  -0.0061
  S  S382  1  0.314680  0.823400  0.773200  1.0  -0.0181
  S  S383  1  0.765350  0.399200  0.727880  1.0  -0.0084
  S  S384  1  0.685320  0.176600  0.273200  1.0  -0.0188
  S  S385  1  0.617520  0.617520  0.000000  1.0  0.0
  S  S386  1  0.382480  0.382480  0.500000  1.0  1e-04
  S  S387  1  0.882480  0.117520  0.250000  1.0  0.0002
  S  S388  1  0.117520  0.882480  0.750000  1.0  -0.0003
  N  N389  1  0.668510  0.354000  0.999770  1.0  -0.3694
  N  N390  1  0.664030  0.213160  0.926050  1.0  -0.3562
  N  N391  1  0.333610  0.263960  0.756570  1.0  -0.375
  N  N392  1  0.714960  0.237380  0.088010  1.0  -0.3714
  N  N393  1  0.804320  0.582870  0.237190  1.0  -0.3556
  N  N394  1  0.331490  0.646000  0.499770  1.0  -0.3699
  N  N395  1  0.335970  0.786840  0.426050  1.0  -0.3565
  N  N396  1  0.666390  0.736040  0.256570  1.0  -0.3762
  N  N397  1  0.285040  0.762620  0.588010  1.0  -0.3716
  N  N398  1  0.195680  0.417130  0.737190  1.0  -0.3561
  N  N399  1  0.146000  0.168510  0.249770  1.0  -0.37
  N  N400  1  0.286840  0.164030  0.176050  1.0  -0.3558
  N  N401  1  0.236040  0.833610  0.006570  1.0  -0.3754
  N  N402  1  0.262620  0.214960  0.338010  1.0  -0.3731
  N  N403  1  0.917130  0.304320  0.487190  1.0  -0.3492
  N  N404  1  0.854000  0.831490  0.749770  1.0  -0.3698
  N  N405  1  0.713160  0.835970  0.676050  1.0  -0.3566
  N  N406  1  0.763960  0.166390  0.506570  1.0  -0.3764
  N  N407  1  0.737380  0.785040  0.838010  1.0  -0.372
  N  N408  1  0.082870  0.695680  0.987190  1.0  -0.3509
  N  N409  1  0.831490  0.854000  0.250230  1.0  -0.3694
  N  N410  1  0.835970  0.713160  0.323950  1.0  -0.3578
  N  N411  1  0.166390  0.763960  0.493430  1.0  -0.3764
  N  N412  1  0.785040  0.737380  0.161990  1.0  -0.3698
  N  N413  1  0.695680  0.082870  0.012810  1.0  -0.3559
  N  N414  1  0.168510  0.146000  0.750230  1.0  -0.3696
  N  N415  1  0.164030  0.286840  0.823950  1.0  -0.3571
  N  N416  1  0.833610  0.236040  0.993430  1.0  -0.3757
  N  N417  1  0.214960  0.262620  0.661990  1.0  -0.3713
  N  N418  1  0.304320  0.917130  0.512810  1.0  -0.3555
  N  N419  1  0.354000  0.668510  0.000230  1.0  -0.3693
  N  N420  1  0.213160  0.664030  0.073950  1.0  -0.3574
  N  N421  1  0.263960  0.333610  0.243430  1.0  -0.3753
  N  N422  1  0.237380  0.714960  0.911990  1.0  -0.3727
  N  N423  1  0.582870  0.804320  0.762810  1.0  -0.3512
  N  N424  1  0.646000  0.331490  0.500230  1.0  -0.3709
  N  N425  1  0.786840  0.335970  0.573950  1.0  -0.3569
  N  N426  1  0.736040  0.666390  0.743430  1.0  -0.3773
  N  N427  1  0.762620  0.285040  0.411990  1.0  -0.3719
  N  N428  1  0.417130  0.195680  0.262810  1.0  -0.3497
