# generated using pymatgen
data_CePC6SNO7
_symmetry_space_group_name_H-M   'P 1'
_cell_length_a   7.30870000
_cell_length_b   14.56400000
_cell_length_c   6.80790000
_cell_angle_alpha   91.60100000
_cell_angle_beta   93.71700000
_cell_angle_gamma   78.15400000
_symmetry_Int_Tables_number   1
_chemical_formula_structural   CePC6SNO7
_chemical_formula_sum   'Ce2 P2 C12 S2 N2 O14'
_cell_volume   707.65499208
_cell_formula_units_Z   2
loop_
 _symmetry_equiv_pos_site_id
 _symmetry_equiv_pos_as_xyz
  1  'x, y, z'
loop_
 _atom_site_type_symbol
 _atom_site_label
 _atom_site_symmetry_multiplicity
 _atom_site_fract_x
 _atom_site_fract_y
 _atom_site_fract_z
 _atom_site_occupancy
 _atom_site_charge
  Ce  Ce1  1  0.757800  0.499600  0.175300  1.0  2.3748
  Ce  Ce2  1  0.242200  0.500400  0.824700  1.0  2.3744
  P  P3  1  0.793600  0.429000  0.704100  1.0  1.6042
  P  P4  1  0.206400  0.571000  0.295900  1.0  1.6007
  C  C5  1  0.869000  0.306100  0.665000  1.0  -0.1603
  C  C6  1  0.846000  0.143000  0.657000  1.0  0.0086
  C  C7  1  0.020000  0.070400  0.725000  1.0  0.0058
  C  C8  1  0.978000  0.041100  0.927100  1.0  0.0792
  C  C9  1  0.983000  0.127300  0.058300  1.0  -0.0218
  C  C10  1  0.021000  0.202200  0.924000  1.0  0.0265
  C  C11  1  0.131000  0.693900  0.335000  1.0  -0.1637
  C  C12  1  0.154000  0.857000  0.343000  1.0  0.0042
  C  C13  1  0.980000  0.929600  0.275000  1.0  0.0011
  C  C14  1  0.022000  0.958900  0.072900  1.0  0.075
  C  C15  1  0.017000  0.872700  0.941700  1.0  -0.0202
  C  C16  1  0.979000  0.797800  0.076000  1.0  0.0241
  S  S17  1  0.517000  0.703200  0.856000  1.0  1.6835
  S  S18  1  0.483000  0.296800  0.144000  1.0  1.683
  N  N19  1  0.849000  0.226300  0.788000  1.0  0.0999
  N  N20  1  0.151000  0.773700  0.212000  1.0  0.0997
  O  O21  1  0.935300  0.461100  0.853700  1.0  -1.0189
  O  O22  1  0.602800  0.445300  0.790000  1.0  -0.9524
  O  O23  1  0.786000  0.478400  0.508800  1.0  -0.9612
  O  O24  1  0.476000  0.788900  0.966000  1.0  -0.5383
  O  O25  1  0.565000  0.727800  0.666000  1.0  -0.5891
  O  O26  1  0.661000  0.646600  0.990000  1.0  -0.8156
  O  O27  1  0.345000  0.668000  0.834000  1.0  -0.8136
  O  O28  1  0.064700  0.538900  0.146300  1.0  -1.0185
  O  O29  1  0.397200  0.554700  0.210000  1.0  -0.9526
  O  O30  1  0.214000  0.521600  0.491200  1.0  -0.9619
  O  O31  1  0.524000  0.211100  0.034000  1.0  -0.538
  O  O32  1  0.435000  0.272200  0.334000  1.0  -0.5896
  O  O33  1  0.339000  0.353400  0.010000  1.0  -0.8158
  O  O34  1  0.655000  0.332000  0.166000  1.0  -0.8132
