# generated using pymatgen
data_Ag2H3C7NO4
_symmetry_space_group_name_H-M   'P 1'
_cell_length_a   12.88900000
_cell_length_b   15.26600000
_cell_length_c   10.38900000
_cell_angle_alpha   90.00000000
_cell_angle_beta   118.06000000
_cell_angle_gamma   90.00000000
_symmetry_Int_Tables_number   1
_chemical_formula_structural   Ag2H3C7NO4
_chemical_formula_sum   'Ag16 H24 C56 N8 O32'
_cell_volume   1803.89407491
_cell_formula_units_Z   8
loop_
 _symmetry_equiv_pos_site_id
 _symmetry_equiv_pos_as_xyz
  1  'x, y, z'
loop_
 _atom_site_type_symbol
 _atom_site_label
 _atom_site_symmetry_multiplicity
 _atom_site_fract_x
 _atom_site_fract_y
 _atom_site_fract_z
 _atom_site_occupancy
 _atom_site_charge
  Ag  Ag1  1  0.573130  0.680620  0.426410  1.0  0.4168
  Ag  Ag2  1  0.860910  0.350590  0.141040  1.0  0.5047
  Ag  Ag3  1  0.926870  0.180620  0.073590  1.0  0.4162
  Ag  Ag4  1  0.639090  0.850590  0.358960  1.0  0.5057
  Ag  Ag5  1  0.426870  0.319380  0.573590  1.0  0.413
  Ag  Ag6  1  0.139090  0.649410  0.858960  1.0  0.5058
  Ag  Ag7  1  0.073130  0.819380  0.926410  1.0  0.4132
  Ag  Ag8  1  0.360910  0.149410  0.641040  1.0  0.5043
  Ag  Ag9  1  0.073130  0.180620  0.426410  1.0  0.4172
  Ag  Ag10  1  0.360910  0.850590  0.141040  1.0  0.5047
  Ag  Ag11  1  0.426870  0.680620  0.073590  1.0  0.4165
  Ag  Ag12  1  0.139090  0.350590  0.358960  1.0  0.5057
  Ag  Ag13  1  0.926870  0.819380  0.573590  1.0  0.4133
  Ag  Ag14  1  0.639090  0.149410  0.858960  1.0  0.5058
  Ag  Ag15  1  0.573130  0.319380  0.926410  1.0  0.4134
  Ag  Ag16  1  0.860910  0.649410  0.641040  1.0  0.5043
  H  H17  1  0.746300  0.511100  0.238400  1.0  0.0975
  H  H18  1  0.843000  0.741000  0.146300  1.0  0.1304
  H  H19  1  0.916900  0.515200  0.013900  1.0  0.0803
  H  H20  1  0.753700  0.011100  0.261600  1.0  0.0969
  H  H21  1  0.657000  0.241000  0.353700  1.0  0.1308
  H  H22  1  0.583100  0.015200  0.486100  1.0  0.0805
  H  H23  1  0.253700  0.488900  0.761600  1.0  0.0981
  H  H24  1  0.157000  0.259000  0.853700  1.0  0.1316
  H  H25  1  0.083100  0.484800  0.986100  1.0  0.0802
  H  H26  1  0.246300  0.988900  0.738400  1.0  0.0978
  H  H27  1  0.343000  0.759000  0.646300  1.0  0.1315
  H  H28  1  0.416900  0.984800  0.513900  1.0  0.0804
  H  H29  1  0.246300  0.011100  0.238400  1.0  0.0978
  H  H30  1  0.343000  0.241000  0.146300  1.0  0.1304
  H  H31  1  0.416900  0.015200  0.013900  1.0  0.0803
  H  H32  1  0.253700  0.511100  0.261600  1.0  0.0971
  H  H33  1  0.157000  0.741000  0.353700  1.0  0.1308
  H  H34  1  0.083100  0.515200  0.486100  1.0  0.0805
  H  H35  1  0.753700  0.988900  0.761600  1.0  0.0983
  H  H36  1  0.657000  0.759000  0.853700  1.0  0.1316
  H  H37  1  0.583100  0.984800  0.986100  1.0  0.0802
  H  H38  1  0.746300  0.488900  0.738400  1.0  0.0981
  H  H39  1  0.843000  0.259000  0.646300  1.0  0.1315
  H  H40  1  0.916900  0.484800  0.513900  1.0  0.0804
  C  C41  1  0.783400  0.542700  0.195100  1.0  0.1855
  C  C42  1  0.784000  0.633300  0.201600  1.0  -0.1343
  C  C43  1  0.725500  0.679300  0.280100  1.0  0.6865
  C  C44  1  0.839800  0.680200  0.140100  1.0  -0.0136
  C  C45  1  0.891600  0.636000  0.068100  1.0  -0.1311
  C  C46  1  0.884700  0.545500  0.064200  1.0  0.2133
  C  C47  1  0.958400  0.681500  0.000700  1.0  0.7035
  C  C48  1  0.716600  0.042700  0.304900  1.0  0.1846
  C  C49  1  0.716000  0.133300  0.298400  1.0  -0.1335
  C  C50  1  0.774500  0.179300  0.219900  1.0  0.6889
  C  C51  1  0.660200  0.180200  0.359900  1.0  -0.0144
  C  C52  1  0.608400  0.136000  0.431900  1.0  -0.1327
  C  C53  1  0.615300  0.045500  0.435800  1.0  0.2147
  C  C54  1  0.541600  0.181500  0.499300  1.0  0.7032
  C  C55  1  0.216600  0.457300  0.804900  1.0  0.1841
  C  C56  1  0.216000  0.366700  0.798400  1.0  -0.1334
  C  C57  1  0.274500  0.320700  0.719900  1.0  0.6884
  C  C58  1  0.160200  0.319800  0.859900  1.0  -0.0117
  C  C59  1  0.108400  0.364000  0.931900  1.0  -0.1315
  C  C60  1  0.115300  0.454500  0.935800  1.0  0.2141
  C  C61  1  0.041600  0.318500  0.999300  1.0  0.7031
  C  C62  1  0.283400  0.957300  0.695100  1.0  0.1837
  C  C63  1  0.284000  0.866700  0.701600  1.0  -0.1338
  C  C64  1  0.225500  0.820700  0.780100  1.0  0.6865
  C  C65  1  0.339800  0.819800  0.640100  1.0  -0.0121
  C  C66  1  0.391600  0.864000  0.568100  1.0  -0.1324
  C  C67  1  0.384700  0.954500  0.564200  1.0  0.2136
  C  C68  1  0.458400  0.818500  0.500700  1.0  0.7025
  C  C69  1  0.283400  0.042700  0.195100  1.0  0.1855
  C  C70  1  0.284000  0.133300  0.201600  1.0  -0.1343
  C  C71  1  0.225500  0.179300  0.280100  1.0  0.6865
  C  C72  1  0.339800  0.180200  0.140100  1.0  -0.0136
  C  C73  1  0.391600  0.136000  0.068100  1.0  -0.1311
  C  C74  1  0.384700  0.045500  0.064200  1.0  0.2133
  C  C75  1  0.458400  0.181500  0.000700  1.0  0.7035
  C  C76  1  0.216600  0.542700  0.304900  1.0  0.1846
  C  C77  1  0.216000  0.633300  0.298400  1.0  -0.1335
  C  C78  1  0.274500  0.679300  0.219900  1.0  0.6889
  C  C79  1  0.160200  0.680200  0.359900  1.0  -0.0144
  C  C80  1  0.108400  0.636000  0.431900  1.0  -0.1327
  C  C81  1  0.115300  0.545500  0.435800  1.0  0.2147
  C  C82  1  0.041600  0.681500  0.499300  1.0  0.7032
  C  C83  1  0.716600  0.957300  0.804900  1.0  0.1841
  C  C84  1  0.716000  0.866700  0.798400  1.0  -0.1334
  C  C85  1  0.774500  0.820700  0.719900  1.0  0.6884
  C  C86  1  0.660200  0.819800  0.859900  1.0  -0.0117
  C  C87  1  0.608400  0.864000  0.931900  1.0  -0.1315
  C  C88  1  0.615300  0.954500  0.935800  1.0  0.2141
  C  C89  1  0.541600  0.818500  0.999300  1.0  0.7031
  C  C90  1  0.783400  0.457300  0.695100  1.0  0.1837
  C  C91  1  0.784000  0.366700  0.701600  1.0  -0.1338
  C  C92  1  0.725500  0.320700  0.780100  1.0  0.6865
  C  C93  1  0.839800  0.319800  0.640100  1.0  -0.0121
  C  C94  1  0.891600  0.364000  0.568100  1.0  -0.1324
  C  C95  1  0.884700  0.454500  0.564200  1.0  0.2136
  C  C96  1  0.958400  0.318500  0.500700  1.0  0.7025
  N  N97  1  0.834500  0.499500  0.128400  1.0  -0.3311
  N  N98  1  0.665500  0.999500  0.371600  1.0  -0.3298
  N  N99  1  0.165500  0.500500  0.871600  1.0  -0.3303
  N  N100  1  0.334500  0.000500  0.628400  1.0  -0.3323
  N  N101  1  0.334500  0.999500  0.128400  1.0  -0.3311
  N  N102  1  0.165500  0.499500  0.371600  1.0  -0.3298
  N  N103  1  0.665500  0.000500  0.871600  1.0  -0.3303
  N  N104  1  0.834500  0.500500  0.628400  1.0  -0.3323
  O  O105  1  0.666900  0.631700  0.319200  1.0  -0.5966
  O  O106  1  0.741700  0.759100  0.297300  1.0  -0.5804
  O  O107  1  0.970300  0.762000  0.020300  1.0  -0.5663
  O  O108  1  0.997000  0.635100  0.934100  1.0  -0.6659
  O  O109  1  0.833100  0.131700  0.180800  1.0  -0.5981
  O  O110  1  0.758300  0.259100  0.202700  1.0  -0.5801
  O  O111  1  0.529700  0.262000  0.479700  1.0  -0.5657
  O  O112  1  0.503000  0.135100  0.565900  1.0  -0.6666
  O  O113  1  0.333100  0.368300  0.680800  1.0  -0.5985
  O  O114  1  0.258300  0.240900  0.702700  1.0  -0.58
  O  O115  1  0.029700  0.238000  0.979700  1.0  -0.5641
  O  O116  1  0.003000  0.364900  0.065900  1.0  -0.6661
  O  O117  1  0.166900  0.868300  0.819200  1.0  -0.598
  O  O118  1  0.241700  0.740900  0.797300  1.0  -0.5798
  O  O119  1  0.470300  0.738000  0.520300  1.0  -0.564
  O  O120  1  0.497000  0.864900  0.434100  1.0  -0.6661
  O  O121  1  0.166900  0.131700  0.319200  1.0  -0.5958
  O  O122  1  0.241700  0.259100  0.297300  1.0  -0.5804
  O  O123  1  0.470300  0.262000  0.020300  1.0  -0.5663
  O  O124  1  0.497000  0.135100  0.934100  1.0  -0.6659
  O  O125  1  0.333100  0.631700  0.180800  1.0  -0.5973
  O  O126  1  0.258300  0.759100  0.202700  1.0  -0.5801
  O  O127  1  0.029700  0.762000  0.479700  1.0  -0.5657
  O  O128  1  0.003000  0.635100  0.565900  1.0  -0.6666
  O  O129  1  0.833100  0.868300  0.680800  1.0  -0.5979
  O  O130  1  0.758300  0.740900  0.702700  1.0  -0.58
  O  O131  1  0.529700  0.738000  0.979700  1.0  -0.5641
  O  O132  1  0.503000  0.864900  0.065900  1.0  -0.6661
  O  O133  1  0.666900  0.368300  0.819200  1.0  -0.5974
  O  O134  1  0.741700  0.240900  0.797300  1.0  -0.5798
  O  O135  1  0.970300  0.238000  0.520300  1.0  -0.564
  O  O136  1  0.997000  0.364900  0.434100  1.0  -0.6661
