# generated using pymatgen
data_CaH26C18(NO2)4
_symmetry_space_group_name_H-M   'P 1'
_cell_length_a   11.80510000
_cell_length_b   14.15080000
_cell_length_c   7.69150000
_cell_angle_alpha   90.00000000
_cell_angle_beta   91.03800000
_cell_angle_gamma   90.00000000
_symmetry_Int_Tables_number   1
_chemical_formula_structural   CaH26C18(NO2)4
_chemical_formula_sum   'Ca2 H52 C36 N8 O16'
_cell_volume   1284.66660334
_cell_formula_units_Z   2
loop_
 _symmetry_equiv_pos_site_id
 _symmetry_equiv_pos_as_xyz
  1  'x, y, z'
loop_
 _atom_site_type_symbol
 _atom_site_label
 _atom_site_symmetry_multiplicity
 _atom_site_fract_x
 _atom_site_fract_y
 _atom_site_fract_z
 _atom_site_occupancy
 _atom_site_charge
  Ca  Ca1  1  0.500000  0.468190  0.750000  1.0  1.2439
  Ca  Ca2  1  0.500000  0.531810  0.250000  1.0  1.2431
  H  H3  1  0.338700  0.272700  0.549800  1.0  0.0607
  H  H4  1  0.225400  0.318900  0.481300  1.0  0.088
  H  H5  1  0.418900  0.136000  0.375400  1.0  0.084
  H  H6  1  0.361200  0.044800  0.118700  1.0  0.1076
  H  H7  1  0.165800  0.273200  0.158300  1.0  0.0952
  H  H8  1  0.233200  0.100900  0.840200  1.0  0.0867
  H  H9  1  0.150400  0.186400  0.865000  1.0  0.0776
  H  H10  1  0.969800  0.162700  0.996700  1.0  0.0957
  H  H11  1  0.821200  0.055200  0.061600  1.0  0.0643
  H  H12  1  0.389100  0.282000  0.816100  1.0  0.1754
  H  H13  1  0.454100  0.319200  0.953500  1.0  0.1803
  H  H14  1  0.241100  0.398200  0.885200  1.0  0.1394
  H  H15  1  0.347600  0.427800  0.934000  1.0  0.129
  H  H16  1  0.661300  0.272700  0.950200  1.0  0.0611
  H  H17  1  0.774600  0.318900  0.018700  1.0  0.0864
  H  H18  1  0.581100  0.136000  0.124600  1.0  0.0865
  H  H19  1  0.638800  0.044800  0.381300  1.0  0.1084
  H  H20  1  0.834200  0.273200  0.341700  1.0  0.0943
  H  H21  1  0.766800  0.100900  0.659800  1.0  0.0871
  H  H22  1  0.849600  0.186400  0.635000  1.0  0.0753
  H  H23  1  0.030200  0.162700  0.503300  1.0  0.0955
  H  H24  1  0.178800  0.055200  0.438400  1.0  0.0643
  H  H25  1  0.610900  0.282000  0.683900  1.0  0.1777
  H  H26  1  0.545900  0.319200  0.546500  1.0  0.1811
  H  H27  1  0.758900  0.398200  0.614800  1.0  0.1391
  H  H28  1  0.652400  0.427800  0.566000  1.0  0.1283
  H  H29  1  0.661300  0.727300  0.450200  1.0  0.0615
  H  H30  1  0.774600  0.681100  0.518700  1.0  0.0861
  H  H31  1  0.581100  0.864000  0.624600  1.0  0.0869
  H  H32  1  0.638800  0.955200  0.881300  1.0  0.1095
  H  H33  1  0.834200  0.726800  0.841700  1.0  0.0945
  H  H34  1  0.766800  0.899100  0.159800  1.0  0.0875
  H  H35  1  0.849600  0.813600  0.135000  1.0  0.078
  H  H36  1  0.030200  0.837300  0.003300  1.0  0.0948
  H  H37  1  0.178800  0.944800  0.938400  1.0  0.0646
  H  H38  1  0.610900  0.718000  0.183900  1.0  0.1793
  H  H39  1  0.545900  0.680800  0.046500  1.0  0.1818
  H  H40  1  0.758900  0.601800  0.114800  1.0  0.139
  H  H41  1  0.652400  0.572200  0.066000  1.0  0.1279
  H  H42  1  0.338700  0.727300  0.049800  1.0  0.0593
  H  H43  1  0.225400  0.681100  0.981300  1.0  0.0889
  H  H44  1  0.418900  0.864000  0.875400  1.0  0.0861
  H  H45  1  0.361200  0.955200  0.618700  1.0  0.1079
  H  H46  1  0.165800  0.726800  0.658300  1.0  0.0935
  H  H47  1  0.233200  0.899100  0.340200  1.0  0.0868
  H  H48  1  0.150400  0.813600  0.365000  1.0  0.0773
  H  H49  1  0.969800  0.837300  0.496700  1.0  0.0947
  H  H50  1  0.821200  0.944800  0.561600  1.0  0.0642
  H  H51  1  0.389100  0.718000  0.316100  1.0  0.1809
  H  H52  1  0.454100  0.680800  0.453500  1.0  0.1804
  H  H53  1  0.241100  0.601800  0.385200  1.0  0.1406
  H  H54  1  0.347600  0.572200  0.434000  1.0  0.1291
  C  C55  1  0.366300  0.380700  0.377200  1.0  0.6825
  C  C56  1  0.300100  0.297800  0.447500  1.0  -0.1395
  C  C57  1  0.359200  0.150700  0.299600  1.0  -0.0405
  C  C58  1  0.330900  0.101500  0.157400  1.0  -0.1783
  C  C59  1  0.220900  0.227500  0.179600  1.0  0.0635
  C  C60  1  0.181300  0.130200  0.920300  1.0  -0.0797
  C  C61  1  0.086200  0.062300  0.958900  1.0  -0.0068
  C  C62  1  0.982700  0.097900  0.996900  1.0  -0.1053
  C  C63  1  0.893200  0.032600  0.037600  1.0  -0.1083
  C  C64  1  0.633700  0.380700  0.122800  1.0  0.6845
  C  C65  1  0.699900  0.297800  0.052500  1.0  -0.1396
  C  C66  1  0.640800  0.150700  0.200400  1.0  -0.0347
  C  C67  1  0.669100  0.101500  0.342600  1.0  -0.1767
  C  C68  1  0.779100  0.227500  0.320400  1.0  0.0657
  C  C69  1  0.818700  0.130200  0.579700  1.0  -0.0786
  C  C70  1  0.913800  0.062300  0.541100  1.0  -0.0078
  C  C71  1  0.017300  0.097900  0.503100  1.0  -0.1115
  C  C72  1  0.106800  0.032600  0.462400  1.0  -0.1081
  C  C73  1  0.633700  0.619300  0.622800  1.0  0.685
  C  C74  1  0.699900  0.702200  0.552500  1.0  -0.1396
  C  C75  1  0.640800  0.849300  0.700400  1.0  -0.0345
  C  C76  1  0.669100  0.898500  0.842600  1.0  -0.1772
  C  C77  1  0.779100  0.772500  0.820400  1.0  0.0662
  C  C78  1  0.818700  0.869800  0.079700  1.0  -0.08
  C  C79  1  0.913800  0.937700  0.041100  1.0  -0.0078
  C  C80  1  0.017300  0.902100  0.003100  1.0  -0.1088
  C  C81  1  0.106800  0.967400  0.962400  1.0  -0.1088
  C  C82  1  0.366300  0.619300  0.877200  1.0  0.6823
  C  C83  1  0.300100  0.702200  0.947500  1.0  -0.1392
  C  C84  1  0.359200  0.849300  0.799600  1.0  -0.0348
  C  C85  1  0.330900  0.898500  0.657400  1.0  -0.179
  C  C86  1  0.220900  0.772500  0.679600  1.0  0.0611
  C  C87  1  0.181300  0.869800  0.420300  1.0  -0.0793
  C  C88  1  0.086200  0.937700  0.458900  1.0  -0.0071
  C  C89  1  0.982700  0.902100  0.496900  1.0  -0.1052
  C  C90  1  0.893200  0.967400  0.537600  1.0  -0.1088
  N  N91  1  0.288800  0.224300  0.317100  1.0  0.0345
  N  N92  1  0.243000  0.157000  0.079000  1.0  0.0214
  N  N93  1  0.711200  0.224300  0.182900  1.0  0.0345
  N  N94  1  0.757000  0.157000  0.421000  1.0  0.0233
  N  N95  1  0.711200  0.775700  0.682900  1.0  0.0343
  N  N96  1  0.757000  0.843000  0.921000  1.0  0.0233
  N  N97  1  0.288800  0.775700  0.817100  1.0  0.0345
  N  N98  1  0.243000  0.843000  0.579000  1.0  0.0216
  O  O99  1  0.376600  0.392700  0.223100  1.0  -0.6531
  O  O100  1  0.404300  0.438700  0.488400  1.0  -0.6993
  O  O101  1  0.405800  0.332900  0.869900  1.0  -0.3517
  O  O102  1  0.323700  0.385300  0.863800  1.0  -0.4509
  O  O103  1  0.623400  0.392700  0.276900  1.0  -0.6532
  O  O104  1  0.595700  0.438700  0.011600  1.0  -0.6971
  O  O105  1  0.594200  0.332900  0.630100  1.0  -0.3518
  O  O106  1  0.676300  0.385300  0.636200  1.0  -0.4572
  O  O107  1  0.623400  0.607300  0.776900  1.0  -0.653
  O  O108  1  0.595700  0.561300  0.511600  1.0  -0.6983
  O  O109  1  0.594200  0.667100  0.130100  1.0  -0.3508
  O  O110  1  0.676300  0.614700  0.136200  1.0  -0.4564
  O  O111  1  0.376600  0.607300  0.723100  1.0  -0.6534
  O  O112  1  0.404300  0.561300  0.988400  1.0  -0.702
  O  O113  1  0.405800  0.667100  0.369900  1.0  -0.3512
  O  O114  1  0.323700  0.614700  0.363800  1.0  -0.4502
