# generated using pymatgen
data_EuH6C12(SO2)3
_symmetry_space_group_name_H-M   'P 1'
_cell_length_a   10.15000000
_cell_length_b   11.07840000
_cell_length_c   13.87800000
_cell_angle_alpha   107.37300000
_cell_angle_beta   92.24200000
_cell_angle_gamma   115.04200000
_symmetry_Int_Tables_number   1
_chemical_formula_structural   EuH6C12(SO2)3
_chemical_formula_sum   'Eu2 H12 C24 S6 O12'
_cell_volume   1324.38259719
_cell_formula_units_Z   2
loop_
 _symmetry_equiv_pos_site_id
 _symmetry_equiv_pos_as_xyz
  1  'x, y, z'
loop_
 _atom_site_type_symbol
 _atom_site_label
 _atom_site_symmetry_multiplicity
 _atom_site_fract_x
 _atom_site_fract_y
 _atom_site_fract_z
 _atom_site_occupancy
 _atom_site_charge
  Eu  Eu1  1  0.441530  0.453460  0.347880  1.0  2.1213
  Eu  Eu2  1  0.558470  0.546540  0.652120  1.0  2.1205
  H  H3  1  0.775600  0.893300  0.388500  1.0  0.1362
  H  H4  1  0.161300  0.486900  0.389200  1.0  0.1012
  H  H5  1  0.964300  0.178300  0.115400  1.0  0.1192
  H  H6  1  0.949200  0.806500  0.690700  1.0  0.073
  H  H7  1  0.993800  0.581500  0.780800  1.0  0.0772
  H  H8  1  0.398300  0.086900  0.086500  1.0  0.1402
  H  H9  1  0.224400  0.106700  0.611500  1.0  0.1348
  H  H10  1  0.838700  0.513100  0.610800  1.0  0.1017
  H  H11  1  0.035700  0.821700  0.884600  1.0  0.1201
  H  H12  1  0.050800  0.193500  0.309300  1.0  0.0741
  H  H13  1  0.006200  0.418500  0.219200  1.0  0.0765
  H  H14  1  0.601700  0.913100  0.913500  1.0  0.1395
  C  C15  1  0.740000  0.757600  0.513300  1.0  0.7813
  C  C16  1  0.878100  0.882800  0.510700  1.0  -0.1126
  C  C17  1  0.867600  0.937100  0.434700  1.0  -0.0137
  C  C18  1  0.014900  0.947000  0.577700  1.0  -0.1301
  C  C19  1  0.301600  0.564800  0.574400  1.0  0.7033
  C  C20  1  0.146200  0.534100  0.538600  1.0  -0.1114
  C  C21  1  0.095100  0.492900  0.434800  1.0  -0.027
  C  C22  1  0.048300  0.540400  0.606900  1.0  -0.1356
  C  C23  1  0.231800  0.226900  0.172100  1.0  0.7062
  C  C24  1  0.116100  0.107000  0.081900  1.0  -0.106
  C  C25  1  0.138900  0.999400  0.011700  1.0  -0.1315
  C  C26  1  0.978900  0.105000  0.068100  1.0  -0.0113
  C  C27  1  0.260000  0.242400  0.486700  1.0  0.7794
  C  C28  1  0.121900  0.117200  0.489300  1.0  -0.1149
  C  C29  1  0.132400  0.062900  0.565300  1.0  -0.0128
  C  C30  1  0.985100  0.053000  0.422300  1.0  -0.1327
  C  C31  1  0.698400  0.435200  0.425600  1.0  0.7019
  C  C32  1  0.853800  0.465900  0.461400  1.0  -0.1092
  C  C33  1  0.904900  0.507100  0.565200  1.0  -0.0269
  C  C34  1  0.951700  0.459600  0.393100  1.0  -0.1411
  C  C35  1  0.768200  0.773100  0.827900  1.0  0.7048
  C  C36  1  0.883900  0.893000  0.918100  1.0  -0.1016
  C  C37  1  0.861100  0.000600  0.988300  1.0  -0.1315
  C  C38  1  0.021100  0.895000  0.931900  1.0  -0.0107
  S  S39  1  0.060660  0.888900  0.673970  1.0  -0.1372
  S  S40  1  0.099240  0.589710  0.741750  1.0  -0.0143
  S  S41  1  0.308300  0.989750  0.014810  1.0  -0.1114
  S  S42  1  0.939340  0.111100  0.326030  1.0  -0.1335
  S  S43  1  0.900760  0.410290  0.258250  1.0  -0.0174
  S  S44  1  0.691700  0.010250  0.985190  1.0  -0.1078
  O  O45  1  0.651500  0.681200  0.428700  1.0  -0.6789
  O  O46  1  0.721200  0.737800  0.597700  1.0  -0.6418
  O  O47  1  0.346200  0.596000  0.668500  1.0  -0.6398
  O  O48  1  0.385100  0.553800  0.510200  1.0  -0.7707
  O  O49  1  0.205500  0.327000  0.222000  1.0  -0.6214
  O  O50  1  0.351600  0.224300  0.197000  1.0  -0.5605
  O  O51  1  0.348500  0.318800  0.571300  1.0  -0.6774
  O  O52  1  0.278800  0.262200  0.402300  1.0  -0.6432
  O  O53  1  0.653800  0.404000  0.331500  1.0  -0.637
  O  O54  1  0.614900  0.446200  0.489800  1.0  -0.7731
  O  O55  1  0.794500  0.673000  0.778000  1.0  -0.6222
  O  O56  1  0.648400  0.775700  0.803000  1.0  -0.5642
