# generated using pymatgen
data_ZnH6C7(N3O)2
_symmetry_space_group_name_H-M   'P 1'
_cell_length_a   17.16000000
_cell_length_b   16.78700000
_cell_length_c   10.07200000
_cell_angle_alpha   90.00000000
_cell_angle_beta   120.77000000
_cell_angle_gamma   90.00000000
_symmetry_Int_Tables_number   1
_chemical_formula_structural   ZnH6C7(N3O)2
_chemical_formula_sum   'Zn8 H48 C56 N48 O16'
_cell_volume   2492.95508286
_cell_formula_units_Z   8
loop_
 _symmetry_equiv_pos_site_id
 _symmetry_equiv_pos_as_xyz
  1  'x, y, z'
loop_
 _atom_site_type_symbol
 _atom_site_label
 _atom_site_symmetry_multiplicity
 _atom_site_fract_x
 _atom_site_fract_y
 _atom_site_fract_z
 _atom_site_occupancy
 _atom_site_charge
  Zn  Zn1  1  0.251280  0.102370  0.845690  1.0  0.7887
  Zn  Zn2  1  0.751280  0.602370  0.845690  1.0  0.789
  Zn  Zn3  1  0.251280  0.897630  0.345690  1.0  0.7892
  Zn  Zn4  1  0.751280  0.397630  0.345690  1.0  0.7894
  Zn  Zn5  1  0.748720  0.102370  0.654310  1.0  0.7881
  Zn  Zn6  1  0.248720  0.602370  0.654310  1.0  0.7884
  Zn  Zn7  1  0.748720  0.897630  0.154310  1.0  0.7882
  Zn  Zn8  1  0.248720  0.397630  0.154310  1.0  0.7885
  H  H9  1  0.606700  0.132100  0.177500  1.0  0.1057
  H  H10  1  0.720900  0.224000  0.301100  1.0  0.0884
  H  H11  1  0.546900  0.399600  0.138500  1.0  0.0764
  H  H12  1  0.427900  0.312000  0.011700  1.0  0.1157
  H  H13  1  0.404000  0.974000  0.273000  1.0  0.322
  H  H14  1  0.404000  0.010000  0.144000  1.0  0.3444
  H  H15  1  0.106700  0.632100  0.177500  1.0  0.1057
  H  H16  1  0.220900  0.724000  0.301100  1.0  0.0884
  H  H17  1  0.046900  0.899600  0.138500  1.0  0.0764
  H  H18  1  0.927900  0.812000  0.011700  1.0  0.1157
  H  H19  1  0.904000  0.474000  0.273000  1.0  0.322
  H  H20  1  0.904000  0.510000  0.144000  1.0  0.3444
  H  H21  1  0.606700  0.867900  0.677500  1.0  0.1057
  H  H22  1  0.720900  0.776000  0.801100  1.0  0.0884
  H  H23  1  0.546900  0.600400  0.638500  1.0  0.0768
  H  H24  1  0.427900  0.688000  0.511700  1.0  0.1154
  H  H25  1  0.404000  0.026000  0.773000  1.0  0.3203
  H  H26  1  0.404000  0.990000  0.644000  1.0  0.3447
  H  H27  1  0.106700  0.367900  0.677500  1.0  0.1057
  H  H28  1  0.220900  0.276000  0.801100  1.0  0.0884
  H  H29  1  0.046900  0.100400  0.638500  1.0  0.0768
  H  H30  1  0.927900  0.188000  0.511700  1.0  0.1154
  H  H31  1  0.904000  0.526000  0.773000  1.0  0.3203
  H  H32  1  0.904000  0.490000  0.644000  1.0  0.3447
  H  H33  1  0.393300  0.132100  0.322500  1.0  0.1054
  H  H34  1  0.279100  0.224000  0.198900  1.0  0.0897
  H  H35  1  0.453100  0.399600  0.361500  1.0  0.0767
  H  H36  1  0.572100  0.312000  0.488300  1.0  0.116
  H  H37  1  0.596000  0.974000  0.227000  1.0  0.3213
  H  H38  1  0.596000  0.010000  0.356000  1.0  0.3457
  H  H39  1  0.893300  0.632100  0.322500  1.0  0.1054
  H  H40  1  0.779100  0.724000  0.198900  1.0  0.0897
  H  H41  1  0.953100  0.899600  0.361500  1.0  0.0767
  H  H42  1  0.072100  0.812000  0.488300  1.0  0.116
  H  H43  1  0.096000  0.474000  0.227000  1.0  0.3213
  H  H44  1  0.096000  0.510000  0.356000  1.0  0.3457
  H  H45  1  0.393300  0.867900  0.822500  1.0  0.106
  H  H46  1  0.279100  0.776000  0.698900  1.0  0.0896
  H  H47  1  0.453100  0.600400  0.861500  1.0  0.0772
  H  H48  1  0.572100  0.688000  0.988300  1.0  0.116
  H  H49  1  0.596000  0.026000  0.727000  1.0  0.3207
  H  H50  1  0.596000  0.990000  0.856000  1.0  0.3461
  H  H51  1  0.893300  0.367900  0.822500  1.0  0.106
  H  H52  1  0.779100  0.276000  0.698900  1.0  0.0896
  H  H53  1  0.953100  0.100400  0.861500  1.0  0.0772
  H  H54  1  0.072100  0.188000  0.988300  1.0  0.116
  H  H55  1  0.096000  0.526000  0.727000  1.0  0.3207
  H  H56  1  0.096000  0.490000  0.856000  1.0  0.3461
  C  C57  1  0.428430  0.152080  0.003000  1.0  0.6574
  C  C58  1  0.504120  0.212020  0.081300  1.0  -0.1041
  C  C59  1  0.593160  0.186220  0.168800  1.0  -0.1146
  C  C60  1  0.661290  0.241680  0.242700  1.0  0.1925
  C  C61  1  0.558750  0.345160  0.147100  1.0  0.1703
  C  C62  1  0.486920  0.292940  0.070200  1.0  -0.1087
  C  C63  1  0.288540  0.003230  0.132500  1.0  0.5958
  C  C64  1  0.928430  0.652080  0.003000  1.0  0.6574
  C  C65  1  0.004120  0.712020  0.081300  1.0  -0.1041
  C  C66  1  0.093160  0.686220  0.168800  1.0  -0.1146
  C  C67  1  0.161290  0.741680  0.242700  1.0  0.1925
  C  C68  1  0.058750  0.845160  0.147100  1.0  0.1703
  C  C69  1  0.986920  0.792940  0.070200  1.0  -0.1087
  C  C70  1  0.788540  0.503230  0.132500  1.0  0.5958
  C  C71  1  0.428430  0.847920  0.503000  1.0  0.6577
  C  C72  1  0.504120  0.787980  0.581300  1.0  -0.1023
  C  C73  1  0.593160  0.813780  0.668800  1.0  -0.1146
  C  C74  1  0.661290  0.758320  0.742700  1.0  0.1915
  C  C75  1  0.558750  0.654840  0.647100  1.0  0.1681
  C  C76  1  0.486920  0.707060  0.570200  1.0  -0.1082
  C  C77  1  0.288540  0.996770  0.632500  1.0  0.5957
  C  C78  1  0.928430  0.347920  0.503000  1.0  0.6577
  C  C79  1  0.004120  0.287980  0.581300  1.0  -0.1023
  C  C80  1  0.093160  0.313780  0.668800  1.0  -0.1146
  C  C81  1  0.161290  0.258320  0.742700  1.0  0.1915
  C  C82  1  0.058750  0.154840  0.647100  1.0  0.1681
  C  C83  1  0.986920  0.207060  0.570200  1.0  -0.1082
  C  C84  1  0.788540  0.496770  0.632500  1.0  0.5957
  C  C85  1  0.571570  0.152080  0.497000  1.0  0.658
  C  C86  1  0.495880  0.212020  0.418700  1.0  -0.1043
  C  C87  1  0.406840  0.186220  0.331200  1.0  -0.1141
  C  C88  1  0.338710  0.241680  0.257300  1.0  0.1902
  C  C89  1  0.441250  0.345160  0.352900  1.0  0.1695
  C  C90  1  0.513080  0.292940  0.429800  1.0  -0.1112
  C  C91  1  0.711460  0.003230  0.367500  1.0  0.5948
  C  C92  1  0.071570  0.652080  0.497000  1.0  0.658
  C  C93  1  0.995880  0.712020  0.418700  1.0  -0.1043
  C  C94  1  0.906840  0.686220  0.331200  1.0  -0.1141
  C  C95  1  0.838710  0.741680  0.257300  1.0  0.1902
  C  C96  1  0.941250  0.845160  0.352900  1.0  0.1695
  C  C97  1  0.013080  0.792940  0.429800  1.0  -0.1112
  C  C98  1  0.211460  0.503230  0.367500  1.0  0.5948
  C  C99  1  0.571570  0.847920  0.997000  1.0  0.6582
  C  C100  1  0.495880  0.787980  0.918700  1.0  -0.1046
  C  C101  1  0.406840  0.813780  0.831200  1.0  -0.1153
  C  C102  1  0.338710  0.758320  0.757300  1.0  0.19
  C  C103  1  0.441250  0.654840  0.852900  1.0  0.1689
  C  C104  1  0.513080  0.707060  0.929800  1.0  -0.1105
  C  C105  1  0.711460  0.996770  0.867500  1.0  0.5944
  C  C106  1  0.071570  0.347920  0.997000  1.0  0.6582
  C  C107  1  0.995880  0.287980  0.918700  1.0  -0.1046
  C  C108  1  0.906840  0.313780  0.831200  1.0  -0.1153
  C  C109  1  0.838710  0.258320  0.757300  1.0  0.19
  C  C110  1  0.941250  0.154840  0.852900  1.0  0.1689
  C  C111  1  0.013080  0.207060  0.929800  1.0  -0.1105
  C  C112  1  0.211460  0.496770  0.867500  1.0  0.5944
  N  N113  1  0.376810  0.984730  0.188200  1.0  -0.6554
  N  N114  1  0.237530  0.049520  0.009600  1.0  -0.3534
  N  N115  1  0.153350  0.051170  0.994100  1.0  -0.128
  N  N116  1  0.154350  0.009310  0.101200  1.0  -0.1177
  N  N117  1  0.239300  0.977500  0.192300  1.0  -0.3436
  N  N118  1  0.644870  0.320470  0.233500  1.0  -0.3516
  N  N119  1  0.876810  0.484730  0.188200  1.0  -0.6554
  N  N120  1  0.737530  0.549520  0.009600  1.0  -0.3534
  N  N121  1  0.653350  0.551170  0.994100  1.0  -0.128
  N  N122  1  0.654350  0.509310  0.101200  1.0  -0.1177
  N  N123  1  0.739300  0.477500  0.192300  1.0  -0.3436
  N  N124  1  0.144870  0.820470  0.233500  1.0  -0.3516
  N  N125  1  0.376810  0.015270  0.688200  1.0  -0.6538
  N  N126  1  0.237530  0.950480  0.509600  1.0  -0.3536
  N  N127  1  0.153350  0.948830  0.494100  1.0  -0.1285
  N  N128  1  0.154350  0.990690  0.601200  1.0  -0.1178
  N  N129  1  0.239300  0.022500  0.692300  1.0  -0.3442
  N  N130  1  0.644870  0.679530  0.733500  1.0  -0.3517
  N  N131  1  0.876810  0.515270  0.688200  1.0  -0.6538
  N  N132  1  0.737530  0.450480  0.509600  1.0  -0.3536
  N  N133  1  0.653350  0.448830  0.494100  1.0  -0.1285
  N  N134  1  0.654350  0.490690  0.601200  1.0  -0.1178
  N  N135  1  0.739300  0.522500  0.692300  1.0  -0.3442
  N  N136  1  0.144870  0.179530  0.733500  1.0  -0.3517
  N  N137  1  0.623190  0.984730  0.311800  1.0  -0.6525
  N  N138  1  0.762470  0.049520  0.490400  1.0  -0.3519
  N  N139  1  0.846650  0.051170  0.505900  1.0  -0.13
  N  N140  1  0.845650  0.009310  0.398800  1.0  -0.1174
  N  N141  1  0.760700  0.977500  0.307700  1.0  -0.3431
  N  N142  1  0.355130  0.320470  0.266500  1.0  -0.3506
  N  N143  1  0.123190  0.484730  0.311800  1.0  -0.6525
  N  N144  1  0.262470  0.549520  0.490400  1.0  -0.3519
  N  N145  1  0.346650  0.551170  0.505900  1.0  -0.13
  N  N146  1  0.345650  0.509310  0.398800  1.0  -0.1174
  N  N147  1  0.260700  0.477500  0.307700  1.0  -0.3431
  N  N148  1  0.855130  0.820470  0.266500  1.0  -0.3506
  N  N149  1  0.623190  0.015270  0.811800  1.0  -0.6523
  N  N150  1  0.762470  0.950480  0.990400  1.0  -0.3515
  N  N151  1  0.846650  0.948830  0.005900  1.0  -0.1305
  N  N152  1  0.845650  0.990690  0.898800  1.0  -0.1169
  N  N153  1  0.760700  0.022500  0.807700  1.0  -0.3434
  N  N154  1  0.355130  0.679530  0.766500  1.0  -0.351
  N  N155  1  0.123190  0.515270  0.811800  1.0  -0.6523
  N  N156  1  0.262470  0.450480  0.990400  1.0  -0.3515
  N  N157  1  0.346650  0.448830  0.005900  1.0  -0.1305
  N  N158  1  0.345650  0.490690  0.898800  1.0  -0.1169
  N  N159  1  0.260700  0.522500  0.807700  1.0  -0.3434
  N  N160  1  0.855130  0.179530  0.766500  1.0  -0.351
  O  O161  1  0.348600  0.180820  0.926300  1.0  -0.599
  O  O162  1  0.445810  0.080070  0.017800  1.0  -0.582
  O  O163  1  0.848600  0.680820  0.926300  1.0  -0.599
  O  O164  1  0.945810  0.580070  0.017800  1.0  -0.582
  O  O165  1  0.348600  0.819180  0.426300  1.0  -0.5986
  O  O166  1  0.445810  0.919930  0.517800  1.0  -0.5821
  O  O167  1  0.848600  0.319180  0.426300  1.0  -0.5986
  O  O168  1  0.945810  0.419930  0.517800  1.0  -0.5821
  O  O169  1  0.651400  0.180820  0.573700  1.0  -0.5982
  O  O170  1  0.554190  0.080070  0.482200  1.0  -0.5809
  O  O171  1  0.151400  0.680820  0.573700  1.0  -0.5982
  O  O172  1  0.054190  0.580070  0.482200  1.0  -0.5809
  O  O173  1  0.651400  0.819180  0.073700  1.0  -0.5968
  O  O174  1  0.554190  0.919930  0.982200  1.0  -0.5812
  O  O175  1  0.151400  0.319180  0.073700  1.0  -0.5968
  O  O176  1  0.054190  0.419930  0.982200  1.0  -0.5812
