# generated using pymatgen
data_Fe3P4H4(O6F)2
_symmetry_space_group_name_H-M   'P 1'
_cell_length_a   12.87700000
_cell_length_b   12.17000000
_cell_length_c   12.15900000
_cell_angle_alpha   90.00000000
_cell_angle_beta   93.99000000
_cell_angle_gamma   90.00000000
_symmetry_Int_Tables_number   1
_chemical_formula_structural   Fe3P4H4(O6F)2
_chemical_formula_sum   'Fe12 P16 H16 O48 F8'
_cell_volume   1900.85599111
_cell_formula_units_Z   4
loop_
 _symmetry_equiv_pos_site_id
 _symmetry_equiv_pos_as_xyz
  1  'x, y, z'
loop_
 _atom_site_type_symbol
 _atom_site_label
 _atom_site_symmetry_multiplicity
 _atom_site_fract_x
 _atom_site_fract_y
 _atom_site_fract_z
 _atom_site_occupancy
 _atom_site_charge
  Fe  Fe1  1  0.248940  0.040670  0.202730  1.0  1.1484
  Fe  Fe2  1  0.748940  0.540670  0.202730  1.0  1.1484
  Fe  Fe3  1  0.751060  0.040670  0.297270  1.0  1.1501
  Fe  Fe4  1  0.251060  0.540670  0.297270  1.0  1.1501
  Fe  Fe5  1  0.751060  0.959330  0.797270  1.0  1.15
  Fe  Fe6  1  0.251060  0.459330  0.797270  1.0  1.15
  Fe  Fe7  1  0.248940  0.959330  0.702730  1.0  1.1483
  Fe  Fe8  1  0.748940  0.459330  0.702730  1.0  1.1483
  Fe  Fe9  1  0.000000  0.911570  0.250000  1.0  1.399
  Fe  Fe10  1  0.500000  0.411570  0.250000  1.0  1.399
  Fe  Fe11  1  0.000000  0.088430  0.750000  1.0  1.3997
  Fe  Fe12  1  0.500000  0.588430  0.750000  1.0  1.3997
  P  P13  1  0.202350  0.775350  0.176330  1.0  1.6317
  P  P14  1  0.824890  0.978890  0.055900  1.0  1.5915
  P  P15  1  0.702350  0.275350  0.176330  1.0  1.6317
  P  P16  1  0.324890  0.478890  0.055900  1.0  1.5915
  P  P17  1  0.797650  0.775350  0.323670  1.0  1.6339
  P  P18  1  0.175110  0.978890  0.444100  1.0  1.5907
  P  P19  1  0.297650  0.275350  0.323670  1.0  1.6339
  P  P20  1  0.675110  0.478890  0.444100  1.0  1.5907
  P  P21  1  0.797650  0.224650  0.823670  1.0  1.634
  P  P22  1  0.175110  0.021110  0.944100  1.0  1.5936
  P  P23  1  0.297650  0.724650  0.823670  1.0  1.634
  P  P24  1  0.675110  0.521110  0.944100  1.0  1.5936
  P  P25  1  0.202350  0.224650  0.676330  1.0  1.6303
  P  P26  1  0.824890  0.021110  0.555900  1.0  1.5942
  P  P27  1  0.702350  0.724650  0.676330  1.0  1.6303
  P  P28  1  0.324890  0.521110  0.555900  1.0  1.5942
  H  H29  1  0.202000  0.721000  0.075000  1.0  -0.042
  H  H30  1  0.865000  0.074000  0.025000  1.0  -0.0894
  H  H31  1  0.702000  0.221000  0.075000  1.0  -0.042
  H  H32  1  0.365000  0.574000  0.025000  1.0  -0.0894
  H  H33  1  0.798000  0.721000  0.425000  1.0  -0.0484
  H  H34  1  0.135000  0.074000  0.475000  1.0  -0.0905
  H  H35  1  0.298000  0.221000  0.425000  1.0  -0.0484
  H  H36  1  0.635000  0.574000  0.475000  1.0  -0.0905
  H  H37  1  0.798000  0.279000  0.925000  1.0  -0.0484
  H  H38  1  0.135000  0.926000  0.975000  1.0  -0.0916
  H  H39  1  0.298000  0.779000  0.925000  1.0  -0.0484
  H  H40  1  0.635000  0.426000  0.975000  1.0  -0.0916
  H  H41  1  0.202000  0.279000  0.575000  1.0  -0.0419
  H  H42  1  0.865000  0.926000  0.525000  1.0  -0.0902
  H  H43  1  0.702000  0.779000  0.575000  1.0  -0.0419
  H  H44  1  0.365000  0.426000  0.525000  1.0  -0.0902
  O  O45  1  0.264700  0.880500  0.166000  1.0  -0.7581
  O  O46  1  0.773800  0.918100  0.957000  1.0  -0.7339
  O  O47  1  0.253000  0.701200  0.265000  1.0  -0.7197
  O  O48  1  0.744000  0.005900  0.137300  1.0  -0.7453
  O  O49  1  0.087700  0.796700  0.188800  1.0  -0.7479
  O  O50  1  0.917600  0.913300  0.105600  1.0  -0.7307
  O  O51  1  0.764700  0.380500  0.166000  1.0  -0.7581
  O  O52  1  0.273800  0.418100  0.957000  1.0  -0.7339
  O  O53  1  0.753000  0.201200  0.265000  1.0  -0.7197
  O  O54  1  0.244000  0.505900  0.137300  1.0  -0.7453
  O  O55  1  0.587700  0.296700  0.188800  1.0  -0.7479
  O  O56  1  0.417600  0.413300  0.105600  1.0  -0.7307
  O  O57  1  0.735300  0.880500  0.334000  1.0  -0.7591
  O  O58  1  0.226200  0.918100  0.543000  1.0  -0.7327
  O  O59  1  0.747000  0.701200  0.235000  1.0  -0.7209
  O  O60  1  0.256000  0.005900  0.362700  1.0  -0.7486
  O  O61  1  0.912300  0.796700  0.311200  1.0  -0.7488
  O  O62  1  0.082400  0.913300  0.394400  1.0  -0.7301
  O  O63  1  0.235300  0.380500  0.334000  1.0  -0.7591
  O  O64  1  0.726200  0.418100  0.543000  1.0  -0.7327
  O  O65  1  0.247000  0.201200  0.235000  1.0  -0.7209
  O  O66  1  0.756000  0.505900  0.362700  1.0  -0.7486
  O  O67  1  0.412300  0.296700  0.311200  1.0  -0.7488
  O  O68  1  0.582400  0.413300  0.394400  1.0  -0.7301
  O  O69  1  0.735300  0.119500  0.834000  1.0  -0.7586
  O  O70  1  0.226200  0.081900  0.043000  1.0  -0.7323
  O  O71  1  0.747000  0.298800  0.735000  1.0  -0.7209
  O  O72  1  0.256000  0.994100  0.862700  1.0  -0.7483
  O  O73  1  0.912300  0.203300  0.811200  1.0  -0.7491
  O  O74  1  0.082400  0.086700  0.894400  1.0  -0.7301
  O  O75  1  0.235300  0.619500  0.834000  1.0  -0.7586
  O  O76  1  0.726200  0.581900  0.043000  1.0  -0.7323
  O  O77  1  0.247000  0.798800  0.735000  1.0  -0.7209
  O  O78  1  0.756000  0.494100  0.862700  1.0  -0.7483
  O  O79  1  0.412300  0.703300  0.811200  1.0  -0.7491
  O  O80  1  0.582400  0.586700  0.894400  1.0  -0.7301
  O  O81  1  0.264700  0.119500  0.666000  1.0  -0.7584
  O  O82  1  0.773800  0.081900  0.457000  1.0  -0.7341
  O  O83  1  0.253000  0.298800  0.765000  1.0  -0.7197
  O  O84  1  0.744000  0.994100  0.637300  1.0  -0.7454
  O  O85  1  0.087700  0.203300  0.688800  1.0  -0.75
  O  O86  1  0.917600  0.086700  0.605600  1.0  -0.731
  O  O87  1  0.764700  0.619500  0.666000  1.0  -0.7584
  O  O88  1  0.273800  0.581900  0.457000  1.0  -0.7341
  O  O89  1  0.753000  0.798800  0.765000  1.0  -0.7197
  O  O90  1  0.244000  0.494100  0.637300  1.0  -0.7454
  O  O91  1  0.587700  0.703300  0.688800  1.0  -0.75
  O  O92  1  0.417600  0.586700  0.605600  1.0  -0.731
  F  F93  1  0.093800  0.028300  0.202000  1.0  -0.5002
  F  F94  1  0.593800  0.528300  0.202000  1.0  -0.5002
  F  F95  1  0.906200  0.028300  0.298000  1.0  -0.5001
  F  F96  1  0.406200  0.528300  0.298000  1.0  -0.5001
  F  F97  1  0.906200  0.971700  0.798000  1.0  -0.4996
  F  F98  1  0.406200  0.471700  0.798000  1.0  -0.4996
  F  F99  1  0.093800  0.971700  0.702000  1.0  -0.4995
  F  F100  1  0.593800  0.471700  0.702000  1.0  -0.4995
