# generated using pymatgen
data_Zn2H22C39N4(O4F3)2
_symmetry_space_group_name_H-M   'P 1'
_cell_length_a   12.60500000
_cell_length_b   13.27110000
_cell_length_c   13.27110000
_cell_angle_alpha   94.68740000
_cell_angle_beta   96.63190000
_cell_angle_gamma   83.36810000
_symmetry_Int_Tables_number   1
_chemical_formula_structural   Zn2H22C39N4(O4F3)2
_chemical_formula_sum   'Zn4 H44 C78 N8 O16 F12'
_cell_volume   2185.14151361
_cell_formula_units_Z   2
loop_
 _symmetry_equiv_pos_site_id
 _symmetry_equiv_pos_as_xyz
  1  'x, y, z'
loop_
 _atom_site_type_symbol
 _atom_site_label
 _atom_site_symmetry_multiplicity
 _atom_site_fract_x
 _atom_site_fract_y
 _atom_site_fract_z
 _atom_site_occupancy
 _atom_site_charge
  Zn  Zn1  1  0.171230  0.172730  0.726970  1.0  0.8411
  Zn  Zn2  1  0.328770  0.726970  0.172730  1.0  0.8411
  Zn  Zn3  1  0.828770  0.827270  0.273030  1.0  0.8409
  Zn  Zn4  1  0.671230  0.273030  0.827270  1.0  0.8408
  H  H5  1  0.405700  0.186600  0.710600  1.0  0.0743
  H  H6  1  0.541700  0.113700  0.623500  1.0  0.1103
  H  H7  1  0.336900  0.952300  0.455300  1.0  0.1189
  H  H8  1  0.204500  0.030300  0.545900  1.0  0.0839
  H  H9  1  0.982100  0.231900  0.577900  1.0  0.0884
  H  H10  1  0.914700  0.359500  0.479900  1.0  0.1227
  H  H11  1  0.148000  0.521000  0.606000  1.0  0.1278
  H  H12  1  0.209400  0.389200  0.703600  1.0  0.0809
  H  H13  1  0.057900  0.868200  0.700000  1.0  0.1106
  H  H14  1  0.957800  0.735800  0.701600  1.0  0.0909
  H  H15  1  0.709800  0.927600  0.779000  1.0  0.1169
  H  H16  1  0.094300  0.710600  0.186600  1.0  0.0741
  H  H17  1  0.958300  0.623500  0.113700  1.0  0.1109
  H  H18  1  0.163100  0.455300  0.952300  1.0  0.1194
  H  H19  1  0.295500  0.545900  0.030300  1.0  0.0842
  H  H20  1  0.517900  0.577900  0.231900  1.0  0.0893
  H  H21  1  0.585300  0.479900  0.359500  1.0  0.1221
  H  H22  1  0.352000  0.606000  0.521000  1.0  0.1288
  H  H23  1  0.290600  0.703600  0.389200  1.0  0.0809
  H  H24  1  0.442100  0.700000  0.868200  1.0  0.1105
  H  H25  1  0.542200  0.701600  0.735800  1.0  0.0894
  H  H26  1  0.790200  0.779000  0.927600  1.0  0.1187
  H  H27  1  0.594300  0.813400  0.289400  1.0  0.0741
  H  H28  1  0.458300  0.886300  0.376500  1.0  0.1129
  H  H29  1  0.663100  0.047700  0.544700  1.0  0.1195
  H  H30  1  0.795500  0.969700  0.454100  1.0  0.084
  H  H31  1  0.017900  0.768100  0.422100  1.0  0.0882
  H  H32  1  0.085300  0.640500  0.520100  1.0  0.1235
  H  H33  1  0.852000  0.479000  0.394000  1.0  0.1274
  H  H34  1  0.790600  0.610800  0.296400  1.0  0.0808
  H  H35  1  0.942100  0.131800  0.300000  1.0  0.1105
  H  H36  1  0.042200  0.264200  0.298400  1.0  0.0903
  H  H37  1  0.290200  0.072400  0.221000  1.0  0.1173
  H  H38  1  0.905700  0.289400  0.813400  1.0  0.0747
  H  H39  1  0.041700  0.376500  0.886300  1.0  0.1099
  H  H40  1  0.836900  0.544700  0.047700  1.0  0.1199
  H  H41  1  0.704500  0.454100  0.969700  1.0  0.0842
  H  H42  1  0.482100  0.422100  0.768100  1.0  0.0884
  H  H43  1  0.414700  0.520100  0.640500  1.0  0.1217
  H  H44  1  0.648000  0.394000  0.479000  1.0  0.1289
  H  H45  1  0.709400  0.296400  0.610800  1.0  0.0813
  H  H46  1  0.557900  0.300000  0.131800  1.0  0.1116
  H  H47  1  0.457800  0.298400  0.264200  1.0  0.0908
  H  H48  1  0.209800  0.221000  0.072400  1.0  0.1197
  C  C49  1  0.390800  0.137100  0.658900  1.0  0.1971
  C  C50  1  0.473200  0.093700  0.606100  1.0  -0.1863
  C  C51  1  0.457100  0.022900  0.529500  1.0  0.1058
  C  C52  1  0.353700  0.000100  0.508300  1.0  -0.1912
  C  C53  1  0.274300  0.046600  0.563800  1.0  0.1713
  C  C54  1  0.016300  0.290900  0.584100  1.0  0.1813
  C  C55  1  0.975300  0.367500  0.525700  1.0  -0.1914
  C  C56  1  0.020900  0.457000  0.532200  1.0  0.0991
  C  C57  1  0.112100  0.463000  0.599600  1.0  -0.1988
  C  C58  1  0.149000  0.383000  0.657000  1.0  0.1846
  C  C59  1  0.014200  0.067500  0.738900  1.0  0.6837
  C  C60  1  0.944600  0.982200  0.733200  1.0  -0.098
  C  C61  1  0.986900  0.881700  0.714300  1.0  -0.0496
  C  C62  1  0.927000  0.801700  0.716300  1.0  -0.1668
  C  C63  1  0.822800  0.817100  0.739300  1.0  0.0799
  C  C64  1  0.779600  0.915300  0.761100  1.0  -0.1165
  C  C65  1  0.839600  0.997300  0.756500  1.0  -0.053
  C  C66  1  0.783400  0.102800  0.768400  1.0  0.7002
  C  C67  1  0.813000  0.625500  0.734700  1.0  0.7012
  C  C68  1  0.109200  0.658900  0.137100  1.0  0.1972
  C  C69  1  0.026800  0.606100  0.093700  1.0  -0.1851
  C  C70  1  0.042900  0.529500  0.022900  1.0  0.1065
  C  C71  1  0.146300  0.508300  0.000100  1.0  -0.1937
  C  C72  1  0.225700  0.563800  0.046600  1.0  0.172
  C  C73  1  0.483700  0.584100  0.290900  1.0  0.1808
  C  C74  1  0.524700  0.525700  0.367500  1.0  -0.191
  C  C75  1  0.479100  0.532200  0.457000  1.0  0.0982
  C  C76  1  0.387900  0.599600  0.463000  1.0  -0.1956
  C  C77  1  0.351000  0.657000  0.383000  1.0  0.1854
  C  C78  1  0.485800  0.738900  0.067500  1.0  0.6837
  C  C79  1  0.555400  0.733200  0.982200  1.0  -0.0968
  C  C80  1  0.513100  0.714300  0.881700  1.0  -0.0484
  C  C81  1  0.573000  0.716300  0.801700  1.0  -0.1652
  C  C82  1  0.677200  0.739300  0.817100  1.0  0.0794
  C  C83  1  0.720400  0.761100  0.915300  1.0  -0.1171
  C  C84  1  0.660400  0.756500  0.997300  1.0  -0.0533
  C  C85  1  0.716600  0.768400  0.102800  1.0  0.698
  C  C86  1  0.687000  0.734700  0.625500  1.0  0.6959
  C  C87  1  0.609200  0.862900  0.341100  1.0  0.1963
  C  C88  1  0.526800  0.906300  0.393900  1.0  -0.1858
  C  C89  1  0.542900  0.977100  0.470500  1.0  0.1061
  C  C90  1  0.646300  0.999900  0.491700  1.0  -0.1936
  C  C91  1  0.725700  0.953400  0.436200  1.0  0.1727
  C  C92  1  0.983700  0.709100  0.415900  1.0  0.1804
  C  C93  1  0.024700  0.632500  0.474300  1.0  -0.1917
  C  C94  1  0.979100  0.543000  0.467800  1.0  0.0987
  C  C95  1  0.887900  0.537000  0.400400  1.0  -0.1934
  C  C96  1  0.851000  0.617000  0.343000  1.0  0.1851
  C  C97  1  0.985800  0.932500  0.261100  1.0  0.6841
  C  C98  1  0.055400  0.017800  0.266800  1.0  -0.0988
  C  C99  1  0.013100  0.118300  0.285700  1.0  -0.0501
  C  C100  1  0.073000  0.198300  0.283700  1.0  -0.1663
  C  C101  1  0.177200  0.182900  0.260700  1.0  0.0804
  C  C102  1  0.220400  0.084700  0.238900  1.0  -0.1169
  C  C103  1  0.160400  0.002700  0.243500  1.0  -0.0536
  C  C104  1  0.216600  0.897200  0.231600  1.0  0.6993
  C  C105  1  0.187000  0.374500  0.265300  1.0  0.6997
  C  C106  1  0.890800  0.341100  0.862900  1.0  0.1972
  C  C107  1  0.973200  0.393900  0.906300  1.0  -0.1859
  C  C108  1  0.957100  0.470500  0.977100  1.0  0.1058
  C  C109  1  0.853700  0.491700  0.999900  1.0  -0.1933
  C  C110  1  0.774300  0.436200  0.953400  1.0  0.1718
  C  C111  1  0.516300  0.415900  0.709100  1.0  0.1816
  C  C112  1  0.475300  0.474300  0.632500  1.0  -0.1911
  C  C113  1  0.520900  0.467800  0.543000  1.0  0.0982
  C  C114  1  0.612100  0.400400  0.537000  1.0  -0.1939
  C  C115  1  0.649000  0.343000  0.617000  1.0  0.1849
  C  C116  1  0.514200  0.261100  0.932500  1.0  0.6836
  C  C117  1  0.444600  0.266800  0.017800  1.0  -0.0984
  C  C118  1  0.486900  0.285700  0.118300  1.0  -0.0487
  C  C119  1  0.427000  0.283700  0.198300  1.0  -0.1669
  C  C120  1  0.322800  0.260700  0.182900  1.0  0.0785
  C  C121  1  0.279600  0.238900  0.084700  1.0  -0.1158
  C  C122  1  0.339600  0.243500  0.002700  1.0  -0.0531
  C  C123  1  0.283400  0.231600  0.897200  1.0  0.6961
  C  C124  1  0.313000  0.265300  0.374500  1.0  0.6958
  C  C125  1  0.750000  0.730800  0.730800  1.0  -0.2858
  C  C126  1  0.250000  0.269200  0.269200  1.0  -0.2855
  N  N127  1  0.292200  0.113350  0.641350  1.0  -0.3286
  N  N128  1  0.103700  0.295950  0.650450  1.0  -0.3323
  N  N129  1  0.207800  0.641350  0.113350  1.0  -0.3269
  N  N130  1  0.396300  0.650450  0.295950  1.0  -0.335
  N  N131  1  0.707800  0.886650  0.358650  1.0  -0.3298
  N  N132  1  0.896300  0.704050  0.349550  1.0  -0.3351
  N  N133  1  0.792200  0.358650  0.886650  1.0  -0.3278
  N  N134  1  0.603700  0.349550  0.704050  1.0  -0.3331
  O  O135  1  0.998900  0.142860  0.800040  1.0  -0.602
  O  O136  1  0.077600  0.058610  0.678730  1.0  -0.5857
  O  O137  1  0.784400  0.161560  0.704060  1.0  -0.6491
  O  O138  1  0.738600  0.127680  0.842160  1.0  -0.5563
  O  O139  1  0.501100  0.800040  0.142860  1.0  -0.6005
  O  O140  1  0.422400  0.678730  0.058610  1.0  -0.5849
  O  O141  1  0.715600  0.704060  0.161560  1.0  -0.6497
  O  O142  1  0.761400  0.842160  0.127680  1.0  -0.5542
  O  O143  1  0.001100  0.857140  0.199960  1.0  -0.6009
  O  O144  1  0.922400  0.941390  0.321270  1.0  -0.5856
  O  O145  1  0.215600  0.838440  0.295940  1.0  -0.6506
  O  O146  1  0.261400  0.872320  0.157840  1.0  -0.5568
  O  O147  1  0.498900  0.199960  0.857140  1.0  -0.5995
  O  O148  1  0.577600  0.321270  0.941390  1.0  -0.5864
  O  O149  1  0.284400  0.295940  0.838440  1.0  -0.65
  O  O150  1  0.238600  0.157840  0.872320  1.0  -0.553
  F  F151  1  0.890780  0.624210  0.813670  1.0  -0.2073
  F  F152  1  0.864100  0.596990  0.652430  1.0  -0.2187
  F  F153  1  0.752120  0.554410  0.746650  1.0  -0.1988
  F  F154  1  0.609220  0.813670  0.624210  1.0  -0.2041
  F  F155  1  0.635900  0.652430  0.596990  1.0  -0.2183
  F  F156  1  0.747880  0.746650  0.554410  1.0  -0.1994
  F  F157  1  0.109220  0.375790  0.186330  1.0  -0.2057
  F  F158  1  0.135900  0.403010  0.347570  1.0  -0.2207
  F  F159  1  0.247880  0.445590  0.253350  1.0  -0.1983
  F  F160  1  0.390780  0.186330  0.375790  1.0  -0.2043
  F  F161  1  0.364100  0.347570  0.403010  1.0  -0.219
  F  F162  1  0.252120  0.253350  0.445590  1.0  -0.2004
