# generated using pymatgen
data_YbH30(C13O3)3
_symmetry_space_group_name_H-M   'P 1'
_cell_length_a   16.24700000
_cell_length_b   25.78270000
_cell_length_c   41.22820000
_cell_angle_alpha   86.44080000
_cell_angle_beta   78.63640000
_cell_angle_gamma   71.63460000
_symmetry_Int_Tables_number   1
_chemical_formula_structural   YbH30(C13O3)3
_chemical_formula_sum   'Yb8 H240 C312 O72'
_cell_volume   16069.20334663
_cell_formula_units_Z   8
loop_
 _symmetry_equiv_pos_site_id
 _symmetry_equiv_pos_as_xyz
  1  'x, y, z'
loop_
 _atom_site_type_symbol
 _atom_site_label
 _atom_site_symmetry_multiplicity
 _atom_site_fract_x
 _atom_site_fract_y
 _atom_site_fract_z
 _atom_site_occupancy
 _atom_site_charge
  Yb  Yb1  1  0.119680  0.250000  0.260640  1.0  1.3836
  Yb  Yb2  1  0.630320  0.250000  0.239360  1.0  1.3829
  Yb  Yb3  1  0.880320  0.750000  0.739360  1.0  1.3826
  Yb  Yb4  1  0.369680  0.750000  0.760640  1.0  1.3833
  Yb  Yb5  1  0.409700  0.180600  0.250000  1.0  1.4927
  Yb  Yb6  1  0.840300  0.319400  0.250000  1.0  1.4904
  Yb  Yb7  1  0.590300  0.819400  0.750000  1.0  1.4904
  Yb  Yb8  1  0.159700  0.680600  0.750000  1.0  1.4927
  H  H9  1  0.375100  0.291800  0.326000  1.0  0.1138
  H  H10  1  0.356600  0.344600  0.372000  1.0  0.1247
  H  H11  1  0.108300  0.425800  0.361000  1.0  0.1181
  H  H12  1  0.126800  0.373000  0.315000  1.0  0.1138
  H  H13  1  0.271800  0.409400  0.409800  1.0  0.1258
  H  H14  1  0.101400  0.465200  0.414800  1.0  0.1154
  H  H15  1  0.039000  0.572000  0.505800  1.0  0.0836
  H  H16  1  0.273000  0.423800  0.460000  1.0  0.0826
  H  H17  1  0.199600  0.515600  0.556200  1.0  0.1097
  H  H18  1  0.051500  0.598200  0.553400  1.0  0.1205
  H  H19  1  0.201600  0.541600  0.608000  1.0  0.1307
  H  H20  1  0.185400  0.575400  0.660600  1.0  0.1229
  H  H21  1  0.964500  0.693000  0.646800  1.0  0.1234
  H  H22  1  0.980700  0.659200  0.594200  1.0  0.1351
  H  H23  1  0.179300  0.128000  0.175200  1.0  0.1169
  H  H24  1  0.230400  0.082600  0.124800  1.0  0.112
  H  H25  1  0.458200  0.117400  0.115600  1.0  0.1266
  H  H26  1  0.407100  0.162800  0.166000  1.0  0.1062
  H  H27  1  0.340400  0.049000  0.077400  1.0  0.1123
  H  H28  1  0.493200  0.074400  0.065000  1.0  0.1001
  H  H29  1  0.401300  0.977400  0.044000  1.0  0.1066
  H  H30  1  0.903900  0.614200  0.460800  1.0  0.1458
  H  H31  1  0.934900  0.580600  0.491600  1.0  0.1337
  H  H32  1  0.986600  0.619200  0.473000  1.0  0.1342
  H  H33  1  0.657700  0.118800  0.978000  1.0  0.1451
  H  H34  1  0.679800  0.055400  0.974400  1.0  0.1407
  H  H35  1  0.605200  0.095400  0.957800  1.0  0.1263
  H  H36  1  0.395900  0.382600  0.510200  1.0  0.151
  H  H37  1  0.321300  0.377600  0.492800  1.0  0.1373
  H  H38  1  0.377200  0.416000  0.478000  1.0  0.1444
  H  H39  1  0.798900  0.208200  0.326000  1.0  0.1135
  H  H40  1  0.771400  0.155400  0.372000  1.0  0.1239
  H  H41  1  0.030700  0.074200  0.361000  1.0  0.1179
  H  H42  1  0.058200  0.127000  0.315000  1.0  0.1133
  H  H43  1  0.818400  0.090600  0.409800  1.0  0.1244
  H  H44  1  0.983800  0.034800  0.414800  1.0  0.1137
  H  H45  1  0.955200  0.928000  0.505800  1.0  0.0823
  H  H46  1  0.767000  0.076200  0.460000  1.0  0.0832
  H  H47  1  0.744200  0.984400  0.556200  1.0  0.1088
  H  H48  1  0.895100  0.901800  0.553400  1.0  0.1207
  H  H49  1  0.690400  0.958400  0.608000  1.0  0.131
  H  H50  1  0.654000  0.924600  0.660600  1.0  0.1244
  H  H51  1  0.888700  0.807000  0.646800  1.0  0.1225
  H  H52  1  0.925100  0.840800  0.594200  1.0  0.1343
  H  H53  1  0.145500  0.372000  0.175200  1.0  0.1165
  H  H54  1  0.144800  0.417400  0.124800  1.0  0.1127
  H  H55  1  0.926200  0.382600  0.115600  1.0  0.1274
  H  H56  1  0.926900  0.337200  0.166000  1.0  0.1063
  H  H57  1  0.082200  0.451000  0.077400  1.0  0.1127
  H  H58  1  0.941800  0.425600  0.065000  1.0  0.1002
  H  H59  1  0.054700  0.522600  0.044000  1.0  0.108
  H  H60  1  0.135300  0.885800  0.460800  1.0  0.1442
  H  H61  1  0.073500  0.919400  0.491600  1.0  0.134
  H  H62  1  0.040400  0.880800  0.473000  1.0  0.1303
  H  H63  1  0.864300  0.381200  0.978000  1.0  0.145
  H  H64  1  0.845800  0.444600  0.974400  1.0  0.14
  H  H65  1  0.937000  0.404600  0.957800  1.0  0.1194
  H  H66  1  0.593900  0.117400  0.510200  1.0  0.1459
  H  H67  1  0.685900  0.122400  0.492800  1.0  0.1389
  H  H68  1  0.644800  0.084000  0.478000  1.0  0.1451
  H  H69  1  0.333100  0.291800  0.174000  1.0  0.1129
  H  H70  1  0.298800  0.344600  0.128000  1.0  0.1239
  H  H71  1  0.465900  0.425800  0.139000  1.0  0.1174
  H  H72  1  0.500200  0.373000  0.185000  1.0  0.1143
  H  H73  1  0.318800  0.409400  0.090200  1.0  0.1254
  H  H74  1  0.433400  0.465200  0.085200  1.0  0.1142
  H  H75  1  0.389000  0.572000  0.994200  1.0  0.0824
  H  H76  1  0.303200  0.423800  0.040000  1.0  0.0826
  H  H77  1  0.284800  0.515600  0.943800  1.0  0.1087
  H  H78  1  0.350300  0.598200  0.946600  1.0  0.1209
  H  H79  1  0.256800  0.541600  0.892000  1.0  0.1311
  H  H80  1  0.239200  0.575400  0.839400  1.0  0.1225
  H  H81  1  0.342500  0.693000  0.853200  1.0  0.1233
  H  H82  1  0.360100  0.659200  0.905800  1.0  0.1352
  H  H83  1  0.692700  0.128000  0.324800  1.0  0.1168
  H  H84  1  0.687000  0.082600  0.375200  1.0  0.1116
  H  H85  1  0.424400  0.117400  0.384400  1.0  0.1267
  H  H86  1  0.430100  0.162800  0.334000  1.0  0.106
  H  H87  1  0.610600  0.049000  0.422600  1.0  0.1131
  H  H88  1  0.432400  0.074400  0.435000  1.0  0.1002
  H  H89  1  0.621300  0.977400  0.456000  1.0  0.1055
  H  H90  1  0.481900  0.614200  0.039200  1.0  0.1466
  H  H91  1  0.484500  0.580600  0.008400  1.0  0.1336
  H  H92  1  0.394200  0.619200  0.027000  1.0  0.1317
  H  H93  1  0.223500  0.118800  0.522000  1.0  0.145
  H  H94  1  0.264800  0.055400  0.525600  1.0  0.1388
  H  H95  1  0.299400  0.095400  0.542200  1.0  0.1277
  H  H96  1  0.221500  0.382600  0.989800  1.0  0.1491
  H  H97  1  0.301100  0.377600  0.007200  1.0  0.1384
  H  H98  1  0.206800  0.416000  0.022000  1.0  0.1453
  H  H99  1  0.992900  0.208200  0.174000  1.0  0.1133
  H  H100  1  0.073200  0.155400  0.128000  1.0  0.1237
  H  H101  1  0.895100  0.074200  0.139000  1.0  0.1175
  H  H102  1  0.814800  0.127000  0.185000  1.0  0.1137
  H  H103  1  0.091000  0.090600  0.090200  1.0  0.1257
  H  H104  1  0.981400  0.034800  0.085200  1.0  0.1144
  H  H105  1  0.116800  0.928000  0.994200  1.0  0.0822
  H  H106  1  0.156800  0.076200  0.040000  1.0  0.0821
  H  H107  1  0.271400  0.984400  0.943800  1.0  0.1089
  H  H108  1  0.203100  0.901800  0.946600  1.0  0.1208
  H  H109  1  0.351200  0.958400  0.892000  1.0  0.1276
  H  H110  1  0.421400  0.924600  0.839400  1.0  0.1238
  H  H111  1  0.304300  0.807000  0.853200  1.0  0.1227
  H  H112  1  0.234100  0.840800  0.905800  1.0  0.1348
  H  H113  1  0.482500  0.372000  0.324800  1.0  0.1157
  H  H114  1  0.437800  0.417400  0.375200  1.0  0.113
  H  H115  1  0.691200  0.382600  0.384400  1.0  0.128
  H  H116  1  0.735900  0.337200  0.334000  1.0  0.1061
  H  H117  1  0.466800  0.451000  0.422600  1.0  0.1132
  H  H118  1  0.632600  0.425600  0.435000  1.0  0.1
  H  H119  1  0.422700  0.522600  0.456000  1.0  0.1065
  H  H120  1  0.978900  0.885800  0.039200  1.0  0.1435
  H  H121  1  0.007100  0.919400  0.008400  1.0  0.1363
  H  H122  1  0.078800  0.880800  0.027000  1.0  0.1327
  H  H123  1  0.754500  0.381200  0.522000  1.0  0.1462
  H  H124  1  0.709600  0.444600  0.525600  1.0  0.1395
  H  H125  1  0.658400  0.404600  0.542200  1.0  0.1208
  H  H126  1  0.288700  0.117400  0.989800  1.0  0.1473
  H  H127  1  0.191700  0.122400  0.007200  1.0  0.1386
  H  H128  1  0.271200  0.084000  0.022000  1.0  0.1447
  H  H129  1  0.624900  0.708200  0.674000  1.0  0.1134
  H  H130  1  0.643400  0.655400  0.628000  1.0  0.1241
  H  H131  1  0.891700  0.574200  0.639000  1.0  0.1181
  H  H132  1  0.873200  0.627000  0.685000  1.0  0.1146
  H  H133  1  0.728200  0.590600  0.590200  1.0  0.1255
  H  H134  1  0.898600  0.534800  0.585200  1.0  0.1142
  H  H135  1  0.961000  0.428000  0.494200  1.0  0.0814
  H  H136  1  0.727000  0.576200  0.540000  1.0  0.0821
  H  H137  1  0.800400  0.484400  0.443800  1.0  0.1091
  H  H138  1  0.948500  0.401800  0.446600  1.0  0.121
  H  H139  1  0.798400  0.458400  0.392000  1.0  0.1305
  H  H140  1  0.814600  0.424600  0.339400  1.0  0.1222
  H  H141  1  0.035500  0.307000  0.353200  1.0  0.1234
  H  H142  1  0.019300  0.340800  0.405800  1.0  0.1358
  H  H143  1  0.820700  0.872000  0.824800  1.0  0.1167
  H  H144  1  0.769600  0.917400  0.875200  1.0  0.1117
  H  H145  1  0.541800  0.882600  0.884400  1.0  0.1262
  H  H146  1  0.592900  0.837200  0.834000  1.0  0.1059
  H  H147  1  0.659600  0.951000  0.922600  1.0  0.113
  H  H148  1  0.506800  0.925600  0.935000  1.0  0.1
  H  H149  1  0.598700  0.022600  0.956000  1.0  0.1052
  H  H150  1  0.096100  0.385800  0.539200  1.0  0.1483
  H  H151  1  0.065100  0.419400  0.508400  1.0  0.1354
  H  H152  1  0.013400  0.380800  0.527000  1.0  0.1311
  H  H153  1  0.342300  0.881200  0.022000  1.0  0.1462
  H  H154  1  0.320200  0.944600  0.025600  1.0  0.1404
  H  H155  1  0.394800  0.904600  0.042200  1.0  0.1247
  H  H156  1  0.604100  0.617400  0.489800  1.0  0.1499
  H  H157  1  0.678700  0.622400  0.507200  1.0  0.1384
  H  H158  1  0.622800  0.584000  0.522000  1.0  0.1451
  H  H159  1  0.201100  0.791800  0.674000  1.0  0.1135
  H  H160  1  0.228600  0.844600  0.628000  1.0  0.1235
  H  H161  1  0.969300  0.925800  0.639000  1.0  0.1193
  H  H162  1  0.941800  0.873000  0.685000  1.0  0.1136
  H  H163  1  0.181600  0.909400  0.590200  1.0  0.1258
  H  H164  1  0.016200  0.965200  0.585200  1.0  0.1146
  H  H165  1  0.044800  0.072000  0.494200  1.0  0.0833
  H  H166  1  0.233000  0.923800  0.540000  1.0  0.0838
  H  H167  1  0.255800  0.015600  0.443800  1.0  0.1082
  H  H168  1  0.104900  0.098200  0.446600  1.0  0.1208
  H  H169  1  0.309600  0.041600  0.392000  1.0  0.1309
  H  H170  1  0.346000  0.075400  0.339400  1.0  0.1238
  H  H171  1  0.111300  0.193000  0.353200  1.0  0.1227
  H  H172  1  0.074900  0.159200  0.405800  1.0  0.1347
  H  H173  1  0.854500  0.628000  0.824800  1.0  0.1161
  H  H174  1  0.855200  0.582600  0.875200  1.0  0.1128
  H  H175  1  0.073800  0.617400  0.884400  1.0  0.1265
  H  H176  1  0.073100  0.662800  0.834000  1.0  0.106
  H  H177  1  0.917800  0.549000  0.922600  1.0  0.1128
  H  H178  1  0.058200  0.574400  0.935000  1.0  0.1004
  H  H179  1  0.945300  0.477400  0.956000  1.0  0.1067
  H  H180  1  0.864700  0.114200  0.539200  1.0  0.1426
  H  H181  1  0.926500  0.080600  0.508400  1.0  0.1336
  H  H182  1  0.959600  0.119200  0.527000  1.0  0.1336
  H  H183  1  0.135700  0.618800  0.022000  1.0  0.1452
  H  H184  1  0.154200  0.555400  0.025600  1.0  0.1382
  H  H185  1  0.063000  0.595400  0.042200  1.0  0.1229
  H  H186  1  0.406100  0.882600  0.489800  1.0  0.1473
  H  H187  1  0.314100  0.877600  0.507200  1.0  0.1381
  H  H188  1  0.355200  0.916000  0.522000  1.0  0.1432
  H  H189  1  0.666900  0.708200  0.826000  1.0  0.1136
  H  H190  1  0.701200  0.655400  0.872000  1.0  0.1246
  H  H191  1  0.534100  0.574200  0.861000  1.0  0.1181
  H  H192  1  0.499800  0.627000  0.815000  1.0  0.1132
  H  H193  1  0.681200  0.590600  0.909800  1.0  0.1254
  H  H194  1  0.566600  0.534800  0.914800  1.0  0.1143
  H  H195  1  0.611000  0.428000  0.005800  1.0  0.082
  H  H196  1  0.696800  0.576200  0.960000  1.0  0.0813
  H  H197  1  0.715200  0.484400  0.056200  1.0  0.1097
  H  H198  1  0.649700  0.401800  0.053400  1.0  0.1199
  H  H199  1  0.743200  0.458400  0.108000  1.0  0.13
  H  H200  1  0.760800  0.424600  0.160600  1.0  0.122
  H  H201  1  0.657500  0.307000  0.146800  1.0  0.1232
  H  H202  1  0.639900  0.340800  0.094200  1.0  0.1352
  H  H203  1  0.307300  0.872000  0.675200  1.0  0.1167
  H  H204  1  0.313000  0.917400  0.624800  1.0  0.1122
  H  H205  1  0.575600  0.882600  0.615600  1.0  0.1261
  H  H206  1  0.569900  0.837200  0.666000  1.0  0.1064
  H  H207  1  0.389400  0.951000  0.577400  1.0  0.1125
  H  H208  1  0.567600  0.925600  0.565000  1.0  0.1001
  H  H209  1  0.378700  0.022600  0.544000  1.0  0.1061
  H  H210  1  0.518100  0.385800  0.960800  1.0  0.1454
  H  H211  1  0.515500  0.419400  0.991600  1.0  0.1339
  H  H212  1  0.605800  0.380800  0.973000  1.0  0.1319
  H  H213  1  0.776500  0.881200  0.478000  1.0  0.1463
  H  H214  1  0.735200  0.944600  0.474400  1.0  0.1406
  H  H215  1  0.700600  0.904600  0.457800  1.0  0.1244
  H  H216  1  0.778500  0.617400  0.010200  1.0  0.15
  H  H217  1  0.698900  0.622400  0.992800  1.0  0.1379
  H  H218  1  0.793200  0.584000  0.978000  1.0  0.144
  H  H219  1  0.007100  0.791800  0.826000  1.0  0.1129
  H  H220  1  0.926800  0.844600  0.872000  1.0  0.1242
  H  H221  1  0.104900  0.925800  0.861000  1.0  0.119
  H  H222  1  0.185200  0.873000  0.815000  1.0  0.1132
  H  H223  1  0.909000  0.909400  0.909800  1.0  0.1243
  H  H224  1  0.018600  0.965200  0.914800  1.0  0.1144
  H  H225  1  0.883200  0.072000  0.005800  1.0  0.0832
  H  H226  1  0.843200  0.923800  0.960000  1.0  0.0834
  H  H227  1  0.728600  0.015600  0.056200  1.0  0.1088
  H  H228  1  0.796900  0.098200  0.053400  1.0  0.1206
  H  H229  1  0.648800  0.041600  0.108000  1.0  0.1286
  H  H230  1  0.578600  0.075400  0.160600  1.0  0.1251
  H  H231  1  0.695700  0.193000  0.146800  1.0  0.1229
  H  H232  1  0.765900  0.159200  0.094200  1.0  0.134
  H  H233  1  0.517500  0.628000  0.675200  1.0  0.1166
  H  H234  1  0.562200  0.582600  0.624800  1.0  0.1126
  H  H235  1  0.308800  0.617400  0.615600  1.0  0.1262
  H  H236  1  0.264100  0.662800  0.666000  1.0  0.1063
  H  H237  1  0.533200  0.549000  0.577400  1.0  0.1134
  H  H238  1  0.367400  0.574400  0.565000  1.0  0.1003
  H  H239  1  0.577300  0.477400  0.544000  1.0  0.1088
  H  H240  1  0.021100  0.114200  0.960800  1.0  0.1436
  H  H241  1  0.992900  0.080600  0.991600  1.0  0.1336
  H  H242  1  0.921200  0.119200  0.973000  1.0  0.1317
  H  H243  1  0.245500  0.618800  0.478000  1.0  0.1447
  H  H244  1  0.290400  0.555400  0.474400  1.0  0.1399
  H  H245  1  0.341600  0.595400  0.457800  1.0  0.1222
  H  H246  1  0.711300  0.882600  0.010200  1.0  0.1463
  H  H247  1  0.808300  0.877600  0.992800  1.0  0.1387
  H  H248  1  0.728800  0.916000  0.978000  1.0  0.1467
  C  C249  1  0.265730  0.289200  0.288740  1.0  0.783
  C  C250  1  0.252730  0.327220  0.315920  1.0  -0.14
  C  C251  1  0.321640  0.318720  0.333000  1.0  -0.0837
  C  C252  1  0.310530  0.350360  0.360580  1.0  -0.1433
  C  C253  1  0.230620  0.390500  0.371060  1.0  0.098
  C  C254  1  0.161700  0.399000  0.354000  1.0  -0.1046
  C  C255  1  0.172800  0.367380  0.326420  1.0  -0.0383
  C  C256  1  0.219230  0.418800  0.401940  1.0  -0.0673
  C  C257  1  0.155600  0.453800  0.421600  1.0  -0.1031
  C  C258  1  0.156990  0.477200  0.452420  1.0  0.0062
  C  C259  1  0.086940  0.521600  0.466120  1.0  0.0974
  C  C260  1  0.085960  0.542300  0.496580  1.0  -0.1733
  C  C261  1  0.155040  0.518600  0.513320  1.0  0.017
  C  C262  1  0.225190  0.474200  0.499620  1.0  0.2863
  C  C263  1  0.226170  0.453500  0.469160  1.0  -0.1723
  C  C264  1  0.153420  0.536600  0.546160  1.0  -0.0473
  C  C265  1  0.097270  0.577600  0.563860  1.0  -0.0811
  C  C266  1  0.092720  0.597020  0.595940  1.0  0.1487
  C  C267  1  0.154150  0.571900  0.615800  1.0  -0.0944
  C  C268  1  0.144390  0.592180  0.647240  1.0  -0.0562
  C  C269  1  0.073390  0.637580  0.658840  1.0  -0.1175
  C  C270  1  0.011950  0.662700  0.639000  1.0  -0.0784
  C  C271  1  0.021720  0.642420  0.607540  1.0  -0.1497
  C  C272  1  0.054300  0.662000  0.692800  1.0  0.7523
  C  C273  1  0.251480  0.177800  0.207040  1.0  0.6798
  C  C274  1  0.288180  0.149860  0.175580  1.0  -0.0922
  C  C275  1  0.235300  0.125800  0.163200  1.0  -0.0977
  C  C276  1  0.265880  0.098620  0.133020  1.0  -0.0685
  C  C277  1  0.349450  0.095500  0.115200  1.0  0.0211
  C  C278  1  0.402330  0.119540  0.127600  1.0  -0.1122
  C  C279  1  0.371750  0.146720  0.157780  1.0  -0.0572
  C  C280  1  0.379340  0.065600  0.082520  1.0  -0.0781
  C  C281  1  0.451480  0.059600  0.060440  1.0  -0.1305
  C  C282  1  0.471480  0.030400  0.028640  1.0  -0.0507
  C  C283  1  0.439820  0.986600  0.026360  1.0  -0.145
  C  C284  1  0.532370  0.042600  0.003060  1.0  0.1147
  C  C285  1  0.954300  0.594800  0.470400  1.0  -0.13
  C  C286  1  0.633300  0.089800  0.976600  1.0  -0.1253
  C  C287  1  0.350800  0.402000  0.498000  1.0  -0.1923
  C  C288  1  0.945530  0.210800  0.288740  1.0  0.7802
  C  C289  1  0.931350  0.172780  0.315920  1.0  -0.1367
  C  C290  1  0.845360  0.181280  0.333000  1.0  -0.0833
  C  C291  1  0.828890  0.149640  0.360580  1.0  -0.145
  C  C292  1  0.898320  0.109500  0.371060  1.0  0.0975
  C  C293  1  0.984300  0.101000  0.354000  1.0  -0.1036
  C  C294  1  0.000780  0.132620  0.326420  1.0  -0.0374
  C  C295  1  0.878830  0.081200  0.401940  1.0  -0.0703
  C  C296  1  0.922800  0.046200  0.421600  1.0  -0.102
  C  C297  1  0.890590  0.022800  0.452420  1.0  0.0052
  C  C298  1  0.946940  0.978400  0.466120  1.0  0.0963
  C  C299  1  0.917460  0.957700  0.496580  1.0  -0.1726
  C  C300  1  0.831640  0.981400  0.513320  1.0  0.0146
  C  C301  1  0.775190  0.025800  0.499620  1.0  0.2851
  C  C302  1  0.804670  0.046500  0.469160  1.0  -0.1728
  C  C303  1  0.800420  0.963400  0.546160  1.0  -0.0481
  C  C304  1  0.838870  0.922400  0.563860  1.0  -0.0799
  C  C305  1  0.811340  0.902980  0.595940  1.0  0.1489
  C  C306  1  0.730050  0.928100  0.615800  1.0  -0.0947
  C  C307  1  0.708370  0.907820  0.647240  1.0  -0.0582
  C  C308  1  0.767770  0.862420  0.658840  1.0  -0.1197
  C  C309  1  0.849050  0.837300  0.639000  1.0  -0.0781
  C  C310  1  0.870740  0.857580  0.607540  1.0  -0.1504
  C  C311  1  0.752900  0.838000  0.692800  1.0  0.7509
  C  C312  1  0.041480  0.322200  0.207040  1.0  0.6782
  C  C313  1  0.036240  0.350140  0.175580  1.0  -0.0923
  C  C314  1  0.101500  0.374200  0.163200  1.0  -0.097
  C  C315  1  0.101100  0.401380  0.133020  1.0  -0.0673
  C  C316  1  0.035350  0.404500  0.115200  1.0  0.0219
  C  C317  1  0.970070  0.380460  0.127600  1.0  -0.1144
  C  C318  1  0.970470  0.353280  0.157780  1.0  -0.0578
  C  C319  1  0.038140  0.434400  0.082520  1.0  -0.0802
  C  C320  1  0.988080  0.440400  0.060440  1.0  -0.1334
  C  C321  1  0.999880  0.469600  0.028640  1.0  -0.0516
  C  C322  1  0.033820  0.513400  0.026360  1.0  -0.145
  C  C323  1  0.964570  0.457400  0.003060  1.0  0.1172
  C  C324  1  0.075300  0.905200  0.470400  1.0  -0.1305
  C  C325  1  0.890100  0.410200  0.976600  1.0  -0.1373
  C  C326  1  0.651200  0.098000  0.498000  1.0  -0.1938
  C  C327  1  0.445070  0.289200  0.211260  1.0  0.7827
  C  C328  1  0.420050  0.327220  0.184080  1.0  -0.1389
  C  C329  1  0.359640  0.318720  0.167000  1.0  -0.0844
  C  C330  1  0.339110  0.350360  0.139420  1.0  -0.1433
  C  C331  1  0.378880  0.390500  0.128940  1.0  0.0972
  C  C332  1  0.439300  0.399000  0.146000  1.0  -0.1014
  C  C333  1  0.459820  0.367380  0.173580  1.0  -0.0359
  C  C334  1  0.361970  0.418800  0.098060  1.0  -0.0716
  C  C335  1  0.390600  0.453800  0.078400  1.0  -0.103
  C  C336  1  0.365810  0.477200  0.047580  1.0  0.0062
  C  C337  1  0.391460  0.521600  0.033880  1.0  0.0989
  C  C338  1  0.371740  0.542300  0.003420  1.0  -0.1727
  C  C339  1  0.326360  0.518600  0.986680  1.0  0.0164
  C  C340  1  0.300610  0.474200  0.000380  1.0  0.2859
  C  C341  1  0.320330  0.453500  0.030840  1.0  -0.174
  C  C342  1  0.309980  0.536600  0.953840  1.0  -0.0484
  C  C343  1  0.325130  0.577600  0.936140  1.0  -0.0772
  C  C344  1  0.310260  0.597020  0.904060  1.0  0.1493
  C  C345  1  0.273950  0.571900  0.884200  1.0  -0.0943
  C  C346  1  0.263430  0.592180  0.852760  1.0  -0.0565
  C  C347  1  0.289030  0.637580  0.841160  1.0  -0.1189
  C  C348  1  0.325350  0.662700  0.861000  1.0  -0.0781
  C  C349  1  0.335860  0.642420  0.892460  1.0  -0.1504
  C  C350  1  0.283700  0.662000  0.807200  1.0  0.7518
  C  C351  1  0.570720  0.177800  0.292960  1.0  0.6789
  C  C352  1  0.561960  0.149860  0.324420  1.0  -0.093
  C  C353  1  0.638900  0.125800  0.336800  1.0  -0.0967
  C  C354  1  0.635500  0.098620  0.366980  1.0  -0.0698
  C  C355  1  0.555050  0.095500  0.384800  1.0  0.0212
  C  C356  1  0.478130  0.119540  0.372400  1.0  -0.1129
  C  C357  1  0.481530  0.146720  0.342220  1.0  -0.0573
  C  C358  1  0.555060  0.065600  0.417480  1.0  -0.077
  C  C359  1  0.488920  0.059600  0.439560  1.0  -0.133
  C  C360  1  0.498120  0.030400  0.471360  1.0  -0.05
  C  C361  1  0.573580  0.986600  0.473640  1.0  -0.1447
  C  C362  1  0.425030  0.042600  0.496940  1.0  0.114
  C  C363  1  0.450900  0.594800  0.029600  1.0  -0.132
  C  C364  1  0.276900  0.089800  0.523400  1.0  -0.1289
  C  C365  1  0.247200  0.402000  0.002000  1.0  -0.1897
  C  C366  1  0.843670  0.210800  0.211260  1.0  0.781
  C  C367  1  0.895870  0.172780  0.184080  1.0  -0.1363
  C  C368  1  0.973360  0.181280  0.167000  1.0  -0.0826
  C  C369  1  0.021470  0.149640  0.139420  1.0  -0.1426
  C  C370  1  0.992180  0.109500  0.128940  1.0  0.0972
  C  C371  1  0.914700  0.101000  0.146000  1.0  -0.1035
  C  C372  1  0.866600  0.132620  0.173580  1.0  -0.038
  C  C373  1  0.039970  0.081200  0.098060  1.0  -0.0697
  C  C374  1  0.031000  0.046200  0.078400  1.0  -0.1031
  C  C375  1  0.086610  0.022800  0.047580  1.0  0.0091
  C  C376  1  0.074660  0.978400  0.033880  1.0  0.0974
  C  C377  1  0.124840  0.957700  0.003420  1.0  -0.1733
  C  C378  1  0.186960  0.981400  0.986680  1.0  0.0147
  C  C379  1  0.199010  0.025800  0.000380  1.0  0.2856
  C  C380  1  0.148830  0.046500  0.030840  1.0  -0.172
  C  C381  1  0.236180  0.963400  0.953840  1.0  -0.047
  C  C382  1  0.238730  0.922400  0.936140  1.0  -0.0812
  C  C383  1  0.285680  0.902980  0.904060  1.0  0.1492
  C  C384  1  0.341850  0.928100  0.884200  1.0  -0.0947
  C  C385  1  0.383810  0.907820  0.852760  1.0  -0.0566
  C  C386  1  0.369810  0.862420  0.841160  1.0  -0.1214
  C  C387  1  0.313650  0.837300  0.861000  1.0  -0.0777
  C  C388  1  0.271680  0.857580  0.892460  1.0  -0.1515
  C  C389  1  0.409100  0.838000  0.807200  1.0  0.7493
  C  C390  1  0.636320  0.322200  0.292960  1.0  0.6789
  C  C391  1  0.613620  0.350140  0.324420  1.0  -0.0921
  C  C392  1  0.524300  0.374200  0.336800  1.0  -0.097
  C  C393  1  0.497520  0.401380  0.366980  1.0  -0.0687
  C  C394  1  0.560150  0.404500  0.384800  1.0  0.0219
  C  C395  1  0.649470  0.380460  0.372400  1.0  -0.1142
  C  C396  1  0.676250  0.353280  0.342220  1.0  -0.0587
  C  C397  1  0.527460  0.434400  0.417480  1.0  -0.0792
  C  C398  1  0.571520  0.440400  0.439560  1.0  -0.1327
  C  C399  1  0.530520  0.469600  0.471360  1.0  -0.0517
  C  C400  1  0.452780  0.513400  0.473640  1.0  -0.1448
  C  C401  1  0.578030  0.457400  0.496940  1.0  0.1164
  C  C402  1  0.019500  0.905200  0.029600  1.0  -0.13
  C  C403  1  0.699700  0.410200  0.523400  1.0  -0.1328
  C  C404  1  0.250800  0.098000  0.002000  1.0  -0.1922
  C  C405  1  0.734270  0.710800  0.711260  1.0  0.7699
  C  C406  1  0.747270  0.672780  0.684080  1.0  -0.1389
  C  C407  1  0.678360  0.681280  0.667000  1.0  -0.084
  C  C408  1  0.689470  0.649640  0.639420  1.0  -0.1428
  C  C409  1  0.769380  0.609500  0.628940  1.0  0.0965
  C  C410  1  0.838300  0.601000  0.646000  1.0  -0.1025
  C  C411  1  0.827200  0.632620  0.673580  1.0  -0.0366
  C  C412  1  0.780770  0.581200  0.598060  1.0  -0.0715
  C  C413  1  0.844400  0.546200  0.578400  1.0  -0.1031
  C  C414  1  0.843010  0.522800  0.547580  1.0  0.0065
  C  C415  1  0.913060  0.478400  0.533880  1.0  0.099
  C  C416  1  0.914040  0.457700  0.503420  1.0  -0.1735
  C  C417  1  0.844960  0.481400  0.486680  1.0  0.0161
  C  C418  1  0.774810  0.525800  0.500380  1.0  0.2861
  C  C419  1  0.773830  0.546500  0.530840  1.0  -0.1738
  C  C420  1  0.846580  0.463400  0.453840  1.0  -0.0474
  C  C421  1  0.902730  0.422400  0.436140  1.0  -0.0778
  C  C422  1  0.907280  0.402980  0.404060  1.0  0.1492
  C  C423  1  0.845850  0.428100  0.384200  1.0  -0.094
  C  C424  1  0.855610  0.407820  0.352760  1.0  -0.0571
  C  C425  1  0.926610  0.362420  0.341160  1.0  -0.1189
  C  C426  1  0.988050  0.337300  0.361000  1.0  -0.0782
  C  C427  1  0.978280  0.357580  0.392460  1.0  -0.1517
  C  C428  1  0.945700  0.338000  0.307200  1.0  0.7531
  C  C429  1  0.748520  0.822200  0.792960  1.0  0.6784
  C  C430  1  0.711820  0.850140  0.824420  1.0  -0.093
  C  C431  1  0.764700  0.874200  0.836800  1.0  -0.0966
  C  C432  1  0.734120  0.901380  0.866980  1.0  -0.0688
  C  C433  1  0.650550  0.904500  0.884800  1.0  0.0216
  C  C434  1  0.597670  0.880460  0.872400  1.0  -0.1135
  C  C435  1  0.628250  0.853280  0.842220  1.0  -0.057
  C  C436  1  0.620660  0.934400  0.917480  1.0  -0.0771
  C  C437  1  0.548520  0.940400  0.939560  1.0  -0.1333
  C  C438  1  0.528520  0.969600  0.971360  1.0  -0.0506
  C  C439  1  0.560180  0.013400  0.973640  1.0  -0.1443
  C  C440  1  0.467630  0.957400  0.996940  1.0  0.1139
  C  C441  1  0.045700  0.405200  0.529600  1.0  -0.1319
  C  C442  1  0.366700  0.910200  0.023400  1.0  -0.1245
  C  C443  1  0.649200  0.598000  0.502000  1.0  -0.1904
  C  C444  1  0.054470  0.789200  0.711260  1.0  0.7683
  C  C445  1  0.068650  0.827220  0.684080  1.0  -0.1362
  C  C446  1  0.154640  0.818720  0.667000  1.0  -0.0828
  C  C447  1  0.171110  0.850360  0.639420  1.0  -0.1426
  C  C448  1  0.101680  0.890500  0.628940  1.0  0.0978
  C  C449  1  0.015700  0.899000  0.646000  1.0  -0.1039
  C  C450  1  0.999220  0.867380  0.673580  1.0  -0.0379
  C  C451  1  0.121170  0.918800  0.598060  1.0  -0.0697
  C  C452  1  0.077200  0.953800  0.578400  1.0  -0.1034
  C  C453  1  0.109410  0.977200  0.547580  1.0  0.0087
  C  C454  1  0.053060  0.021600  0.533880  1.0  0.0975
  C  C455  1  0.082540  0.042300  0.503420  1.0  -0.1729
  C  C456  1  0.168360  0.018600  0.486680  1.0  0.015
  C  C457  1  0.224810  0.974200  0.500380  1.0  0.2856
  C  C458  1  0.195330  0.953500  0.530840  1.0  -0.1727
  C  C459  1  0.199580  0.036600  0.453840  1.0  -0.0481
  C  C460  1  0.161130  0.077600  0.436140  1.0  -0.0809
  C  C461  1  0.188660  0.097020  0.404060  1.0  0.149
  C  C462  1  0.269950  0.071900  0.384200  1.0  -0.0955
  C  C463  1  0.291630  0.092180  0.352760  1.0  -0.0577
  C  C464  1  0.232230  0.137580  0.341160  1.0  -0.1216
  C  C465  1  0.150950  0.162700  0.361000  1.0  -0.0778
  C  C466  1  0.129260  0.142420  0.392460  1.0  -0.1512
  C  C467  1  0.247100  0.162000  0.307200  1.0  0.7485
  C  C468  1  0.958520  0.677800  0.792960  1.0  0.6792
  C  C469  1  0.963760  0.649860  0.824420  1.0  -0.0917
  C  C470  1  0.898500  0.625800  0.836800  1.0  -0.0966
  C  C471  1  0.898900  0.598620  0.866980  1.0  -0.0684
  C  C472  1  0.964650  0.595500  0.884800  1.0  0.0215
  C  C473  1  0.029930  0.619540  0.872400  1.0  -0.1137
  C  C474  1  0.029530  0.646720  0.842220  1.0  -0.0588
  C  C475  1  0.961860  0.565600  0.917480  1.0  -0.0796
  C  C476  1  0.011920  0.559600  0.939560  1.0  -0.1323
  C  C477  1  0.000120  0.530400  0.971360  1.0  -0.0519
  C  C478  1  0.966180  0.486600  0.973640  1.0  -0.1447
  C  C479  1  0.035430  0.542600  0.996940  1.0  0.1143
  C  C480  1  0.924700  0.094800  0.529600  1.0  -0.1316
  C  C481  1  0.109900  0.589800  0.023400  1.0  -0.1365
  C  C482  1  0.348800  0.902000  0.502000  1.0  -0.1909
  C  C483  1  0.554930  0.710800  0.788740  1.0  0.7696
  C  C484  1  0.579950  0.672780  0.815920  1.0  -0.1397
  C  C485  1  0.640360  0.681280  0.833000  1.0  -0.0835
  C  C486  1  0.660890  0.649640  0.860580  1.0  -0.1441
  C  C487  1  0.621120  0.609500  0.871060  1.0  0.0973
  C  C488  1  0.560700  0.601000  0.854000  1.0  -0.1042
  C  C489  1  0.540180  0.632620  0.826420  1.0  -0.0388
  C  C490  1  0.638030  0.581200  0.901940  1.0  -0.0677
  C  C491  1  0.609400  0.546200  0.921600  1.0  -0.1033
  C  C492  1  0.634190  0.522800  0.952420  1.0  0.0053
  C  C493  1  0.608540  0.478400  0.966120  1.0  0.097
  C  C494  1  0.628260  0.457700  0.996580  1.0  -0.173
  C  C495  1  0.673640  0.481400  0.013320  1.0  0.0171
  C  C496  1  0.699390  0.525800  0.999620  1.0  0.2864
  C  C497  1  0.679670  0.546500  0.969160  1.0  -0.1721
  C  C498  1  0.690020  0.463400  0.046160  1.0  -0.0467
  C  C499  1  0.674870  0.422400  0.063860  1.0  -0.0815
  C  C500  1  0.689740  0.402980  0.095940  1.0  0.149
  C  C501  1  0.726050  0.428100  0.115800  1.0  -0.0938
  C  C502  1  0.736570  0.407820  0.147240  1.0  -0.0563
  C  C503  1  0.710970  0.362420  0.158840  1.0  -0.1174
  C  C504  1  0.674650  0.337300  0.139000  1.0  -0.078
  C  C505  1  0.664140  0.357580  0.107540  1.0  -0.1514
  C  C506  1  0.716300  0.338000  0.192800  1.0  0.7526
  C  C507  1  0.429280  0.822200  0.707040  1.0  0.6795
  C  C508  1  0.438040  0.850140  0.675580  1.0  -0.0922
  C  C509  1  0.361100  0.874200  0.663200  1.0  -0.0983
  C  C510  1  0.364500  0.901380  0.633020  1.0  -0.0686
  C  C511  1  0.444950  0.904500  0.615200  1.0  0.0215
  C  C512  1  0.521870  0.880460  0.627600  1.0  -0.1127
  C  C513  1  0.518470  0.853280  0.657780  1.0  -0.057
  C  C514  1  0.444940  0.934400  0.582520  1.0  -0.0776
  C  C515  1  0.511080  0.940400  0.560440  1.0  -0.1306
  C  C516  1  0.501880  0.969600  0.528640  1.0  -0.0509
  C  C517  1  0.426420  0.013400  0.526360  1.0  -0.1451
  C  C518  1  0.574970  0.957400  0.503060  1.0  0.1145
  C  C519  1  0.549100  0.405200  0.970400  1.0  -0.1291
  C  C520  1  0.723100  0.910200  0.476600  1.0  -0.1256
  C  C521  1  0.752800  0.598000  0.998000  1.0  -0.1934
  C  C522  1  0.156330  0.789200  0.788740  1.0  0.7679
  C  C523  1  0.104130  0.827220  0.815920  1.0  -0.1371
  C  C524  1  0.026640  0.818720  0.833000  1.0  -0.0836
  C  C525  1  0.978530  0.850360  0.860580  1.0  -0.145
  C  C526  1  0.007820  0.890500  0.871060  1.0  0.0985
  C  C527  1  0.085300  0.899000  0.854000  1.0  -0.1026
  C  C528  1  0.133400  0.867380  0.826420  1.0  -0.0362
  C  C529  1  0.960030  0.918800  0.901940  1.0  -0.0701
  C  C530  1  0.969000  0.953800  0.921600  1.0  -0.1013
  C  C531  1  0.913390  0.977200  0.952420  1.0  0.0061
  C  C532  1  0.925340  0.021600  0.966120  1.0  0.0965
  C  C533  1  0.875160  0.042300  0.996580  1.0  -0.1727
  C  C534  1  0.813040  0.018600  0.013320  1.0  0.0144
  C  C535  1  0.800990  0.974200  0.999620  1.0  0.2851
  C  C536  1  0.851170  0.953500  0.969160  1.0  -0.173
  C  C537  1  0.763820  0.036600  0.046160  1.0  -0.0486
  C  C538  1  0.761270  0.077600  0.063860  1.0  -0.0787
  C  C539  1  0.714320  0.097020  0.095940  1.0  0.1488
  C  C540  1  0.658150  0.071900  0.115800  1.0  -0.0947
  C  C541  1  0.616190  0.092180  0.147240  1.0  -0.0557
  C  C542  1  0.630190  0.137580  0.158840  1.0  -0.1202
  C  C543  1  0.686350  0.162700  0.139000  1.0  -0.0782
  C  C544  1  0.728320  0.142420  0.107540  1.0  -0.148
  C  C545  1  0.590900  0.162000  0.192800  1.0  0.7508
  C  C546  1  0.363680  0.677800  0.707040  1.0  0.6787
  C  C547  1  0.386380  0.649860  0.675580  1.0  -0.0924
  C  C548  1  0.475700  0.625800  0.663200  1.0  -0.0971
  C  C549  1  0.502480  0.598620  0.633020  1.0  -0.0681
  C  C550  1  0.439850  0.595500  0.615200  1.0  0.0215
  C  C551  1  0.350530  0.619540  0.627600  1.0  -0.1138
  C  C552  1  0.323750  0.646720  0.657780  1.0  -0.0582
  C  C553  1  0.472540  0.565600  0.582520  1.0  -0.0804
  C  C554  1  0.428480  0.559600  0.560440  1.0  -0.1333
  C  C555  1  0.469480  0.530400  0.528640  1.0  -0.0512
  C  C556  1  0.547220  0.486600  0.526360  1.0  -0.1454
  C  C557  1  0.421970  0.542600  0.503060  1.0  0.1149
  C  C558  1  0.980500  0.094800  0.970400  1.0  -0.1304
  C  C559  1  0.300300  0.589800  0.476600  1.0  -0.1374
  C  C560  1  0.749200  0.902000  0.998000  1.0  -0.1918
  O  O561  1  0.335550  0.250860  0.282840  1.0  -0.6208
  O  O562  1  0.204870  0.296540  0.272920  1.0  -0.6542
  O  O563  1  0.116610  0.647100  0.708880  1.0  -0.6808
  O  O564  1  0.980500  0.694980  0.702820  1.0  -0.613
  O  O565  1  0.015610  0.546400  0.446980  1.0  -0.4346
  O  O566  1  0.278880  0.452800  0.520440  1.0  -0.4806
  O  O567  1  0.172200  0.190860  0.217540  1.0  -0.5808
  O  O568  1  0.296990  0.188740  0.223280  1.0  -0.6873
  O  O569  1  0.564730  0.089000  0.008340  1.0  -0.3845
  O  O570  1  0.881610  0.249140  0.282840  1.0  -0.6219
  O  O571  1  0.022210  0.203460  0.272920  1.0  -0.6569
  O  O572  1  0.674510  0.852900  0.708880  1.0  -0.6845
  O  O573  1  0.816680  0.805020  0.702820  1.0  -0.6137
  O  O574  1  0.037410  0.953600  0.446980  1.0  -0.4328
  O  O575  1  0.700680  0.047200  0.520440  1.0  -0.4775
  O  O576  1  0.110260  0.309140  0.217540  1.0  -0.5799
  O  O577  1  0.979730  0.311260  0.223280  1.0  -0.6873
  O  O578  1  0.926930  0.411000  0.008340  1.0  -0.3867
  O  O579  1  0.413590  0.250860  0.217160  1.0  -0.6213
  O  O580  1  0.498590  0.296540  0.227080  1.0  -0.656
  O  O581  1  0.236290  0.647100  0.791120  1.0  -0.6811
  O  O582  1  0.324520  0.694980  0.797180  1.0  -0.613
  O  O583  1  0.437990  0.546400  0.053020  1.0  -0.4372
  O  O584  1  0.268320  0.452800  0.979560  1.0  -0.478
  O  O585  1  0.636940  0.190860  0.282460  1.0  -0.5812
  O  O586  1  0.514270  0.188740  0.276720  1.0  -0.6874
  O  O587  1  0.346270  0.089000  0.491660  1.0  -0.3836
  O  O588  1  0.869250  0.249140  0.217160  1.0  -0.6211
  O  O589  1  0.774330  0.203460  0.227080  1.0  -0.6548
  O  O590  1  0.472590  0.852900  0.791120  1.0  -0.6839
  O  O591  1  0.378300  0.805020  0.797180  1.0  -0.6136
  O  O592  1  0.008990  0.953600  0.053020  1.0  -0.4343
  O  O593  1  0.252120  0.047200  0.979560  1.0  -0.4826
  O  O594  1  0.580600  0.309140  0.282460  1.0  -0.5792
  O  O595  1  0.709010  0.311260  0.276720  1.0  -0.6865
  O  O596  1  0.662070  0.411000  0.491660  1.0  -0.3839
  O  O597  1  0.664450  0.749140  0.717160  1.0  -0.6218
  O  O598  1  0.795130  0.703460  0.727080  1.0  -0.6557
  O  O599  1  0.883390  0.352900  0.291120  1.0  -0.6811
  O  O600  1  0.019500  0.305020  0.297180  1.0  -0.6126
  O  O601  1  0.984390  0.453600  0.553020  1.0  -0.4398
  O  O602  1  0.721120  0.547200  0.479560  1.0  -0.4774
  O  O603  1  0.827800  0.809140  0.782460  1.0  -0.5809
  O  O604  1  0.703010  0.811260  0.776720  1.0  -0.687
  O  O605  1  0.435270  0.911000  0.991660  1.0  -0.3834
  O  O606  1  0.118390  0.750860  0.717160  1.0  -0.6206
  O  O607  1  0.977790  0.796540  0.727080  1.0  -0.6548
  O  O608  1  0.325490  0.147100  0.291120  1.0  -0.6836
  O  O609  1  0.183320  0.194980  0.297180  1.0  -0.6142
  O  O610  1  0.962590  0.046400  0.553020  1.0  -0.4315
  O  O611  1  0.299320  0.952800  0.479560  1.0  -0.482
  O  O612  1  0.889740  0.690860  0.782460  1.0  -0.5792
  O  O613  1  0.020270  0.688740  0.776720  1.0  -0.6872
  O  O614  1  0.073070  0.589000  0.991660  1.0  -0.382
  O  O615  1  0.586410  0.749140  0.782840  1.0  -0.6214
  O  O616  1  0.501410  0.703460  0.772920  1.0  -0.6549
  O  O617  1  0.763710  0.352900  0.208880  1.0  -0.681
  O  O618  1  0.675480  0.305020  0.202820  1.0  -0.613
  O  O619  1  0.562010  0.453600  0.946980  1.0  -0.4351
  O  O620  1  0.731680  0.547200  0.020440  1.0  -0.4764
  O  O621  1  0.363060  0.809140  0.717540  1.0  -0.5812
  O  O622  1  0.485730  0.811260  0.723280  1.0  -0.6874
  O  O623  1  0.653730  0.911000  0.508340  1.0  -0.3875
  O  O624  1  0.130750  0.750860  0.782840  1.0  -0.6217
  O  O625  1  0.225670  0.796540  0.772920  1.0  -0.6562
  O  O626  1  0.527410  0.147100  0.208880  1.0  -0.6844
  O  O627  1  0.621700  0.194980  0.202820  1.0  -0.6129
  O  O628  1  0.991010  0.046400  0.946980  1.0  -0.4345
  O  O629  1  0.747880  0.952800  0.020440  1.0  -0.4817
  O  O630  1  0.419400  0.690860  0.717540  1.0  -0.5796
  O  O631  1  0.290990  0.688740  0.723280  1.0  -0.6877
  O  O632  1  0.337930  0.589000  0.508340  1.0  -0.3828
