# generated using pymatgen
data_Cd4H16C24N20Cl3
_symmetry_space_group_name_H-M   'P 1'
_cell_length_a   20.86160000
_cell_length_b   35.59330000
_cell_length_c   22.20380000
_cell_angle_alpha   90.00000000
_cell_angle_beta   90.00000000
_cell_angle_gamma   90.00000000
_symmetry_Int_Tables_number   1
_chemical_formula_structural   Cd4H16C24N20Cl3
_chemical_formula_sum   'Cd32 H128 C192 N160 Cl24'
_cell_volume   16487.05838373
_cell_formula_units_Z   8
loop_
 _symmetry_equiv_pos_site_id
 _symmetry_equiv_pos_as_xyz
  1  'x, y, z'
loop_
 _atom_site_type_symbol
 _atom_site_label
 _atom_site_symmetry_multiplicity
 _atom_site_fract_x
 _atom_site_fract_y
 _atom_site_fract_z
 _atom_site_occupancy
 _atom_site_charge
  Cd  Cd1  1  0.404660  0.918000  0.634190  1.0  0.7577
  Cd  Cd2  1  0.269230  0.843500  0.618160  1.0  0.8885
  Cd  Cd3  1  0.143860  0.165250  0.757140  1.0  0.8348
  Cd  Cd4  1  0.151500  0.091940  0.633430  1.0  0.7876
  Cd  Cd5  1  0.095340  0.582000  0.134190  1.0  0.7572
  Cd  Cd6  1  0.230770  0.656500  0.118160  1.0  0.8894
  Cd  Cd7  1  0.356140  0.334750  0.257140  1.0  0.8352
  Cd  Cd8  1  0.348500  0.408060  0.133430  1.0  0.7842
  Cd  Cd9  1  0.404660  0.082000  0.865810  1.0  0.7559
  Cd  Cd10  1  0.269230  0.156500  0.881840  1.0  0.887
  Cd  Cd11  1  0.143860  0.834750  0.742860  1.0  0.8348
  Cd  Cd12  1  0.151500  0.908060  0.866570  1.0  0.7853
  Cd  Cd13  1  0.095340  0.418000  0.365810  1.0  0.7541
  Cd  Cd14  1  0.230770  0.343500  0.381840  1.0  0.8881
  Cd  Cd15  1  0.356140  0.665250  0.242860  1.0  0.8352
  Cd  Cd16  1  0.348500  0.591940  0.366570  1.0  0.7844
  Cd  Cd17  1  0.595340  0.082000  0.365810  1.0  0.7541
  Cd  Cd18  1  0.730770  0.156500  0.381840  1.0  0.8889
  Cd  Cd19  1  0.856140  0.834750  0.242860  1.0  0.8352
  Cd  Cd20  1  0.848500  0.908060  0.366570  1.0  0.7844
  Cd  Cd21  1  0.904660  0.418000  0.865810  1.0  0.7555
  Cd  Cd22  1  0.769230  0.343500  0.881840  1.0  0.888
  Cd  Cd23  1  0.643860  0.665250  0.742860  1.0  0.8348
  Cd  Cd24  1  0.651500  0.591940  0.866570  1.0  0.7851
  Cd  Cd25  1  0.595340  0.918000  0.134190  1.0  0.7573
  Cd  Cd26  1  0.730770  0.843500  0.118160  1.0  0.8909
  Cd  Cd27  1  0.856140  0.165250  0.257140  1.0  0.8353
  Cd  Cd28  1  0.848500  0.091940  0.133430  1.0  0.7843
  Cd  Cd29  1  0.904660  0.582000  0.634190  1.0  0.758
  Cd  Cd30  1  0.769230  0.656500  0.618160  1.0  0.8894
  Cd  Cd31  1  0.643860  0.334750  0.757140  1.0  0.8348
  Cd  Cd32  1  0.651500  0.408060  0.633430  1.0  0.7873
  H  H33  1  0.566000  0.804000  0.737900  1.0  0.1185
  H  H34  1  0.434100  0.730000  0.674900  1.0  0.1145
  H  H35  1  0.505100  0.681500  0.703200  1.0  0.0718
  H  H36  1  0.627400  0.753600  0.769700  1.0  0.0845
  H  H37  1  0.947900  0.874300  0.579300  1.0  0.1158
  H  H38  1  0.084200  0.900200  0.454800  1.0  0.1182
  H  H39  1  0.002400  0.912000  0.385600  1.0  0.0858
  H  H40  1  0.870500  0.893600  0.507900  1.0  0.0889
  H  H41  1  0.234800  0.019100  0.666667  1.0  0.1201
  H  H42  1  0.413000  0.054200  0.714000  1.0  0.1261
  H  H43  1  0.452700  0.001200  0.669400  1.0  0.0768
  H  H44  1  0.280700  0.966400  0.625000  1.0  0.0958
  H  H45  1  0.322100  0.709600  0.540600  1.0  0.1191
  H  H46  1  0.267300  0.780100  0.402000  1.0  0.12
  H  H47  1  0.253400  0.826700  0.474000  1.0  0.0768
  H  H48  1  0.297500  0.760000  0.605200  1.0  0.0738
  H  H49  1  0.934000  0.696000  0.237900  1.0  0.1189
  H  H50  1  0.065900  0.770000  0.174900  1.0  0.1147
  H  H51  1  0.994900  0.818500  0.203200  1.0  0.0692
  H  H52  1  0.872600  0.746400  0.269700  1.0  0.0843
  H  H53  1  0.552100  0.625700  0.079300  1.0  0.1154
  H  H54  1  0.415800  0.599800  0.954800  1.0  0.1185
  H  H55  1  0.497600  0.588000  0.885600  1.0  0.0854
  H  H56  1  0.629500  0.606400  0.007900  1.0  0.0874
  H  H57  1  0.265200  0.480900  0.166600  1.0  0.1194
  H  H58  1  0.087000  0.445800  0.214000  1.0  0.1264
  H  H59  1  0.047300  0.498800  0.169400  1.0  0.0751
  H  H60  1  0.219300  0.533600  0.125000  1.0  0.0953
  H  H61  1  0.177900  0.790400  0.040600  1.0  0.1197
  H  H62  1  0.232700  0.719900  0.902000  1.0  0.1199
  H  H63  1  0.246600  0.673300  0.974000  1.0  0.0772
  H  H64  1  0.202500  0.740000  0.105200  1.0  0.0733
  H  H65  1  0.566000  0.196000  0.762100  1.0  0.1191
  H  H66  1  0.434100  0.270000  0.825100  1.0  0.1146
  H  H67  1  0.505100  0.318500  0.796800  1.0  0.0722
  H  H68  1  0.627400  0.246400  0.730300  1.0  0.0843
  H  H69  1  0.947900  0.125700  0.920700  1.0  0.1157
  H  H70  1  0.084200  0.099800  0.045200  1.0  0.1177
  H  H71  1  0.002400  0.088000  0.114400  1.0  0.0864
  H  H72  1  0.870500  0.106400  0.992100  1.0  0.0898
  H  H73  1  0.234800  0.980900  0.833400  1.0  0.1205
  H  H74  1  0.413000  0.945800  0.786000  1.0  0.1259
  H  H75  1  0.452700  0.998800  0.830600  1.0  0.0756
  H  H76  1  0.280700  0.033600  0.875000  1.0  0.0964
  H  H77  1  0.322100  0.290400  0.959400  1.0  0.1198
  H  H78  1  0.267300  0.219900  0.098000  1.0  0.1201
  H  H79  1  0.253400  0.173300  0.026000  1.0  0.0777
  H  H80  1  0.297500  0.240000  0.894800  1.0  0.0738
  H  H81  1  0.934000  0.304000  0.262100  1.0  0.119
  H  H82  1  0.065900  0.230000  0.325100  1.0  0.1148
  H  H83  1  0.994900  0.181500  0.296800  1.0  0.0715
  H  H84  1  0.872600  0.253600  0.230300  1.0  0.0847
  H  H85  1  0.552100  0.374300  0.420700  1.0  0.1155
  H  H86  1  0.415800  0.400200  0.545200  1.0  0.118
  H  H87  1  0.497600  0.412000  0.614400  1.0  0.0863
  H  H88  1  0.629500  0.393600  0.492100  1.0  0.0883
  H  H89  1  0.265200  0.519100  0.333400  1.0  0.1197
  H  H90  1  0.087000  0.554200  0.286000  1.0  0.1274
  H  H91  1  0.047300  0.501200  0.330600  1.0  0.0779
  H  H92  1  0.219300  0.466400  0.375000  1.0  0.097
  H  H93  1  0.177900  0.209600  0.459400  1.0  0.1193
  H  H94  1  0.232700  0.280100  0.598000  1.0  0.1198
  H  H95  1  0.246600  0.326700  0.526000  1.0  0.0775
  H  H96  1  0.202500  0.260000  0.394800  1.0  0.0738
  H  H97  1  0.434000  0.196000  0.262100  1.0  0.1192
  H  H98  1  0.565900  0.270000  0.325100  1.0  0.1147
  H  H99  1  0.494900  0.318500  0.296800  1.0  0.0697
  H  H100  1  0.372600  0.246400  0.230300  1.0  0.0845
  H  H101  1  0.052100  0.125700  0.420700  1.0  0.1155
  H  H102  1  0.915800  0.099800  0.545200  1.0  0.1185
  H  H103  1  0.997600  0.088000  0.614400  1.0  0.0863
  H  H104  1  0.129500  0.106400  0.492100  1.0  0.0885
  H  H105  1  0.765200  0.980900  0.333400  1.0  0.1198
  H  H106  1  0.587000  0.945800  0.286000  1.0  0.1264
  H  H107  1  0.547300  0.998800  0.330600  1.0  0.0742
  H  H108  1  0.719300  0.033600  0.375000  1.0  0.0963
  H  H109  1  0.677900  0.290400  0.459400  1.0  0.1198
  H  H110  1  0.732700  0.219900  0.598000  1.0  0.1199
  H  H111  1  0.746600  0.173300  0.526000  1.0  0.0777
  H  H112  1  0.702500  0.240000  0.394800  1.0  0.0739
  H  H113  1  0.066000  0.304000  0.762100  1.0  0.119
  H  H114  1  0.934100  0.230000  0.825100  1.0  0.1149
  H  H115  1  0.005100  0.181500  0.796800  1.0  0.0717
  H  H116  1  0.127400  0.253600  0.730300  1.0  0.0848
  H  H117  1  0.447900  0.374300  0.920700  1.0  0.1155
  H  H118  1  0.584200  0.400200  0.045200  1.0  0.1177
  H  H119  1  0.502400  0.412000  0.114400  1.0  0.0869
  H  H120  1  0.370500  0.393600  0.992100  1.0  0.0894
  H  H121  1  0.734800  0.519100  0.833400  1.0  0.1204
  H  H122  1  0.913000  0.554200  0.786000  1.0  0.1265
  H  H123  1  0.952700  0.501200  0.830600  1.0  0.0786
  H  H124  1  0.780700  0.466400  0.875000  1.0  0.0965
  H  H125  1  0.822100  0.209600  0.959400  1.0  0.1193
  H  H126  1  0.767300  0.280100  0.098000  1.0  0.1198
  H  H127  1  0.753400  0.326700  0.026000  1.0  0.0774
  H  H128  1  0.797500  0.260000  0.894800  1.0  0.0738
  H  H129  1  0.434000  0.804000  0.237900  1.0  0.1185
  H  H130  1  0.565900  0.730000  0.174900  1.0  0.1143
  H  H131  1  0.494900  0.681500  0.203200  1.0  0.0717
  H  H132  1  0.372600  0.753600  0.269700  1.0  0.0844
  H  H133  1  0.052100  0.874300  0.079300  1.0  0.1155
  H  H134  1  0.915800  0.900200  0.954800  1.0  0.1179
  H  H135  1  0.997600  0.912000  0.885600  1.0  0.0851
  H  H136  1  0.129500  0.893600  0.007900  1.0  0.0875
  H  H137  1  0.765200  0.019100  0.166600  1.0  0.1194
  H  H138  1  0.587000  0.054200  0.214000  1.0  0.1271
  H  H139  1  0.547300  0.001200  0.169400  1.0  0.078
  H  H140  1  0.719300  0.966400  0.125000  1.0  0.0967
  H  H141  1  0.677900  0.709600  0.040600  1.0  0.119
  H  H142  1  0.732700  0.780100  0.902000  1.0  0.12
  H  H143  1  0.746600  0.826700  0.974000  1.0  0.0771
  H  H144  1  0.702500  0.760000  0.105200  1.0  0.0734
  H  H145  1  0.066000  0.696000  0.737900  1.0  0.1186
  H  H146  1  0.934100  0.770000  0.674900  1.0  0.1147
  H  H147  1  0.005100  0.818500  0.703200  1.0  0.0718
  H  H148  1  0.127400  0.746400  0.769700  1.0  0.084
  H  H149  1  0.447900  0.625700  0.579300  1.0  0.1159
  H  H150  1  0.584200  0.599800  0.454800  1.0  0.1186
  H  H151  1  0.502400  0.588000  0.385600  1.0  0.0858
  H  H152  1  0.370500  0.606400  0.507900  1.0  0.0893
  H  H153  1  0.734800  0.480900  0.666667  1.0  0.1202
  H  H154  1  0.913000  0.445800  0.714000  1.0  0.1257
  H  H155  1  0.952700  0.498800  0.669400  1.0  0.0754
  H  H156  1  0.780700  0.533600  0.625000  1.0  0.0959
  H  H157  1  0.822100  0.790400  0.540600  1.0  0.1197
  H  H158  1  0.767300  0.719900  0.402000  1.0  0.1199
  H  H159  1  0.753400  0.673300  0.474000  1.0  0.0771
  H  H160  1  0.797500  0.740000  0.605200  1.0  0.0736
  C  C161  1  0.454500  0.803400  0.680400  1.0  0.3745
  C  C162  1  0.492900  0.772900  0.701500  1.0  -0.0611
  C  C163  1  0.551600  0.779100  0.730600  1.0  -0.1342
  C  C164  1  0.474300  0.735800  0.692700  1.0  -0.148
  C  C165  1  0.517200  0.706700  0.711100  1.0  0.1628
  C  C166  1  0.588500  0.748800  0.748700  1.0  0.145
  C  C167  1  0.074000  0.874200  0.566600  1.0  0.3329
  C  C168  1  0.023000  0.885400  0.522500  1.0  -0.0801
  C  C169  1  0.959900  0.882800  0.540300  1.0  -0.1125
  C  C170  1  0.040500  0.897400  0.465900  1.0  -0.1662
  C  C171  1  0.991400  0.905300  0.425700  1.0  0.135
  C  C172  1  0.914500  0.893600  0.496900  1.0  0.1446
  C  C173  1  0.289900  0.073600  0.729200  1.0  0.3493
  C  C174  1  0.318700  0.042700  0.697200  1.0  -0.0267
  C  C175  1  0.279900  0.015600  0.668600  1.0  -0.148
  C  C176  1  0.384500  0.036500  0.696500  1.0  -0.1883
  C  C177  1  0.407500  0.004700  0.670300  1.0  0.1678
  C  C178  1  0.307300  0.984500  0.644100  1.0  0.17
  C  C179  1  0.302000  0.707900  0.420300  1.0  0.3268
  C  C180  1  0.292200  0.738700  0.462300  1.0  -0.0707
  C  C181  1  0.305700  0.732700  0.525600  1.0  -0.1214
  C  C182  1  0.273900  0.774700  0.443500  1.0  -0.1294
  C  C183  1  0.265900  0.802300  0.486900  1.0  0.1468
  C  C184  1  0.292600  0.763600  0.563100  1.0  0.1567
  C  C185  1  0.045500  0.696600  0.180400  1.0  0.3743
  C  C186  1  0.007100  0.727100  0.201500  1.0  -0.0616
  C  C187  1  0.948400  0.720900  0.230600  1.0  -0.1348
  C  C188  1  0.025700  0.764200  0.192700  1.0  -0.1458
  C  C189  1  0.982800  0.793300  0.211100  1.0  0.1614
  C  C190  1  0.911500  0.751200  0.248700  1.0  0.1432
  C  C191  1  0.426000  0.625800  0.066600  1.0  0.3319
  C  C192  1  0.477000  0.614600  0.022500  1.0  -0.0805
  C  C193  1  0.540100  0.617200  0.040300  1.0  -0.1119
  C  C194  1  0.459500  0.602600  0.965900  1.0  -0.1677
  C  C195  1  0.508600  0.594700  0.925700  1.0  0.1355
  C  C196  1  0.585500  0.606400  0.996900  1.0  0.1464
  C  C197  1  0.210100  0.426400  0.229200  1.0  0.3491
  C  C198  1  0.181300  0.457300  0.197200  1.0  -0.0287
  C  C199  1  0.220100  0.484400  0.168600  1.0  -0.1482
  C  C200  1  0.115500  0.463500  0.196500  1.0  -0.1983
  C  C201  1  0.092500  0.495300  0.170300  1.0  0.1679
  C  C202  1  0.192700  0.515500  0.144100  1.0  0.1679
  C  C203  1  0.198000  0.792100  0.920300  1.0  0.3273
  C  C204  1  0.207800  0.761300  0.962300  1.0  -0.0721
  C  C205  1  0.194300  0.767300  0.025600  1.0  -0.1224
  C  C206  1  0.226100  0.725300  0.943500  1.0  -0.1278
  C  C207  1  0.234100  0.697700  0.986900  1.0  0.1482
  C  C208  1  0.207400  0.736400  0.063100  1.0  0.1563
  C  C209  1  0.454500  0.196600  0.819600  1.0  0.3752
  C  C210  1  0.492900  0.227100  0.798500  1.0  -0.061
  C  C211  1  0.551600  0.220900  0.769400  1.0  -0.1343
  C  C212  1  0.474300  0.264200  0.807300  1.0  -0.1459
  C  C213  1  0.517200  0.293300  0.788900  1.0  0.1618
  C  C214  1  0.588500  0.251200  0.751300  1.0  0.1451
  C  C215  1  0.074000  0.125800  0.933400  1.0  0.3323
  C  C216  1  0.023000  0.114600  0.977500  1.0  -0.0803
  C  C217  1  0.959900  0.117200  0.959700  1.0  -0.1134
  C  C218  1  0.040500  0.102600  0.034100  1.0  -0.1651
  C  C219  1  0.991400  0.094700  0.074300  1.0  0.1344
  C  C220  1  0.914500  0.106400  0.003100  1.0  0.1441
  C  C221  1  0.289900  0.926400  0.770800  1.0  0.3494
  C  C222  1  0.318700  0.957300  0.802800  1.0  -0.0284
  C  C223  1  0.279900  0.984400  0.831400  1.0  -0.1498
  C  C224  1  0.384500  0.963500  0.803500  1.0  -0.1937
  C  C225  1  0.407500  0.995300  0.829700  1.0  0.1686
  C  C226  1  0.307300  0.015500  0.855900  1.0  0.1689
  C  C227  1  0.302000  0.292100  0.079700  1.0  0.3273
  C  C228  1  0.292200  0.261300  0.037700  1.0  -0.0706
  C  C229  1  0.305700  0.267300  0.974400  1.0  -0.1222
  C  C230  1  0.273900  0.225300  0.056500  1.0  -0.1265
  C  C231  1  0.265900  0.197700  0.013100  1.0  0.1483
  C  C232  1  0.292600  0.236400  0.936900  1.0  0.1573
  C  C233  1  0.045500  0.303400  0.319600  1.0  0.3751
  C  C234  1  0.007100  0.272900  0.298500  1.0  -0.0609
  C  C235  1  0.948400  0.279100  0.269400  1.0  -0.134
  C  C236  1  0.025700  0.235800  0.307300  1.0  -0.1454
  C  C237  1  0.982800  0.206700  0.288900  1.0  0.1622
  C  C238  1  0.911500  0.248800  0.251300  1.0  0.144
  C  C239  1  0.426000  0.374200  0.433400  1.0  0.333
  C  C240  1  0.477000  0.385400  0.477500  1.0  -0.081
  C  C241  1  0.540100  0.382800  0.459700  1.0  -0.112
  C  C242  1  0.459500  0.397400  0.534100  1.0  -0.1674
  C  C243  1  0.508600  0.405300  0.574300  1.0  0.1334
  C  C244  1  0.585500  0.393600  0.503100  1.0  0.1457
  C  C245  1  0.210100  0.573600  0.270800  1.0  0.3496
  C  C246  1  0.181300  0.542700  0.302800  1.0  -0.0296
  C  C247  1  0.220100  0.515600  0.331400  1.0  -0.1471
  C  C248  1  0.115500  0.536500  0.303500  1.0  -0.1912
  C  C249  1  0.092500  0.504700  0.329700  1.0  0.168
  C  C250  1  0.192700  0.484500  0.355900  1.0  0.1687
  C  C251  1  0.198000  0.207900  0.579700  1.0  0.3276
  C  C252  1  0.207800  0.238700  0.537700  1.0  -0.0711
  C  C253  1  0.194300  0.232700  0.474400  1.0  -0.1238
  C  C254  1  0.226100  0.274700  0.556500  1.0  -0.1268
  C  C255  1  0.234100  0.302300  0.513100  1.0  0.1487
  C  C256  1  0.207400  0.263600  0.436900  1.0  0.1574
  C  C257  1  0.545500  0.196600  0.319600  1.0  0.3751
  C  C258  1  0.507100  0.227100  0.298500  1.0  -0.0612
  C  C259  1  0.448400  0.220900  0.269400  1.0  -0.1353
  C  C260  1  0.525700  0.264200  0.307300  1.0  -0.1453
  C  C261  1  0.482800  0.293300  0.288900  1.0  0.1613
  C  C262  1  0.411500  0.251200  0.251300  1.0  0.1436
  C  C263  1  0.926000  0.125800  0.433400  1.0  0.3326
  C  C264  1  0.977000  0.114600  0.477500  1.0  -0.0808
  C  C265  1  0.040100  0.117200  0.459700  1.0  -0.1128
  C  C266  1  0.959500  0.102600  0.534100  1.0  -0.1675
  C  C267  1  0.008600  0.094700  0.574300  1.0  0.134
  C  C268  1  0.085500  0.106400  0.503100  1.0  0.1459
  C  C269  1  0.710100  0.926400  0.270800  1.0  0.3496
  C  C270  1  0.681300  0.957300  0.302800  1.0  -0.0284
  C  C271  1  0.720100  0.984400  0.331400  1.0  -0.1458
  C  C272  1  0.615500  0.963500  0.303500  1.0  -0.197
  C  C273  1  0.592500  0.995300  0.329700  1.0  0.1677
  C  C274  1  0.692700  0.015500  0.355900  1.0  0.1683
  C  C275  1  0.698000  0.292100  0.579700  1.0  0.3278
  C  C276  1  0.707800  0.261300  0.537700  1.0  -0.0718
  C  C277  1  0.694300  0.267300  0.474400  1.0  -0.1227
  C  C278  1  0.726100  0.225300  0.556500  1.0  -0.126
  C  C279  1  0.734100  0.197700  0.513100  1.0  0.1489
  C  C280  1  0.707400  0.236400  0.436900  1.0  0.1575
  C  C281  1  0.954500  0.303400  0.819600  1.0  0.3751
  C  C282  1  0.992900  0.272900  0.798500  1.0  -0.0608
  C  C283  1  0.051600  0.279100  0.769400  1.0  -0.1341
  C  C284  1  0.974300  0.235800  0.807300  1.0  -0.1479
  C  C285  1  0.017200  0.206700  0.788900  1.0  0.1626
  C  C286  1  0.088500  0.248800  0.751300  1.0  0.1454
  C  C287  1  0.574000  0.374200  0.933400  1.0  0.3326
  C  C288  1  0.523000  0.385400  0.977500  1.0  -0.0805
  C  C289  1  0.459900  0.382800  0.959700  1.0  -0.1103
  C  C290  1  0.540500  0.397400  0.034100  1.0  -0.1646
  C  C291  1  0.491400  0.405300  0.074300  1.0  0.1342
  C  C292  1  0.414500  0.393600  0.003100  1.0  0.1443
  C  C293  1  0.789900  0.573600  0.770800  1.0  0.3492
  C  C294  1  0.818700  0.542700  0.802800  1.0  -0.0289
  C  C295  1  0.779900  0.515600  0.831400  1.0  -0.1486
  C  C296  1  0.884500  0.536500  0.803500  1.0  -0.1892
  C  C297  1  0.907500  0.504700  0.829700  1.0  0.1683
  C  C298  1  0.807300  0.484500  0.855900  1.0  0.17
  C  C299  1  0.802000  0.207900  0.079700  1.0  0.3272
  C  C300  1  0.792200  0.238700  0.037700  1.0  -0.0702
  C  C301  1  0.805700  0.232700  0.974400  1.0  -0.1218
  C  C302  1  0.773900  0.274700  0.056500  1.0  -0.1277
  C  C303  1  0.765900  0.302300  0.013100  1.0  0.1473
  C  C304  1  0.792600  0.263600  0.936900  1.0  0.1572
  C  C305  1  0.545500  0.803400  0.180400  1.0  0.3744
  C  C306  1  0.507100  0.772900  0.201500  1.0  -0.0612
  C  C307  1  0.448400  0.779100  0.230600  1.0  -0.1349
  C  C308  1  0.525700  0.735800  0.192700  1.0  -0.1459
  C  C309  1  0.482800  0.706700  0.211100  1.0  0.1624
  C  C310  1  0.411500  0.748800  0.248700  1.0  0.1434
  C  C311  1  0.926000  0.874200  0.066600  1.0  0.3324
  C  C312  1  0.977000  0.885400  0.022500  1.0  -0.0802
  C  C313  1  0.040100  0.882800  0.040300  1.0  -0.1112
  C  C314  1  0.959500  0.897400  0.965900  1.0  -0.1679
  C  C315  1  0.008600  0.905300  0.925700  1.0  0.1357
  C  C316  1  0.085500  0.893600  0.996900  1.0  0.1462
  C  C317  1  0.710100  0.073600  0.229200  1.0  0.3494
  C  C318  1  0.681300  0.042700  0.197200  1.0  -0.0275
  C  C319  1  0.720100  0.015600  0.168600  1.0  -0.147
  C  C320  1  0.615500  0.036500  0.196500  1.0  -0.1911
  C  C321  1  0.592500  0.004700  0.170300  1.0  0.1685
  C  C322  1  0.692700  0.984500  0.144100  1.0  0.1679
  C  C323  1  0.698000  0.707900  0.920300  1.0  0.3271
  C  C324  1  0.707800  0.738700  0.962300  1.0  -0.0718
  C  C325  1  0.694300  0.732700  0.025600  1.0  -0.122
  C  C326  1  0.726100  0.774700  0.943500  1.0  -0.1289
  C  C327  1  0.734100  0.802300  0.986900  1.0  0.1479
  C  C328  1  0.707400  0.763600  0.063100  1.0  0.1565
  C  C329  1  0.954500  0.696600  0.680400  1.0  0.3745
  C  C330  1  0.992900  0.727100  0.701500  1.0  -0.0613
  C  C331  1  0.051600  0.720900  0.730600  1.0  -0.1349
  C  C332  1  0.974300  0.764200  0.692700  1.0  -0.1457
  C  C333  1  0.017200  0.793300  0.711100  1.0  0.162
  C  C334  1  0.088500  0.751200  0.748700  1.0  0.1448
  C  C335  1  0.574000  0.625800  0.566600  1.0  0.3325
  C  C336  1  0.523000  0.614600  0.522500  1.0  -0.0805
  C  C337  1  0.459900  0.617200  0.540300  1.0  -0.1126
  C  C338  1  0.540500  0.602600  0.465900  1.0  -0.1654
  C  C339  1  0.491400  0.594700  0.425700  1.0  0.1343
  C  C340  1  0.414500  0.606400  0.496900  1.0  0.1456
  C  C341  1  0.789900  0.426400  0.729200  1.0  0.3492
  C  C342  1  0.818700  0.457300  0.697200  1.0  -0.0287
  C  C343  1  0.779900  0.484400  0.668600  1.0  -0.1517
  C  C344  1  0.884500  0.463500  0.696500  1.0  -0.1949
  C  C345  1  0.907500  0.495300  0.670300  1.0  0.1681
  C  C346  1  0.807300  0.515500  0.644100  1.0  0.1694
  C  C347  1  0.802000  0.792100  0.420300  1.0  0.3269
  C  C348  1  0.792200  0.761300  0.462300  1.0  -0.0707
  C  C349  1  0.805700  0.767300  0.525600  1.0  -0.1217
  C  C350  1  0.773900  0.725300  0.443500  1.0  -0.1281
  C  C351  1  0.765900  0.697700  0.486900  1.0  0.1475
  C  C352  1  0.792600  0.736400  0.563100  1.0  0.1564
  N  N353  1  0.418600  0.857400  0.654500  1.0  -0.2343
  N  N354  1  0.374600  0.831200  0.643800  1.0  -0.057
  N  N355  1  0.472900  0.839200  0.679700  1.0  -0.3595
  N  N356  1  0.395500  0.796900  0.659600  1.0  -0.3446
  N  N357  1  0.571600  0.712400  0.737800  1.0  -0.3484
  N  N358  1  0.164100  0.858700  0.603600  1.0  -0.0693
  N  N359  1  0.119700  0.854500  0.645600  1.0  0.0024
  N  N360  1  0.062500  0.863700  0.623000  1.0  -0.3048
  N  N361  1  0.136200  0.872000  0.551800  1.0  -0.3466
  N  N362  1  0.930300  0.904100  0.440200  1.0  -0.386
  N  N363  1  0.271200  0.116500  0.792300  1.0  -0.0024
  N  N364  1  0.223700  0.116700  0.754000  1.0  -0.0324
  N  N365  1  0.233700  0.090350  0.713600  1.0  -0.264
  N  N366  1  0.313300  0.089070  0.777200  1.0  -0.2894
  N  N367  1  0.371400  0.978500  0.646300  1.0  -0.3731
  N  N368  1  0.323700  0.679200  0.339200  1.0  -0.0359
  N  N369  1  0.318700  0.655300  0.382900  1.0  -0.0819
  N  N370  1  0.308300  0.672600  0.436600  1.0  -0.344
  N  N371  1  0.311700  0.714300  0.361400  1.0  -0.3537
  N  N372  1  0.274400  0.796800  0.544700  1.0  -0.3393
  N  N373  1  0.081400  0.642600  0.154500  1.0  -0.2323
  N  N374  1  0.125400  0.668800  0.143800  1.0  -0.058
  N  N375  1  0.027100  0.660800  0.179700  1.0  -0.362
  N  N376  1  0.104500  0.703100  0.159600  1.0  -0.3421
  N  N377  1  0.928400  0.787600  0.237800  1.0  -0.3499
  N  N378  1  0.335900  0.641300  0.103600  1.0  -0.0677
  N  N379  1  0.380300  0.645500  0.145600  1.0  0.0024
  N  N380  1  0.437500  0.636300  0.123000  1.0  -0.3
  N  N381  1  0.363800  0.628000  0.051800  1.0  -0.3498
  N  N382  1  0.569700  0.595900  0.940200  1.0  -0.3918
  N  N383  1  0.228800  0.383500  0.292300  1.0  -0.0004
  N  N384  1  0.276300  0.383300  0.254000  1.0  -0.0324
  N  N385  1  0.266300  0.409650  0.213600  1.0  -0.263
  N  N386  1  0.186700  0.410930  0.277200  1.0  -0.2888
  N  N387  1  0.128600  0.521500  0.146300  1.0  -0.3723
  N  N388  1  0.176300  0.820800  0.839200  1.0  -0.0362
  N  N389  1  0.181300  0.844700  0.882900  1.0  -0.0789
  N  N390  1  0.191700  0.827400  0.936600  1.0  -0.3448
  N  N391  1  0.188300  0.785700  0.861400  1.0  -0.3541
  N  N392  1  0.225600  0.703200  0.044700  1.0  -0.3349
  N  N393  1  0.418600  0.142600  0.845500  1.0  -0.2352
  N  N394  1  0.374600  0.168800  0.856200  1.0  -0.0578
  N  N395  1  0.472900  0.160800  0.820300  1.0  -0.3604
  N  N396  1  0.395500  0.203100  0.840400  1.0  -0.3415
  N  N397  1  0.571600  0.287600  0.762200  1.0  -0.3496
  N  N398  1  0.164100  0.141300  0.896400  1.0  -0.0688
  N  N399  1  0.119700  0.145500  0.854400  1.0  0.0039
  N  N400  1  0.062500  0.136300  0.877000  1.0  -0.3032
  N  N401  1  0.136200  0.128000  0.948200  1.0  -0.3451
  N  N402  1  0.930300  0.095900  0.059800  1.0  -0.3885
  N  N403  1  0.271200  0.883500  0.707700  1.0  -0.0002
  N  N404  1  0.223700  0.883300  0.746000  1.0  -0.0323
  N  N405  1  0.233700  0.909650  0.786400  1.0  -0.2633
  N  N406  1  0.313300  0.910930  0.722800  1.0  -0.2884
  N  N407  1  0.371400  0.021500  0.853700  1.0  -0.3733
  N  N408  1  0.323700  0.320800  0.160800  1.0  -0.0384
  N  N409  1  0.318700  0.344700  0.117100  1.0  -0.0804
  N  N410  1  0.308300  0.327400  0.063400  1.0  -0.3455
  N  N411  1  0.311700  0.285700  0.138600  1.0  -0.3517
  N  N412  1  0.274400  0.203200  0.955300  1.0  -0.3375
  N  N413  1  0.081400  0.357400  0.345500  1.0  -0.2354
  N  N414  1  0.125400  0.331200  0.356200  1.0  -0.0579
  N  N415  1  0.027100  0.339200  0.320300  1.0  -0.359
  N  N416  1  0.104500  0.296900  0.340400  1.0  -0.3378
  N  N417  1  0.928400  0.212400  0.262200  1.0  -0.3501
  N  N418  1  0.335900  0.358700  0.396400  1.0  -0.0684
  N  N419  1  0.380300  0.354500  0.354400  1.0  0.0038
  N  N420  1  0.437500  0.363700  0.377000  1.0  -0.2989
  N  N421  1  0.363800  0.372000  0.448200  1.0  -0.3421
  N  N422  1  0.569700  0.404100  0.559800  1.0  -0.3893
  N  N423  1  0.228800  0.616500  0.207700  1.0  0.0
  N  N424  1  0.276300  0.616700  0.246000  1.0  -0.0331
  N  N425  1  0.266300  0.590350  0.286400  1.0  -0.2615
  N  N426  1  0.186700  0.589070  0.222800  1.0  -0.2881
  N  N427  1  0.128600  0.478500  0.353700  1.0  -0.3719
  N  N428  1  0.176300  0.179200  0.660800  1.0  -0.0384
  N  N429  1  0.181300  0.155300  0.617100  1.0  -0.0813
  N  N430  1  0.191700  0.172600  0.563400  1.0  -0.3453
  N  N431  1  0.188300  0.214300  0.638600  1.0  -0.3518
  N  N432  1  0.225600  0.296800  0.455300  1.0  -0.3348
  N  N433  1  0.581400  0.142600  0.345500  1.0  -0.2325
  N  N434  1  0.625400  0.168800  0.356200  1.0  -0.0581
  N  N435  1  0.527100  0.160800  0.320300  1.0  -0.3614
  N  N436  1  0.604500  0.203100  0.340400  1.0  -0.3416
  N  N437  1  0.428400  0.287600  0.262200  1.0  -0.347
  N  N438  1  0.835900  0.141300  0.396400  1.0  -0.0678
  N  N439  1  0.880300  0.145500  0.354400  1.0  0.0038
  N  N440  1  0.937500  0.136300  0.377000  1.0  -0.2999
  N  N441  1  0.863800  0.128000  0.448200  1.0  -0.3487
  N  N442  1  0.069700  0.095900  0.559800  1.0  -0.3895
  N  N443  1  0.728800  0.883500  0.207700  1.0  0.0013
  N  N444  1  0.776300  0.883300  0.246000  1.0  -0.0322
  N  N445  1  0.766300  0.909650  0.286400  1.0  -0.2621
  N  N446  1  0.686700  0.910930  0.222800  1.0  -0.2878
  N  N447  1  0.628600  0.021500  0.353700  1.0  -0.3717
  N  N448  1  0.676300  0.320800  0.660800  1.0  -0.0383
  N  N449  1  0.681300  0.344700  0.617100  1.0  -0.0793
  N  N450  1  0.691700  0.327400  0.563400  1.0  -0.3445
  N  N451  1  0.688300  0.285700  0.638600  1.0  -0.353
  N  N452  1  0.725600  0.203200  0.455300  1.0  -0.3338
  N  N453  1  0.918600  0.357400  0.845500  1.0  -0.235
  N  N454  1  0.874600  0.331200  0.856200  1.0  -0.0573
  N  N455  1  0.972900  0.339200  0.820300  1.0  -0.3576
  N  N456  1  0.895500  0.296900  0.840400  1.0  -0.3441
  N  N457  1  0.071600  0.212400  0.762200  1.0  -0.3491
  N  N458  1  0.664100  0.358700  0.896400  1.0  -0.0695
  N  N459  1  0.619700  0.354500  0.854400  1.0  0.0038
  N  N460  1  0.562500  0.363700  0.877000  1.0  -0.3047
  N  N461  1  0.636200  0.372000  0.948200  1.0  -0.3447
  N  N462  1  0.430300  0.404100  0.059800  1.0  -0.3858
  N  N463  1  0.771200  0.616500  0.707700  1.0  -0.0009
  N  N464  1  0.723700  0.616700  0.746000  1.0  -0.0323
  N  N465  1  0.733700  0.590350  0.786400  1.0  -0.2635
  N  N466  1  0.813300  0.589070  0.722800  1.0  -0.2892
  N  N467  1  0.871400  0.478500  0.853700  1.0  -0.3723
  N  N468  1  0.823700  0.179200  0.160800  1.0  -0.0382
  N  N469  1  0.818700  0.155300  0.117100  1.0  -0.0819
  N  N470  1  0.808300  0.172600  0.063400  1.0  -0.3449
  N  N471  1  0.811700  0.214300  0.138600  1.0  -0.3534
  N  N472  1  0.774400  0.296800  0.955300  1.0  -0.3362
  N  N473  1  0.581400  0.857400  0.154500  1.0  -0.235
  N  N474  1  0.625400  0.831200  0.143800  1.0  -0.0576
  N  N475  1  0.527100  0.839200  0.179700  1.0  -0.359
  N  N476  1  0.604500  0.796900  0.159600  1.0  -0.3387
  N  N477  1  0.428400  0.712400  0.237800  1.0  -0.3462
  N  N478  1  0.835900  0.858700  0.103600  1.0  -0.0684
  N  N479  1  0.880300  0.854500  0.145600  1.0  0.0025
  N  N480  1  0.937500  0.863700  0.123000  1.0  -0.2992
  N  N481  1  0.863800  0.872000  0.051800  1.0  -0.3493
  N  N482  1  0.069700  0.904100  0.940200  1.0  -0.3927
  N  N483  1  0.728800  0.116500  0.292300  1.0  -0.0008
  N  N484  1  0.776300  0.116700  0.254000  1.0  -0.0333
  N  N485  1  0.766300  0.090350  0.213600  1.0  -0.2629
  N  N486  1  0.686700  0.089070  0.277200  1.0  -0.2895
  N  N487  1  0.628600  0.978500  0.146300  1.0  -0.3729
  N  N488  1  0.676300  0.679200  0.839200  1.0  -0.0363
  N  N489  1  0.681300  0.655300  0.882900  1.0  -0.0809
  N  N490  1  0.691700  0.672600  0.936600  1.0  -0.3452
  N  N491  1  0.688300  0.714300  0.861400  1.0  -0.3526
  N  N492  1  0.725600  0.796800  0.044700  1.0  -0.3356
  N  N493  1  0.918600  0.642600  0.654500  1.0  -0.2348
  N  N494  1  0.874600  0.668800  0.643800  1.0  -0.0576
  N  N495  1  0.972900  0.660800  0.679700  1.0  -0.3579
  N  N496  1  0.895500  0.703100  0.659600  1.0  -0.3418
  N  N497  1  0.071600  0.787600  0.737800  1.0  -0.3499
  N  N498  1  0.664100  0.641300  0.603600  1.0  -0.0687
  N  N499  1  0.619700  0.645500  0.645600  1.0  0.0025
  N  N500  1  0.562500  0.636300  0.623000  1.0  -0.3028
  N  N501  1  0.636200  0.628000  0.551800  1.0  -0.3506
  N  N502  1  0.430300  0.595900  0.440200  1.0  -0.3876
  N  N503  1  0.771200  0.383500  0.792300  1.0  -0.0012
  N  N504  1  0.723700  0.383300  0.754000  1.0  -0.0325
  N  N505  1  0.733700  0.409650  0.713600  1.0  -0.2633
  N  N506  1  0.813300  0.410930  0.777200  1.0  -0.288
  N  N507  1  0.871400  0.521500  0.646300  1.0  -0.3745
  N  N508  1  0.823700  0.820800  0.339200  1.0  -0.036
  N  N509  1  0.818700  0.844700  0.382900  1.0  -0.0805
  N  N510  1  0.808300  0.827400  0.436600  1.0  -0.3455
  N  N511  1  0.811700  0.785700  0.361400  1.0  -0.3524
  N  N512  1  0.774400  0.703200  0.544700  1.0  -0.3388
  Cl  Cl513  1  0.312450  0.901400  0.559450  1.0  -0.5306
  Cl  Cl514  1  0.230740  0.791970  0.695550  1.0  -0.5264
  Cl  Cl515  1  0.067240  0.114830  0.712440  1.0  -0.4811
  Cl  Cl516  1  0.187550  0.598600  0.059450  1.0  -0.5296
  Cl  Cl517  1  0.269260  0.708030  0.195550  1.0  -0.5257
  Cl  Cl518  1  0.432760  0.385170  0.212440  1.0  -0.4814
  Cl  Cl519  1  0.312450  0.098600  0.940550  1.0  -0.5316
  Cl  Cl520  1  0.230740  0.208030  0.804450  1.0  -0.5255
  Cl  Cl521  1  0.067240  0.885170  0.787560  1.0  -0.481
  Cl  Cl522  1  0.187550  0.401400  0.440550  1.0  -0.5312
  Cl  Cl523  1  0.269260  0.291970  0.304450  1.0  -0.527
  Cl  Cl524  1  0.432760  0.614830  0.287560  1.0  -0.4817
  Cl  Cl525  1  0.687550  0.098600  0.440550  1.0  -0.5311
  Cl  Cl526  1  0.769260  0.208030  0.304450  1.0  -0.5258
  Cl  Cl527  1  0.932760  0.885170  0.287560  1.0  -0.4814
  Cl  Cl528  1  0.812450  0.401400  0.940550  1.0  -0.5316
  Cl  Cl529  1  0.730740  0.291970  0.804450  1.0  -0.5267
  Cl  Cl530  1  0.567240  0.614830  0.787560  1.0  -0.4816
  Cl  Cl531  1  0.687550  0.901400  0.059450  1.0  -0.5304
  Cl  Cl532  1  0.769260  0.791970  0.195550  1.0  -0.5264
  Cl  Cl533  1  0.932760  0.114830  0.212440  1.0  -0.4818
  Cl  Cl534  1  0.812450  0.598600  0.559450  1.0  -0.5298
  Cl  Cl535  1  0.730740  0.708030  0.695550  1.0  -0.5255
  Cl  Cl536  1  0.567240  0.385170  0.712440  1.0  -0.4807
