# generated using pymatgen
data_YbH27C38O9
_symmetry_space_group_name_H-M   'P 1'
_cell_length_a   16.07980000
_cell_length_b   22.70960000
_cell_length_c   38.48400000
_cell_angle_alpha   90.00000000
_cell_angle_beta   90.00000000
_cell_angle_gamma   90.00000000
_symmetry_Int_Tables_number   1
_chemical_formula_structural   YbH27C38O9
_chemical_formula_sum   'Yb8 H216 C304 O72'
_cell_volume   14053.04165086
_cell_formula_units_Z   8
loop_
 _symmetry_equiv_pos_site_id
 _symmetry_equiv_pos_as_xyz
  1  'x, y, z'
loop_
 _atom_site_type_symbol
 _atom_site_label
 _atom_site_symmetry_multiplicity
 _atom_site_fract_x
 _atom_site_fract_y
 _atom_site_fract_z
 _atom_site_occupancy
 _atom_site_charge
  Yb  Yb1  1  0.250000  0.500000  0.532580  1.0  1.3413
  Yb  Yb2  1  0.250000  0.000000  0.967420  1.0  1.3427
  Yb  Yb3  1  0.750000  0.500000  0.467420  1.0  1.3427
  Yb  Yb4  1  0.750000  0.000000  0.032580  1.0  1.3413
  Yb  Yb5  1  0.500000  0.500000  0.500000  1.0  1.39
  Yb  Yb6  1  0.000000  0.500000  0.500000  1.0  1.39
  Yb  Yb7  1  0.000000  0.000000  0.000000  1.0  1.39
  Yb  Yb8  1  0.500000  0.000000  0.000000  1.0  1.39
  H  H9  1  0.437100  0.640700  0.424900  1.0  0.1095
  H  H10  1  0.393500  0.703700  0.381100  1.0  0.1242
  H  H11  1  0.155300  0.672000  0.406600  1.0  0.1234
  H  H12  1  0.199000  0.608900  0.450400  1.0  0.1065
  H  H13  1  0.294100  0.742900  0.344200  1.0  0.0967
  H  H14  1  0.134400  0.731700  0.361000  1.0  0.0942
  H  H15  1  0.991400  0.816000  0.272700  1.0  0.1229
  H  H16  1  0.272400  0.796200  0.297400  1.0  0.1323
  H  H17  1  0.875400  0.755400  0.337400  1.0  0.1569
  H  H18  1  0.896600  0.780500  0.300500  1.0  0.1478
  H  H19  1  0.910300  0.819500  0.333600  1.0  0.1576
  H  H20  1  0.128400  0.861900  0.204300  1.0  0.103
  H  H21  1  0.968000  0.858000  0.221800  1.0  0.1282
  H  H22  1  0.885400  0.901100  0.185400  1.0  0.1168
  H  H23  1  0.837600  0.934900  0.131100  1.0  0.1282
  H  H24  1  0.069100  0.928500  0.096500  1.0  0.0929
  H  H25  1  0.113000  0.893300  0.148800  1.0  0.1141
  H  H26  1  0.463300  0.357800  0.481000  1.0  0.1061
  H  H27  1  0.508800  0.261900  0.472600  1.0  0.13
  H  H28  1  0.385900  0.211100  0.558400  1.0  0.1285
  H  H29  1  0.340500  0.306900  0.566800  1.0  0.1198
  H  H30  1  0.513900  0.160700  0.488000  1.0  0.1113
  H  H31  1  0.407700  0.120000  0.533800  1.0  0.1047
  H  H32  1  0.550600  0.076800  0.467700  1.0  0.1167
  H  H33  1  0.342300  0.000100  0.598000  1.0  0.1421
  H  H34  1  0.349500  0.950700  0.569700  1.0  0.1358
  H  H35  1  0.426300  0.966100  0.593100  1.0  0.1453
  H  H36  1  0.062900  0.359300  0.424900  1.0  0.1106
  H  H37  1  0.106500  0.296300  0.381100  1.0  0.1247
  H  H38  1  0.344700  0.328000  0.406600  1.0  0.1235
  H  H39  1  0.301000  0.391100  0.450400  1.0  0.1066
  H  H40  1  0.205900  0.257100  0.344200  1.0  0.0953
  H  H41  1  0.365600  0.268300  0.361000  1.0  0.0942
  H  H42  1  0.508600  0.184000  0.272700  1.0  0.1235
  H  H43  1  0.227600  0.203800  0.297400  1.0  0.1333
  H  H44  1  0.624600  0.244600  0.337400  1.0  0.1565
  H  H45  1  0.603400  0.219500  0.300500  1.0  0.1495
  H  H46  1  0.589700  0.180500  0.333600  1.0  0.1598
  H  H47  1  0.371600  0.138100  0.204300  1.0  0.1035
  H  H48  1  0.532000  0.142000  0.221800  1.0  0.1281
  H  H49  1  0.614600  0.098900  0.185400  1.0  0.1173
  H  H50  1  0.662400  0.065100  0.131100  1.0  0.1281
  H  H51  1  0.430900  0.071500  0.096500  1.0  0.0923
  H  H52  1  0.387000  0.106700  0.148800  1.0  0.1151
  H  H53  1  0.036700  0.642200  0.481000  1.0  0.1064
  H  H54  1  0.991200  0.738100  0.472600  1.0  0.1306
  H  H55  1  0.114100  0.788900  0.558400  1.0  0.1286
  H  H56  1  0.159500  0.693100  0.566800  1.0  0.1189
  H  H57  1  0.986100  0.839300  0.488000  1.0  0.1112
  H  H58  1  0.092300  0.880000  0.533800  1.0  0.1051
  H  H59  1  0.949400  0.923200  0.467700  1.0  0.1169
  H  H60  1  0.157700  0.999900  0.598000  1.0  0.1428
  H  H61  1  0.150500  0.049300  0.569700  1.0  0.1369
  H  H62  1  0.073700  0.033900  0.593100  1.0  0.1468
  H  H63  1  0.062900  0.140700  0.075100  1.0  0.1105
  H  H64  1  0.106500  0.203700  0.118900  1.0  0.1248
  H  H65  1  0.344700  0.172000  0.093400  1.0  0.1234
  H  H66  1  0.301000  0.108900  0.049600  1.0  0.1063
  H  H67  1  0.205900  0.242900  0.155800  1.0  0.0958
  H  H68  1  0.365600  0.231700  0.139000  1.0  0.0945
  H  H69  1  0.508600  0.316000  0.227300  1.0  0.1242
  H  H70  1  0.227600  0.296200  0.202600  1.0  0.1327
  H  H71  1  0.624600  0.255400  0.162600  1.0  0.1568
  H  H72  1  0.603400  0.280500  0.199500  1.0  0.1468
  H  H73  1  0.589700  0.319500  0.166400  1.0  0.158
  H  H74  1  0.371600  0.361900  0.295700  1.0  0.1031
  H  H75  1  0.532000  0.358000  0.278200  1.0  0.1274
  H  H76  1  0.614600  0.401100  0.314600  1.0  0.1173
  H  H77  1  0.662400  0.434900  0.368900  1.0  0.1279
  H  H78  1  0.430900  0.428500  0.403500  1.0  0.0918
  H  H79  1  0.387000  0.393300  0.351200  1.0  0.1149
  H  H80  1  0.036700  0.857800  0.019000  1.0  0.1065
  H  H81  1  0.991200  0.761900  0.027400  1.0  0.1307
  H  H82  1  0.114100  0.711100  0.941600  1.0  0.1285
  H  H83  1  0.159500  0.806900  0.933200  1.0  0.1196
  H  H84  1  0.986100  0.660700  0.012000  1.0  0.1112
  H  H85  1  0.092300  0.620000  0.966200  1.0  0.1054
  H  H86  1  0.949400  0.576800  0.032300  1.0  0.1171
  H  H87  1  0.157700  0.500100  0.902000  1.0  0.1419
  H  H88  1  0.150500  0.450700  0.930300  1.0  0.1357
  H  H89  1  0.073700  0.466100  0.906900  1.0  0.1451
  H  H90  1  0.437100  0.859300  0.075100  1.0  0.1097
  H  H91  1  0.393500  0.796300  0.118900  1.0  0.1246
  H  H92  1  0.155300  0.828000  0.093400  1.0  0.1232
  H  H93  1  0.199000  0.891100  0.049600  1.0  0.1067
  H  H94  1  0.294100  0.757100  0.155800  1.0  0.0958
  H  H95  1  0.134400  0.768300  0.139000  1.0  0.0947
  H  H96  1  0.991400  0.684000  0.227300  1.0  0.1241
  H  H97  1  0.272400  0.703800  0.202600  1.0  0.1323
  H  H98  1  0.875400  0.744600  0.162600  1.0  0.1568
  H  H99  1  0.896600  0.719500  0.199500  1.0  0.1469
  H  H100  1  0.910300  0.680500  0.166400  1.0  0.1595
  H  H101  1  0.128400  0.638100  0.295700  1.0  0.1037
  H  H102  1  0.968000  0.642000  0.278200  1.0  0.1283
  H  H103  1  0.885400  0.598900  0.314600  1.0  0.1171
  H  H104  1  0.837600  0.565100  0.368900  1.0  0.1282
  H  H105  1  0.069100  0.571500  0.403500  1.0  0.0927
  H  H106  1  0.113000  0.606700  0.351200  1.0  0.114
  H  H107  1  0.463300  0.142200  0.019000  1.0  0.107
  H  H108  1  0.508800  0.238100  0.027400  1.0  0.1299
  H  H109  1  0.385900  0.288900  0.941600  1.0  0.1281
  H  H110  1  0.340500  0.193100  0.933200  1.0  0.1194
  H  H111  1  0.513900  0.339300  0.012000  1.0  0.1112
  H  H112  1  0.407700  0.380000  0.966200  1.0  0.1057
  H  H113  1  0.550600  0.423200  0.032300  1.0  0.1172
  H  H114  1  0.342300  0.499900  0.902000  1.0  0.1422
  H  H115  1  0.349500  0.549300  0.930300  1.0  0.1364
  H  H116  1  0.426300  0.533900  0.906900  1.0  0.1455
  H  H117  1  0.562900  0.359300  0.575100  1.0  0.1104
  H  H118  1  0.606500  0.296300  0.618900  1.0  0.1251
  H  H119  1  0.844700  0.328000  0.593400  1.0  0.1231
  H  H120  1  0.801000  0.391100  0.549600  1.0  0.1065
  H  H121  1  0.705900  0.257100  0.655800  1.0  0.0957
  H  H122  1  0.865600  0.268300  0.639000  1.0  0.0946
  H  H123  1  0.008600  0.184000  0.727300  1.0  0.124
  H  H124  1  0.727600  0.203800  0.702600  1.0  0.1331
  H  H125  1  0.124600  0.244600  0.662600  1.0  0.157
  H  H126  1  0.103400  0.219500  0.699500  1.0  0.1479
  H  H127  1  0.089700  0.180500  0.666400  1.0  0.1594
  H  H128  1  0.871600  0.138100  0.795700  1.0  0.1031
  H  H129  1  0.032000  0.142000  0.778200  1.0  0.1278
  H  H130  1  0.114600  0.098900  0.814600  1.0  0.1176
  H  H131  1  0.162400  0.065100  0.868900  1.0  0.1279
  H  H132  1  0.930900  0.071500  0.903500  1.0  0.0921
  H  H133  1  0.887000  0.106700  0.851200  1.0  0.1148
  H  H134  1  0.536700  0.642200  0.519000  1.0  0.1068
  H  H135  1  0.491200  0.738100  0.527400  1.0  0.1306
  H  H136  1  0.614100  0.788900  0.441600  1.0  0.1287
  H  H137  1  0.659500  0.693100  0.433200  1.0  0.1195
  H  H138  1  0.486100  0.839300  0.512000  1.0  0.1112
  H  H139  1  0.592300  0.880000  0.466200  1.0  0.1056
  H  H140  1  0.449400  0.923200  0.532300  1.0  0.1165
  H  H141  1  0.657700  0.999900  0.402000  1.0  0.1429
  H  H142  1  0.650500  0.049300  0.430300  1.0  0.1376
  H  H143  1  0.573700  0.033900  0.406900  1.0  0.1437
  H  H144  1  0.937100  0.640700  0.575100  1.0  0.1097
  H  H145  1  0.893500  0.703700  0.618900  1.0  0.1245
  H  H146  1  0.655300  0.672000  0.593400  1.0  0.1238
  H  H147  1  0.699000  0.608900  0.549600  1.0  0.1063
  H  H148  1  0.794100  0.742900  0.655800  1.0  0.0961
  H  H149  1  0.634400  0.731700  0.639000  1.0  0.0952
  H  H150  1  0.491400  0.816000  0.727300  1.0  0.1237
  H  H151  1  0.772400  0.796200  0.702600  1.0  0.1326
  H  H152  1  0.375400  0.755400  0.662600  1.0  0.1564
  H  H153  1  0.396600  0.780500  0.699500  1.0  0.1459
  H  H154  1  0.410300  0.819500  0.666400  1.0  0.1577
  H  H155  1  0.628400  0.861900  0.795700  1.0  0.1033
  H  H156  1  0.468000  0.858000  0.778200  1.0  0.1279
  H  H157  1  0.385400  0.901100  0.814600  1.0  0.1168
  H  H158  1  0.337600  0.934900  0.868900  1.0  0.1282
  H  H159  1  0.569100  0.928500  0.903500  1.0  0.0924
  H  H160  1  0.613000  0.893300  0.851200  1.0  0.1141
  H  H161  1  0.963300  0.357800  0.519000  1.0  0.1066
  H  H162  1  0.008800  0.261900  0.527400  1.0  0.1298
  H  H163  1  0.885900  0.211100  0.441600  1.0  0.1276
  H  H164  1  0.840500  0.306900  0.433200  1.0  0.1195
  H  H165  1  0.013900  0.160700  0.512000  1.0  0.111
  H  H166  1  0.907700  0.120000  0.466200  1.0  0.1055
  H  H167  1  0.050600  0.076800  0.532300  1.0  0.1168
  H  H168  1  0.842300  0.000100  0.402000  1.0  0.1424
  H  H169  1  0.849500  0.950700  0.430300  1.0  0.136
  H  H170  1  0.926300  0.966100  0.406900  1.0  0.1466
  H  H171  1  0.937100  0.859300  0.924900  1.0  0.1096
  H  H172  1  0.893500  0.796300  0.881100  1.0  0.1243
  H  H173  1  0.655300  0.828000  0.906600  1.0  0.1234
  H  H174  1  0.699000  0.891100  0.950400  1.0  0.1065
  H  H175  1  0.794100  0.757100  0.844200  1.0  0.0955
  H  H176  1  0.634400  0.768300  0.861000  1.0  0.0934
  H  H177  1  0.491400  0.684000  0.772700  1.0  0.1232
  H  H178  1  0.772400  0.703800  0.797400  1.0  0.1321
  H  H179  1  0.375400  0.744600  0.837400  1.0  0.1571
  H  H180  1  0.396600  0.719500  0.800500  1.0  0.1484
  H  H181  1  0.410300  0.680500  0.833600  1.0  0.1604
  H  H182  1  0.628400  0.638100  0.704300  1.0  0.1033
  H  H183  1  0.468000  0.642000  0.721800  1.0  0.1284
  H  H184  1  0.385400  0.598900  0.685400  1.0  0.1173
  H  H185  1  0.337600  0.565100  0.631100  1.0  0.1282
  H  H186  1  0.569100  0.571500  0.596500  1.0  0.0927
  H  H187  1  0.613000  0.606700  0.648800  1.0  0.1141
  H  H188  1  0.963300  0.142200  0.981000  1.0  0.1066
  H  H189  1  0.008800  0.238100  0.972600  1.0  0.13
  H  H190  1  0.885900  0.288900  0.058400  1.0  0.1283
  H  H191  1  0.840500  0.193100  0.066800  1.0  0.1194
  H  H192  1  0.013900  0.339300  0.988000  1.0  0.1113
  H  H193  1  0.907700  0.380000  0.033800  1.0  0.1051
  H  H194  1  0.050600  0.423200  0.967700  1.0  0.1164
  H  H195  1  0.842300  0.499900  0.098000  1.0  0.143
  H  H196  1  0.849500  0.549300  0.069700  1.0  0.1378
  H  H197  1  0.926300  0.533900  0.093100  1.0  0.1465
  H  H198  1  0.562900  0.140700  0.924900  1.0  0.1107
  H  H199  1  0.606500  0.203700  0.881100  1.0  0.1244
  H  H200  1  0.844700  0.172000  0.906600  1.0  0.1231
  H  H201  1  0.801000  0.108900  0.950400  1.0  0.1066
  H  H202  1  0.705900  0.242900  0.844200  1.0  0.096
  H  H203  1  0.865600  0.231700  0.861000  1.0  0.0944
  H  H204  1  0.008600  0.316000  0.772700  1.0  0.1238
  H  H205  1  0.727600  0.296200  0.797400  1.0  0.1329
  H  H206  1  0.124600  0.255400  0.837400  1.0  0.1563
  H  H207  1  0.103400  0.280500  0.800500  1.0  0.1487
  H  H208  1  0.089700  0.319500  0.833600  1.0  0.1575
  H  H209  1  0.871600  0.361900  0.704300  1.0  0.1032
  H  H210  1  0.032000  0.358000  0.721800  1.0  0.1277
  H  H211  1  0.114600  0.401100  0.685400  1.0  0.1168
  H  H212  1  0.162400  0.434900  0.631100  1.0  0.1279
  H  H213  1  0.930900  0.428500  0.596500  1.0  0.0925
  H  H214  1  0.887000  0.393300  0.648800  1.0  0.115
  H  H215  1  0.536700  0.857800  0.981000  1.0  0.106
  H  H216  1  0.491200  0.761900  0.972600  1.0  0.1306
  H  H217  1  0.614100  0.711100  0.058400  1.0  0.1287
  H  H218  1  0.659500  0.806900  0.066800  1.0  0.1193
  H  H219  1  0.486100  0.660700  0.988000  1.0  0.1114
  H  H220  1  0.592300  0.620000  0.033800  1.0  0.1048
  H  H221  1  0.449400  0.576800  0.967700  1.0  0.1165
  H  H222  1  0.657700  0.500100  0.098000  1.0  0.1427
  H  H223  1  0.650500  0.450700  0.069700  1.0  0.1368
  H  H224  1  0.573700  0.466100  0.093100  1.0  0.1459
  C  C225  1  0.347600  0.575600  0.469520  1.0  0.7408
  C  C226  1  0.322400  0.618500  0.442000  1.0  -0.1335
  C  C227  1  0.380600  0.646900  0.421200  1.0  -0.0411
  C  C228  1  0.354500  0.684700  0.395000  1.0  -0.0898
  C  C229  1  0.270100  0.694100  0.389500  1.0  0.0154
  C  C230  1  0.211800  0.665700  0.410300  1.0  -0.1096
  C  C231  1  0.238000  0.627900  0.436500  1.0  -0.0102
  C  C232  1  0.249400  0.729800  0.357400  1.0  -0.0682
  C  C233  1  0.178700  0.743300  0.347000  1.0  -0.0819
  C  C234  1  0.157100  0.776000  0.314700  1.0  -0.059
  C  C235  1  0.072900  0.782000  0.307300  1.0  0.1563
  C  C236  1  0.047700  0.812000  0.277600  1.0  -0.1268
  C  C237  1  0.106700  0.836200  0.255400  1.0  -0.0821
  C  C238  1  0.190900  0.830200  0.262800  1.0  0.2285
  C  C239  1  0.216100  0.800200  0.292500  1.0  -0.0836
  C  C240  1  0.912700  0.780200  0.324500  1.0  -0.2234
  C  C241  1  0.084500  0.856700  0.219700  1.0  -0.0522
  C  C242  1  0.014500  0.867400  0.208600  1.0  -0.1248
  C  C243  1  0.004000  0.895900  0.173200  1.0  0.0355
  C  C244  1  0.923200  0.906800  0.167400  1.0  -0.1344
  C  C245  1  0.893700  0.926800  0.134500  1.0  -0.0784
  C  C246  1  0.950500  0.933800  0.107890  1.0  -0.1491
  C  C247  1  0.030500  0.922600  0.114100  1.0  -0.037
  C  C248  1  0.057100  0.902600  0.145800  1.0  -0.1383
  C  C249  1  0.918500  0.953500  0.073210  1.0  0.7414
  C  C250  1  0.363800  0.401600  0.529090  1.0  0.6849
  C  C251  1  0.397400  0.341900  0.524740  1.0  -0.1091
  C  C252  1  0.447800  0.328400  0.496500  1.0  -0.0269
  C  C253  1  0.475100  0.271000  0.491500  1.0  -0.0899
  C  C254  1  0.451900  0.227000  0.514600  1.0  0.0268
  C  C255  1  0.401500  0.240500  0.542900  1.0  -0.1165
  C  C256  1  0.374200  0.297900  0.547920  1.0  -0.0349
  C  C257  1  0.474400  0.164300  0.505500  1.0  -0.0714
  C  C258  1  0.449500  0.117400  0.517200  1.0  -0.0671
  C  C259  1  0.477500  0.056800  0.508300  1.0  -0.0022
  C  C260  1  0.528400  0.045700  0.480500  1.0  -0.113
  C  C261  1  0.453600  0.011200  0.528500  1.0  0.3695
  C  C262  1  0.379000  0.981900  0.581300  1.0  -0.0326
  C  C263  1  0.152400  0.424400  0.469520  1.0  0.7401
  C  C264  1  0.177600  0.381500  0.442000  1.0  -0.1328
  C  C265  1  0.119400  0.353100  0.421200  1.0  -0.0423
  C  C266  1  0.145500  0.315300  0.395000  1.0  -0.0923
  C  C267  1  0.229900  0.305900  0.389500  1.0  0.015
  C  C268  1  0.288200  0.334300  0.410300  1.0  -0.1095
  C  C269  1  0.262000  0.372100  0.436500  1.0  -0.0111
  C  C270  1  0.250600  0.270200  0.357400  1.0  -0.0682
  C  C271  1  0.321300  0.256700  0.347000  1.0  -0.0822
  C  C272  1  0.342900  0.224000  0.314700  1.0  -0.058
  C  C273  1  0.427100  0.218000  0.307300  1.0  0.1572
  C  C274  1  0.452300  0.188000  0.277600  1.0  -0.1266
  C  C275  1  0.393300  0.163800  0.255400  1.0  -0.08
  C  C276  1  0.309100  0.169800  0.262800  1.0  0.2302
  C  C277  1  0.283900  0.199800  0.292500  1.0  -0.0831
  C  C278  1  0.587300  0.219800  0.324500  1.0  -0.2213
  C  C279  1  0.415500  0.143300  0.219700  1.0  -0.0528
  C  C280  1  0.485500  0.132600  0.208600  1.0  -0.1237
  C  C281  1  0.496000  0.104100  0.173200  1.0  0.0354
  C  C282  1  0.576800  0.093200  0.167400  1.0  -0.1334
  C  C283  1  0.606300  0.073200  0.134500  1.0  -0.0781
  C  C284  1  0.549500  0.066200  0.107890  1.0  -0.1489
  C  C285  1  0.469500  0.077400  0.114100  1.0  -0.037
  C  C286  1  0.442900  0.097400  0.145800  1.0  -0.14
  C  C287  1  0.581500  0.046500  0.073210  1.0  0.7417
  C  C288  1  0.136200  0.598400  0.529090  1.0  0.6848
  C  C289  1  0.102600  0.658100  0.524740  1.0  -0.1091
  C  C290  1  0.052200  0.671600  0.496500  1.0  -0.0272
  C  C291  1  0.024900  0.729000  0.491500  1.0  -0.0901
  C  C292  1  0.048100  0.773000  0.514600  1.0  0.028
  C  C293  1  0.098500  0.759500  0.542900  1.0  -0.1155
  C  C294  1  0.125800  0.702100  0.547920  1.0  -0.0358
  C  C295  1  0.025600  0.835700  0.505500  1.0  -0.0704
  C  C296  1  0.050500  0.882600  0.517200  1.0  -0.0676
  C  C297  1  0.022500  0.943200  0.508300  1.0  -0.0053
  C  C298  1  0.971600  0.954300  0.480500  1.0  -0.1142
  C  C299  1  0.046400  0.988800  0.528500  1.0  0.3626
  C  C300  1  0.121000  0.018100  0.581300  1.0  -0.0315
  C  C301  1  0.152400  0.075600  0.030480  1.0  0.7398
  C  C302  1  0.177600  0.118500  0.058000  1.0  -0.1333
  C  C303  1  0.119400  0.146900  0.078800  1.0  -0.0413
  C  C304  1  0.145500  0.184700  0.105000  1.0  -0.0937
  C  C305  1  0.229900  0.194100  0.110500  1.0  0.0176
  C  C306  1  0.288200  0.165700  0.089700  1.0  -0.1088
  C  C307  1  0.262000  0.127900  0.063500  1.0  -0.0114
  C  C308  1  0.250600  0.229800  0.142600  1.0  -0.0671
  C  C309  1  0.321300  0.243300  0.153000  1.0  -0.0819
  C  C310  1  0.342900  0.276000  0.185300  1.0  -0.0593
  C  C311  1  0.427100  0.282000  0.192700  1.0  0.1592
  C  C312  1  0.452300  0.312000  0.222400  1.0  -0.1253
  C  C313  1  0.393300  0.336200  0.244600  1.0  -0.0824
  C  C314  1  0.309100  0.330200  0.237200  1.0  0.2311
  C  C315  1  0.283900  0.300200  0.207500  1.0  -0.0823
  C  C316  1  0.587300  0.280200  0.175500  1.0  -0.2231
  C  C317  1  0.415500  0.356700  0.280300  1.0  -0.0505
  C  C318  1  0.485500  0.367400  0.291400  1.0  -0.1258
  C  C319  1  0.496000  0.395900  0.326800  1.0  0.035
  C  C320  1  0.576800  0.406800  0.332600  1.0  -0.1317
  C  C321  1  0.606300  0.426800  0.365500  1.0  -0.0778
  C  C322  1  0.549500  0.433800  0.392110  1.0  -0.1479
  C  C323  1  0.469500  0.422600  0.385900  1.0  -0.0361
  C  C324  1  0.442900  0.402600  0.354200  1.0  -0.1411
  C  C325  1  0.581500  0.453500  0.426790  1.0  0.7444
  C  C326  1  0.136200  0.901600  0.970910  1.0  0.6848
  C  C327  1  0.102600  0.841900  0.975260  1.0  -0.1096
  C  C328  1  0.052200  0.828400  0.003500  1.0  -0.0267
  C  C329  1  0.024900  0.771000  0.008500  1.0  -0.0878
  C  C330  1  0.048100  0.727000  0.985400  1.0  0.0269
  C  C331  1  0.098500  0.740500  0.957100  1.0  -0.1171
  C  C332  1  0.125800  0.797900  0.952080  1.0  -0.0357
  C  C333  1  0.025600  0.664300  0.994500  1.0  -0.0701
  C  C334  1  0.050500  0.617400  0.982800  1.0  -0.0682
  C  C335  1  0.022500  0.556800  0.991700  1.0  -0.004
  C  C336  1  0.971600  0.545700  0.019500  1.0  -0.1121
  C  C337  1  0.046400  0.511200  0.971500  1.0  0.363
  C  C338  1  0.121000  0.481900  0.918700  1.0  -0.031
  C  C339  1  0.347600  0.924400  0.030480  1.0  0.7399
  C  C340  1  0.322400  0.881500  0.058000  1.0  -0.1327
  C  C341  1  0.380600  0.853100  0.078800  1.0  -0.0407
  C  C342  1  0.354500  0.815300  0.105000  1.0  -0.0903
  C  C343  1  0.270100  0.805900  0.110500  1.0  0.0147
  C  C344  1  0.211800  0.834300  0.089700  1.0  -0.1094
  C  C345  1  0.238000  0.872100  0.063500  1.0  -0.0102
  C  C346  1  0.249400  0.770200  0.142600  1.0  -0.0676
  C  C347  1  0.178700  0.756700  0.153000  1.0  -0.083
  C  C348  1  0.157100  0.724000  0.185300  1.0  -0.0596
  C  C349  1  0.072900  0.718000  0.192700  1.0  0.1593
  C  C350  1  0.047700  0.688000  0.222400  1.0  -0.1256
  C  C351  1  0.106700  0.663800  0.244600  1.0  -0.0813
  C  C352  1  0.190900  0.669800  0.237200  1.0  0.2326
  C  C353  1  0.216100  0.699800  0.207500  1.0  -0.0848
  C  C354  1  0.912700  0.719800  0.175500  1.0  -0.22
  C  C355  1  0.084500  0.643300  0.280300  1.0  -0.0546
  C  C356  1  0.014500  0.632600  0.291400  1.0  -0.1252
  C  C357  1  0.004000  0.604100  0.326800  1.0  0.036
  C  C358  1  0.923200  0.593200  0.332600  1.0  -0.1346
  C  C359  1  0.893700  0.573200  0.365500  1.0  -0.0788
  C  C360  1  0.950500  0.566200  0.392110  1.0  -0.1477
  C  C361  1  0.030500  0.577400  0.385900  1.0  -0.0373
  C  C362  1  0.057100  0.597400  0.354200  1.0  -0.139
  C  C363  1  0.918500  0.546500  0.426790  1.0  0.7433
  C  C364  1  0.363800  0.098400  0.970910  1.0  0.6848
  C  C365  1  0.397400  0.158100  0.975260  1.0  -0.1096
  C  C366  1  0.447800  0.171600  0.003500  1.0  -0.0269
  C  C367  1  0.475100  0.229000  0.008500  1.0  -0.0884
  C  C368  1  0.451900  0.273000  0.985400  1.0  0.0274
  C  C369  1  0.401500  0.259500  0.957100  1.0  -0.117
  C  C370  1  0.374200  0.202100  0.952080  1.0  -0.0334
  C  C371  1  0.474400  0.335700  0.994500  1.0  -0.0708
  C  C372  1  0.449500  0.382600  0.982800  1.0  -0.0689
  C  C373  1  0.477500  0.443200  0.991700  1.0  -0.0036
  C  C374  1  0.528400  0.454300  0.019500  1.0  -0.1137
  C  C375  1  0.453600  0.488800  0.971500  1.0  0.3689
  C  C376  1  0.379000  0.518100  0.918700  1.0  -0.0309
  C  C377  1  0.652400  0.424400  0.530480  1.0  0.7396
  C  C378  1  0.677600  0.381500  0.558000  1.0  -0.1328
  C  C379  1  0.619400  0.353100  0.578800  1.0  -0.0415
  C  C380  1  0.645500  0.315300  0.605000  1.0  -0.0932
  C  C381  1  0.729900  0.305900  0.610500  1.0  0.016
  C  C382  1  0.788200  0.334300  0.589700  1.0  -0.1096
  C  C383  1  0.762000  0.372100  0.563500  1.0  -0.0111
  C  C384  1  0.750600  0.270200  0.642600  1.0  -0.0672
  C  C385  1  0.821300  0.256700  0.653000  1.0  -0.0831
  C  C386  1  0.842900  0.224000  0.685300  1.0  -0.0593
  C  C387  1  0.927100  0.218000  0.692700  1.0  0.16
  C  C388  1  0.952300  0.188000  0.722400  1.0  -0.1263
  C  C389  1  0.893300  0.163800  0.744600  1.0  -0.0803
  C  C390  1  0.809100  0.169800  0.737200  1.0  0.2291
  C  C391  1  0.783900  0.199800  0.707500  1.0  -0.0829
  C  C392  1  0.087300  0.219800  0.675500  1.0  -0.2215
  C  C393  1  0.915500  0.143300  0.780300  1.0  -0.0529
  C  C394  1  0.985500  0.132600  0.791400  1.0  -0.125
  C  C395  1  0.996000  0.104100  0.826800  1.0  0.0354
  C  C396  1  0.076800  0.093200  0.832600  1.0  -0.1331
  C  C397  1  0.106300  0.073200  0.865500  1.0  -0.0779
  C  C398  1  0.049500  0.066200  0.892110  1.0  -0.1479
  C  C399  1  0.969500  0.077400  0.885900  1.0  -0.036
  C  C400  1  0.942900  0.097400  0.854200  1.0  -0.1402
  C  C401  1  0.081500  0.046500  0.926790  1.0  0.7441
  C  C402  1  0.636200  0.598400  0.470910  1.0  0.6842
  C  C403  1  0.602600  0.658100  0.475260  1.0  -0.1099
  C  C404  1  0.552200  0.671600  0.503500  1.0  -0.0272
  C  C405  1  0.524900  0.729000  0.508500  1.0  -0.0885
  C  C406  1  0.548100  0.773000  0.485400  1.0  0.0278
  C  C407  1  0.598500  0.759500  0.457100  1.0  -0.118
  C  C408  1  0.625800  0.702100  0.452080  1.0  -0.035
  C  C409  1  0.525600  0.835700  0.494500  1.0  -0.0697
  C  C410  1  0.550500  0.882600  0.482800  1.0  -0.0688
  C  C411  1  0.522500  0.943200  0.491700  1.0  -0.0037
  C  C412  1  0.471600  0.954300  0.519500  1.0  -0.1143
  C  C413  1  0.546400  0.988800  0.471500  1.0  0.3627
  C  C414  1  0.621000  0.018100  0.418700  1.0  -0.031
  C  C415  1  0.847600  0.575600  0.530480  1.0  0.7401
  C  C416  1  0.822400  0.618500  0.558000  1.0  -0.1331
  C  C417  1  0.880600  0.646900  0.578800  1.0  -0.0405
  C  C418  1  0.854500  0.684700  0.605000  1.0  -0.0904
  C  C419  1  0.770100  0.694100  0.610500  1.0  0.0159
  C  C420  1  0.711800  0.665700  0.589700  1.0  -0.1092
  C  C421  1  0.738000  0.627900  0.563500  1.0  -0.0104
  C  C422  1  0.749400  0.729800  0.642600  1.0  -0.0676
  C  C423  1  0.678700  0.743300  0.653000  1.0  -0.0822
  C  C424  1  0.657100  0.776000  0.685300  1.0  -0.0598
  C  C425  1  0.572900  0.782000  0.692700  1.0  0.158
  C  C426  1  0.547700  0.812000  0.722400  1.0  -0.1258
  C  C427  1  0.606700  0.836200  0.744600  1.0  -0.0827
  C  C428  1  0.690900  0.830200  0.737200  1.0  0.2274
  C  C429  1  0.716100  0.800200  0.707500  1.0  -0.0842
  C  C430  1  0.412700  0.780200  0.675500  1.0  -0.2221
  C  C431  1  0.584500  0.856700  0.780300  1.0  -0.0521
  C  C432  1  0.514500  0.867400  0.791400  1.0  -0.1261
  C  C433  1  0.504000  0.895900  0.826800  1.0  0.0365
  C  C434  1  0.423200  0.906800  0.832600  1.0  -0.134
  C  C435  1  0.393700  0.926800  0.865500  1.0  -0.0792
  C  C436  1  0.450500  0.933800  0.892110  1.0  -0.1476
  C  C437  1  0.530500  0.922600  0.885900  1.0  -0.0371
  C  C438  1  0.557100  0.902600  0.854200  1.0  -0.1389
  C  C439  1  0.418500  0.953500  0.926790  1.0  0.7436
  C  C440  1  0.863800  0.401600  0.470910  1.0  0.6853
  C  C441  1  0.897400  0.341900  0.475260  1.0  -0.1092
  C  C442  1  0.947800  0.328400  0.503500  1.0  -0.0264
  C  C443  1  0.975100  0.271000  0.508500  1.0  -0.0877
  C  C444  1  0.951900  0.227000  0.485400  1.0  0.0267
  C  C445  1  0.901500  0.240500  0.457100  1.0  -0.1161
  C  C446  1  0.874200  0.297900  0.452080  1.0  -0.0337
  C  C447  1  0.974400  0.164300  0.494500  1.0  -0.0709
  C  C448  1  0.949500  0.117400  0.482800  1.0  -0.0683
  C  C449  1  0.977500  0.056800  0.491700  1.0  -0.0037
  C  C450  1  0.028400  0.045700  0.519500  1.0  -0.1124
  C  C451  1  0.953600  0.011200  0.471500  1.0  0.3568
  C  C452  1  0.879000  0.981900  0.418700  1.0  -0.0309
  C  C453  1  0.847600  0.924400  0.969520  1.0  0.7404
  C  C454  1  0.822400  0.881500  0.942000  1.0  -0.1333
  C  C455  1  0.880600  0.853100  0.921200  1.0  -0.0412
  C  C456  1  0.854500  0.815300  0.895000  1.0  -0.0895
  C  C457  1  0.770100  0.805900  0.889500  1.0  0.0142
  C  C458  1  0.711800  0.834300  0.910300  1.0  -0.1092
  C  C459  1  0.738000  0.872100  0.936500  1.0  -0.0101
  C  C460  1  0.749400  0.770200  0.857400  1.0  -0.0688
  C  C461  1  0.678700  0.756700  0.847000  1.0  -0.082
  C  C462  1  0.657100  0.724000  0.814700  1.0  -0.0592
  C  C463  1  0.572900  0.718000  0.807300  1.0  0.1566
  C  C464  1  0.547700  0.688000  0.777600  1.0  -0.1264
  C  C465  1  0.606700  0.663800  0.755400  1.0  -0.081
  C  C466  1  0.690900  0.669800  0.762800  1.0  0.2336
  C  C467  1  0.716100  0.699800  0.792500  1.0  -0.0836
  C  C468  1  0.412700  0.719800  0.824500  1.0  -0.2207
  C  C469  1  0.584500  0.643300  0.719700  1.0  -0.054
  C  C470  1  0.514500  0.632600  0.708600  1.0  -0.123
  C  C471  1  0.504000  0.604100  0.673200  1.0  0.0353
  C  C472  1  0.423200  0.593200  0.667400  1.0  -0.1351
  C  C473  1  0.393700  0.573200  0.634500  1.0  -0.078
  C  C474  1  0.450500  0.566200  0.607890  1.0  -0.15
  C  C475  1  0.530500  0.577400  0.614100  1.0  -0.0377
  C  C476  1  0.557100  0.597400  0.645800  1.0  -0.1387
  C  C477  1  0.418500  0.546500  0.573210  1.0  0.7413
  C  C478  1  0.863800  0.098400  0.029090  1.0  0.6846
  C  C479  1  0.897400  0.158100  0.024740  1.0  -0.1086
  C  C480  1  0.947800  0.171600  0.996500  1.0  -0.0271
  C  C481  1  0.975100  0.229000  0.991500  1.0  -0.0901
  C  C482  1  0.951900  0.273000  0.014600  1.0  0.0275
  C  C483  1  0.901500  0.259500  0.042900  1.0  -0.1178
  C  C484  1  0.874200  0.202100  0.047920  1.0  -0.0348
  C  C485  1  0.974400  0.335700  0.005500  1.0  -0.0715
  C  C486  1  0.949500  0.382600  0.017200  1.0  -0.0676
  C  C487  1  0.977500  0.443200  0.008300  1.0  -0.0049
  C  C488  1  0.028400  0.454300  0.980500  1.0  -0.1144
  C  C489  1  0.953600  0.488800  0.028500  1.0  0.3563
  C  C490  1  0.879000  0.518100  0.081300  1.0  -0.0317
  C  C491  1  0.652400  0.075600  0.969520  1.0  0.7405
  C  C492  1  0.677600  0.118500  0.942000  1.0  -0.133
  C  C493  1  0.619400  0.146900  0.921200  1.0  -0.0422
  C  C494  1  0.645500  0.184700  0.895000  1.0  -0.0928
  C  C495  1  0.729900  0.194100  0.889500  1.0  0.0167
  C  C496  1  0.788200  0.165700  0.910300  1.0  -0.1092
  C  C497  1  0.762000  0.127900  0.936500  1.0  -0.0112
  C  C498  1  0.750600  0.229800  0.857400  1.0  -0.0677
  C  C499  1  0.821300  0.243300  0.847000  1.0  -0.0817
  C  C500  1  0.842900  0.276000  0.814700  1.0  -0.0587
  C  C501  1  0.927100  0.282000  0.807300  1.0  0.1574
  C  C502  1  0.952300  0.312000  0.777600  1.0  -0.126
  C  C503  1  0.893300  0.336200  0.755400  1.0  -0.0814
  C  C504  1  0.809100  0.330200  0.762800  1.0  0.2316
  C  C505  1  0.783900  0.300200  0.792500  1.0  -0.0833
  C  C506  1  0.087300  0.280200  0.824500  1.0  -0.2227
  C  C507  1  0.915500  0.356700  0.719700  1.0  -0.0515
  C  C508  1  0.985500  0.367400  0.708600  1.0  -0.1247
  C  C509  1  0.996000  0.395900  0.673200  1.0  0.0345
  C  C510  1  0.076800  0.406800  0.667400  1.0  -0.1322
  C  C511  1  0.106300  0.426800  0.634500  1.0  -0.0781
  C  C512  1  0.049500  0.433800  0.607890  1.0  -0.1483
  C  C513  1  0.969500  0.422600  0.614100  1.0  -0.0363
  C  C514  1  0.942900  0.402600  0.645800  1.0  -0.1405
  C  C515  1  0.081500  0.453500  0.573210  1.0  0.7419
  C  C516  1  0.636200  0.901600  0.029090  1.0  0.685
  C  C517  1  0.602600  0.841900  0.024740  1.0  -0.1096
  C  C518  1  0.552200  0.828400  0.996500  1.0  -0.0268
  C  C519  1  0.524900  0.771000  0.991500  1.0  -0.0898
  C  C520  1  0.548100  0.727000  0.014600  1.0  0.0271
  C  C521  1  0.598500  0.740500  0.042900  1.0  -0.1149
  C  C522  1  0.625800  0.797900  0.047920  1.0  -0.0363
  C  C523  1  0.525600  0.664300  0.005500  1.0  -0.0708
  C  C524  1  0.550500  0.617400  0.017200  1.0  -0.0671
  C  C525  1  0.522500  0.556800  0.008300  1.0  -0.0023
  C  C526  1  0.471600  0.545700  0.980500  1.0  -0.1129
  C  C527  1  0.546400  0.511200  0.028500  1.0  0.3633
  C  C528  1  0.621000  0.481900  0.081300  1.0  -0.0323
  O  O529  1  0.007300  0.755000  0.328000  1.0  -0.4443
  O  O530  1  0.252900  0.854200  0.241200  1.0  -0.4652
  O  O531  1  0.405700  0.026300  0.555600  1.0  -0.2837
  O  O532  1  0.296500  0.558300  0.491060  1.0  -0.6405
  O  O533  1  0.423500  0.560900  0.469730  1.0  -0.6473
  O  O534  1  0.844000  0.967200  0.069930  1.0  -0.6769
  O  O535  1  0.971600  0.954500  0.048710  1.0  -0.6643
  O  O536  1  0.388600  0.444600  0.510210  1.0  -0.7463
  O  O537  1  0.306000  0.409900  0.550510  1.0  -0.6092
  O  O538  1  0.492700  0.245000  0.328000  1.0  -0.4444
  O  O539  1  0.247100  0.145800  0.241200  1.0  -0.4631
  O  O540  1  0.094300  0.973700  0.555600  1.0  -0.2854
  O  O541  1  0.203500  0.441700  0.491060  1.0  -0.6399
  O  O542  1  0.076500  0.439100  0.469730  1.0  -0.6461
  O  O543  1  0.656000  0.032800  0.069930  1.0  -0.6775
  O  O544  1  0.528400  0.045500  0.048710  1.0  -0.6635
  O  O545  1  0.111400  0.555400  0.510210  1.0  -0.7463
  O  O546  1  0.194000  0.590100  0.550510  1.0  -0.6099
  O  O547  1  0.492700  0.255000  0.172000  1.0  -0.4449
  O  O548  1  0.247100  0.354200  0.258800  1.0  -0.4624
  O  O549  1  0.094300  0.526300  0.944400  1.0  -0.2866
  O  O550  1  0.203500  0.058300  0.008940  1.0  -0.6398
  O  O551  1  0.076500  0.060900  0.030270  1.0  -0.6458
  O  O552  1  0.656000  0.467200  0.430070  1.0  -0.6767
  O  O553  1  0.528400  0.454500  0.451290  1.0  -0.6625
  O  O554  1  0.111400  0.944600  0.989790  1.0  -0.7466
  O  O555  1  0.194000  0.909900  0.949490  1.0  -0.6131
  O  O556  1  0.007300  0.745000  0.172000  1.0  -0.4434
  O  O557  1  0.252900  0.645800  0.258800  1.0  -0.4667
  O  O558  1  0.405700  0.473700  0.944400  1.0  -0.2832
  O  O559  1  0.296500  0.941700  0.008940  1.0  -0.6401
  O  O560  1  0.423500  0.939100  0.030270  1.0  -0.6473
  O  O561  1  0.844000  0.532800  0.430070  1.0  -0.677
  O  O562  1  0.971600  0.545500  0.451290  1.0  -0.6635
  O  O563  1  0.388600  0.055400  0.989790  1.0  -0.7461
  O  O564  1  0.306000  0.090100  0.949490  1.0  -0.611
  O  O565  1  0.992700  0.245000  0.672000  1.0  -0.4435
  O  O566  1  0.747100  0.145800  0.758800  1.0  -0.4642
  O  O567  1  0.594300  0.973700  0.444400  1.0  -0.2853
  O  O568  1  0.703500  0.441700  0.508940  1.0  -0.6397
  O  O569  1  0.576500  0.439100  0.530270  1.0  -0.6459
  O  O570  1  0.156000  0.032800  0.930070  1.0  -0.6771
  O  O571  1  0.028400  0.045500  0.951290  1.0  -0.6626
  O  O572  1  0.611400  0.555400  0.489790  1.0  -0.7457
  O  O573  1  0.694000  0.590100  0.449490  1.0  -0.6135
  O  O574  1  0.507300  0.755000  0.672000  1.0  -0.4455
  O  O575  1  0.752900  0.854200  0.758800  1.0  -0.4652
  O  O576  1  0.905700  0.026300  0.444400  1.0  -0.2847
  O  O577  1  0.796500  0.558300  0.508940  1.0  -0.6402
  O  O578  1  0.923500  0.560900  0.530270  1.0  -0.647
  O  O579  1  0.344000  0.967200  0.930070  1.0  -0.6766
  O  O580  1  0.471600  0.954500  0.951290  1.0  -0.6634
  O  O581  1  0.888600  0.444600  0.489790  1.0  -0.7465
  O  O582  1  0.806000  0.409900  0.449490  1.0  -0.6105
  O  O583  1  0.507300  0.745000  0.828000  1.0  -0.445
  O  O584  1  0.752900  0.645800  0.741200  1.0  -0.465
  O  O585  1  0.905700  0.473700  0.055600  1.0  -0.2834
  O  O586  1  0.796500  0.941700  0.991060  1.0  -0.6405
  O  O587  1  0.923500  0.939100  0.969730  1.0  -0.6475
  O  O588  1  0.344000  0.532800  0.569930  1.0  -0.6771
  O  O589  1  0.471600  0.545500  0.548710  1.0  -0.6643
  O  O590  1  0.888600  0.055400  0.010210  1.0  -0.7468
  O  O591  1  0.806000  0.090100  0.050510  1.0  -0.6094
  O  O592  1  0.992700  0.255000  0.828000  1.0  -0.4436
  O  O593  1  0.747100  0.354200  0.741200  1.0  -0.4626
  O  O594  1  0.594300  0.526300  0.055600  1.0  -0.2869
  O  O595  1  0.703500  0.058300  0.991060  1.0  -0.6398
  O  O596  1  0.576500  0.060900  0.969730  1.0  -0.6462
  O  O597  1  0.156000  0.467200  0.569930  1.0  -0.677
  O  O598  1  0.028400  0.454500  0.548710  1.0  -0.6635
  O  O599  1  0.611400  0.944600  0.010210  1.0  -0.7461
  O  O600  1  0.694000  0.909900  0.050510  1.0  -0.6098
