# generated using pymatgen
data_Cd5H16C24(N10Cl3)2
_symmetry_space_group_name_H-M   'P 1'
_cell_length_a   12.53000000
_cell_length_b   16.13040000
_cell_length_c   20.89280000
_cell_angle_alpha   67.39710000
_cell_angle_beta   72.55060000
_cell_angle_gamma   67.14520000
_symmetry_Int_Tables_number   1
_chemical_formula_structural   Cd5H16C24(N10Cl3)2
_chemical_formula_sum   'Cd10 H32 C48 N40 Cl12'
_cell_volume   3535.60018426
_cell_formula_units_Z   2
loop_
 _symmetry_equiv_pos_site_id
 _symmetry_equiv_pos_as_xyz
  1  'x, y, z'
loop_
 _atom_site_type_symbol
 _atom_site_label
 _atom_site_symmetry_multiplicity
 _atom_site_fract_x
 _atom_site_fract_y
 _atom_site_fract_z
 _atom_site_occupancy
 _atom_site_charge
  Cd  Cd1  1  0.366830  0.740160  0.760340  1.0  0.7562
  Cd  Cd2  1  0.638180  0.664400  0.845340  1.0  0.746
  Cd  Cd3  1  0.867330  0.759840  0.739660  1.0  0.7553
  Cd  Cd4  1  0.147920  0.835600  0.654660  1.0  0.7458
  Cd  Cd5  1  0.633170  0.259840  0.239660  1.0  0.7552
  Cd  Cd6  1  0.361820  0.335600  0.154660  1.0  0.7452
  Cd  Cd7  1  0.132670  0.240160  0.260340  1.0  0.7558
  Cd  Cd8  1  0.852080  0.164400  0.345340  1.0  0.7472
  Cd  Cd9  1  0.500000  0.000000  0.000000  1.0  0.8638
  Cd  Cd10  1  0.500000  0.500000  0.500000  1.0  0.8638
  H  H11  1  0.314000  0.628000  0.926000  1.0  0.1137
  H  H12  1  0.400800  0.515600  0.019000  1.0  0.076
  H  H13  1  0.188300  0.368300  0.059300  1.0  0.0929
  H  H14  1  0.103800  0.474800  0.961600  1.0  0.1134
  H  H15  1  0.379500  0.352800  0.843200  1.0  0.1458
  H  H16  1  0.614600  0.299000  0.958600  1.0  0.1292
  H  H17  1  0.599300  0.145400  0.013000  1.0  0.0942
  H  H18  1  0.378600  0.199300  0.895100  1.0  0.0792
  H  H19  1  0.868000  0.872000  0.574000  1.0  0.1146
  H  H20  1  0.935400  0.984400  0.481000  1.0  0.0784
  H  H21  1  0.615900  0.131700  0.440700  1.0  0.0932
  H  H22  1  0.540200  0.025200  0.538400  1.0  0.1163
  H  H23  1  0.575500  0.147200  0.656800  1.0  0.1455
  H  H24  1  0.872200  0.201000  0.541400  1.0  0.1308
  H  H25  1  0.757700  0.354600  0.487000  1.0  0.0939
  H  H26  1  0.473000  0.300700  0.604900  1.0  0.0776
  H  H27  1  0.686000  0.372000  0.074000  1.0  0.1139
  H  H28  1  0.599200  0.484400  0.981000  1.0  0.0756
  H  H29  1  0.811700  0.631700  0.940700  1.0  0.093
  H  H30  1  0.896200  0.525200  0.038400  1.0  0.1137
  H  H31  1  0.620500  0.647200  0.156800  1.0  0.1455
  H  H32  1  0.385400  0.701000  0.041400  1.0  0.1278
  H  H33  1  0.400700  0.854600  0.987000  1.0  0.0937
  H  H34  1  0.621400  0.800700  0.104900  1.0  0.0791
  H  H35  1  0.132000  0.128000  0.426000  1.0  0.1148
  H  H36  1  0.064600  0.015600  0.519000  1.0  0.0769
  H  H37  1  0.384100  0.868300  0.559300  1.0  0.0932
  H  H38  1  0.459800  0.974800  0.461600  1.0  0.1166
  H  H39  1  0.424500  0.852800  0.343200  1.0  0.1457
  H  H40  1  0.127800  0.799000  0.458600  1.0  0.1322
  H  H41  1  0.242300  0.645400  0.513000  1.0  0.0925
  H  H42  1  0.527000  0.699300  0.395100  1.0  0.078
  C  C43  1  0.145000  0.632100  0.874500  1.0  0.2637
  C  C44  1  0.197600  0.565000  0.932200  1.0  0.0658
  C  C45  1  0.287200  0.574800  0.951600  1.0  -0.1604
  C  C46  1  0.338000  0.507500  0.007900  1.0  0.1596
  C  C47  1  0.215900  0.420800  0.031200  1.0  0.1428
  C  C48  1  0.164000  0.485600  0.973200  1.0  -0.1479
  C  C49  1  0.513300  0.437400  0.857400  1.0  0.2884
  C  C50  1  0.505200  0.340300  0.891700  1.0  0.0642
  C  C51  1  0.429600  0.310700  0.876300  1.0  -0.1706
  C  C52  1  0.565500  0.279900  0.943900  1.0  -0.1275
  C  C53  1  0.555400  0.187500  0.976700  1.0  0.1541
  C  C54  1  0.427600  0.218800  0.909600  1.0  0.175
  C  C55  1  0.651600  0.867900  0.625500  1.0  0.2632
  C  C56  1  0.694800  0.935000  0.567800  1.0  0.065
  C  C57  1  0.813600  0.925200  0.548400  1.0  -0.1619
  C  C58  1  0.853400  0.992500  0.492100  1.0  0.1569
  C  C59  1  0.667900  0.079200  0.468800  1.0  0.1434
  C  C60  1  0.622800  0.014400  0.526800  1.0  -0.1518
  C  C61  1  0.808100  0.062600  0.642600  1.0  0.2865
  C  C62  1  0.737200  0.159700  0.608300  1.0  0.0905
  C  C63  1  0.616600  0.189300  0.623700  1.0  -0.1738
  C  C64  1  0.789300  0.220100  0.556100  1.0  -0.1292
  C  C65  1  0.719600  0.312500  0.523300  1.0  0.1568
  C  C66  1  0.556000  0.281200  0.590400  1.0  0.1753
  C  C67  1  0.855000  0.367900  0.125500  1.0  0.2624
  C  C68  1  0.802400  0.435000  0.067800  1.0  0.0648
  C  C69  1  0.712800  0.425200  0.048400  1.0  -0.1613
  C  C70  1  0.662000  0.492500  0.992100  1.0  0.1604
  C  C71  1  0.784100  0.579200  0.968800  1.0  0.1442
  C  C72  1  0.836000  0.514400  0.026800  1.0  -0.144
  C  C73  1  0.486700  0.562600  0.142600  1.0  0.289
  C  C74  1  0.494800  0.659700  0.108300  1.0  0.0795
  C  C75  1  0.570400  0.689300  0.123700  1.0  -0.1719
  C  C76  1  0.434500  0.720100  0.056100  1.0  -0.127
  C  C77  1  0.444600  0.812500  0.023300  1.0  0.1552
  C  C78  1  0.572400  0.781200  0.090400  1.0  0.1737
  C  C79  1  0.348400  0.132100  0.374500  1.0  0.2627
  C  C80  1  0.305200  0.065000  0.432200  1.0  0.0647
  C  C81  1  0.186400  0.074800  0.451600  1.0  -0.1587
  C  C82  1  0.146600  0.007500  0.507900  1.0  0.1591
  C  C83  1  0.332100  0.920800  0.531200  1.0  0.143
  C  C84  1  0.377200  0.985600  0.473200  1.0  -0.1511
  C  C85  1  0.191900  0.937400  0.357400  1.0  0.2851
  C  C86  1  0.262800  0.840300  0.391700  1.0  0.0813
  C  C87  1  0.383400  0.810700  0.376300  1.0  -0.1724
  C  C88  1  0.210700  0.779900  0.443900  1.0  -0.1297
  C  C89  1  0.280400  0.687500  0.476700  1.0  0.1571
  C  C90  1  0.444000  0.718800  0.409600  1.0  0.1757
  N  N91  1  0.190300  0.694500  0.818100  1.0  -0.2443
  N  N92  1  0.109900  0.741100  0.776700  1.0  -0.0498
  N  N93  1  0.015600  0.711700  0.805100  1.0  -0.0116
  N  N94  1  0.031900  0.644800  0.866600  1.0  -0.2961
  N  N95  1  0.304300  0.431800  0.047600  1.0  -0.3091
  N  N96  1  0.591600  0.462800  0.871600  1.0  -0.3209
  N  N97  1  0.565900  0.557000  0.835200  1.0  -0.0485
  N  N98  1  0.476700  0.582000  0.802400  1.0  0.0027
  N  N99  1  0.443200  0.507400  0.815200  1.0  -0.3245
  N  N100  1  0.485500  0.156600  0.958400  1.0  -0.3711
  N  N101  1  0.702900  0.805500  0.681900  1.0  -0.2427
  N  N102  1  0.627700  0.758900  0.723300  1.0  -0.0517
  N  N103  1  0.532400  0.788300  0.694900  1.0  -0.0107
  N  N104  1  0.543300  0.855200  0.633400  1.0  -0.2948
  N  N105  1  0.783700  0.068200  0.452400  1.0  -0.3068
  N  N106  1  0.926000  0.037200  0.628400  1.0  -0.3187
  N  N107  1  0.958100  0.943000  0.664800  1.0  -0.0392
  N  N108  1  0.861100  0.918000  0.697600  1.0  0.002
  N  N109  1  0.765800  0.992600  0.684800  1.0  -0.3259
  N  N110  1  0.600500  0.343400  0.541600  1.0  -0.3732
  N  N111  1  0.809700  0.305500  0.181900  1.0  -0.2434
  N  N112  1  0.890100  0.258900  0.223300  1.0  -0.0515
  N  N113  1  0.984400  0.288300  0.194900  1.0  -0.013
  N  N114  1  0.968100  0.355200  0.133400  1.0  -0.2963
  N  N115  1  0.695700  0.568200  0.952400  1.0  -0.3099
  N  N116  1  0.408400  0.537200  0.128400  1.0  -0.3193
  N  N117  1  0.434100  0.443000  0.164800  1.0  -0.0382
  N  N118  1  0.523300  0.418000  0.197600  1.0  0.0006
  N  N119  1  0.556800  0.492600  0.184800  1.0  -0.3262
  N  N120  1  0.514500  0.843400  0.041600  1.0  -0.3703
  N  N121  1  0.297100  0.194500  0.318100  1.0  -0.243
  N  N122  1  0.372300  0.241100  0.276700  1.0  -0.051
  N  N123  1  0.467600  0.211700  0.305100  1.0  -0.0116
  N  N124  1  0.456700  0.144800  0.366600  1.0  -0.2952
  N  N125  1  0.216300  0.931800  0.547600  1.0  -0.3077
  N  N126  1  0.074000  0.962800  0.371600  1.0  -0.3233
  N  N127  1  0.041900  0.057000  0.335200  1.0  -0.0376
  N  N128  1  0.138900  0.082000  0.302400  1.0  0.0033
  N  N129  1  0.234200  0.007400  0.315200  1.0  -0.3253
  N  N130  1  0.399500  0.656600  0.458400  1.0  -0.367
  Cl  Cl131  1  0.413460  0.761400  0.867680  1.0  -0.5096
  Cl  Cl132  1  0.350510  0.703300  0.650680  1.0  -0.5444
  Cl  Cl133  1  0.228730  0.909400  0.717540  1.0  -0.4785
  Cl  Cl134  1  0.042540  0.738600  0.632320  1.0  -0.5113
  Cl  Cl135  1  0.704490  0.796700  0.849320  1.0  -0.5424
  Cl  Cl136  1  0.855670  0.590600  0.782460  1.0  -0.4798
  Cl  Cl137  1  0.586540  0.238600  0.132320  1.0  -0.5103
  Cl  Cl138  1  0.649490  0.296700  0.349320  1.0  -0.5425
  Cl  Cl139  1  0.771270  0.090600  0.282460  1.0  -0.4775
  Cl  Cl140  1  0.957460  0.261400  0.367680  1.0  -0.5096
  Cl  Cl141  1  0.295510  0.203300  0.150680  1.0  -0.5435
  Cl  Cl142  1  0.144330  0.409400  0.217540  1.0  -0.4805
