# generated using pymatgen
data_Cu3H32C42(N3O4)2
_symmetry_space_group_name_H-M   'P 1'
_cell_length_a   19.79100000
_cell_length_b   22.67400000
_cell_length_c   12.87700000
_cell_angle_alpha   90.00000000
_cell_angle_beta   113.27100000
_cell_angle_gamma   90.00000000
_symmetry_Int_Tables_number   1
_chemical_formula_structural   Cu3H32C42(N3O4)2
_chemical_formula_sum   'Cu12 H128 C168 N24 O32'
_cell_volume   5308.34310875
_cell_formula_units_Z   4
loop_
 _symmetry_equiv_pos_site_id
 _symmetry_equiv_pos_as_xyz
  1  'x, y, z'
loop_
 _atom_site_type_symbol
 _atom_site_label
 _atom_site_symmetry_multiplicity
 _atom_site_fract_x
 _atom_site_fract_y
 _atom_site_fract_z
 _atom_site_occupancy
 _atom_site_charge
  Cu  Cu1  1  0.495560  0.761150  0.547980  1.0  0.8181
  Cu  Cu2  1  0.995560  0.261150  0.547980  1.0  0.8181
  Cu  Cu3  1  0.504440  0.761150  0.952020  1.0  0.8182
  Cu  Cu4  1  0.004440  0.261150  0.952020  1.0  0.8182
  Cu  Cu5  1  0.504440  0.238850  0.452020  1.0  0.8179
  Cu  Cu6  1  0.004440  0.738850  0.452020  1.0  0.8179
  Cu  Cu7  1  0.495560  0.238850  0.047980  1.0  0.8182
  Cu  Cu8  1  0.995560  0.738850  0.047980  1.0  0.8182
  Cu  Cu9  1  0.500000  0.862120  0.750000  1.0  0.9123
  Cu  Cu10  1  0.000000  0.362120  0.750000  1.0  0.9123
  Cu  Cu11  1  0.500000  0.137880  0.250000  1.0  0.9125
  Cu  Cu12  1  0.000000  0.637880  0.250000  1.0  0.9125
  H  H13  1  0.396800  0.852700  0.380200  1.0  0.0817
  H  H14  1  0.293700  0.850600  0.212900  1.0  0.1164
  H  H15  1  0.241900  0.761400  0.137100  1.0  0.108
  H  H16  1  0.291700  0.675000  0.234000  1.0  0.1205
  H  H17  1  0.343000  0.597400  0.342100  1.0  0.1187
  H  H18  1  0.403300  0.521600  0.465700  1.0  0.1111
  H  H19  1  0.503600  0.544000  0.631300  1.0  0.1158
  H  H20  1  0.541500  0.640800  0.669300  1.0  0.0832
  H  H21  1  0.665400  0.886000  0.865200  1.0  0.0819
  H  H22  1  0.741100  0.968400  0.907900  1.0  0.1053
  H  H23  1  0.689300  0.061000  0.867200  1.0  0.1131
  H  H24  1  0.561600  0.070800  0.782900  1.0  0.1236
  H  H25  1  0.688400  0.700500  0.846400  1.0  0.0983
  H  H26  1  0.698400  0.797200  0.982900  1.0  0.0848
  H  H27  1  0.609000  0.959400  0.566800  1.0  0.0962
  H  H28  1  0.457900  0.947300  0.489800  1.0  0.0924
  H  H29  1  0.896800  0.352700  0.380200  1.0  0.0817
  H  H30  1  0.793700  0.350600  0.212900  1.0  0.1164
  H  H31  1  0.741900  0.261400  0.137100  1.0  0.108
  H  H32  1  0.791700  0.175000  0.234000  1.0  0.1205
  H  H33  1  0.843000  0.097400  0.342100  1.0  0.1187
  H  H34  1  0.903300  0.021600  0.465700  1.0  0.1111
  H  H35  1  0.003600  0.044000  0.631300  1.0  0.1158
  H  H36  1  0.041500  0.140800  0.669300  1.0  0.0832
  H  H37  1  0.165400  0.386000  0.865200  1.0  0.0819
  H  H38  1  0.241100  0.468400  0.907900  1.0  0.1053
  H  H39  1  0.189300  0.561000  0.867200  1.0  0.1131
  H  H40  1  0.061600  0.570800  0.782900  1.0  0.1236
  H  H41  1  0.188400  0.200500  0.846400  1.0  0.0983
  H  H42  1  0.198400  0.297200  0.982900  1.0  0.0848
  H  H43  1  0.109000  0.459400  0.566800  1.0  0.0962
  H  H44  1  0.957900  0.447300  0.489800  1.0  0.0924
  H  H45  1  0.603200  0.852700  0.119800  1.0  0.0818
  H  H46  1  0.706300  0.850600  0.287100  1.0  0.1158
  H  H47  1  0.758100  0.761400  0.362900  1.0  0.1089
  H  H48  1  0.708300  0.675000  0.266000  1.0  0.1199
  H  H49  1  0.657000  0.597400  0.157900  1.0  0.1193
  H  H50  1  0.596700  0.521600  0.034300  1.0  0.1108
  H  H51  1  0.496400  0.544000  0.868700  1.0  0.1149
  H  H52  1  0.458500  0.640800  0.830700  1.0  0.0823
  H  H53  1  0.334600  0.886000  0.634800  1.0  0.0813
  H  H54  1  0.258900  0.968400  0.592100  1.0  0.1069
  H  H55  1  0.310700  0.061000  0.632800  1.0  0.1127
  H  H56  1  0.438400  0.070800  0.717100  1.0  0.1239
  H  H57  1  0.311600  0.700500  0.653600  1.0  0.0979
  H  H58  1  0.301600  0.797200  0.517100  1.0  0.0845
  H  H59  1  0.391000  0.959400  0.933200  1.0  0.0967
  H  H60  1  0.542100  0.947300  0.010200  1.0  0.0928
  H  H61  1  0.103200  0.352700  0.119800  1.0  0.0818
  H  H62  1  0.206300  0.350600  0.287100  1.0  0.1158
  H  H63  1  0.258100  0.261400  0.362900  1.0  0.1089
  H  H64  1  0.208300  0.175000  0.266000  1.0  0.1199
  H  H65  1  0.157000  0.097400  0.157900  1.0  0.1193
  H  H66  1  0.096700  0.021600  0.034300  1.0  0.1108
  H  H67  1  0.996400  0.044000  0.868700  1.0  0.1149
  H  H68  1  0.958500  0.140800  0.830700  1.0  0.0823
  H  H69  1  0.834600  0.386000  0.634800  1.0  0.0813
  H  H70  1  0.758900  0.468400  0.592100  1.0  0.1069
  H  H71  1  0.810700  0.561000  0.632800  1.0  0.1127
  H  H72  1  0.938400  0.570800  0.717100  1.0  0.1239
  H  H73  1  0.811600  0.200500  0.653600  1.0  0.0979
  H  H74  1  0.801600  0.297200  0.517100  1.0  0.0845
  H  H75  1  0.891000  0.459400  0.933200  1.0  0.0967
  H  H76  1  0.042100  0.447300  0.010200  1.0  0.0928
  H  H77  1  0.603200  0.147300  0.619800  1.0  0.0811
  H  H78  1  0.706300  0.149400  0.787100  1.0  0.1157
  H  H79  1  0.758100  0.238600  0.862900  1.0  0.1087
  H  H80  1  0.708300  0.325000  0.766000  1.0  0.1193
  H  H81  1  0.657000  0.402600  0.657900  1.0  0.1181
  H  H82  1  0.596700  0.478400  0.534300  1.0  0.1109
  H  H83  1  0.496400  0.456000  0.368700  1.0  0.1155
  H  H84  1  0.458500  0.359200  0.330700  1.0  0.0824
  H  H85  1  0.334600  0.114000  0.134800  1.0  0.0818
  H  H86  1  0.258900  0.031600  0.092100  1.0  0.1066
  H  H87  1  0.310700  0.939000  0.132800  1.0  0.1123
  H  H88  1  0.438400  0.929200  0.217100  1.0  0.1236
  H  H89  1  0.311600  0.299500  0.153600  1.0  0.0978
  H  H90  1  0.301600  0.202800  0.017100  1.0  0.0845
  H  H91  1  0.391000  0.040600  0.433200  1.0  0.0969
  H  H92  1  0.542100  0.052700  0.510200  1.0  0.0949
  H  H93  1  0.103200  0.647300  0.619800  1.0  0.0811
  H  H94  1  0.206300  0.649400  0.787100  1.0  0.1157
  H  H95  1  0.258100  0.738600  0.862900  1.0  0.1087
  H  H96  1  0.208300  0.825000  0.766000  1.0  0.1193
  H  H97  1  0.157000  0.902600  0.657900  1.0  0.1181
  H  H98  1  0.096700  0.978400  0.534300  1.0  0.1109
  H  H99  1  0.996400  0.956000  0.368700  1.0  0.1155
  H  H100  1  0.958500  0.859200  0.330700  1.0  0.0824
  H  H101  1  0.834600  0.614000  0.134800  1.0  0.0818
  H  H102  1  0.758900  0.531600  0.092100  1.0  0.1066
  H  H103  1  0.810700  0.439000  0.132800  1.0  0.1123
  H  H104  1  0.938400  0.429200  0.217100  1.0  0.1236
  H  H105  1  0.811600  0.799500  0.153600  1.0  0.0978
  H  H106  1  0.801600  0.702800  0.017100  1.0  0.0845
  H  H107  1  0.891000  0.540600  0.433200  1.0  0.0969
  H  H108  1  0.042100  0.552700  0.510200  1.0  0.0949
  H  H109  1  0.396800  0.147300  0.880200  1.0  0.0812
  H  H110  1  0.293700  0.149400  0.712900  1.0  0.1156
  H  H111  1  0.241900  0.238600  0.637100  1.0  0.108
  H  H112  1  0.291700  0.325000  0.734000  1.0  0.1203
  H  H113  1  0.343000  0.402600  0.842100  1.0  0.1182
  H  H114  1  0.403300  0.478400  0.965700  1.0  0.1106
  H  H115  1  0.503600  0.456000  0.131300  1.0  0.1159
  H  H116  1  0.541500  0.359200  0.169300  1.0  0.0827
  H  H117  1  0.665400  0.114000  0.365200  1.0  0.0819
  H  H118  1  0.741100  0.031600  0.407900  1.0  0.1056
  H  H119  1  0.689300  0.939000  0.367200  1.0  0.113
  H  H120  1  0.561600  0.929200  0.282900  1.0  0.1233
  H  H121  1  0.688400  0.299500  0.346400  1.0  0.0983
  H  H122  1  0.698400  0.202800  0.482900  1.0  0.0848
  H  H123  1  0.609000  0.040600  0.066800  1.0  0.0966
  H  H124  1  0.457900  0.052700  0.989800  1.0  0.0947
  H  H125  1  0.896800  0.647300  0.880200  1.0  0.0812
  H  H126  1  0.793700  0.649400  0.712900  1.0  0.1156
  H  H127  1  0.741900  0.738600  0.637100  1.0  0.108
  H  H128  1  0.791700  0.825000  0.734000  1.0  0.1203
  H  H129  1  0.843000  0.902600  0.842100  1.0  0.1182
  H  H130  1  0.903300  0.978400  0.965700  1.0  0.1106
  H  H131  1  0.003600  0.956000  0.131300  1.0  0.1159
  H  H132  1  0.041500  0.859200  0.169300  1.0  0.0827
  H  H133  1  0.165400  0.614000  0.365200  1.0  0.0819
  H  H134  1  0.241100  0.531600  0.407900  1.0  0.1056
  H  H135  1  0.189300  0.439000  0.367200  1.0  0.113
  H  H136  1  0.061600  0.429200  0.282900  1.0  0.1233
  H  H137  1  0.188400  0.799500  0.346400  1.0  0.0983
  H  H138  1  0.198400  0.702800  0.482900  1.0  0.0848
  H  H139  1  0.109000  0.540600  0.066800  1.0  0.0966
  H  H140  1  0.957900  0.552700  0.989800  1.0  0.0947
  C  C141  1  0.375000  0.816250  0.350900  1.0  0.1543
  C  C142  1  0.313810  0.815200  0.250400  1.0  -0.1122
  C  C143  1  0.283000  0.762900  0.206300  1.0  -0.1117
  C  C144  1  0.312500  0.711700  0.263800  1.0  -0.1588
  C  C145  1  0.372860  0.714510  0.365600  1.0  0.1583
  C  C146  1  0.407320  0.663160  0.436300  1.0  0.1555
  C  C147  1  0.383500  0.605750  0.409700  1.0  -0.1629
  C  C148  1  0.419200  0.560840  0.482600  1.0  -0.0974
  C  C149  1  0.478400  0.573990  0.580300  1.0  -0.1154
  C  C150  1  0.500560  0.631840  0.602700  1.0  0.1549
  C  C151  1  0.644260  0.923790  0.848300  1.0  0.133
  C  C152  1  0.689730  0.972860  0.874100  1.0  -0.1208
  C  C153  1  0.659100  0.027380  0.850100  1.0  -0.1298
  C  C154  1  0.583400  0.033250  0.800300  1.0  -0.1614
  C  C155  1  0.540230  0.982820  0.776400  1.0  0.1698
  C  C156  1  0.603510  0.763300  0.785900  1.0  0.6514
  C  C157  1  0.673240  0.736750  0.865500  1.0  -0.1711
  C  C158  1  0.714990  0.761980  0.962200  1.0  -0.1121
  C  C159  1  0.569200  0.873000  0.558800  1.0  0.6698
  C  C160  1  0.564830  0.938210  0.546300  1.0  -0.2206
  C  C161  1  0.502030  0.968300  0.507800  1.0  -0.0878
  C  C162  1  0.875000  0.316250  0.350900  1.0  0.1543
  C  C163  1  0.813810  0.315200  0.250400  1.0  -0.1122
  C  C164  1  0.783000  0.262900  0.206300  1.0  -0.1117
  C  C165  1  0.812500  0.211700  0.263800  1.0  -0.1588
  C  C166  1  0.872860  0.214510  0.365600  1.0  0.1583
  C  C167  1  0.907320  0.163160  0.436300  1.0  0.1555
  C  C168  1  0.883500  0.105750  0.409700  1.0  -0.1629
  C  C169  1  0.919200  0.060840  0.482600  1.0  -0.0974
  C  C170  1  0.978400  0.073990  0.580300  1.0  -0.1154
  C  C171  1  0.000560  0.131840  0.602700  1.0  0.1549
  C  C172  1  0.144260  0.423790  0.848300  1.0  0.133
  C  C173  1  0.189730  0.472860  0.874100  1.0  -0.1208
  C  C174  1  0.159100  0.527380  0.850100  1.0  -0.1298
  C  C175  1  0.083400  0.533250  0.800300  1.0  -0.1614
  C  C176  1  0.040230  0.482820  0.776400  1.0  0.1698
  C  C177  1  0.103510  0.263300  0.785900  1.0  0.6514
  C  C178  1  0.173240  0.236750  0.865500  1.0  -0.1711
  C  C179  1  0.214990  0.261980  0.962200  1.0  -0.1121
  C  C180  1  0.069200  0.373000  0.558800  1.0  0.6698
  C  C181  1  0.064830  0.438210  0.546300  1.0  -0.2206
  C  C182  1  0.002030  0.468300  0.507800  1.0  -0.0878
  C  C183  1  0.625000  0.816250  0.149100  1.0  0.1543
  C  C184  1  0.686190  0.815200  0.249600  1.0  -0.1133
  C  C185  1  0.717000  0.762900  0.293700  1.0  -0.1105
  C  C186  1  0.687500  0.711700  0.236200  1.0  -0.1595
  C  C187  1  0.627140  0.714510  0.134400  1.0  0.1608
  C  C188  1  0.592680  0.663160  0.063700  1.0  0.1548
  C  C189  1  0.616500  0.605750  0.090300  1.0  -0.1626
  C  C190  1  0.580800  0.560840  0.017400  1.0  -0.0982
  C  C191  1  0.521600  0.573990  0.919700  1.0  -0.115
  C  C192  1  0.499440  0.631840  0.897300  1.0  0.1548
  C  C193  1  0.355740  0.923790  0.651700  1.0  0.1342
  C  C194  1  0.310270  0.972860  0.625900  1.0  -0.1217
  C  C195  1  0.340900  0.027380  0.649900  1.0  -0.1328
  C  C196  1  0.416600  0.033250  0.699700  1.0  -0.1638
  C  C197  1  0.459770  0.982820  0.723600  1.0  0.1698
  C  C198  1  0.396490  0.763300  0.714100  1.0  0.6536
  C  C199  1  0.326760  0.736750  0.634500  1.0  -0.1707
  C  C200  1  0.285010  0.761980  0.537800  1.0  -0.1071
  C  C201  1  0.430800  0.873000  0.941200  1.0  0.6706
  C  C202  1  0.435170  0.938210  0.953700  1.0  -0.2177
  C  C203  1  0.497970  0.968300  0.992200  1.0  -0.0862
  C  C204  1  0.125000  0.316250  0.149100  1.0  0.1543
  C  C205  1  0.186190  0.315200  0.249600  1.0  -0.1133
  C  C206  1  0.217000  0.262900  0.293700  1.0  -0.1105
  C  C207  1  0.187500  0.211700  0.236200  1.0  -0.1595
  C  C208  1  0.127140  0.214510  0.134400  1.0  0.1608
  C  C209  1  0.092680  0.163160  0.063700  1.0  0.1548
  C  C210  1  0.116500  0.105750  0.090300  1.0  -0.1626
  C  C211  1  0.080800  0.060840  0.017400  1.0  -0.0982
  C  C212  1  0.021600  0.073990  0.919700  1.0  -0.115
  C  C213  1  0.999440  0.131840  0.897300  1.0  0.1548
  C  C214  1  0.855740  0.423790  0.651700  1.0  0.1342
  C  C215  1  0.810270  0.472860  0.625900  1.0  -0.1217
  C  C216  1  0.840900  0.527380  0.649900  1.0  -0.1328
  C  C217  1  0.916600  0.533250  0.699700  1.0  -0.1638
  C  C218  1  0.959770  0.482820  0.723600  1.0  0.1698
  C  C219  1  0.896490  0.263300  0.714100  1.0  0.6536
  C  C220  1  0.826760  0.236750  0.634500  1.0  -0.1707
  C  C221  1  0.785010  0.261980  0.537800  1.0  -0.1071
  C  C222  1  0.930800  0.373000  0.941200  1.0  0.6706
  C  C223  1  0.935170  0.438210  0.953700  1.0  -0.2177
  C  C224  1  0.997970  0.468300  0.992200  1.0  -0.0862
  C  C225  1  0.625000  0.183750  0.649100  1.0  0.1535
  C  C226  1  0.686190  0.184800  0.749600  1.0  -0.1153
  C  C227  1  0.717000  0.237100  0.793700  1.0  -0.1105
  C  C228  1  0.687500  0.288300  0.736200  1.0  -0.1579
  C  C229  1  0.627140  0.285490  0.634400  1.0  0.1596
  C  C230  1  0.592680  0.336840  0.563700  1.0  0.1558
  C  C231  1  0.616500  0.394250  0.590300  1.0  -0.1621
  C  C232  1  0.580800  0.439160  0.517400  1.0  -0.0966
  C  C233  1  0.521600  0.426010  0.419700  1.0  -0.1138
  C  C234  1  0.499440  0.368160  0.397300  1.0  0.1539
  C  C235  1  0.355740  0.076210  0.151700  1.0  0.134
  C  C236  1  0.310270  0.027140  0.125900  1.0  -0.1217
  C  C237  1  0.340900  0.972620  0.149900  1.0  -0.1336
  C  C238  1  0.416600  0.966750  0.199700  1.0  -0.1651
  C  C239  1  0.459770  0.017180  0.223600  1.0  0.1699
  C  C240  1  0.396490  0.236700  0.214100  1.0  0.6531
  C  C241  1  0.326760  0.263250  0.134500  1.0  -0.1694
  C  C242  1  0.285010  0.238020  0.037800  1.0  -0.1093
  C  C243  1  0.430800  0.127000  0.441200  1.0  0.6693
  C  C244  1  0.435170  0.061790  0.453700  1.0  -0.2164
  C  C245  1  0.497970  0.031700  0.492200  1.0  -0.0855
  C  C246  1  0.125000  0.683750  0.649100  1.0  0.1535
  C  C247  1  0.186190  0.684800  0.749600  1.0  -0.1153
  C  C248  1  0.217000  0.737100  0.793700  1.0  -0.1105
  C  C249  1  0.187500  0.788300  0.736200  1.0  -0.1579
  C  C250  1  0.127140  0.785490  0.634400  1.0  0.1596
  C  C251  1  0.092680  0.836840  0.563700  1.0  0.1558
  C  C252  1  0.116500  0.894250  0.590300  1.0  -0.1621
  C  C253  1  0.080800  0.939160  0.517400  1.0  -0.0966
  C  C254  1  0.021600  0.926010  0.419700  1.0  -0.1138
  C  C255  1  0.999440  0.868160  0.397300  1.0  0.1539
  C  C256  1  0.855740  0.576210  0.151700  1.0  0.134
  C  C257  1  0.810270  0.527140  0.125900  1.0  -0.1217
  C  C258  1  0.840900  0.472620  0.149900  1.0  -0.1336
  C  C259  1  0.916600  0.466750  0.199700  1.0  -0.1651
  C  C260  1  0.959770  0.517180  0.223600  1.0  0.1699
  C  C261  1  0.896490  0.736700  0.214100  1.0  0.6531
  C  C262  1  0.826760  0.763250  0.134500  1.0  -0.1694
  C  C263  1  0.785010  0.738020  0.037800  1.0  -0.1093
  C  C264  1  0.930800  0.627000  0.441200  1.0  0.6693
  C  C265  1  0.935170  0.561790  0.453700  1.0  -0.2164
  C  C266  1  0.997970  0.531700  0.492200  1.0  -0.0855
  C  C267  1  0.375000  0.183750  0.850900  1.0  0.1543
  C  C268  1  0.313810  0.184800  0.750400  1.0  -0.1147
  C  C269  1  0.283000  0.237100  0.706300  1.0  -0.1115
  C  C270  1  0.312500  0.288300  0.763800  1.0  -0.1578
  C  C271  1  0.372860  0.285490  0.865600  1.0  0.1584
  C  C272  1  0.407320  0.336840  0.936300  1.0  0.1549
  C  C273  1  0.383500  0.394250  0.909700  1.0  -0.1634
  C  C274  1  0.419200  0.439160  0.982600  1.0  -0.0964
  C  C275  1  0.478400  0.426010  0.080300  1.0  -0.1148
  C  C276  1  0.500560  0.368160  0.102700  1.0  0.1548
  C  C277  1  0.644260  0.076210  0.348300  1.0  0.1332
  C  C278  1  0.689730  0.027140  0.374100  1.0  -0.1203
  C  C279  1  0.659100  0.972620  0.350100  1.0  -0.1308
  C  C280  1  0.583400  0.966750  0.300300  1.0  -0.1608
  C  C281  1  0.540230  0.017180  0.276400  1.0  0.1704
  C  C282  1  0.603510  0.236700  0.285900  1.0  0.6512
  C  C283  1  0.673240  0.263250  0.365500  1.0  -0.1695
  C  C284  1  0.714990  0.238020  0.462200  1.0  -0.114
  C  C285  1  0.569200  0.127000  0.058800  1.0  0.6696
  C  C286  1  0.564830  0.061790  0.046300  1.0  -0.2191
  C  C287  1  0.502030  0.031700  0.007800  1.0  -0.0876
  C  C288  1  0.875000  0.683750  0.850900  1.0  0.1543
  C  C289  1  0.813810  0.684800  0.750400  1.0  -0.1147
  C  C290  1  0.783000  0.737100  0.706300  1.0  -0.1115
  C  C291  1  0.812500  0.788300  0.763800  1.0  -0.1578
  C  C292  1  0.872860  0.785490  0.865600  1.0  0.1584
  C  C293  1  0.907320  0.836840  0.936300  1.0  0.1549
  C  C294  1  0.883500  0.894250  0.909700  1.0  -0.1634
  C  C295  1  0.919200  0.939160  0.982600  1.0  -0.0964
  C  C296  1  0.978400  0.926010  0.080300  1.0  -0.1148
  C  C297  1  0.000560  0.868160  0.102700  1.0  0.1548
  C  C298  1  0.144260  0.576210  0.348300  1.0  0.1332
  C  C299  1  0.189730  0.527140  0.374100  1.0  -0.1203
  C  C300  1  0.159100  0.472620  0.350100  1.0  -0.1308
  C  C301  1  0.083400  0.466750  0.300300  1.0  -0.1608
  C  C302  1  0.040230  0.517180  0.276400  1.0  0.1704
  C  C303  1  0.103510  0.736700  0.285900  1.0  0.6512
  C  C304  1  0.173240  0.763250  0.365500  1.0  -0.1695
  C  C305  1  0.214990  0.738020  0.462200  1.0  -0.114
  C  C306  1  0.069200  0.627000  0.058800  1.0  0.6696
  C  C307  1  0.064830  0.561790  0.046300  1.0  -0.2191
  C  C308  1  0.002030  0.531700  0.007800  1.0  -0.0876
  N  N309  1  0.404290  0.766830  0.407900  1.0  -0.3122
  N  N310  1  0.465630  0.675830  0.532590  1.0  -0.3238
  N  N311  1  0.570980  0.928870  0.799930  1.0  -0.3287
  N  N312  1  0.904290  0.266830  0.407900  1.0  -0.3122
  N  N313  1  0.965630  0.175830  0.532590  1.0  -0.3238
  N  N314  1  0.070980  0.428870  0.799930  1.0  -0.3287
  N  N315  1  0.595710  0.766830  0.092100  1.0  -0.3136
  N  N316  1  0.534370  0.675830  0.967410  1.0  -0.3242
  N  N317  1  0.429020  0.928870  0.700070  1.0  -0.3264
  N  N318  1  0.095710  0.266830  0.092100  1.0  -0.3136
  N  N319  1  0.034370  0.175830  0.967410  1.0  -0.3242
  N  N320  1  0.929020  0.428870  0.700070  1.0  -0.3264
  N  N321  1  0.595710  0.233170  0.592100  1.0  -0.3133
  N  N322  1  0.534370  0.324170  0.467410  1.0  -0.3262
  N  N323  1  0.429020  0.071130  0.200070  1.0  -0.3274
  N  N324  1  0.095710  0.733170  0.592100  1.0  -0.3133
  N  N325  1  0.034370  0.824170  0.467410  1.0  -0.3262
  N  N326  1  0.929020  0.571130  0.200070  1.0  -0.3274
  N  N327  1  0.404290  0.233170  0.907900  1.0  -0.3122
  N  N328  1  0.465630  0.324170  0.032590  1.0  -0.3259
  N  N329  1  0.570980  0.071130  0.299930  1.0  -0.3292
  N  N330  1  0.904290  0.733170  0.907900  1.0  -0.3122
  N  N331  1  0.965630  0.824170  0.032590  1.0  -0.3259
  N  N332  1  0.070980  0.571130  0.299930  1.0  -0.3292
  O  O333  1  0.577690  0.742390  0.688520  1.0  -0.5991
  O  O334  1  0.576710  0.804800  0.823500  1.0  -0.6173
  O  O335  1  0.512190  0.846780  0.559990  1.0  -0.6498
  O  O336  1  0.627190  0.848260  0.567200  1.0  -0.5827
  O  O337  1  0.077690  0.242390  0.688520  1.0  -0.5991
  O  O338  1  0.076710  0.304800  0.823500  1.0  -0.6173
  O  O339  1  0.012190  0.346780  0.559990  1.0  -0.6498
  O  O340  1  0.127190  0.348260  0.567200  1.0  -0.5827
  O  O341  1  0.422310  0.742390  0.811480  1.0  -0.6002
  O  O342  1  0.423290  0.804800  0.676500  1.0  -0.6173
  O  O343  1  0.487810  0.846780  0.940010  1.0  -0.65
  O  O344  1  0.372810  0.848260  0.932800  1.0  -0.5816
  O  O345  1  0.922310  0.242390  0.811480  1.0  -0.6002
  O  O346  1  0.923290  0.304800  0.676500  1.0  -0.6173
  O  O347  1  0.987810  0.346780  0.940010  1.0  -0.65
  O  O348  1  0.872810  0.348260  0.932800  1.0  -0.5816
  O  O349  1  0.422310  0.257610  0.311480  1.0  -0.5998
  O  O350  1  0.423290  0.195200  0.176500  1.0  -0.6174
  O  O351  1  0.487810  0.153220  0.440010  1.0  -0.6496
  O  O352  1  0.372810  0.151740  0.432800  1.0  -0.5815
  O  O353  1  0.922310  0.757610  0.311480  1.0  -0.5998
  O  O354  1  0.923290  0.695200  0.176500  1.0  -0.6174
  O  O355  1  0.987810  0.653220  0.440010  1.0  -0.6496
  O  O356  1  0.872810  0.651740  0.432800  1.0  -0.5815
  O  O357  1  0.577690  0.257610  0.188520  1.0  -0.5989
  O  O358  1  0.576710  0.195200  0.323500  1.0  -0.6172
  O  O359  1  0.512190  0.153220  0.059990  1.0  -0.6494
  O  O360  1  0.627190  0.151740  0.067200  1.0  -0.582
  O  O361  1  0.077690  0.757610  0.188520  1.0  -0.5989
  O  O362  1  0.076710  0.695200  0.323500  1.0  -0.6172
  O  O363  1  0.012190  0.653220  0.059990  1.0  -0.6494
  O  O364  1  0.127190  0.651740  0.067200  1.0  -0.582
