# generated using pymatgen
data_ZnH10C10S(N2O)2
_symmetry_space_group_name_H-M   'P 1'
_cell_length_a   11.27000000
_cell_length_b   9.84200000
_cell_length_c   13.99000000
_cell_angle_alpha   90.00000000
_cell_angle_beta   93.25000000
_cell_angle_gamma   90.00000000
_symmetry_Int_Tables_number   1
_chemical_formula_structural   ZnH10C10S(N2O)2
_chemical_formula_sum   'Zn4 H40 C40 S4 N16 O8'
_cell_volume   1549.26582278
_cell_formula_units_Z   4
loop_
 _symmetry_equiv_pos_site_id
 _symmetry_equiv_pos_as_xyz
  1  'x, y, z'
loop_
 _atom_site_type_symbol
 _atom_site_label
 _atom_site_symmetry_multiplicity
 _atom_site_fract_x
 _atom_site_fract_y
 _atom_site_fract_z
 _atom_site_occupancy
 _atom_site_charge
  Zn  Zn1  1  0.744720  0.252330  0.840550  1.0  0.8673
  Zn  Zn2  1  0.755280  0.752330  0.659450  1.0  0.8682
  Zn  Zn3  1  0.255280  0.747670  0.159450  1.0  0.8682
  Zn  Zn4  1  0.244720  0.247670  0.340550  1.0  0.8674
  H  H5  1  0.629100  0.390500  0.011000  1.0  0.2496
  H  H6  1  0.602600  0.957000  0.859300  1.0  0.1139
  H  H7  1  0.975600  0.409500  0.922300  1.0  0.1474
  H  H8  1  0.174800  0.050900  0.098400  1.0  0.1104
  H  H9  1  0.909600  0.191700  0.667400  1.0  0.1072
  H  H10  1  0.948000  0.038700  0.666300  1.0  0.1016
  H  H11  1  0.912600  0.106200  0.762000  1.0  0.1071
  H  H12  1  0.753600  0.151100  0.546700  1.0  0.103
  H  H13  1  0.659000  0.039000  0.565900  1.0  0.1333
  H  H14  1  0.788200  0.997100  0.541800  1.0  0.1147
  H  H15  1  0.870900  0.890500  0.489000  1.0  0.2499
  H  H16  1  0.897400  0.457000  0.640700  1.0  0.1136
  H  H17  1  0.524400  0.909500  0.577700  1.0  0.147
  H  H18  1  0.325200  0.550900  0.401600  1.0  0.1106
  H  H19  1  0.590400  0.691700  0.832600  1.0  0.107
  H  H20  1  0.552000  0.538700  0.833700  1.0  0.1032
  H  H21  1  0.587400  0.606200  0.738000  1.0  0.1062
  H  H22  1  0.746400  0.651100  0.953300  1.0  0.1028
  H  H23  1  0.841000  0.539000  0.934100  1.0  0.1369
  H  H24  1  0.711800  0.497100  0.958200  1.0  0.1139
  H  H25  1  0.370900  0.609500  0.989000  1.0  0.2513
  H  H26  1  0.397400  0.043000  0.140700  1.0  0.1143
  H  H27  1  0.024400  0.590500  0.077700  1.0  0.1471
  H  H28  1  0.825200  0.949100  0.901600  1.0  0.1104
  H  H29  1  0.090400  0.808300  0.332600  1.0  0.1063
  H  H30  1  0.052000  0.961300  0.333700  1.0  0.1036
  H  H31  1  0.087400  0.893800  0.238000  1.0  0.1062
  H  H32  1  0.246400  0.848900  0.453300  1.0  0.1037
  H  H33  1  0.341000  0.961000  0.434100  1.0  0.1368
  H  H34  1  0.211800  0.002900  0.458200  1.0  0.1159
  H  H35  1  0.129100  0.109500  0.511000  1.0  0.2505
  H  H36  1  0.102600  0.543000  0.359300  1.0  0.1135
  H  H37  1  0.475600  0.090500  0.422300  1.0  0.1472
  H  H38  1  0.674800  0.449100  0.598400  1.0  0.1104
  H  H39  1  0.409600  0.308300  0.167400  1.0  0.1067
  H  H40  1  0.448000  0.461300  0.166300  1.0  0.1039
  H  H41  1  0.412600  0.393800  0.262000  1.0  0.1068
  H  H42  1  0.253600  0.348900  0.046700  1.0  0.1011
  H  H43  1  0.159000  0.461000  0.065900  1.0  0.1331
  H  H44  1  0.288200  0.502900  0.041800  1.0  0.1107
  C  C45  1  0.598500  0.302800  0.007000  1.0  0.1987
  C  C46  1  0.567100  0.097900  0.961200  1.0  0.1685
  C  C47  1  0.563400  0.974000  0.914800  1.0  -0.0488
  C  C48  1  0.495700  0.877500  0.958700  1.0  0.1378
  C  C49  1  0.980700  0.318300  0.939200  1.0  0.225
  C  C50  1  0.042800  0.125900  0.004500  1.0  0.0252
  C  C51  1  0.107900  0.029400  0.059300  1.0  -0.0946
  C  C52  1  0.937100  0.100500  0.950400  1.0  0.1397
  C  C53  1  0.896300  0.103500  0.694000  1.0  -0.3608
  C  C54  1  0.741600  0.062800  0.573700  1.0  -0.3946
  C  C55  1  0.901500  0.802800  0.493000  1.0  0.1998
  C  C56  1  0.932900  0.597900  0.538800  1.0  0.168
  C  C57  1  0.936600  0.474000  0.585200  1.0  -0.0484
  C  C58  1  0.004300  0.377500  0.541300  1.0  0.1378
  C  C59  1  0.519300  0.818300  0.560800  1.0  0.2253
  C  C60  1  0.457200  0.625900  0.495500  1.0  0.026
  C  C61  1  0.392100  0.529400  0.440700  1.0  -0.0938
  C  C62  1  0.562900  0.600500  0.549600  1.0  0.1405
  C  C63  1  0.603700  0.603500  0.806000  1.0  -0.3625
  C  C64  1  0.758400  0.562800  0.926300  1.0  -0.3961
  C  C65  1  0.401500  0.697200  0.993000  1.0  0.1986
  C  C66  1  0.432900  0.902100  0.038800  1.0  0.1677
  C  C67  1  0.436600  0.026000  0.085200  1.0  -0.0531
  C  C68  1  0.504300  0.122500  0.041300  1.0  0.1383
  C  C69  1  0.019300  0.681700  0.060800  1.0  0.2259
  C  C70  1  0.957200  0.874100  0.995500  1.0  0.0252
  C  C71  1  0.892100  0.970600  0.940700  1.0  -0.0938
  C  C72  1  0.062900  0.899500  0.049600  1.0  0.1408
  C  C73  1  0.103700  0.896500  0.306000  1.0  -0.3629
  C  C74  1  0.258400  0.937200  0.426300  1.0  -0.3959
  C  C75  1  0.098500  0.197200  0.507000  1.0  0.1971
  C  C76  1  0.067100  0.402100  0.461200  1.0  0.1683
  C  C77  1  0.063400  0.526000  0.414800  1.0  -0.0537
  C  C78  1  0.995700  0.622500  0.458700  1.0  0.1382
  C  C79  1  0.480700  0.181700  0.439200  1.0  0.2257
  C  C80  1  0.542800  0.374100  0.504500  1.0  0.0247
  C  C81  1  0.607900  0.470600  0.559300  1.0  -0.0946
  C  C82  1  0.437100  0.399500  0.450400  1.0  0.14
  C  C83  1  0.396300  0.396500  0.194000  1.0  -0.3614
  C  C84  1  0.241600  0.437200  0.073700  1.0  -0.3945
  S  S85  1  0.777400  0.065000  0.673700  1.0  0.7313
  S  S86  1  0.722600  0.565000  0.826300  1.0  0.73
  S  S87  1  0.222600  0.935000  0.326300  1.0  0.7298
  S  S88  1  0.277400  0.435000  0.173700  1.0  0.7316
  N  N89  1  0.625700  0.217500  0.936300  1.0  -0.4993
  N  N90  1  0.898300  0.220400  0.907200  1.0  -0.3955
  N  N91  1  0.064500  0.268700  0.994700  1.0  -0.3185
  N  N92  1  0.471100  0.742300  0.931700  1.0  -0.3663
  N  N93  1  0.874300  0.717500  0.563700  1.0  -0.5017
  N  N94  1  0.601700  0.720400  0.592800  1.0  -0.3976
  N  N95  1  0.435500  0.768700  0.505300  1.0  -0.3179
  N  N96  1  0.028900  0.242300  0.568300  1.0  -0.3639
  N  N97  1  0.374300  0.782500  0.063700  1.0  -0.5018
  N  N98  1  0.101700  0.779600  0.092800  1.0  -0.3973
  N  N99  1  0.935500  0.731300  0.005300  1.0  -0.318
  N  N100  1  0.528900  0.257700  0.068300  1.0  -0.3636
  N  N101  1  0.125700  0.282500  0.436300  1.0  -0.4997
  N  N102  1  0.398300  0.279600  0.407200  1.0  -0.3953
  N  N103  1  0.564500  0.231300  0.494700  1.0  -0.3186
  N  N104  1  0.971100  0.757700  0.431700  1.0  -0.3652
  O  O105  1  0.700200  0.150100  0.727000  1.0  -0.62
  O  O106  1  0.761500  0.931000  0.714500  1.0  -0.6817
  O  O107  1  0.799800  0.650100  0.773000  1.0  -0.6207
  O  O108  1  0.738500  0.431000  0.785500  1.0  -0.6809
  O  O109  1  0.299800  0.849900  0.273000  1.0  -0.6207
  O  O110  1  0.238500  0.069000  0.285500  1.0  -0.6806
  O  O111  1  0.200200  0.349900  0.227000  1.0  -0.6204
  O  O112  1  0.261500  0.569000  0.214500  1.0  -0.681
