# generated using pymatgen
data_MnCr(CO2)6
_symmetry_space_group_name_H-M   'P 1'
_cell_length_a   15.49010000
_cell_length_b   15.49010000
_cell_length_c   15.49010000
_cell_angle_alpha   90.00000000
_cell_angle_beta   90.00000000
_cell_angle_gamma   90.00000000
_symmetry_Int_Tables_number   1
_chemical_formula_structural   MnCr(CO2)6
_chemical_formula_sum   'Mn4 Cr4 C24 O48'
_cell_volume   3716.74413149
_cell_formula_units_Z   4
loop_
 _symmetry_equiv_pos_site_id
 _symmetry_equiv_pos_as_xyz
  1  'x, y, z'
loop_
 _atom_site_type_symbol
 _atom_site_label
 _atom_site_symmetry_multiplicity
 _atom_site_fract_x
 _atom_site_fract_y
 _atom_site_fract_z
 _atom_site_occupancy
 _atom_site_charge
  Mn  Mn1  1  0.853500  0.353500  0.146500  1.0  1.0987
  Mn  Mn2  1  0.646500  0.646500  0.646500  1.0  1.1003
  Mn  Mn3  1  0.146500  0.853500  0.353500  1.0  1.1008
  Mn  Mn4  1  0.353500  0.146500  0.853500  1.0  1.0997
  Cr  Cr5  1  0.597300  0.402700  0.902700  1.0  1.1759
  Cr  Cr6  1  0.902700  0.597300  0.402700  1.0  1.1727
  Cr  Cr7  1  0.402700  0.902700  0.597300  1.0  1.1752
  Cr  Cr8  1  0.097300  0.097300  0.097300  1.0  1.1768
  C  C9  1  0.763000  0.378000  0.993000  1.0  0.5301
  C  C10  1  0.695000  0.375000  0.066000  1.0  0.5048
  C  C11  1  0.737000  0.622000  0.493000  1.0  0.5306
  C  C12  1  0.805000  0.625000  0.566000  1.0  0.5064
  C  C13  1  0.237000  0.878000  0.507000  1.0  0.5294
  C  C14  1  0.305000  0.875000  0.434000  1.0  0.5061
  C  C15  1  0.263000  0.122000  0.007000  1.0  0.5301
  C  C16  1  0.195000  0.125000  0.934000  1.0  0.5051
  C  C17  1  0.993000  0.763000  0.378000  1.0  0.5283
  C  C18  1  0.066000  0.695000  0.375000  1.0  0.5049
  C  C19  1  0.493000  0.737000  0.622000  1.0  0.528
  C  C20  1  0.566000  0.805000  0.625000  1.0  0.5041
  C  C21  1  0.507000  0.237000  0.878000  1.0  0.5294
  C  C22  1  0.434000  0.305000  0.875000  1.0  0.5034
  C  C23  1  0.007000  0.263000  0.122000  1.0  0.5289
  C  C24  1  0.934000  0.195000  0.125000  1.0  0.5044
  C  C25  1  0.378000  0.993000  0.763000  1.0  0.5273
  C  C26  1  0.375000  0.066000  0.695000  1.0  0.5063
  C  C27  1  0.622000  0.493000  0.737000  1.0  0.5272
  C  C28  1  0.625000  0.566000  0.805000  1.0  0.5079
  C  C29  1  0.878000  0.507000  0.237000  1.0  0.5257
  C  C30  1  0.875000  0.434000  0.305000  1.0  0.5072
  C  C31  1  0.122000  0.007000  0.263000  1.0  0.525
  C  C32  1  0.125000  0.934000  0.195000  1.0  0.506
  O  O33  1  0.842100  0.365800  0.020300  1.0  -0.4455
  O  O34  1  0.726000  0.359300  0.143300  1.0  -0.4318
  O  O35  1  0.740000  0.387300  0.919800  1.0  -0.4372
  O  O36  1  0.618000  0.389600  0.047400  1.0  -0.4696
  O  O37  1  0.657900  0.634200  0.520300  1.0  -0.4486
  O  O38  1  0.774000  0.640700  0.643300  1.0  -0.4319
  O  O39  1  0.760000  0.612700  0.419800  1.0  -0.4406
  O  O40  1  0.882000  0.610400  0.547400  1.0  -0.472
  O  O41  1  0.157900  0.865800  0.479700  1.0  -0.4522
  O  O42  1  0.274000  0.859300  0.356700  1.0  -0.4315
  O  O43  1  0.260000  0.887300  0.580200  1.0  -0.4377
  O  O44  1  0.382000  0.889600  0.452600  1.0  -0.4715
  O  O45  1  0.342100  0.134200  0.979700  1.0  -0.4468
  O  O46  1  0.226000  0.140700  0.856700  1.0  -0.428
  O  O47  1  0.240000  0.112700  0.080200  1.0  -0.4416
  O  O48  1  0.118000  0.110400  0.952600  1.0  -0.4733
  O  O49  1  0.020300  0.842100  0.365800  1.0  -0.4513
  O  O50  1  0.143300  0.726000  0.359300  1.0  -0.4267
  O  O51  1  0.919800  0.740000  0.387300  1.0  -0.4438
  O  O52  1  0.047400  0.618000  0.389600  1.0  -0.4726
  O  O53  1  0.520300  0.657900  0.634200  1.0  -0.4508
  O  O54  1  0.643300  0.774000  0.640700  1.0  -0.4288
  O  O55  1  0.419800  0.760000  0.612700  1.0  -0.4451
  O  O56  1  0.547400  0.882000  0.610400  1.0  -0.471
  O  O57  1  0.479700  0.157900  0.865800  1.0  -0.4557
  O  O58  1  0.356700  0.274000  0.859300  1.0  -0.4333
  O  O59  1  0.580200  0.260000  0.887300  1.0  -0.4388
  O  O60  1  0.452600  0.382000  0.889600  1.0  -0.4744
  O  O61  1  0.979700  0.342100  0.134200  1.0  -0.45
  O  O62  1  0.856700  0.226000  0.140700  1.0  -0.4324
  O  O63  1  0.080200  0.240000  0.112700  1.0  -0.438
  O  O64  1  0.952600  0.118000  0.110400  1.0  -0.4765
  O  O65  1  0.365800  0.020300  0.842100  1.0  -0.4519
  O  O66  1  0.359300  0.143300  0.726000  1.0  -0.4317
  O  O67  1  0.387300  0.919800  0.740000  1.0  -0.4386
  O  O68  1  0.389600  0.047400  0.618000  1.0  -0.4655
  O  O69  1  0.634200  0.520300  0.657900  1.0  -0.4496
  O  O70  1  0.640700  0.643300  0.774000  1.0  -0.427
  O  O71  1  0.612700  0.419800  0.760000  1.0  -0.4434
  O  O72  1  0.610400  0.547400  0.882000  1.0  -0.4697
  O  O73  1  0.865800  0.479700  0.157900  1.0  -0.4555
  O  O74  1  0.859300  0.356700  0.274000  1.0  -0.4321
  O  O75  1  0.887300  0.580200  0.260000  1.0  -0.4372
  O  O76  1  0.889600  0.452600  0.382000  1.0  -0.469
  O  O77  1  0.134200  0.979700  0.342100  1.0  -0.4491
  O  O78  1  0.140700  0.856700  0.226000  1.0  -0.4257
  O  O79  1  0.112700  0.080200  0.240000  1.0  -0.441
  O  O80  1  0.110400  0.952600  0.118000  1.0  -0.4709
