# generated using pymatgen
data_CdH10(C2N)4
_symmetry_space_group_name_H-M   'P 1'
_cell_length_a   15.69290000
_cell_length_b   15.69290000
_cell_length_c   15.69290000
_cell_angle_alpha   109.47100000
_cell_angle_beta   109.47100000
_cell_angle_gamma   109.47100000
_symmetry_Int_Tables_number   1
_chemical_formula_structural   CdH10(C2N)4
_chemical_formula_sum   'Cd6 H60 C48 N24'
_cell_volume   2975.02951543
_cell_formula_units_Z   6
loop_
 _symmetry_equiv_pos_site_id
 _symmetry_equiv_pos_as_xyz
  1  'x, y, z'
loop_
 _atom_site_type_symbol
 _atom_site_label
 _atom_site_symmetry_multiplicity
 _atom_site_fract_x
 _atom_site_fract_y
 _atom_site_fract_z
 _atom_site_occupancy
 _atom_site_charge
  Cd  Cd1  1  0.750000  0.500000  0.250000  1.0  0.8707
  Cd  Cd2  1  0.250000  0.500000  0.750000  1.0  0.8786
  Cd  Cd3  1  0.250000  0.750000  0.500000  1.0  0.8812
  Cd  Cd4  1  0.750000  0.250000  0.500000  1.0  0.8792
  Cd  Cd5  1  0.500000  0.750000  0.250000  1.0  0.8805
  Cd  Cd6  1  0.500000  0.250000  0.750000  1.0  0.8805
  H  H7  1  0.584960  0.488870  0.357440  1.0  0.0964
  H  H8  1  0.131430  0.227520  0.642560  1.0  0.0925
  H  H9  1  0.868570  0.511130  0.096080  1.0  0.1039
  H  H10  1  0.415040  0.772480  0.903910  1.0  0.0903
  H  H11  1  0.096080  0.868570  0.511130  1.0  0.0956
  H  H12  1  0.903910  0.415040  0.772480  1.0  0.0992
  H  H13  1  0.357440  0.584960  0.488870  1.0  0.0957
  H  H14  1  0.642560  0.131430  0.227520  1.0  0.0879
  H  H15  1  0.227520  0.642560  0.131430  1.0  0.0903
  H  H16  1  0.488870  0.357440  0.584960  1.0  0.1008
  H  H17  1  0.772480  0.903910  0.415040  1.0  0.0918
  H  H18  1  0.511130  0.096080  0.868570  1.0  0.09
  H  H19  1  0.227520  0.131430  0.642560  1.0  0.0912
  H  H20  1  0.488870  0.584960  0.357440  1.0  0.0903
  H  H21  1  0.772480  0.415040  0.903910  1.0  0.0914
  H  H22  1  0.511130  0.868570  0.096080  1.0  0.1011
  H  H23  1  0.584960  0.357440  0.488870  1.0  0.0953
  H  H24  1  0.131430  0.642560  0.227520  1.0  0.0899
  H  H25  1  0.868570  0.096080  0.511130  1.0  0.1067
  H  H26  1  0.415040  0.903910  0.772480  1.0  0.0945
  H  H27  1  0.096080  0.511130  0.868570  1.0  0.0993
  H  H28  1  0.903910  0.772480  0.415040  1.0  0.0912
  H  H29  1  0.357440  0.488870  0.584960  1.0  0.0905
  H  H30  1  0.642560  0.227520  0.131430  1.0  0.0963
  H  H31  1  0.614850  0.687240  0.138880  1.0  0.1281
  H  H32  1  0.688160  0.615270  0.139640  1.0  0.1289
  H  H33  1  0.748370  0.748860  0.250440  1.0  0.1262
  H  H34  1  0.488950  0.507870  0.751460  1.0  0.1216
  H  H35  1  0.550300  0.470070  0.845320  1.0  0.1259
  H  H36  1  0.483160  0.544480  0.874260  1.0  0.1269
  H  H37  1  0.496860  0.246920  0.990190  1.0  0.1243
  H  H38  1  0.453350  0.321350  0.932760  1.0  0.1272
  H  H39  1  0.527380  0.380360  0.077050  1.0  0.1237
  H  H40  1  0.393320  0.505480  0.042020  1.0  0.1233
  H  H41  1  0.274340  0.450580  0.916120  1.0  0.1373
  H  H42  1  0.280970  0.521520  0.041860  1.0  0.1232
  H  H43  1  0.022040  0.512530  0.264680  1.0  0.1212
  H  H44  1  0.918890  0.449600  0.292170  1.0  0.1268
  H  H45  1  0.059070  0.515460  0.391770  1.0  0.1247
  H  H46  1  0.048960  0.393330  0.509450  1.0  0.1211
  H  H47  1  0.916530  0.280930  0.449870  1.0  0.1246
  H  H48  1  0.034510  0.274370  0.518260  1.0  0.1306
  H  H49  1  0.134240  0.612460  0.681520  1.0  0.1241
  H  H50  1  0.144510  0.693860  0.618090  1.0  0.1245
  H  H51  1  0.250210  0.745050  0.751770  1.0  0.1202
  H  H52  1  0.855490  0.549350  0.473580  1.0  0.1286
  H  H53  1  0.865760  0.478230  0.547280  1.0  0.1289
  H  H54  1  0.749790  0.494840  0.501560  1.0  0.1229
  H  H55  1  0.546650  0.868000  0.479410  1.0  0.1266
  H  H56  1  0.503140  0.750060  0.493330  1.0  0.1213
  H  H57  1  0.472620  0.852980  0.549670  1.0  0.1243
  H  H58  1  0.725670  0.176240  0.641780  1.0  0.1345
  H  H59  1  0.606680  0.112160  0.648690  1.0  0.1219
  H  H60  1  0.719030  0.240550  0.760900  1.0  0.1234
  H  H61  1  0.449700  0.919770  0.295020  1.0  0.1272
  H  H62  1  0.511050  0.018910  0.262510  1.0  0.121
  H  H63  1  0.516840  0.061320  0.391100  1.0  0.1254
  H  H64  1  0.311840  0.927110  0.451480  1.0  0.1283
  H  H65  1  0.385150  0.072390  0.524030  1.0  0.1257
  H  H66  1  0.251630  0.000500  0.502080  1.0  0.1264
  C  C67  1  0.593200  0.541600  0.321800  1.0  -0.0598
  C  C68  1  0.219800  0.271400  0.678200  1.0  -0.0371
  C  C69  1  0.780200  0.458400  0.051600  1.0  -0.058
  C  C70  1  0.406800  0.728600  0.948400  1.0  -0.0635
  C  C71  1  0.051600  0.780200  0.458400  1.0  -0.0639
  C  C72  1  0.948400  0.406800  0.728600  1.0  -0.0614
  C  C73  1  0.321800  0.593200  0.541600  1.0  -0.0345
  C  C74  1  0.678200  0.219800  0.271400  1.0  -0.0718
  C  C75  1  0.271400  0.678200  0.219800  1.0  -0.0536
  C  C76  1  0.541600  0.321800  0.593200  1.0  -0.0557
  C  C77  1  0.728600  0.948400  0.406800  1.0  -0.0708
  C  C78  1  0.458400  0.051600  0.780200  1.0  -0.0586
  C  C79  1  0.271400  0.219800  0.678200  1.0  -0.064
  C  C80  1  0.541600  0.593200  0.321800  1.0  -0.0549
  C  C81  1  0.728600  0.406800  0.948400  1.0  -0.0533
  C  C82  1  0.458400  0.780200  0.051600  1.0  -0.0583
  C  C83  1  0.593200  0.321800  0.541600  1.0  -0.0658
  C  C84  1  0.219800  0.678200  0.271400  1.0  -0.0749
  C  C85  1  0.780200  0.051600  0.458400  1.0  -0.055
  C  C86  1  0.406800  0.948400  0.728600  1.0  -0.0584
  C  C87  1  0.051600  0.458400  0.780200  1.0  -0.064
  C  C88  1  0.948400  0.728600  0.406800  1.0  -0.0664
  C  C89  1  0.321800  0.541600  0.593200  1.0  -0.0606
  C  C90  1  0.678200  0.271400  0.219800  1.0  -0.0474
  C  C91  1  0.672200  0.672200  0.190200  1.0  -0.4675
  C  C92  1  0.624100  0.624100  0.247800  1.0  0.4913
  C  C93  1  0.482000  0.482000  0.809800  1.0  -0.4686
  C  C94  1  0.376300  0.376300  0.752200  1.0  0.5118
  C  C95  1  0.518000  0.327800  0.000000  1.0  -0.4715
  C  C96  1  0.623700  0.375900  0.000000  1.0  0.4849
  C  C97  1  0.327800  0.518000  0.000000  1.0  -0.4738
  C  C98  1  0.375900  0.623700  0.000000  1.0  0.4873
  C  C99  1  0.000000  0.518000  0.327800  1.0  -0.4559
  C  C100  1  0.000000  0.623700  0.375900  1.0  0.4876
  C  C101  1  0.000000  0.327800  0.518000  1.0  -0.4715
  C  C102  1  0.000000  0.375900  0.623700  1.0  0.4877
  C  C103  1  0.190200  0.672200  0.672200  1.0  -0.4677
  C  C104  1  0.247800  0.624100  0.624100  1.0  0.4871
  C  C105  1  0.809800  0.482000  0.482000  1.0  -0.4653
  C  C106  1  0.752200  0.376300  0.376300  1.0  0.5057
  C  C107  1  0.482000  0.809800  0.482000  1.0  -0.471
  C  C108  1  0.376300  0.752200  0.376300  1.0  0.4841
  C  C109  1  0.672200  0.190200  0.672200  1.0  -0.4743
  C  C110  1  0.624100  0.247800  0.624100  1.0  0.4882
  C  C111  1  0.518000  0.000000  0.327800  1.0  -0.4654
  C  C112  1  0.623700  0.000000  0.375900  1.0  0.5098
  C  C113  1  0.327800  0.000000  0.518000  1.0  -0.4675
  C  C114  1  0.375900  0.000000  0.623700  1.0  0.4913
  N  N115  1  0.650200  0.564500  0.275100  1.0  -0.4595
  N  N116  1  0.289400  0.375100  0.724900  1.0  -0.4591
  N  N117  1  0.710600  0.435500  0.085700  1.0  -0.467
  N  N118  1  0.349800  0.624900  0.914300  1.0  -0.4414
  N  N119  1  0.085700  0.710600  0.435500  1.0  -0.4594
  N  N120  1  0.914300  0.349800  0.624900  1.0  -0.4646
  N  N121  1  0.275100  0.650200  0.564500  1.0  -0.4597
  N  N122  1  0.724900  0.289400  0.375100  1.0  -0.4504
  N  N123  1  0.375100  0.724900  0.289400  1.0  -0.473
  N  N124  1  0.564500  0.275100  0.650200  1.0  -0.4545
  N  N125  1  0.624900  0.914300  0.349800  1.0  -0.4669
  N  N126  1  0.435500  0.085700  0.710600  1.0  -0.4414
  N  N127  1  0.375100  0.289400  0.724900  1.0  -0.4675
  N  N128  1  0.564500  0.650200  0.275100  1.0  -0.4382
  N  N129  1  0.624900  0.349800  0.914300  1.0  -0.4719
  N  N130  1  0.435500  0.710600  0.085700  1.0  -0.456
  N  N131  1  0.650200  0.275100  0.564500  1.0  -0.4412
  N  N132  1  0.289400  0.724900  0.375100  1.0  -0.4676
  N  N133  1  0.710600  0.085700  0.435500  1.0  -0.4544
  N  N134  1  0.349800  0.914300  0.624900  1.0  -0.4606
  N  N135  1  0.085700  0.435500  0.710600  1.0  -0.4447
  N  N136  1  0.914300  0.624900  0.349800  1.0  -0.455
  N  N137  1  0.275100  0.564500  0.650200  1.0  -0.4375
  N  N138  1  0.724900  0.375100  0.289400  1.0  -0.4573
