# generated using pymatgen
data_Cd2H14C15N8
_symmetry_space_group_name_H-M   'P 1'
_cell_length_a   20.28700000
_cell_length_b   23.01730000
_cell_length_c   23.01730000
_cell_angle_alpha   78.80150000
_cell_angle_beta   63.85200000
_cell_angle_gamma   63.85210000
_symmetry_Int_Tables_number   1
_chemical_formula_structural   Cd2H14C15N8
_chemical_formula_sum   'Cd16 H112 C120 N64'
_cell_volume   8660.62919416
_cell_formula_units_Z   8
loop_
 _symmetry_equiv_pos_site_id
 _symmetry_equiv_pos_as_xyz
  1  'x, y, z'
loop_
 _atom_site_type_symbol
 _atom_site_label
 _atom_site_symmetry_multiplicity
 _atom_site_fract_x
 _atom_site_fract_y
 _atom_site_fract_z
 _atom_site_occupancy
 _atom_site_charge
  Cd  Cd1  1  0.422670  0.844170  0.625650  1.0  0.8136
  Cd  Cd2  1  0.733100  0.844200  0.374320  1.0  0.7736
  Cd  Cd3  1  0.892490  0.155830  0.374350  1.0  0.8145
  Cd  Cd4  1  0.951620  0.155800  0.625680  1.0  0.7734
  Cd  Cd5  1  0.048320  0.374350  0.844170  1.0  0.8135
  Cd  Cd6  1  0.107420  0.625680  0.844200  1.0  0.7734
  Cd  Cd7  1  0.266840  0.625650  0.155830  1.0  0.8141
  Cd  Cd8  1  0.577300  0.374320  0.155800  1.0  0.7735
  Cd  Cd9  1  0.577330  0.155830  0.374350  1.0  0.8144
  Cd  Cd10  1  0.266900  0.155800  0.625680  1.0  0.7739
  Cd  Cd11  1  0.107510  0.844170  0.625650  1.0  0.8147
  Cd  Cd12  1  0.048380  0.844200  0.374320  1.0  0.7738
  Cd  Cd13  1  0.951680  0.625650  0.155830  1.0  0.8142
  Cd  Cd14  1  0.892580  0.374320  0.155800  1.0  0.7738
  Cd  Cd15  1  0.733160  0.374350  0.844170  1.0  0.8139
  Cd  Cd16  1  0.422700  0.625680  0.844200  1.0  0.7739
  H  H17  1  0.396900  0.828000  0.494200  1.0  0.0925
  H  H18  1  0.484300  0.699100  0.638100  1.0  0.1253
  H  H19  1  0.442400  0.656800  0.689200  1.0  0.1341
  H  H20  1  0.527400  0.648500  0.679900  1.0  0.1296
  H  H21  1  0.774300  0.830300  0.506700  1.0  0.0913
  H  H22  1  0.266700  0.042900  0.576500  1.0  0.1293
  H  H23  1  0.263100  0.976900  0.607500  1.0  0.1179
  H  H24  1  0.338600  0.977700  0.545900  1.0  0.1296
  H  H25  1  0.377700  0.062400  0.703200  1.0  0.1011
  H  H26  1  0.440900  0.939300  0.701300  1.0  0.0882
  H  H27  1  0.731000  0.723700  0.480300  1.0  0.1015
  H  H28  1  0.619300  0.726200  0.578000  1.0  0.0924
  H  H29  1  0.395300  0.862000  0.777200  1.0  0.1202
  H  H30  1  0.397300  0.777400  0.860400  1.0  0.0973
  H  H31  1  0.719100  0.172000  0.505800  1.0  0.0928
  H  H32  1  0.821500  0.300900  0.361900  1.0  0.1292
  H  H33  1  0.788400  0.343200  0.310800  1.0  0.1345
  H  H34  1  0.855800  0.351500  0.320100  1.0  0.1292
  H  H35  1  0.111300  0.169700  0.493300  1.0  0.0897
  H  H36  1  0.886100  0.957100  0.423500  1.0  0.1352
  H  H37  1  0.847500  0.023100  0.392500  1.0  0.1192
  H  H38  1  0.862200  0.022300  0.454100  1.0  0.1304
  H  H39  1  0.143300  0.937600  0.296800  1.0  0.1035
  H  H40  1  0.081500  0.060700  0.298700  1.0  0.0869
  H  H41  1  0.935000  0.276300  0.519700  1.0  0.1003
  H  H42  1  0.923500  0.273800  0.422000  1.0  0.0917
  H  H43  1  0.034500  0.138000  0.222800  1.0  0.1075
  H  H44  1  0.035100  0.222600  0.139600  1.0  0.0947
  H  H45  1  0.891100  0.505800  0.828000  1.0  0.0943
  H  H46  1  0.122400  0.361900  0.699100  1.0  0.1284
  H  H47  1  0.131600  0.310800  0.656800  1.0  0.1369
  H  H48  1  0.207300  0.320100  0.648500  1.0  0.1286
  H  H49  1  0.281000  0.493300  0.830300  1.0  0.09
  H  H50  1  0.843200  0.423500  0.042900  1.0  0.1298
  H  H51  1  0.870600  0.392500  0.976900  1.0  0.1176
  H  H52  1  0.884500  0.454100  0.977700  1.0  0.1328
  H  H53  1  0.080900  0.296800  0.062400  1.0  0.1012
  H  H54  1  0.142200  0.298700  0.939300  1.0  0.0882
  H  H55  1  0.211300  0.519700  0.723700  1.0  0.1011
  H  H56  1  0.197300  0.422000  0.726200  1.0  0.0911
  H  H57  1  0.172500  0.222800  0.862000  1.0  0.1017
  H  H58  1  0.257700  0.139600  0.777400  1.0  0.1
  H  H59  1  0.224900  0.494200  0.172000  1.0  0.095
  H  H60  1  0.183400  0.638100  0.300900  1.0  0.1256
  H  H61  1  0.099200  0.689200  0.343200  1.0  0.1392
  H  H62  1  0.175900  0.679900  0.351500  1.0  0.1293
  H  H63  1  0.604600  0.506700  0.169700  1.0  0.0898
  H  H64  1  0.309600  0.576500  0.957100  1.0  0.1309
  H  H65  1  0.240000  0.607500  0.023100  1.0  0.1189
  H  H66  1  0.316300  0.545900  0.022300  1.0  0.1278
  H  H67  1  0.440100  0.703200  0.937600  1.0  0.0993
  H  H68  1  0.380200  0.701300  0.060700  1.0  0.087
  H  H69  1  0.454700  0.480300  0.276300  1.0  0.1006
  H  H70  1  0.345500  0.578000  0.273800  1.0  0.0924
  H  H71  1  0.257300  0.777200  0.138000  1.0  0.1075
  H  H72  1  0.174700  0.860400  0.222600  1.0  0.0986
  H  H73  1  0.603100  0.172000  0.505800  1.0  0.0936
  H  H74  1  0.515700  0.300900  0.361900  1.0  0.1237
  H  H75  1  0.557600  0.343200  0.310800  1.0  0.132
  H  H76  1  0.472600  0.351500  0.320100  1.0  0.1289
  H  H77  1  0.225700  0.169700  0.493300  1.0  0.0898
  H  H78  1  0.733300  0.957100  0.423500  1.0  0.129
  H  H79  1  0.736900  0.023100  0.392500  1.0  0.1184
  H  H80  1  0.661400  0.022300  0.454100  1.0  0.1311
  H  H81  1  0.622300  0.937600  0.296800  1.0  0.1013
  H  H82  1  0.559100  0.060700  0.298700  1.0  0.0883
  H  H83  1  0.269000  0.276300  0.519700  1.0  0.1019
  H  H84  1  0.380700  0.273800  0.422000  1.0  0.0917
  H  H85  1  0.604700  0.138000  0.222800  1.0  0.1201
  H  H86  1  0.602700  0.222600  0.139600  1.0  0.0966
  H  H87  1  0.280900  0.828000  0.494200  1.0  0.0911
  H  H88  1  0.178500  0.699100  0.638100  1.0  0.1295
  H  H89  1  0.211600  0.656800  0.689200  1.0  0.1356
  H  H90  1  0.144200  0.648500  0.679900  1.0  0.1273
  H  H91  1  0.888700  0.830300  0.506700  1.0  0.0904
  H  H92  1  0.113900  0.042900  0.576500  1.0  0.1352
  H  H93  1  0.152500  0.976900  0.607500  1.0  0.1193
  H  H94  1  0.137800  0.977700  0.545900  1.0  0.1306
  H  H95  1  0.856700  0.062400  0.703200  1.0  0.1028
  H  H96  1  0.918500  0.939300  0.701300  1.0  0.0856
  H  H97  1  0.065000  0.723700  0.480300  1.0  0.101
  H  H98  1  0.076500  0.726200  0.578000  1.0  0.0921
  H  H99  1  0.965500  0.862000  0.777200  1.0  0.1081
  H  H100  1  0.964900  0.777400  0.860400  1.0  0.0958
  H  H101  1  0.108900  0.494200  0.172000  1.0  0.0948
  H  H102  1  0.877600  0.638100  0.300900  1.0  0.1267
  H  H103  1  0.868400  0.689200  0.343200  1.0  0.1382
  H  H104  1  0.792700  0.679900  0.351500  1.0  0.1301
  H  H105  1  0.719000  0.506700  0.169700  1.0  0.0895
  H  H106  1  0.156800  0.576500  0.957100  1.0  0.13
  H  H107  1  0.129400  0.607500  0.023100  1.0  0.1178
  H  H108  1  0.115500  0.545900  0.022300  1.0  0.1321
  H  H109  1  0.919100  0.703200  0.937600  1.0  0.1015
  H  H110  1  0.857800  0.701300  0.060700  1.0  0.0877
  H  H111  1  0.788700  0.480300  0.276300  1.0  0.1012
  H  H112  1  0.802700  0.578000  0.273800  1.0  0.0917
  H  H113  1  0.827500  0.777200  0.138000  1.0  0.1027
  H  H114  1  0.742300  0.860400  0.222600  1.0  0.1
  H  H115  1  0.775100  0.505800  0.828000  1.0  0.0947
  H  H116  1  0.816600  0.361900  0.699100  1.0  0.1268
  H  H117  1  0.900800  0.310800  0.656800  1.0  0.1376
  H  H118  1  0.824100  0.320100  0.648500  1.0  0.1279
  H  H119  1  0.395400  0.493300  0.830300  1.0  0.0902
  H  H120  1  0.690400  0.423500  0.042900  1.0  0.1317
  H  H121  1  0.760000  0.392500  0.976900  1.0  0.1191
  H  H122  1  0.683700  0.454100  0.977700  1.0  0.129
  H  H123  1  0.559900  0.296800  0.062400  1.0  0.0995
  H  H124  1  0.619800  0.298700  0.939300  1.0  0.0873
  H  H125  1  0.545300  0.519700  0.723700  1.0  0.1009
  H  H126  1  0.654500  0.422000  0.726200  1.0  0.0914
  H  H127  1  0.742700  0.222800  0.862000  1.0  0.1073
  H  H128  1  0.825300  0.139600  0.777400  1.0  0.098
  C  C129  1  0.579300  0.844300  0.499700  1.0  0.1212
  C  C130  1  0.351800  0.828900  0.531100  1.0  -0.0058
  C  C131  1  0.476500  0.679000  0.679800  1.0  -0.4611
  C  C132  1  0.439400  0.727800  0.728600  1.0  0.3205
  C  C133  1  0.819000  0.830200  0.469800  1.0  -0.0021
  C  C134  1  0.297600  0.999500  0.585700  1.0  -0.4979
  C  C135  1  0.335000  0.000800  0.627400  1.0  0.3387
  C  C136  1  0.371500  0.035500  0.682500  1.0  -0.0522
  C  C137  1  0.406500  0.966100  0.681500  1.0  -0.0494
  C  C138  1  0.678600  0.754700  0.492100  1.0  -0.0368
  C  C139  1  0.616900  0.755700  0.544300  1.0  -0.0101
  C  C140  1  0.404500  0.819600  0.772400  1.0  -0.043
  C  C141  1  0.405200  0.772400  0.818400  1.0  0.0054
  C  C142  1  0.923300  0.155700  0.500300  1.0  0.1195
  C  C143  1  0.711800  0.171100  0.468900  1.0  -0.0075
  C  C144  1  0.835300  0.321000  0.320200  1.0  -0.4605
  C  C145  1  0.895800  0.272200  0.271400  1.0  0.3221
  C  C146  1  0.119000  0.169800  0.530200  1.0  0.0043
  C  C147  1  0.882800  0.000500  0.414300  1.0  -0.4973
  C  C148  1  0.963200  0.999200  0.372600  1.0  0.3358
  C  C149  1  0.089500  0.964500  0.317500  1.0  -0.0512
  C  C150  1  0.054100  0.033900  0.318500  1.0  -0.0485
  C  C151  1  0.925400  0.245300  0.507900  1.0  -0.0373
  C  C152  1  0.916900  0.244300  0.455700  1.0  -0.01
  C  C153  1  0.996500  0.180400  0.227600  1.0  -0.0407
  C  C154  1  0.996000  0.227600  0.181600  1.0  0.0066
  C  C155  1  0.079000  0.500300  0.844300  1.0  0.1171
  C  C156  1  0.882900  0.468900  0.828900  1.0  -0.0084
  C  C157  1  0.156300  0.320200  0.679000  1.0  -0.4601
  C  C158  1  0.168000  0.271400  0.727800  1.0  0.321
  C  C159  1  0.288800  0.530200  0.830200  1.0  -0.0031
  C  C160  1  0.883300  0.414300  0.999500  1.0  -0.4974
  C  C161  1  0.962400  0.372600  0.000800  1.0  0.3378
  C  C162  1  0.054000  0.317500  0.035500  1.0  -0.0482
  C  C163  1  0.088000  0.318500  0.966100  1.0  -0.0475
  C  C164  1  0.170700  0.507900  0.754700  1.0  -0.037
  C  C165  1  0.161200  0.455700  0.755700  1.0  -0.0104
  C  C166  1  0.176900  0.227600  0.819600  1.0  -0.0436
  C  C167  1  0.223600  0.181600  0.772400  1.0  0.0016
  C  C168  1  0.423600  0.499700  0.155700  1.0  0.1248
  C  C169  1  0.180700  0.531100  0.171100  1.0  -0.0071
  C  C170  1  0.155500  0.679800  0.321000  1.0  -0.4608
  C  C171  1  0.167200  0.728600  0.272200  1.0  0.3219
  C  C172  1  0.649200  0.469800  0.169800  1.0  -0.0022
  C  C173  1  0.297100  0.585700  0.000500  1.0  -0.4976
  C  C174  1  0.335800  0.627400  0.999200  1.0  0.3384
  C  C175  1  0.407000  0.682500  0.964500  1.0  -0.0487
  C  C176  1  0.372600  0.681500  0.033900  1.0  -0.0467
  C  C177  1  0.433300  0.492100  0.245300  1.0  -0.0385
  C  C178  1  0.372600  0.544300  0.244300  1.0  -0.0113
  C  C179  1  0.224100  0.772400  0.180400  1.0  -0.0401
  C  C180  1  0.177600  0.818400  0.227600  1.0  0.0047
  C  C181  1  0.420700  0.155700  0.500300  1.0  0.1192
  C  C182  1  0.648200  0.171100  0.468900  1.0  -0.006
  C  C183  1  0.523500  0.321000  0.320200  1.0  -0.4616
  C  C184  1  0.560600  0.272200  0.271400  1.0  0.3204
  C  C185  1  0.181000  0.169800  0.530200  1.0  -0.0023
  C  C186  1  0.702400  0.000500  0.414300  1.0  -0.4974
  C  C187  1  0.665000  0.999200  0.372600  1.0  0.3395
  C  C188  1  0.628500  0.964500  0.317500  1.0  -0.0521
  C  C189  1  0.593500  0.033900  0.318500  1.0  -0.0468
  C  C190  1  0.321400  0.245300  0.507900  1.0  -0.0388
  C  C191  1  0.383100  0.244300  0.455700  1.0  -0.0098
  C  C192  1  0.595500  0.180400  0.227600  1.0  -0.0428
  C  C193  1  0.594800  0.227600  0.181600  1.0  0.0061
  C  C194  1  0.076700  0.844300  0.499700  1.0  0.1224
  C  C195  1  0.288200  0.828900  0.531100  1.0  -0.0081
  C  C196  1  0.164700  0.679000  0.679800  1.0  -0.4634
  C  C197  1  0.104200  0.727800  0.728600  1.0  0.3203
  C  C198  1  0.881000  0.830200  0.469800  1.0  0.0042
  C  C199  1  0.117200  0.999500  0.585700  1.0  -0.4964
  C  C200  1  0.036800  0.000800  0.627400  1.0  0.3378
  C  C201  1  0.910500  0.035500  0.682500  1.0  -0.0525
  C  C202  1  0.945900  0.966100  0.681500  1.0  -0.0483
  C  C203  1  0.074600  0.754700  0.492100  1.0  -0.0373
  C  C204  1  0.083100  0.755700  0.544300  1.0  -0.0087
  C  C205  1  0.003500  0.819600  0.772400  1.0  -0.0425
  C  C206  1  0.004000  0.772400  0.818400  1.0  0.0061
  C  C207  1  0.921000  0.499700  0.155700  1.0  0.1199
  C  C208  1  0.117100  0.531100  0.171100  1.0  -0.0095
  C  C209  1  0.843700  0.679800  0.321000  1.0  -0.4623
  C  C210  1  0.832000  0.728600  0.272200  1.0  0.3199
  C  C211  1  0.711200  0.469800  0.169800  1.0  -0.0038
  C  C212  1  0.116700  0.585700  0.000500  1.0  -0.4966
  C  C213  1  0.037600  0.627400  0.999200  1.0  0.3407
  C  C214  1  0.946000  0.682500  0.964500  1.0  -0.0482
  C  C215  1  0.912000  0.681500  0.033900  1.0  -0.0486
  C  C216  1  0.829300  0.492100  0.245300  1.0  -0.0377
  C  C217  1  0.838800  0.544300  0.244300  1.0  -0.0097
  C  C218  1  0.823100  0.772400  0.180400  1.0  -0.0407
  C  C219  1  0.776400  0.818400  0.227600  1.0  0.0025
  C  C220  1  0.576400  0.500300  0.844300  1.0  0.1209
  C  C221  1  0.819300  0.468900  0.828900  1.0  -0.0071
  C  C222  1  0.844500  0.320200  0.679000  1.0  -0.4617
  C  C223  1  0.832800  0.271400  0.727800  1.0  0.3206
  C  C224  1  0.350800  0.530200  0.830200  1.0  -0.002
  C  C225  1  0.702900  0.414300  0.999500  1.0  -0.4975
  C  C226  1  0.664200  0.372600  0.000800  1.0  0.3398
  C  C227  1  0.593000  0.317500  0.035500  1.0  -0.0508
  C  C228  1  0.627400  0.318500  0.966100  1.0  -0.0453
  C  C229  1  0.566700  0.507900  0.754700  1.0  -0.0387
  C  C230  1  0.627400  0.455700  0.755700  1.0  -0.0102
  C  C231  1  0.775900  0.227600  0.819600  1.0  -0.0414
  C  C232  1  0.822400  0.181600  0.772400  1.0  0.0024
  C  C233  1  0.231400  0.833500  0.703700  1.0  -0.0931
  C  C234  1  0.268200  0.832000  0.631600  1.0  0.313
  C  C235  1  0.768600  0.166500  0.296300  1.0  -0.091
  C  C236  1  0.731800  0.168000  0.368400  1.0  0.3139
  C  C237  1  0.935100  0.296300  0.833500  1.0  -0.091
  C  C238  1  0.899800  0.368400  0.832000  1.0  0.3126
  C  C239  1  0.064900  0.703700  0.166500  1.0  -0.0885
  C  C240  1  0.100200  0.631600  0.168000  1.0  0.3113
  C  C241  1  0.934800  0.832200  0.298200  1.0  -0.0874
  C  C242  1  0.898500  0.833700  0.369300  1.0  0.4061
  C  C243  1  0.065200  0.167800  0.701800  1.0  -0.0867
  C  C244  1  0.101500  0.166300  0.630700  1.0  0.4085
  C  C245  1  0.233000  0.701800  0.832200  1.0  -0.082
  C  C246  1  0.267800  0.630700  0.833700  1.0  0.4052
  C  C247  1  0.767000  0.298200  0.167800  1.0  -0.0821
  C  C248  1  0.732200  0.369300  0.166300  1.0  0.4066
  N  N249  1  0.650000  0.810900  0.455900  1.0  -0.3819
  N  N250  1  0.539600  0.811100  0.543900  1.0  -0.3989
  N  N251  1  0.343200  0.830600  0.594000  1.0  -0.4081
  N  N252  1  0.420100  0.792200  0.717200  1.0  -0.3142
  N  N253  1  0.419300  0.716400  0.793600  1.0  -0.3536
  N  N254  1  0.827200  0.830000  0.406000  1.0  -0.4252
  N  N255  1  0.327800  0.053300  0.647100  1.0  -0.3395
  N  N256  1  0.381200  0.946600  0.647200  1.0  -0.4091
  N  N257  1  0.916800  0.189100  0.544100  1.0  -0.3828
  N  N258  1  0.894600  0.188900  0.456100  1.0  -0.401
  N  N259  1  0.767800  0.169400  0.406000  1.0  -0.4118
  N  N260  1  0.929500  0.207800  0.282800  1.0  -0.3146
  N  N261  1  0.929300  0.283600  0.206400  1.0  -0.3558
  N  N262  1  0.063200  0.170000  0.594000  1.0  -0.416
  N  N263  1  0.028200  0.946700  0.352900  1.0  -0.3415
  N  N264  1  0.975000  0.053400  0.352800  1.0  -0.4084
  N  N265  1  0.105900  0.544100  0.810900  1.0  -0.382
  N  N266  1  0.083500  0.456100  0.811100  1.0  -0.399
  N  N267  1  0.937200  0.406000  0.830600  1.0  -0.4111
  N  N268  1  0.137300  0.282800  0.792200  1.0  -0.3118
  N  N269  1  0.212900  0.206400  0.716400  1.0  -0.3565
  N  N270  1  0.233200  0.594000  0.830000  1.0  -0.4243
  N  N271  1  0.974900  0.352900  0.053300  1.0  -0.3433
  N  N272  1  0.028400  0.352800  0.946600  1.0  -0.4074
  N  N273  1  0.460900  0.455900  0.189100  1.0  -0.3819
  N  N274  1  0.350700  0.543900  0.188900  1.0  -0.3994
  N  N275  1  0.173800  0.594000  0.169400  1.0  -0.4078
  N  N276  1  0.212300  0.717200  0.207800  1.0  -0.3118
  N  N277  1  0.135700  0.793600  0.283600  1.0  -0.3559
  N  N278  1  0.657200  0.406000  0.170000  1.0  -0.4193
  N  N279  1  0.381100  0.647100  0.946700  1.0  -0.3395
  N  N280  1  0.327800  0.647200  0.053400  1.0  -0.4135
  N  N281  1  0.350000  0.189100  0.544100  1.0  -0.3838
  N  N282  1  0.460400  0.188900  0.456100  1.0  -0.4009
  N  N283  1  0.656800  0.169400  0.406000  1.0  -0.4119
  N  N284  1  0.579900  0.207800  0.282800  1.0  -0.3153
  N  N285  1  0.580700  0.283600  0.206400  1.0  -0.3532
  N  N286  1  0.172800  0.170000  0.594000  1.0  -0.4254
  N  N287  1  0.672200  0.946700  0.352900  1.0  -0.3413
  N  N288  1  0.618800  0.053400  0.352800  1.0  -0.4091
  N  N289  1  0.083200  0.810900  0.455900  1.0  -0.3813
  N  N290  1  0.105400  0.811100  0.543900  1.0  -0.3993
  N  N291  1  0.232200  0.830600  0.594000  1.0  -0.4115
  N  N292  1  0.070500  0.792200  0.717200  1.0  -0.3135
  N  N293  1  0.070700  0.716400  0.793600  1.0  -0.3551
  N  N294  1  0.936800  0.830000  0.406000  1.0  -0.417
  N  N295  1  0.971800  0.053300  0.647100  1.0  -0.3412
  N  N296  1  0.025000  0.946600  0.647200  1.0  -0.4083
  N  N297  1  0.894100  0.455900  0.189100  1.0  -0.3819
  N  N298  1  0.916500  0.543900  0.188900  1.0  -0.4
  N  N299  1  0.062800  0.594000  0.169400  1.0  -0.4127
  N  N300  1  0.862700  0.717200  0.207800  1.0  -0.3102
  N  N301  1  0.787100  0.793600  0.283600  1.0  -0.3577
  N  N302  1  0.766800  0.406000  0.170000  1.0  -0.4242
  N  N303  1  0.025100  0.647100  0.946700  1.0  -0.344
  N  N304  1  0.971600  0.647200  0.053400  1.0  -0.4124
  N  N305  1  0.539100  0.544100  0.810900  1.0  -0.382
  N  N306  1  0.649300  0.456100  0.811100  1.0  -0.3991
  N  N307  1  0.826200  0.406000  0.830600  1.0  -0.4089
  N  N308  1  0.787700  0.282800  0.792200  1.0  -0.3131
  N  N309  1  0.864300  0.206400  0.716400  1.0  -0.3563
  N  N310  1  0.342800  0.594000  0.830000  1.0  -0.4193
  N  N311  1  0.618900  0.352900  0.053300  1.0  -0.3415
  N  N312  1  0.672200  0.352800  0.946600  1.0  -0.4113
