# generated using pymatgen
data_CdH4C6(N3O2)2
_symmetry_space_group_name_H-M   'P 1'
_cell_length_a   26.41350000
_cell_length_b   26.41350000
_cell_length_c   26.41350000
_cell_angle_alpha   109.47100000
_cell_angle_beta   109.47100000
_cell_angle_gamma   109.47100000
_symmetry_Int_Tables_number   1
_chemical_formula_structural   CdH4C6(N3O2)2
_chemical_formula_sum   'Cd24 H96 C144 N144 O96'
_cell_volume   14185.98559095
_cell_formula_units_Z   24
loop_
 _symmetry_equiv_pos_site_id
 _symmetry_equiv_pos_as_xyz
  1  'x, y, z'
loop_
 _atom_site_type_symbol
 _atom_site_label
 _atom_site_symmetry_multiplicity
 _atom_site_fract_x
 _atom_site_fract_y
 _atom_site_fract_z
 _atom_site_occupancy
 _atom_site_charge
  Cd  Cd1  1  0.645180  0.145180  0.290360  1.0  0.9333
  Cd  Cd2  1  0.854820  0.354820  0.709640  1.0  0.9335
  Cd  Cd3  1  0.145180  0.854820  0.500000  1.0  0.9324
  Cd  Cd4  1  0.354820  0.645180  0.500000  1.0  0.9326
  Cd  Cd5  1  0.500000  0.145180  0.854820  1.0  0.9333
  Cd  Cd6  1  0.500000  0.354820  0.645180  1.0  0.9334
  Cd  Cd7  1  0.290360  0.645180  0.145180  1.0  0.9323
  Cd  Cd8  1  0.709640  0.854820  0.354820  1.0  0.9327
  Cd  Cd9  1  0.354820  0.709640  0.854820  1.0  0.9337
  Cd  Cd10  1  0.145180  0.290360  0.645180  1.0  0.9339
  Cd  Cd11  1  0.645180  0.500000  0.354820  1.0  0.9336
  Cd  Cd12  1  0.854820  0.500000  0.145180  1.0  0.9333
  Cd  Cd13  1  0.354820  0.854820  0.709640  1.0  0.9335
  Cd  Cd14  1  0.145180  0.645180  0.290360  1.0  0.9333
  Cd  Cd15  1  0.854820  0.145180  0.500000  1.0  0.9326
  Cd  Cd16  1  0.645180  0.354820  0.500000  1.0  0.9324
  Cd  Cd17  1  0.500000  0.854820  0.145180  1.0  0.9334
  Cd  Cd18  1  0.500000  0.645180  0.354820  1.0  0.9333
  Cd  Cd19  1  0.709640  0.354820  0.854820  1.0  0.9327
  Cd  Cd20  1  0.290360  0.145180  0.645180  1.0  0.9323
  Cd  Cd21  1  0.645180  0.290360  0.145180  1.0  0.9339
  Cd  Cd22  1  0.854820  0.709640  0.354820  1.0  0.9336
  Cd  Cd23  1  0.354820  0.500000  0.645180  1.0  0.9333
  Cd  Cd24  1  0.145180  0.500000  0.854820  1.0  0.9336
  H  H25  1  0.802500  0.243200  0.357100  1.0  0.1483
  H  H26  1  0.742600  0.167800  0.225200  1.0  0.1527
  H  H27  1  0.886100  0.445400  0.642900  1.0  0.1522
  H  H28  1  0.942600  0.517400  0.774800  1.0  0.1546
  H  H29  1  0.113900  0.756800  0.559300  1.0  0.1512
  H  H30  1  0.057400  0.832200  0.574800  1.0  0.1538
  H  H31  1  0.197500  0.554600  0.440700  1.0  0.1495
  H  H32  1  0.257400  0.482600  0.425200  1.0  0.1532
  H  H33  1  0.559300  0.113900  0.756800  1.0  0.1519
  H  H34  1  0.574800  0.057400  0.832200  1.0  0.1539
  H  H35  1  0.440700  0.197500  0.554600  1.0  0.1502
  H  H36  1  0.425200  0.257400  0.482600  1.0  0.1511
  H  H37  1  0.357100  0.802500  0.243200  1.0  0.1484
  H  H38  1  0.225200  0.742600  0.167800  1.0  0.1536
  H  H39  1  0.642900  0.886100  0.445400  1.0  0.1533
  H  H40  1  0.774800  0.942600  0.517400  1.0  0.1548
  H  H41  1  0.445400  0.642900  0.886100  1.0  0.1518
  H  H42  1  0.517400  0.774800  0.942600  1.0  0.1544
  H  H43  1  0.243200  0.357100  0.802500  1.0  0.1485
  H  H44  1  0.167800  0.225200  0.742600  1.0  0.1537
  H  H45  1  0.554600  0.440700  0.197500  1.0  0.1514
  H  H46  1  0.482600  0.425200  0.257400  1.0  0.1513
  H  H47  1  0.756800  0.559300  0.113900  1.0  0.152
  H  H48  1  0.832200  0.574800  0.057400  1.0  0.1553
  H  H49  1  0.756800  0.197500  0.642900  1.0  0.1491
  H  H50  1  0.832200  0.257400  0.774800  1.0  0.1537
  H  H51  1  0.554600  0.113900  0.357100  1.0  0.1531
  H  H52  1  0.482600  0.057400  0.225200  1.0  0.1541
  H  H53  1  0.243200  0.886100  0.440700  1.0  0.151
  H  H54  1  0.167800  0.942600  0.425200  1.0  0.1538
  H  H55  1  0.445400  0.802500  0.559300  1.0  0.1505
  H  H56  1  0.517400  0.742600  0.574800  1.0  0.151
  H  H57  1  0.886100  0.440700  0.243200  1.0  0.1511
  H  H58  1  0.942600  0.425200  0.167800  1.0  0.1536
  H  H59  1  0.802500  0.559300  0.445400  1.0  0.1506
  H  H60  1  0.742600  0.574800  0.517400  1.0  0.1527
  H  H61  1  0.197500  0.642900  0.756800  1.0  0.1496
  H  H62  1  0.257400  0.774800  0.832200  1.0  0.1528
  H  H63  1  0.113900  0.357100  0.554600  1.0  0.1533
  H  H64  1  0.057400  0.225200  0.482600  1.0  0.1547
  H  H65  1  0.357100  0.554600  0.113900  1.0  0.1517
  H  H66  1  0.225200  0.482600  0.057400  1.0  0.1555
  H  H67  1  0.642900  0.756800  0.197500  1.0  0.1486
  H  H68  1  0.774800  0.832200  0.257400  1.0  0.1537
  H  H69  1  0.559300  0.445400  0.802500  1.0  0.1497
  H  H70  1  0.574800  0.517400  0.742600  1.0  0.1511
  H  H71  1  0.440700  0.243200  0.886100  1.0  0.1512
  H  H72  1  0.425200  0.167800  0.942600  1.0  0.1542
  H  H73  1  0.197500  0.756800  0.642900  1.0  0.1494
  H  H74  1  0.257400  0.832200  0.774800  1.0  0.1536
  H  H75  1  0.113900  0.554600  0.357100  1.0  0.1523
  H  H76  1  0.057400  0.482600  0.225200  1.0  0.1548
  H  H77  1  0.886100  0.243200  0.440700  1.0  0.1503
  H  H78  1  0.942600  0.167800  0.425200  1.0  0.1534
  H  H79  1  0.802500  0.445400  0.559300  1.0  0.1487
  H  H80  1  0.742600  0.517400  0.574800  1.0  0.1524
  H  H81  1  0.440700  0.886100  0.243200  1.0  0.1513
  H  H82  1  0.425200  0.942600  0.167800  1.0  0.1535
  H  H83  1  0.559300  0.802500  0.445400  1.0  0.1494
  H  H84  1  0.574800  0.742600  0.517400  1.0  0.1517
  H  H85  1  0.642900  0.197500  0.756800  1.0  0.1491
  H  H86  1  0.774800  0.257400  0.832200  1.0  0.1523
  H  H87  1  0.357100  0.113900  0.554600  1.0  0.1526
  H  H88  1  0.225200  0.057400  0.482600  1.0  0.1547
  H  H89  1  0.554600  0.357100  0.113900  1.0  0.1529
  H  H90  1  0.482600  0.225200  0.057400  1.0  0.1543
  H  H91  1  0.756800  0.642900  0.197500  1.0  0.1492
  H  H92  1  0.832200  0.774800  0.257400  1.0  0.1533
  H  H93  1  0.445400  0.559300  0.802500  1.0  0.1498
  H  H94  1  0.517400  0.574800  0.742600  1.0  0.1513
  H  H95  1  0.243200  0.440700  0.886100  1.0  0.1515
  H  H96  1  0.167800  0.425200  0.942600  1.0  0.1553
  H  H97  1  0.243200  0.802500  0.357100  1.0  0.1476
  H  H98  1  0.167800  0.742600  0.225200  1.0  0.1539
  H  H99  1  0.445400  0.886100  0.642900  1.0  0.1529
  H  H100  1  0.517400  0.942600  0.774800  1.0  0.1546
  H  H101  1  0.756800  0.113900  0.559300  1.0  0.1519
  H  H102  1  0.832200  0.057400  0.574800  1.0  0.1546
  H  H103  1  0.554600  0.197500  0.440700  1.0  0.1502
  H  H104  1  0.482600  0.257400  0.425200  1.0  0.1518
  H  H105  1  0.113900  0.559300  0.756800  1.0  0.1523
  H  H106  1  0.057400  0.574800  0.832200  1.0  0.154
  H  H107  1  0.197500  0.440700  0.554600  1.0  0.1505
  H  H108  1  0.257400  0.425200  0.482600  1.0  0.1529
  H  H109  1  0.802500  0.357100  0.243200  1.0  0.1483
  H  H110  1  0.742600  0.225200  0.167800  1.0  0.1537
  H  H111  1  0.886100  0.642900  0.445400  1.0  0.152
  H  H112  1  0.942600  0.774800  0.517400  1.0  0.1548
  H  H113  1  0.642900  0.445400  0.886100  1.0  0.1515
  H  H114  1  0.774800  0.517400  0.942600  1.0  0.1547
  H  H115  1  0.357100  0.243200  0.802500  1.0  0.1483
  H  H116  1  0.225200  0.167800  0.742600  1.0  0.1535
  H  H117  1  0.440700  0.554600  0.197500  1.0  0.1493
  H  H118  1  0.425200  0.482600  0.257400  1.0  0.1522
  H  H119  1  0.559300  0.756800  0.113900  1.0  0.1503
  H  H120  1  0.574800  0.832200  0.057400  1.0  0.1541
  C  C121  1  0.795700  0.216700  0.373200  1.0  0.0484
  C  C122  1  0.715300  0.182200  0.214500  1.0  0.0296
  C  C123  1  0.843500  0.422500  0.626800  1.0  0.0557
  C  C124  1  0.967700  0.500800  0.785500  1.0  0.0277
  C  C125  1  0.156500  0.783300  0.579000  1.0  0.0526
  C  C126  1  0.032300  0.817800  0.533100  1.0  0.0252
  C  C127  1  0.204300  0.577500  0.421000  1.0  0.0507
  C  C128  1  0.284700  0.499200  0.466900  1.0  0.0297
  C  C129  1  0.579000  0.156500  0.783300  1.0  0.0504
  C  C130  1  0.533100  0.032300  0.817800  1.0  0.024
  C  C131  1  0.421000  0.204300  0.577500  1.0  0.0524
  C  C132  1  0.466900  0.284700  0.499200  1.0  0.0308
  C  C133  1  0.373200  0.795700  0.216700  1.0  0.0505
  C  C134  1  0.214500  0.715300  0.182200  1.0  0.0293
  C  C135  1  0.626800  0.843500  0.422500  1.0  0.0565
  C  C136  1  0.785500  0.967700  0.500800  1.0  0.0287
  C  C137  1  0.422500  0.626800  0.843500  1.0  0.0561
  C  C138  1  0.500800  0.785500  0.967700  1.0  0.0281
  C  C139  1  0.216700  0.373200  0.795700  1.0  0.0518
  C  C140  1  0.182200  0.214500  0.715300  1.0  0.0277
  C  C141  1  0.577500  0.421000  0.204300  1.0  0.0514
  C  C142  1  0.499200  0.466900  0.284700  1.0  0.0282
  C  C143  1  0.783300  0.579000  0.156500  1.0  0.0521
  C  C144  1  0.817800  0.533100  0.032300  1.0  0.0262
  C  C145  1  0.783300  0.204300  0.626800  1.0  0.0516
  C  C146  1  0.817800  0.284700  0.785500  1.0  0.0274
  C  C147  1  0.577500  0.156500  0.373200  1.0  0.0546
  C  C148  1  0.499200  0.032300  0.214500  1.0  0.0261
  C  C149  1  0.216700  0.843500  0.421000  1.0  0.0536
  C  C150  1  0.182200  0.967700  0.466900  1.0  0.0261
  C  C151  1  0.422500  0.795700  0.579000  1.0  0.0515
  C  C152  1  0.500800  0.715300  0.533100  1.0  0.0302
  C  C153  1  0.843500  0.421000  0.216700  1.0  0.0546
  C  C154  1  0.967700  0.466900  0.182200  1.0  0.0255
  C  C155  1  0.795700  0.579000  0.422500  1.0  0.052
  C  C156  1  0.715300  0.533100  0.500800  1.0  0.0297
  C  C157  1  0.204300  0.626800  0.783300  1.0  0.0509
  C  C158  1  0.284700  0.785500  0.817800  1.0  0.0299
  C  C159  1  0.156500  0.373200  0.577500  1.0  0.055
  C  C160  1  0.032300  0.214500  0.499200  1.0  0.0262
  C  C161  1  0.373200  0.577500  0.156500  1.0  0.0543
  C  C162  1  0.214500  0.499200  0.032300  1.0  0.0272
  C  C163  1  0.626800  0.783300  0.204300  1.0  0.0509
  C  C164  1  0.785500  0.817800  0.284700  1.0  0.0265
  C  C165  1  0.579000  0.422500  0.795700  1.0  0.051
  C  C166  1  0.533100  0.500800  0.715300  1.0  0.0293
  C  C167  1  0.421000  0.216700  0.843500  1.0  0.05
  C  C168  1  0.466900  0.182200  0.967700  1.0  0.03
  C  C169  1  0.204300  0.783300  0.626800  1.0  0.0472
  C  C170  1  0.284700  0.817800  0.785500  1.0  0.0313
  C  C171  1  0.156500  0.577500  0.373200  1.0  0.0549
  C  C172  1  0.032300  0.499200  0.214500  1.0  0.0273
  C  C173  1  0.843500  0.216700  0.421000  1.0  0.054
  C  C174  1  0.967700  0.182200  0.466900  1.0  0.0239
  C  C175  1  0.795700  0.422500  0.579000  1.0  0.0504
  C  C176  1  0.715300  0.500800  0.533100  1.0  0.0299
  C  C177  1  0.421000  0.843500  0.216700  1.0  0.0523
  C  C178  1  0.466900  0.967700  0.182200  1.0  0.0257
  C  C179  1  0.579000  0.795700  0.422500  1.0  0.0524
  C  C180  1  0.533100  0.715300  0.500800  1.0  0.0297
  C  C181  1  0.626800  0.204300  0.783300  1.0  0.05
  C  C182  1  0.785500  0.284700  0.817800  1.0  0.0278
  C  C183  1  0.373200  0.156500  0.577500  1.0  0.0559
  C  C184  1  0.214500  0.032300  0.499200  1.0  0.0276
  C  C185  1  0.577500  0.373200  0.156500  1.0  0.0562
  C  C186  1  0.499200  0.214500  0.032300  1.0  0.0299
  C  C187  1  0.783300  0.626800  0.204300  1.0  0.0493
  C  C188  1  0.817800  0.785500  0.284700  1.0  0.0257
  C  C189  1  0.422500  0.579000  0.795700  1.0  0.0544
  C  C190  1  0.500800  0.533100  0.715300  1.0  0.0286
  C  C191  1  0.216700  0.421000  0.843500  1.0  0.0526
  C  C192  1  0.182200  0.466900  0.967700  1.0  0.0256
  C  C193  1  0.216700  0.795700  0.373200  1.0  0.0496
  C  C194  1  0.182200  0.715300  0.214500  1.0  0.0281
  C  C195  1  0.422500  0.843500  0.626800  1.0  0.055
  C  C196  1  0.500800  0.967700  0.785500  1.0  0.026
  C  C197  1  0.783300  0.156500  0.579000  1.0  0.0525
  C  C198  1  0.817800  0.032300  0.533100  1.0  0.0258
  C  C199  1  0.577500  0.204300  0.421000  1.0  0.0529
  C  C200  1  0.499200  0.284700  0.466900  1.0  0.031
  C  C201  1  0.156500  0.579000  0.783300  1.0  0.0519
  C  C202  1  0.032300  0.533100  0.817800  1.0  0.0252
  C  C203  1  0.204300  0.421000  0.577500  1.0  0.0522
  C  C204  1  0.284700  0.466900  0.499200  1.0  0.0302
  C  C205  1  0.795700  0.373200  0.216700  1.0  0.0505
  C  C206  1  0.715300  0.214500  0.182200  1.0  0.0273
  C  C207  1  0.843500  0.626800  0.422500  1.0  0.0572
  C  C208  1  0.967700  0.785500  0.500800  1.0  0.0281
  C  C209  1  0.626800  0.422500  0.843500  1.0  0.0535
  C  C210  1  0.785500  0.500800  0.967700  1.0  0.0257
  C  C211  1  0.373200  0.216700  0.795700  1.0  0.0504
  C  C212  1  0.214500  0.182200  0.715300  1.0  0.0286
  C  C213  1  0.421000  0.577500  0.204300  1.0  0.0513
  C  C214  1  0.466900  0.499200  0.284700  1.0  0.0307
  C  C215  1  0.579000  0.783300  0.156500  1.0  0.0506
  C  C216  1  0.533100  0.817800  0.032300  1.0  0.0276
  C  C217  1  0.754700  0.147600  0.392900  1.0  0.1436
  C  C218  1  0.754700  0.361800  0.607100  1.0  0.1429
  C  C219  1  0.245300  0.852400  0.607100  1.0  0.144
  C  C220  1  0.245300  0.638200  0.392900  1.0  0.1447
  C  C221  1  0.607100  0.245300  0.852400  1.0  0.1434
  C  C222  1  0.392900  0.245300  0.638200  1.0  0.1443
  C  C223  1  0.392900  0.754700  0.147600  1.0  0.1431
  C  C224  1  0.607100  0.754700  0.361800  1.0  0.1438
  C  C225  1  0.361800  0.607100  0.754700  1.0  0.144
  C  C226  1  0.147600  0.392900  0.754700  1.0  0.1443
  C  C227  1  0.638200  0.392900  0.245300  1.0  0.1437
  C  C228  1  0.852400  0.607100  0.245300  1.0  0.1442
  C  C229  1  0.852400  0.245300  0.607100  1.0  0.1446
  C  C230  1  0.638200  0.245300  0.392900  1.0  0.1439
  C  C231  1  0.147600  0.754700  0.392900  1.0  0.1435
  C  C232  1  0.361800  0.754700  0.607100  1.0  0.1426
  C  C233  1  0.754700  0.392900  0.147600  1.0  0.144
  C  C234  1  0.754700  0.607100  0.361800  1.0  0.1443
  C  C235  1  0.245300  0.607100  0.852400  1.0  0.1437
  C  C236  1  0.245300  0.392900  0.638200  1.0  0.1442
  C  C237  1  0.392900  0.638200  0.245300  1.0  0.1436
  C  C238  1  0.607100  0.852400  0.245300  1.0  0.1441
  C  C239  1  0.607100  0.361800  0.754700  1.0  0.1439
  C  C240  1  0.392900  0.147600  0.754700  1.0  0.1434
  C  C241  1  0.642600  0.203800  0.203800  1.0  0.1803
  C  C242  1  0.000000  0.438800  0.796200  1.0  0.1892
  C  C243  1  0.000000  0.796200  0.438800  1.0  0.1889
  C  C244  1  0.357400  0.561200  0.561200  1.0  0.1883
  C  C245  1  0.438800  0.000000  0.796200  1.0  0.1901
  C  C246  1  0.561200  0.357400  0.561200  1.0  0.188
  C  C247  1  0.203800  0.642600  0.203800  1.0  0.1803
  C  C248  1  0.796200  0.000000  0.438800  1.0  0.1883
  C  C249  1  0.438800  0.796200  0.000000  1.0  0.1887
  C  C250  1  0.203800  0.203800  0.642600  1.0  0.1803
  C  C251  1  0.561200  0.561200  0.357400  1.0  0.1892
  C  C252  1  0.796200  0.438800  0.000000  1.0  0.1876
  C  C253  1  0.796200  0.357400  0.796200  1.0  0.1806
  C  C254  1  0.561200  0.000000  0.203800  1.0  0.1914
  C  C255  1  0.203800  0.000000  0.561200  1.0  0.1887
  C  C256  1  0.438800  0.642600  0.438800  1.0  0.1871
  C  C257  1  0.000000  0.561200  0.203800  1.0  0.191
  C  C258  1  0.642600  0.438800  0.438800  1.0  0.1887
  C  C259  1  0.357400  0.796200  0.796200  1.0  0.1822
  C  C260  1  0.000000  0.203800  0.561200  1.0  0.1864
  C  C261  1  0.203800  0.561200  0.000000  1.0  0.1897
  C  C262  1  0.796200  0.796200  0.357400  1.0  0.1788
  C  C263  1  0.438800  0.438800  0.642600  1.0  0.1889
  C  C264  1  0.561200  0.203800  0.000000  1.0  0.1886
  N  N265  1  0.742900  0.174200  0.357300  1.0  -0.2735
  N  N266  1  0.669300  0.175400  0.227700  1.0  -0.3767
  N  N267  1  0.816900  0.385600  0.642700  1.0  -0.2731
  N  N268  1  0.947700  0.441600  0.772300  1.0  -0.3745
  N  N269  1  0.183100  0.825800  0.568700  1.0  -0.2757
  N  N270  1  0.052300  0.824600  0.493900  1.0  -0.3726
  N  N271  1  0.257100  0.614400  0.431300  1.0  -0.2746
  N  N272  1  0.330700  0.558400  0.506100  1.0  -0.3731
  N  N273  1  0.568700  0.183100  0.825800  1.0  -0.2715
  N  N274  1  0.493900  0.052300  0.824600  1.0  -0.3781
  N  N275  1  0.431300  0.257100  0.614400  1.0  -0.2824
  N  N276  1  0.506100  0.330700  0.558400  1.0  -0.376
  N  N277  1  0.357300  0.742900  0.174200  1.0  -0.281
  N  N278  1  0.227700  0.669300  0.175400  1.0  -0.3733
  N  N279  1  0.642700  0.816900  0.385600  1.0  -0.2763
  N  N280  1  0.772300  0.947700  0.441600  1.0  -0.3779
  N  N281  1  0.385600  0.642700  0.816900  1.0  -0.274
  N  N282  1  0.441600  0.772300  0.947700  1.0  -0.3717
  N  N283  1  0.174200  0.357300  0.742900  1.0  -0.2772
  N  N284  1  0.175400  0.227700  0.669300  1.0  -0.3749
  N  N285  1  0.614400  0.431300  0.257100  1.0  -0.2748
  N  N286  1  0.558400  0.506100  0.330700  1.0  -0.3723
  N  N287  1  0.825800  0.568700  0.183100  1.0  -0.2732
  N  N288  1  0.824600  0.493900  0.052300  1.0  -0.3741
  N  N289  1  0.825800  0.257100  0.642700  1.0  -0.2815
  N  N290  1  0.824600  0.330700  0.772300  1.0  -0.3729
  N  N291  1  0.614400  0.183100  0.357300  1.0  -0.274
  N  N292  1  0.558400  0.052300  0.227700  1.0  -0.3787
  N  N293  1  0.174200  0.816900  0.431300  1.0  -0.2745
  N  N294  1  0.175400  0.947700  0.506100  1.0  -0.3782
  N  N295  1  0.385600  0.742900  0.568700  1.0  -0.281
  N  N296  1  0.441600  0.669300  0.493900  1.0  -0.3727
  N  N297  1  0.816900  0.431300  0.174200  1.0  -0.2755
  N  N298  1  0.947700  0.506100  0.175400  1.0  -0.3714
  N  N299  1  0.742900  0.568700  0.385600  1.0  -0.2716
  N  N300  1  0.669300  0.493900  0.441600  1.0  -0.3744
  N  N301  1  0.257100  0.642700  0.825800  1.0  -0.2744
  N  N302  1  0.330700  0.772300  0.824600  1.0  -0.3738
  N  N303  1  0.183100  0.357300  0.614400  1.0  -0.2742
  N  N304  1  0.052300  0.227700  0.558400  1.0  -0.3732
  N  N305  1  0.357300  0.614400  0.183100  1.0  -0.2741
  N  N306  1  0.227700  0.558400  0.052300  1.0  -0.3736
  N  N307  1  0.642700  0.825800  0.257100  1.0  -0.2733
  N  N308  1  0.772300  0.824600  0.330700  1.0  -0.3715
  N  N309  1  0.568700  0.385600  0.742900  1.0  -0.2751
  N  N310  1  0.493900  0.441600  0.669300  1.0  -0.3738
  N  N311  1  0.431300  0.174200  0.816900  1.0  -0.274
  N  N312  1  0.506100  0.175400  0.947700  1.0  -0.3754
  N  N313  1  0.257100  0.825800  0.642700  1.0  -0.2745
  N  N314  1  0.330700  0.824600  0.772300  1.0  -0.3795
  N  N315  1  0.183100  0.614400  0.357300  1.0  -0.2767
  N  N316  1  0.052300  0.558400  0.227700  1.0  -0.3773
  N  N317  1  0.816900  0.174200  0.431300  1.0  -0.2762
  N  N318  1  0.947700  0.175400  0.506100  1.0  -0.3753
  N  N319  1  0.742900  0.385600  0.568700  1.0  -0.2762
  N  N320  1  0.669300  0.441600  0.493900  1.0  -0.3767
  N  N321  1  0.431300  0.816900  0.174200  1.0  -0.2762
  N  N322  1  0.506100  0.947700  0.175400  1.0  -0.3819
  N  N323  1  0.568700  0.742900  0.385600  1.0  -0.2824
  N  N324  1  0.493900  0.669300  0.441600  1.0  -0.3757
  N  N325  1  0.642700  0.257100  0.825800  1.0  -0.2839
  N  N326  1  0.772300  0.330700  0.824600  1.0  -0.3766
  N  N327  1  0.357300  0.183100  0.614400  1.0  -0.275
  N  N328  1  0.227700  0.052300  0.558400  1.0  -0.3827
  N  N329  1  0.614400  0.357300  0.183100  1.0  -0.2755
  N  N330  1  0.558400  0.227700  0.052300  1.0  -0.3775
  N  N331  1  0.825800  0.642700  0.257100  1.0  -0.278
  N  N332  1  0.824600  0.772300  0.330700  1.0  -0.3768
  N  N333  1  0.385600  0.568700  0.742900  1.0  -0.2775
  N  N334  1  0.441600  0.493900  0.669300  1.0  -0.3743
  N  N335  1  0.174200  0.431300  0.816900  1.0  -0.2748
  N  N336  1  0.175400  0.506100  0.947700  1.0  -0.3781
  N  N337  1  0.174200  0.742900  0.357300  1.0  -0.2835
  N  N338  1  0.175400  0.669300  0.227700  1.0  -0.379
  N  N339  1  0.385600  0.816900  0.642700  1.0  -0.2751
  N  N340  1  0.441600  0.947700  0.772300  1.0  -0.381
  N  N341  1  0.825800  0.183100  0.568700  1.0  -0.2783
  N  N342  1  0.824600  0.052300  0.493900  1.0  -0.3809
  N  N343  1  0.614400  0.257100  0.431300  1.0  -0.2839
  N  N344  1  0.558400  0.330700  0.506100  1.0  -0.3768
  N  N345  1  0.183100  0.568700  0.825800  1.0  -0.2754
  N  N346  1  0.052300  0.493900  0.824600  1.0  -0.3761
  N  N347  1  0.257100  0.431300  0.614400  1.0  -0.2762
  N  N348  1  0.330700  0.506100  0.558400  1.0  -0.3767
  N  N349  1  0.742900  0.357300  0.174200  1.0  -0.2741
  N  N350  1  0.669300  0.227700  0.175400  1.0  -0.3763
  N  N351  1  0.816900  0.642700  0.385600  1.0  -0.2792
  N  N352  1  0.947700  0.772300  0.441600  1.0  -0.3785
  N  N353  1  0.642700  0.385600  0.816900  1.0  -0.2774
  N  N354  1  0.772300  0.441600  0.947700  1.0  -0.3761
  N  N355  1  0.357300  0.174200  0.742900  1.0  -0.2793
  N  N356  1  0.227700  0.175400  0.669300  1.0  -0.3761
  N  N357  1  0.431300  0.614400  0.257100  1.0  -0.2743
  N  N358  1  0.506100  0.558400  0.330700  1.0  -0.3779
  N  N359  1  0.568700  0.825800  0.183100  1.0  -0.2748
  N  N360  1  0.493900  0.824600  0.052300  1.0  -0.379
  N  N361  1  0.709100  0.099800  0.390700  1.0  0.6448
  N  N362  1  0.709100  0.318400  0.609300  1.0  0.6444
  N  N363  1  0.290900  0.900200  0.609300  1.0  0.6467
  N  N364  1  0.290900  0.681600  0.390700  1.0  0.6455
  N  N365  1  0.609300  0.290900  0.900200  1.0  0.646
  N  N366  1  0.390700  0.290900  0.681600  1.0  0.6455
  N  N367  1  0.390700  0.709100  0.099800  1.0  0.6449
  N  N368  1  0.609300  0.709100  0.318400  1.0  0.6442
  N  N369  1  0.318400  0.609300  0.709100  1.0  0.6468
  N  N370  1  0.099800  0.390700  0.709100  1.0  0.6469
  N  N371  1  0.681600  0.390700  0.290900  1.0  0.6449
  N  N372  1  0.900200  0.609300  0.290900  1.0  0.6463
  N  N373  1  0.900200  0.290900  0.609300  1.0  0.6462
  N  N374  1  0.681600  0.290900  0.390700  1.0  0.6464
  N  N375  1  0.099800  0.709100  0.390700  1.0  0.6446
  N  N376  1  0.318400  0.709100  0.609300  1.0  0.6457
  N  N377  1  0.709100  0.390700  0.099800  1.0  0.6464
  N  N378  1  0.709100  0.609300  0.318400  1.0  0.6477
  N  N379  1  0.290900  0.609300  0.900200  1.0  0.6458
  N  N380  1  0.290900  0.390700  0.681600  1.0  0.6458
  N  N381  1  0.390700  0.681600  0.290900  1.0  0.6444
  N  N382  1  0.609300  0.900200  0.290900  1.0  0.6453
  N  N383  1  0.609300  0.318400  0.709100  1.0  0.6437
  N  N384  1  0.390700  0.099800  0.709100  1.0  0.645
  N  N385  1  0.591600  0.206300  0.206300  1.0  0.7029
  N  N386  1  0.000000  0.385300  0.793700  1.0  0.6847
  N  N387  1  0.000000  0.793700  0.385300  1.0  0.6901
  N  N388  1  0.408400  0.614700  0.614700  1.0  0.7031
  N  N389  1  0.385300  0.000000  0.793700  1.0  0.6895
  N  N390  1  0.614700  0.408400  0.614700  1.0  0.7022
  N  N391  1  0.206300  0.591600  0.206300  1.0  0.6989
  N  N392  1  0.793700  0.000000  0.385300  1.0  0.6919
  N  N393  1  0.385300  0.793700  0.000000  1.0  0.6888
  N  N394  1  0.206300  0.206300  0.591600  1.0  0.7044
  N  N395  1  0.614700  0.614700  0.408400  1.0  0.7003
  N  N396  1  0.793700  0.385300  0.000000  1.0  0.6869
  N  N397  1  0.793700  0.408400  0.793700  1.0  0.7029
  N  N398  1  0.614700  0.000000  0.206300  1.0  0.6893
  N  N399  1  0.206300  0.000000  0.614700  1.0  0.6926
  N  N400  1  0.385300  0.591600  0.385300  1.0  0.6992
  N  N401  1  0.000000  0.614700  0.206300  1.0  0.6854
  N  N402  1  0.591600  0.385300  0.385300  1.0  0.7
  N  N403  1  0.408400  0.793700  0.793700  1.0  0.7036
  N  N404  1  0.000000  0.206300  0.614700  1.0  0.6897
  N  N405  1  0.206300  0.614700  0.000000  1.0  0.6885
  N  N406  1  0.793700  0.793700  0.408400  1.0  0.7034
  N  N407  1  0.385300  0.385300  0.591600  1.0  0.698
  N  N408  1  0.614700  0.206300  0.000000  1.0  0.6896
  O  O409  1  0.725600  0.080300  0.424900  1.0  -0.5061
  O  O410  1  0.569800  0.231900  0.181900  1.0  -0.5314
  O  O411  1  0.655400  0.300700  0.575100  1.0  -0.5101
  O  O412  1  0.050000  0.387900  0.818100  1.0  -0.5324
  O  O413  1  0.344600  0.919700  0.645300  1.0  -0.4899
  O  O414  1  0.950000  0.768100  0.337900  1.0  -0.5171
  O  O415  1  0.274400  0.699300  0.354700  1.0  -0.5166
  O  O416  1  0.430200  0.612100  0.662100  1.0  -0.527
  O  O417  1  0.645300  0.344600  0.919700  1.0  -0.4892
  O  O418  1  0.337900  0.950000  0.768100  1.0  -0.517
  O  O419  1  0.354700  0.274400  0.699300  1.0  -0.5151
  O  O420  1  0.662100  0.430200  0.612100  1.0  -0.5247
  O  O421  1  0.424900  0.725600  0.080300  1.0  -0.5054
  O  O422  1  0.181900  0.569800  0.231900  1.0  -0.5357
  O  O423  1  0.575100  0.655400  0.300700  1.0  -0.5113
  O  O424  1  0.818100  0.050000  0.387900  1.0  -0.5356
  O  O425  1  0.300700  0.575100  0.655400  1.0  -0.5142
  O  O426  1  0.387900  0.818100  0.050000  1.0  -0.5348
  O  O427  1  0.080300  0.424900  0.725600  1.0  -0.5052
  O  O428  1  0.231900  0.181900  0.569800  1.0  -0.5383
  O  O429  1  0.699300  0.354700  0.274400  1.0  -0.5155
  O  O430  1  0.612100  0.662100  0.430200  1.0  -0.5231
  O  O431  1  0.919700  0.645300  0.344600  1.0  -0.4897
  O  O432  1  0.768100  0.337900  0.950000  1.0  -0.5178
  O  O433  1  0.919700  0.274400  0.575100  1.0  -0.505
  O  O434  1  0.768100  0.430200  0.818100  1.0  -0.5349
  O  O435  1  0.699300  0.344600  0.424900  1.0  -0.5099
  O  O436  1  0.612100  0.950000  0.181900  1.0  -0.5366
  O  O437  1  0.080300  0.655400  0.354700  1.0  -0.4883
  O  O438  1  0.231900  0.050000  0.662100  1.0  -0.522
  O  O439  1  0.300700  0.725600  0.645300  1.0  -0.5163
  O  O440  1  0.387900  0.569800  0.337900  1.0  -0.5266
  O  O441  1  0.655400  0.354700  0.080300  1.0  -0.4884
  O  O442  1  0.050000  0.662100  0.231900  1.0  -0.5171
  O  O443  1  0.725600  0.645300  0.300700  1.0  -0.5177
  O  O444  1  0.569800  0.337900  0.387900  1.0  -0.5242
  O  O445  1  0.274400  0.575100  0.919700  1.0  -0.5061
  O  O446  1  0.430200  0.818100  0.768100  1.0  -0.5364
  O  O447  1  0.344600  0.424900  0.699300  1.0  -0.5124
  O  O448  1  0.950000  0.181900  0.612100  1.0  -0.5352
  O  O449  1  0.424900  0.699300  0.344600  1.0  -0.513
  O  O450  1  0.181900  0.612100  0.950000  1.0  -0.5349
  O  O451  1  0.575100  0.919700  0.274400  1.0  -0.5066
  O  O452  1  0.818100  0.768100  0.430200  1.0  -0.5346
  O  O453  1  0.645300  0.300700  0.725600  1.0  -0.5142
  O  O454  1  0.337900  0.387900  0.569800  1.0  -0.5262
  O  O455  1  0.354700  0.080300  0.655400  1.0  -0.4922
  O  O456  1  0.662100  0.231900  0.050000  1.0  -0.5155
  O  O457  1  0.274400  0.919700  0.575100  1.0  -0.5074
  O  O458  1  0.430200  0.768100  0.818100  1.0  -0.5328
  O  O459  1  0.344600  0.699300  0.424900  1.0  -0.5089
  O  O460  1  0.950000  0.612100  0.181900  1.0  -0.5341
  O  O461  1  0.655400  0.080300  0.354700  1.0  -0.4902
  O  O462  1  0.050000  0.231900  0.662100  1.0  -0.517
  O  O463  1  0.725600  0.300700  0.645300  1.0  -0.5164
  O  O464  1  0.569800  0.387900  0.337900  1.0  -0.5266
  O  O465  1  0.354700  0.655400  0.080300  1.0  -0.4897
  O  O466  1  0.662100  0.050000  0.231900  1.0  -0.5197
  O  O467  1  0.645300  0.725600  0.300700  1.0  -0.5155
  O  O468  1  0.337900  0.569800  0.387900  1.0  -0.5264
  O  O469  1  0.575100  0.274400  0.919700  1.0  -0.5045
  O  O470  1  0.818100  0.430200  0.768100  1.0  -0.5371
  O  O471  1  0.424900  0.344600  0.699300  1.0  -0.5106
  O  O472  1  0.181900  0.950000  0.612100  1.0  -0.5378
  O  O473  1  0.699300  0.424900  0.344600  1.0  -0.5142
  O  O474  1  0.612100  0.181900  0.950000  1.0  -0.5349
  O  O475  1  0.919700  0.575100  0.274400  1.0  -0.505
  O  O476  1  0.768100  0.818100  0.430200  1.0  -0.5366
  O  O477  1  0.300700  0.645300  0.725600  1.0  -0.5165
  O  O478  1  0.387900  0.337900  0.569800  1.0  -0.525
  O  O479  1  0.080300  0.354700  0.655400  1.0  -0.4901
  O  O480  1  0.231900  0.662100  0.050000  1.0  -0.5179
  O  O481  1  0.080300  0.725600  0.424900  1.0  -0.5042
  O  O482  1  0.231900  0.569800  0.181900  1.0  -0.5353
  O  O483  1  0.300700  0.655400  0.575100  1.0  -0.5098
  O  O484  1  0.387900  0.050000  0.818100  1.0  -0.5342
  O  O485  1  0.919700  0.344600  0.645300  1.0  -0.489
  O  O486  1  0.768100  0.950000  0.337900  1.0  -0.5207
  O  O487  1  0.699300  0.274400  0.354700  1.0  -0.5151
  O  O488  1  0.612100  0.430200  0.662100  1.0  -0.5249
  O  O489  1  0.344600  0.645300  0.919700  1.0  -0.489
  O  O490  1  0.950000  0.337900  0.768100  1.0  -0.5134
  O  O491  1  0.274400  0.354700  0.699300  1.0  -0.5178
  O  O492  1  0.430200  0.662100  0.612100  1.0  -0.5249
  O  O493  1  0.725600  0.424900  0.080300  1.0  -0.5065
  O  O494  1  0.569800  0.181900  0.231900  1.0  -0.536
  O  O495  1  0.655400  0.575100  0.300700  1.0  -0.5121
  O  O496  1  0.050000  0.818100  0.387900  1.0  -0.5364
  O  O497  1  0.575100  0.300700  0.655400  1.0  -0.5135
  O  O498  1  0.818100  0.387900  0.050000  1.0  -0.5352
  O  O499  1  0.424900  0.080300  0.725600  1.0  -0.506
  O  O500  1  0.181900  0.231900  0.569800  1.0  -0.5358
  O  O501  1  0.354700  0.699300  0.274400  1.0  -0.5172
  O  O502  1  0.662100  0.612100  0.430200  1.0  -0.5239
  O  O503  1  0.645300  0.919700  0.344600  1.0  -0.4915
  O  O504  1  0.337900  0.768100  0.950000  1.0  -0.5151
