# generated using pymatgen
data_MnH6C12(NO2)2
_symmetry_space_group_name_H-M   'P 1'
_cell_length_a   9.24940000
_cell_length_b   9.42120000
_cell_length_c   9.42120000
_cell_angle_alpha   101.27400000
_cell_angle_beta   112.87000000
_cell_angle_gamma   112.87000000
_symmetry_Int_Tables_number   1
_chemical_formula_structural   MnH6C12(NO2)2
_chemical_formula_sum   'Mn2 H12 C24 N4 O8'
_cell_volume   636.25618127
_cell_formula_units_Z   2
loop_
 _symmetry_equiv_pos_site_id
 _symmetry_equiv_pos_as_xyz
  1  'x, y, z'
loop_
 _atom_site_type_symbol
 _atom_site_label
 _atom_site_symmetry_multiplicity
 _atom_site_fract_x
 _atom_site_fract_y
 _atom_site_fract_z
 _atom_site_occupancy
 _atom_site_charge
  Mn  Mn1  1  0.750000  0.034800  0.965200  1.0  1.0655
  Mn  Mn2  1  0.250000  0.965200  0.034800  1.0  1.0612
  H  H3  1  0.677600  0.264000  0.509200  1.0  0.1284
  H  H4  1  0.748900  0.868800  0.390600  1.0  0.1336
  H  H5  1  0.785900  0.856700  0.646500  1.0  0.0881
  H  H6  1  0.822400  0.490800  0.736000  1.0  0.1275
  H  H7  1  0.751100  0.609400  0.131200  1.0  0.1358
  H  H8  1  0.714100  0.353500  0.143300  1.0  0.0884
  H  H9  1  0.322400  0.736000  0.490800  1.0  0.1279
  H  H10  1  0.251100  0.131200  0.609400  1.0  0.1342
  H  H11  1  0.214100  0.143300  0.353500  1.0  0.0885
  H  H12  1  0.177600  0.509200  0.264000  1.0  0.1269
  H  H13  1  0.248900  0.390600  0.868800  1.0  0.1348
  H  H14  1  0.285900  0.646500  0.856700  1.0  0.0887
  C  C15  1  0.743200  0.177180  0.692620  1.0  0.1836
  C  C16  1  0.704300  0.182040  0.536760  1.0  -0.1712
  C  C17  1  0.704800  0.065860  0.420940  1.0  -0.0059
  C  C18  1  0.741600  0.946340  0.464660  1.0  -0.1636
  C  C19  1  0.767600  0.942540  0.619260  1.0  0.1691
  C  C20  1  0.669500  0.078150  0.255050  1.0  0.6664
  C  C21  1  0.756800  0.307380  0.822820  1.0  0.1827
  C  C22  1  0.795700  0.463240  0.817960  1.0  -0.1678
  C  C23  1  0.795200  0.579060  0.934140  1.0  -0.0079
  C  C24  1  0.758400  0.535340  0.053660  1.0  -0.1642
  C  C25  1  0.732400  0.380740  0.057460  1.0  0.1692
  C  C26  1  0.830500  0.744950  0.921850  1.0  0.6644
  C  C27  1  0.256800  0.822820  0.307380  1.0  0.1846
  C  C28  1  0.295700  0.817960  0.463240  1.0  -0.1691
  C  C29  1  0.295200  0.934140  0.579060  1.0  -0.0046
  C  C30  1  0.258400  0.053660  0.535340  1.0  -0.1634
  C  C31  1  0.232400  0.057460  0.380740  1.0  0.1685
  C  C32  1  0.330500  0.921850  0.744950  1.0  0.6654
  C  C33  1  0.243200  0.692620  0.177180  1.0  0.1822
  C  C34  1  0.204300  0.536760  0.182040  1.0  -0.168
  C  C35  1  0.204800  0.420940  0.065860  1.0  -0.0067
  C  C36  1  0.241600  0.464660  0.946340  1.0  -0.1655
  C  C37  1  0.267600  0.619260  0.942540  1.0  0.1694
  C  C38  1  0.169500  0.255050  0.078150  1.0  0.6659
  N  N39  1  0.767800  0.055630  0.732230  1.0  -0.3755
  N  N40  1  0.732200  0.267770  0.944370  1.0  -0.3772
  N  N41  1  0.232200  0.944370  0.267770  1.0  -0.3763
  N  N42  1  0.267800  0.732230  0.055630  1.0  -0.3763
  O  O43  1  0.774400  0.065580  0.205920  1.0  -0.5799
  O  O44  1  0.545900  0.108120  0.183100  1.0  -0.6043
  O  O45  1  0.725600  0.794080  0.934420  1.0  -0.5798
  O  O46  1  0.954100  0.816900  0.891880  1.0  -0.6057
  O  O47  1  0.225600  0.934420  0.794080  1.0  -0.5798
  O  O48  1  0.454100  0.891880  0.816900  1.0  -0.6045
  O  O49  1  0.274400  0.205920  0.065580  1.0  -0.5789
  O  O50  1  0.045900  0.183100  0.108120  1.0  -0.6047
