# generated using pymatgen
data_MnH6C12(NO2)2
_symmetry_space_group_name_H-M   'P 1'
_cell_length_a   9.24700000
_cell_length_b   9.44640000
_cell_length_c   9.44640000
_cell_angle_alpha   101.45700000
_cell_angle_beta   112.61000000
_cell_angle_gamma   112.61000000
_symmetry_Int_Tables_number   1
_chemical_formula_structural   MnH6C12(NO2)2
_chemical_formula_sum   'Mn2 H12 C24 N4 O8'
_cell_volume   642.46017454
_cell_formula_units_Z   2
loop_
 _symmetry_equiv_pos_site_id
 _symmetry_equiv_pos_as_xyz
  1  'x, y, z'
loop_
 _atom_site_type_symbol
 _atom_site_label
 _atom_site_symmetry_multiplicity
 _atom_site_fract_x
 _atom_site_fract_y
 _atom_site_fract_z
 _atom_site_occupancy
 _atom_site_charge
  Mn  Mn1  1  0.750000  0.034610  0.965390  1.0  1.0237
  Mn  Mn2  1  0.250000  0.965390  0.034610  1.0  1.0121
  H  H3  1  0.676900  0.263500  0.509100  1.0  0.1314
  H  H4  1  0.786300  0.857900  0.645700  1.0  0.0881
  H  H5  1  0.747300  0.867800  0.391000  1.0  0.1342
  H  H6  1  0.823100  0.490900  0.736500  1.0  0.1302
  H  H7  1  0.713700  0.354300  0.142100  1.0  0.0882
  H  H8  1  0.752700  0.609000  0.132200  1.0  0.1365
  H  H9  1  0.323100  0.736500  0.490900  1.0  0.1308
  H  H10  1  0.213700  0.142100  0.354300  1.0  0.0882
  H  H11  1  0.252700  0.132200  0.609000  1.0  0.1349
  H  H12  1  0.176900  0.509100  0.263500  1.0  0.1296
  H  H13  1  0.286300  0.645700  0.857900  1.0  0.0879
  H  H14  1  0.247300  0.391000  0.867800  1.0  0.136
  C  C15  1  0.668500  0.078010  0.254990  1.0  0.6612
  C  C16  1  0.705400  0.066000  0.421400  1.0  -0.0085
  C  C17  1  0.704200  0.181840  0.536560  1.0  -0.1763
  C  C18  1  0.767600  0.943500  0.618900  1.0  0.1678
  C  C19  1  0.743200  0.177110  0.692490  1.0  0.1776
  C  C20  1  0.741100  0.946400  0.465200  1.0  -0.17
  C  C21  1  0.831500  0.745010  0.921990  1.0  0.6602
  C  C22  1  0.794600  0.578600  0.934000  1.0  -0.0066
  C  C23  1  0.795800  0.463440  0.818160  1.0  -0.1713
  C  C24  1  0.732400  0.381100  0.056500  1.0  0.1676
  C  C25  1  0.756800  0.307510  0.822890  1.0  0.1763
  C  C26  1  0.758900  0.534800  0.053600  1.0  -0.171
  C  C27  1  0.331500  0.921990  0.745010  1.0  0.6617
  C  C28  1  0.294600  0.934000  0.578600  1.0  -0.0041
  C  C29  1  0.295800  0.818160  0.463440  1.0  -0.1738
  C  C30  1  0.232400  0.056500  0.381100  1.0  0.1675
  C  C31  1  0.256800  0.822890  0.307510  1.0  0.1788
  C  C32  1  0.258900  0.053600  0.534800  1.0  -0.17
  C  C33  1  0.168500  0.254990  0.078010  1.0  0.6627
  C  C34  1  0.205400  0.421400  0.066000  1.0  -0.0068
  C  C35  1  0.204200  0.536560  0.181840  1.0  -0.172
  C  C36  1  0.267600  0.618900  0.943500  1.0  0.1673
  C  C37  1  0.243200  0.692490  0.177110  1.0  0.1759
  C  C38  1  0.241100  0.465200  0.946400  1.0  -0.1719
  N  N39  1  0.768200  0.055690  0.732310  1.0  -0.353
  N  N40  1  0.731800  0.267690  0.944310  1.0  -0.3555
  N  N41  1  0.231800  0.944310  0.267690  1.0  -0.3539
  N  N42  1  0.268200  0.732310  0.055690  1.0  -0.3534
  O  O43  1  0.773200  0.065110  0.205490  1.0  -0.5699
  O  O44  1  0.546000  0.107830  0.183370  1.0  -0.5937
  O  O45  1  0.726800  0.794510  0.934890  1.0  -0.5698
  O  O46  1  0.954000  0.816630  0.892170  1.0  -0.5957
  O  O47  1  0.226800  0.934890  0.794510  1.0  -0.5692
  O  O48  1  0.454000  0.892170  0.816630  1.0  -0.5948
  O  O49  1  0.273200  0.205490  0.065110  1.0  -0.5691
  O  O50  1  0.046000  0.183370  0.107830  1.0  -0.5961
