# generated using pymatgen
data_CdN9
_symmetry_space_group_name_H-M   'P 1'
_cell_length_a   8.60610000
_cell_length_b   9.36560000
_cell_length_c   13.01600000
_cell_angle_alpha   90.00000000
_cell_angle_beta   105.80300000
_cell_angle_gamma   90.00000000
_symmetry_Int_Tables_number   1
_chemical_formula_structural   CdN9
_chemical_formula_sum   'Cd4 N36'
_cell_volume   1009.45409017
_cell_formula_units_Z   4
loop_
 _symmetry_equiv_pos_site_id
 _symmetry_equiv_pos_as_xyz
  1  'x, y, z'
loop_
 _atom_site_type_symbol
 _atom_site_label
 _atom_site_symmetry_multiplicity
 _atom_site_fract_x
 _atom_site_fract_y
 _atom_site_fract_z
 _atom_site_occupancy
 _atom_site_charge
  Cd  Cd1  1  0.245150  0.251600  0.990820  1.0  1.0254
  Cd  Cd2  1  0.754850  0.751600  0.509180  1.0  1.0249
  Cd  Cd3  1  0.754850  0.748400  0.009180  1.0  1.0249
  Cd  Cd4  1  0.245150  0.248400  0.490820  1.0  1.0254
  N  N5  1  0.166800  0.197400  0.806900  1.0  -0.4022
  N  N6  1  0.232400  0.194700  0.739290  1.0  0.4788
  N  N7  1  0.296900  0.185800  0.671500  1.0  -0.402
  N  N8  1  0.012200  0.124700  0.996300  1.0  -0.3965
  N  N9  1  0.468200  0.379700  0.979600  1.0  -0.4041
  N  N10  1  0.394600  0.044300  0.032300  1.0  -0.3772
  N  N11  1  0.071900  0.448600  0.943900  1.0  -0.3684
  N  N12  1  0.833200  0.697400  0.693100  1.0  -0.4024
  N  N13  1  0.767600  0.694700  0.760710  1.0  0.4785
  N  N14  1  0.703100  0.685800  0.828500  1.0  -0.4024
  N  N15  1  0.987800  0.624700  0.503700  1.0  -0.3962
  N  N16  1  0.531800  0.879700  0.520400  1.0  -0.4038
  N  N17  1  0.605400  0.544300  0.467700  1.0  -0.3773
  N  N18  1  0.928100  0.948600  0.556100  1.0  -0.3681
  N  N19  1  0.833200  0.802600  0.193100  1.0  -0.4024
  N  N20  1  0.767600  0.805300  0.260710  1.0  0.4782
  N  N21  1  0.703100  0.814200  0.328500  1.0  -0.401
  N  N22  1  0.987800  0.875300  0.003700  1.0  -0.3981
  N  N23  1  0.531800  0.620300  0.020400  1.0  -0.4048
  N  N24  1  0.605400  0.955700  0.967700  1.0  -0.3755
  N  N25  1  0.928100  0.551400  0.056100  1.0  -0.3677
  N  N26  1  0.166800  0.302600  0.306900  1.0  -0.4022
  N  N27  1  0.232400  0.305300  0.239290  1.0  0.479
  N  N28  1  0.296900  0.314200  0.171500  1.0  -0.4006
  N  N29  1  0.012200  0.375300  0.496300  1.0  -0.3986
  N  N30  1  0.468200  0.120300  0.479600  1.0  -0.4044
  N  N31  1  0.394600  0.455700  0.532300  1.0  -0.3774
  N  N32  1  0.071900  0.051400  0.443900  1.0  -0.3681
  N  N33  1  0.000000  0.000000  0.000000  1.0  0.4402
  N  N34  1  0.000000  0.500000  0.500000  1.0  0.4402
  N  N35  1  0.500000  0.500000  0.000000  1.0  0.4194
  N  N36  1  0.500000  0.000000  0.500000  1.0  0.4195
  N  N37  1  0.500000  0.000000  0.000000  1.0  0.4213
  N  N38  1  0.500000  0.500000  0.500000  1.0  0.4213
  N  N39  1  0.000000  0.500000  0.000000  1.0  0.4118
  N  N40  1  0.000000  0.000000  0.500000  1.0  0.4124
