# generated using pymatgen
data_CdN9
_symmetry_space_group_name_H-M   'P 1'
_cell_length_a   8.62760000
_cell_length_b   9.40660000
_cell_length_c   13.05690000
_cell_angle_alpha   90.00000000
_cell_angle_beta   105.50400000
_cell_angle_gamma   90.00000000
_symmetry_Int_Tables_number   1
_chemical_formula_structural   CdN9
_chemical_formula_sum   'Cd4 N36'
_cell_volume   1021.09197596
_cell_formula_units_Z   4
loop_
 _symmetry_equiv_pos_site_id
 _symmetry_equiv_pos_as_xyz
  1  'x, y, z'
loop_
 _atom_site_type_symbol
 _atom_site_label
 _atom_site_symmetry_multiplicity
 _atom_site_fract_x
 _atom_site_fract_y
 _atom_site_fract_z
 _atom_site_occupancy
 _atom_site_charge
  Cd  Cd1  1  0.000000  0.000000  0.000000  1.0  1.2013
  Cd  Cd2  1  0.500000  0.500000  0.000000  1.0  1.2013
  Cd  Cd3  1  0.000000  0.000000  0.500000  1.0  1.2013
  Cd  Cd4  1  0.500000  0.500000  0.500000  1.0  1.2013
  N  N5  1  0.062600  0.944500  0.181700  1.0  -0.43
  N  N6  1  0.227600  0.871700  0.993100  1.0  -0.4253
  N  N7  1  0.838800  0.798500  0.957300  1.0  -0.4007
  N  N8  1  0.562600  0.444500  0.181700  1.0  -0.43
  N  N9  1  0.727600  0.371700  0.993100  1.0  -0.4254
  N  N10  1  0.338800  0.298500  0.957300  1.0  -0.4004
  N  N11  1  0.937400  0.944500  0.318300  1.0  -0.4311
  N  N12  1  0.772400  0.871700  0.506900  1.0  -0.4268
  N  N13  1  0.161200  0.798500  0.542700  1.0  -0.4008
  N  N14  1  0.437400  0.444500  0.318300  1.0  -0.4311
  N  N15  1  0.272400  0.371700  0.506900  1.0  -0.4269
  N  N16  1  0.661200  0.298500  0.542700  1.0  -0.4005
  N  N17  1  0.937400  0.055500  0.818300  1.0  -0.4302
  N  N18  1  0.772400  0.128300  0.006900  1.0  -0.4268
  N  N19  1  0.161200  0.201500  0.042700  1.0  -0.4003
  N  N20  1  0.437400  0.555500  0.818300  1.0  -0.4302
  N  N21  1  0.272400  0.628300  0.006900  1.0  -0.4259
  N  N22  1  0.661200  0.701500  0.042700  1.0  -0.3985
  N  N23  1  0.062600  0.055500  0.681700  1.0  -0.4293
  N  N24  1  0.227600  0.128300  0.493100  1.0  -0.4261
  N  N25  1  0.838800  0.201500  0.457300  1.0  -0.4004
  N  N26  1  0.562600  0.555500  0.681700  1.0  -0.4293
  N  N27  1  0.727600  0.628300  0.493100  1.0  -0.4252
  N  N28  1  0.338800  0.701500  0.457300  1.0  -0.3986
  N  N29  1  0.000000  0.947200  0.250000  1.0  0.4444
  N  N30  1  0.500000  0.447200  0.250000  1.0  0.4444
  N  N31  1  0.000000  0.052800  0.750000  1.0  0.4435
  N  N32  1  0.500000  0.552800  0.750000  1.0  0.4435
  N  N33  1  0.250000  0.750000  0.000000  1.0  0.4459
  N  N34  1  0.750000  0.750000  0.500000  1.0  0.4459
  N  N35  1  0.750000  0.250000  0.000000  1.0  0.4459
  N  N36  1  0.250000  0.250000  0.500000  1.0  0.4459
  N  N37  1  0.750000  0.750000  0.000000  1.0  0.4213
  N  N38  1  0.250000  0.750000  0.500000  1.0  0.4213
  N  N39  1  0.250000  0.250000  0.000000  1.0  0.4213
  N  N40  1  0.750000  0.250000  0.500000  1.0  0.4213
