# generated using pymatgen
data_Cu3H28C34(N3O8)2
_symmetry_space_group_name_H-M   'P 1'
_cell_length_a   9.81390000
_cell_length_b   23.67960000
_cell_length_c   21.31510000
_cell_angle_alpha   90.00000000
_cell_angle_beta   98.06900000
_cell_angle_gamma   90.00000000
_symmetry_Int_Tables_number   1
_chemical_formula_structural   Cu3H28C34(N3O8)2
_chemical_formula_sum   'Cu12 H112 C136 N24 O64'
_cell_volume   4904.35969474
_cell_formula_units_Z   4
loop_
 _symmetry_equiv_pos_site_id
 _symmetry_equiv_pos_as_xyz
  1  'x, y, z'
loop_
 _atom_site_type_symbol
 _atom_site_label
 _atom_site_symmetry_multiplicity
 _atom_site_fract_x
 _atom_site_fract_y
 _atom_site_fract_z
 _atom_site_occupancy
 _atom_site_charge
  Cu  Cu1  1  0.466040  0.014850  0.897720  1.0  0.994
  Cu  Cu2  1  0.623040  0.136500  0.912050  1.0  0.8975
  Cu  Cu3  1  0.654420  0.034800  0.788330  1.0  0.6169
  Cu  Cu4  1  0.033960  0.514850  0.602280  1.0  0.9982
  Cu  Cu5  1  0.876960  0.636500  0.587950  1.0  0.8983
  Cu  Cu6  1  0.845580  0.534800  0.711670  1.0  0.6163
  Cu  Cu7  1  0.533960  0.985150  0.102280  1.0  0.9982
  Cu  Cu8  1  0.376960  0.863500  0.087950  1.0  0.8978
  Cu  Cu9  1  0.345580  0.965200  0.211670  1.0  0.6161
  Cu  Cu10  1  0.966040  0.485150  0.397720  1.0  0.9941
  Cu  Cu11  1  0.123040  0.363500  0.412050  1.0  0.8968
  Cu  Cu12  1  0.154420  0.465200  0.288330  1.0  0.6166
  H  H13  1  0.577600  0.938800  0.694900  1.0  0.0959
  H  H14  1  0.315600  0.933400  0.927000  1.0  0.4411
  H  H15  1  0.362400  0.965200  0.881900  1.0  0.3236
  H  H16  1  0.580900  0.917900  0.590600  1.0  0.1317
  H  H17  1  0.808100  0.026000  0.484800  1.0  0.3019
  H  H18  1  0.797100  0.872300  0.404700  1.0  0.3096
  H  H19  1  0.769300  0.065100  0.572300  1.0  0.1324
  H  H20  1  0.766500  0.080800  0.677400  1.0  0.0925
  H  H21  1  0.668500  0.972900  0.380700  1.0  0.0905
  H  H22  1  0.694500  0.070000  0.367700  1.0  0.0933
  H  H23  1  0.855200  0.064600  0.382800  1.0  0.0931
  H  H24  1  0.693900  0.019700  0.273400  1.0  0.0848
  H  H25  1  0.794900  0.071100  0.273200  1.0  0.0909
  H  H26  1  0.983900  0.012400  0.301900  1.0  0.0891
  H  H27  1  0.897100  0.988100  0.240400  1.0  0.0965
  H  H28  1  0.797300  0.920500  0.300000  1.0  0.0976
  H  H29  1  0.958100  0.915000  0.315000  1.0  0.0879
  H  H30  1  0.959800  0.966800  0.408300  1.0  0.0937
  H  H31  1  0.988800  0.842100  0.593900  1.0  0.1408
  H  H32  1  0.962300  0.753800  0.632900  1.0  0.0941
  H  H33  1  0.785700  0.700100  0.470500  1.0  0.0979
  H  H34  1  0.798400  0.788100  0.426400  1.0  0.1354
  H  H35  1  0.849700  0.949400  0.998800  1.0  0.115
  H  H36  1  0.026400  0.796600  0.025500  1.0  0.1271
  H  H37  1  0.615500  0.809200  0.990500  1.0  0.1321
  H  H38  1  0.297000  0.231200  0.843200  1.0  0.1314
  H  H39  1  0.885500  0.242300  0.814000  1.0  0.1316
  H  H40  1  0.068800  0.090300  0.826700  1.0  0.1191
  H  H41  1  0.922400  0.438800  0.805100  1.0  0.0962
  H  H42  1  0.184400  0.433400  0.573000  1.0  0.44
  H  H43  1  0.137600  0.465200  0.618100  1.0  0.32
  H  H44  1  0.919100  0.417900  0.909400  1.0  0.1317
  H  H45  1  0.691900  0.526000  0.015200  1.0  0.3021
  H  H46  1  0.702900  0.372300  0.095300  1.0  0.3079
  H  H47  1  0.730700  0.565100  0.927700  1.0  0.1329
  H  H48  1  0.733500  0.580800  0.822600  1.0  0.0924
  H  H49  1  0.831500  0.472900  0.119300  1.0  0.0891
  H  H50  1  0.805500  0.570000  0.132300  1.0  0.0935
  H  H51  1  0.644800  0.564600  0.117200  1.0  0.0917
  H  H52  1  0.806100  0.519700  0.226600  1.0  0.0832
  H  H53  1  0.705100  0.571100  0.226800  1.0  0.0897
  H  H54  1  0.516100  0.512400  0.198100  1.0  0.0891
  H  H55  1  0.602900  0.488100  0.259600  1.0  0.0967
  H  H56  1  0.702700  0.420500  0.200000  1.0  0.0978
  H  H57  1  0.541900  0.415000  0.185000  1.0  0.0893
  H  H58  1  0.540200  0.466800  0.091700  1.0  0.0921
  H  H59  1  0.511200  0.342100  0.906100  1.0  0.1412
  H  H60  1  0.537700  0.253800  0.867100  1.0  0.0959
  H  H61  1  0.714300  0.200100  0.029500  1.0  0.0981
  H  H62  1  0.701600  0.288100  0.073600  1.0  0.1362
  H  H63  1  0.650300  0.449400  0.501200  1.0  0.1146
  H  H64  1  0.473600  0.296600  0.474500  1.0  0.1278
  H  H65  1  0.884500  0.309200  0.509500  1.0  0.1329
  H  H66  1  0.203000  0.731200  0.656800  1.0  0.1313
  H  H67  1  0.614500  0.742300  0.686000  1.0  0.1318
  H  H68  1  0.431200  0.590300  0.673300  1.0  0.1189
  H  H69  1  0.422400  0.061200  0.305100  1.0  0.096
  H  H70  1  0.684400  0.066600  0.073000  1.0  0.4423
  H  H71  1  0.637600  0.034800  0.118100  1.0  0.3219
  H  H72  1  0.419100  0.082100  0.409400  1.0  0.1314
  H  H73  1  0.191900  0.974000  0.515200  1.0  0.3023
  H  H74  1  0.202900  0.127700  0.595300  1.0  0.3065
  H  H75  1  0.230700  0.934900  0.427700  1.0  0.1327
  H  H76  1  0.233500  0.919200  0.322600  1.0  0.0918
  H  H77  1  0.331500  0.027100  0.619300  1.0  0.0891
  H  H78  1  0.305500  0.930000  0.632300  1.0  0.0939
  H  H79  1  0.144800  0.935400  0.617200  1.0  0.0922
  H  H80  1  0.306100  0.980300  0.726600  1.0  0.0829
  H  H81  1  0.205100  0.928900  0.726800  1.0  0.0902
  H  H82  1  0.016100  0.987600  0.698100  1.0  0.0892
  H  H83  1  0.102900  0.011900  0.759600  1.0  0.0965
  H  H84  1  0.202700  0.079500  0.700000  1.0  0.0986
  H  H85  1  0.041900  0.085000  0.685000  1.0  0.0877
  H  H86  1  0.040200  0.033200  0.591700  1.0  0.0922
  H  H87  1  0.011200  0.157900  0.406100  1.0  0.1411
  H  H88  1  0.037700  0.246200  0.367100  1.0  0.0959
  H  H89  1  0.214300  0.299900  0.529500  1.0  0.0976
  H  H90  1  0.201600  0.211900  0.573600  1.0  0.1359
  H  H91  1  0.150300  0.050600  0.001200  1.0  0.115
  H  H92  1  0.973600  0.203400  0.974500  1.0  0.1278
  H  H93  1  0.384500  0.190800  0.009500  1.0  0.1325
  H  H94  1  0.703000  0.768800  0.156800  1.0  0.1313
  H  H95  1  0.114500  0.757700  0.186000  1.0  0.1319
  H  H96  1  0.931200  0.909700  0.173300  1.0  0.119
  H  H97  1  0.077600  0.561200  0.194900  1.0  0.0958
  H  H98  1  0.815600  0.566600  0.427000  1.0  0.443
  H  H99  1  0.862400  0.534800  0.381900  1.0  0.3244
  H  H100  1  0.080900  0.582100  0.090600  1.0  0.1325
  H  H101  1  0.308100  0.474000  0.984800  1.0  0.3031
  H  H102  1  0.297100  0.627700  0.904700  1.0  0.3085
  H  H103  1  0.269300  0.434900  0.072300  1.0  0.1324
  H  H104  1  0.266500  0.419200  0.177400  1.0  0.0918
  H  H105  1  0.168500  0.527100  0.880700  1.0  0.0908
  H  H106  1  0.194500  0.430000  0.867700  1.0  0.094
  H  H107  1  0.355200  0.435400  0.882800  1.0  0.0931
  H  H108  1  0.193900  0.480300  0.773400  1.0  0.0844
  H  H109  1  0.294900  0.428900  0.773200  1.0  0.0895
  H  H110  1  0.483900  0.487600  0.801900  1.0  0.0886
  H  H111  1  0.397100  0.511900  0.740400  1.0  0.0959
  H  H112  1  0.297300  0.579500  0.800000  1.0  0.0978
  H  H113  1  0.458100  0.585000  0.815000  1.0  0.0871
  H  H114  1  0.459800  0.533200  0.908300  1.0  0.0933
  H  H115  1  0.488800  0.657900  0.093900  1.0  0.1411
  H  H116  1  0.462300  0.746200  0.132900  1.0  0.0948
  H  H117  1  0.285700  0.799900  0.970500  1.0  0.0979
  H  H118  1  0.298400  0.711900  0.926400  1.0  0.1353
  H  H119  1  0.349700  0.550600  0.498800  1.0  0.115
  H  H120  1  0.526400  0.703400  0.525500  1.0  0.1273
  H  H121  1  0.115500  0.690800  0.490500  1.0  0.1322
  H  H122  1  0.797000  0.268800  0.343200  1.0  0.1307
  H  H123  1  0.385500  0.257700  0.314000  1.0  0.1317
  H  H124  1  0.568800  0.409700  0.326700  1.0  0.1187
  C  C125  1  0.617700  0.964400  0.670000  1.0  0.1942
  C  C126  1  0.619100  0.951600  0.607300  1.0  -0.1726
  C  C127  1  0.677500  0.988800  0.569100  1.0  -0.0107
  C  C128  1  0.731000  0.038300  0.596500  1.0  -0.1843
  C  C129  1  0.727400  0.047700  0.659600  1.0  0.2051
  C  C130  1  0.668700  0.973800  0.499800  1.0  0.5212
  C  C131  1  0.756000  0.990300  0.398500  1.0  0.0653
  C  C132  1  0.772200  0.045600  0.363600  1.0  -0.1562
  C  C133  1  0.780300  0.035400  0.293600  1.0  -0.0839
  C  C134  1  0.896700  0.995200  0.285200  1.0  -0.1078
  C  C135  1  0.880500  0.939400  0.319300  1.0  -0.1503
  C  C136  1  0.872900  0.949580  0.389400  1.0  0.0992
  C  C137  1  0.931400  0.882400  0.476900  1.0  0.5775
  C  C138  1  0.901900  0.825470  0.504800  1.0  -0.0022
  C  C139  1  0.947700  0.813900  0.567300  1.0  -0.1708
  C  C140  1  0.932400  0.760400  0.590200  1.0  0.1886
  C  C141  1  0.828200  0.729100  0.495500  1.0  0.1886
  C  C142  1  0.836200  0.781800  0.468400  1.0  -0.2049
  C  C143  1  0.584100  0.920000  0.976700  1.0  0.7
  C  C144  1  0.712800  0.885060  0.992200  1.0  -0.1359
  C  C145  1  0.842100  0.910370  0.002200  1.0  -0.025
  C  C146  1  0.960200  0.877630  0.017100  1.0  -0.1768
  C  C147  1  0.948200  0.819200  0.017900  1.0  -0.0834
  C  C148  1  0.820200  0.795000  0.007200  1.0  0.0265
  C  C149  1  0.701300  0.826540  0.995800  1.0  -0.0854
  C  C150  1  0.100900  0.903900  0.036100  1.0  0.6681
  C  C151  1  0.333900  0.121700  0.856900  1.0  0.7065
  C  C152  1  0.203600  0.154940  0.838900  1.0  -0.1577
  C  C153  1  0.211700  0.213380  0.837500  1.0  -0.0812
  C  C154  1  0.092400  0.244740  0.827700  1.0  0.024
  C  C155  1  0.964600  0.220280  0.819000  1.0  -0.041
  C  C156  1  0.956300  0.162020  0.817900  1.0  -0.1454
  C  C157  1  0.075300  0.129460  0.827700  1.0  0.0125
  C  C158  1  0.815800  0.134800  0.806900  1.0  0.6868
  C  C159  1  0.882300  0.464400  0.830000  1.0  0.1948
  C  C160  1  0.880900  0.451600  0.892700  1.0  -0.173
  C  C161  1  0.822500  0.488800  0.930900  1.0  -0.0112
  C  C162  1  0.769000  0.538300  0.903500  1.0  -0.185
  C  C163  1  0.772600  0.547700  0.840400  1.0  0.2053
  C  C164  1  0.831300  0.473800  0.000200  1.0  0.5235
  C  C165  1  0.744000  0.490300  0.101500  1.0  0.066
  C  C166  1  0.727800  0.545600  0.136400  1.0  -0.1553
  C  C167  1  0.719700  0.535400  0.206400  1.0  -0.0839
  C  C168  1  0.603300  0.495200  0.214800  1.0  -0.1077
  C  C169  1  0.619500  0.439400  0.180700  1.0  -0.1494
  C  C170  1  0.627100  0.449580  0.110600  1.0  0.0988
  C  C171  1  0.568600  0.382400  0.023100  1.0  0.5785
  C  C172  1  0.598100  0.325470  0.995200  1.0  -0.0027
  C  C173  1  0.552300  0.313900  0.932700  1.0  -0.1713
  C  C174  1  0.567600  0.260400  0.909800  1.0  0.188
  C  C175  1  0.671800  0.229100  0.004500  1.0  0.1885
  C  C176  1  0.663800  0.281800  0.031600  1.0  -0.204
  C  C177  1  0.915900  0.420000  0.523300  1.0  0.6998
  C  C178  1  0.787200  0.385060  0.507800  1.0  -0.139
  C  C179  1  0.657900  0.410370  0.497800  1.0  -0.0251
  C  C180  1  0.539800  0.377630  0.482900  1.0  -0.1769
  C  C181  1  0.551800  0.319200  0.482100  1.0  -0.0842
  C  C182  1  0.679800  0.295000  0.492800  1.0  0.0305
  C  C183  1  0.798700  0.326540  0.504200  1.0  -0.0861
  C  C184  1  0.399100  0.403900  0.463900  1.0  0.6664
  C  C185  1  0.166100  0.621700  0.643100  1.0  0.7043
  C  C186  1  0.296400  0.654940  0.661100  1.0  -0.1564
  C  C187  1  0.288300  0.713380  0.662500  1.0  -0.0823
  C  C188  1  0.407600  0.744740  0.672300  1.0  0.024
  C  C189  1  0.535400  0.720280  0.681000  1.0  -0.0399
  C  C190  1  0.543700  0.662020  0.682100  1.0  -0.1441
  C  C191  1  0.424700  0.629460  0.672300  1.0  0.0122
  C  C192  1  0.684200  0.634800  0.693100  1.0  0.6848
  C  C193  1  0.382300  0.035600  0.330000  1.0  0.1947
  C  C194  1  0.380900  0.048400  0.392700  1.0  -0.1726
  C  C195  1  0.322500  0.011200  0.430900  1.0  -0.0111
  C  C196  1  0.269000  0.961700  0.403500  1.0  -0.1831
  C  C197  1  0.272600  0.952300  0.340400  1.0  0.2043
  C  C198  1  0.331300  0.026200  0.500200  1.0  0.5245
  C  C199  1  0.244000  0.009700  0.601500  1.0  0.0663
  C  C200  1  0.227800  0.954400  0.636400  1.0  -0.154
  C  C201  1  0.219700  0.964600  0.706400  1.0  -0.0832
  C  C202  1  0.103300  0.004800  0.714800  1.0  -0.1068
  C  C203  1  0.119500  0.060600  0.680700  1.0  -0.1512
  C  C204  1  0.127100  0.050420  0.610600  1.0  0.0997
  C  C205  1  0.068600  0.117600  0.523100  1.0  0.5787
  C  C206  1  0.098100  0.174530  0.495200  1.0  -0.0028
  C  C207  1  0.052300  0.186100  0.432700  1.0  -0.1718
  C  C208  1  0.067600  0.239600  0.409800  1.0  0.1884
  C  C209  1  0.171800  0.270900  0.504500  1.0  0.1891
  C  C210  1  0.163800  0.218200  0.531600  1.0  -0.2044
  C  C211  1  0.415900  0.080000  0.023300  1.0  0.6998
  C  C212  1  0.287200  0.114940  0.007800  1.0  -0.1375
  C  C213  1  0.157900  0.089630  0.997800  1.0  -0.0236
  C  C214  1  0.039800  0.122370  0.982900  1.0  -0.1758
  C  C215  1  0.051800  0.180800  0.982100  1.0  -0.0846
  C  C216  1  0.179800  0.205000  0.992800  1.0  0.0291
  C  C217  1  0.298700  0.173460  0.004200  1.0  -0.0872
  C  C218  1  0.899100  0.096100  0.963900  1.0  0.668
  C  C219  1  0.666100  0.878300  0.143100  1.0  0.7045
  C  C220  1  0.796400  0.845060  0.161100  1.0  -0.1571
  C  C221  1  0.788300  0.786620  0.162500  1.0  -0.0822
  C  C222  1  0.907600  0.755260  0.172300  1.0  0.0235
  C  C223  1  0.035400  0.779720  0.181000  1.0  -0.04
  C  C224  1  0.043700  0.837980  0.182100  1.0  -0.1446
  C  C225  1  0.924700  0.870540  0.172300  1.0  0.0095
  C  C226  1  0.184200  0.865200  0.193100  1.0  0.6852
  C  C227  1  0.117700  0.535600  0.170000  1.0  0.1932
  C  C228  1  0.119100  0.548400  0.107300  1.0  -0.1738
  C  C229  1  0.177500  0.511200  0.069100  1.0  -0.0107
  C  C230  1  0.231000  0.461700  0.096500  1.0  -0.1826
  C  C231  1  0.227400  0.452300  0.159600  1.0  0.2044
  C  C232  1  0.168700  0.526200  0.999800  1.0  0.5222
  C  C233  1  0.256000  0.509700  0.898500  1.0  0.0656
  C  C234  1  0.272200  0.454400  0.863600  1.0  -0.154
  C  C235  1  0.280300  0.464600  0.793600  1.0  -0.0833
  C  C236  1  0.396700  0.504800  0.785200  1.0  -0.1085
  C  C237  1  0.380500  0.560600  0.819300  1.0  -0.1518
  C  C238  1  0.372900  0.550420  0.889400  1.0  0.1003
  C  C239  1  0.431400  0.617600  0.976900  1.0  0.5785
  C  C240  1  0.401900  0.674530  0.004800  1.0  -0.0024
  C  C241  1  0.447700  0.686100  0.067300  1.0  -0.1707
  C  C242  1  0.432400  0.739600  0.090200  1.0  0.1888
  C  C243  1  0.328200  0.770900  0.995500  1.0  0.1895
  C  C244  1  0.336200  0.718200  0.968400  1.0  -0.2051
  C  C245  1  0.084100  0.580000  0.476700  1.0  0.6997
  C  C246  1  0.212800  0.614940  0.492200  1.0  -0.138
  C  C247  1  0.342100  0.589630  0.502200  1.0  -0.0236
  C  C248  1  0.460200  0.622370  0.517100  1.0  -0.1776
  C  C249  1  0.448200  0.680800  0.517900  1.0  -0.083
  C  C250  1  0.320200  0.705000  0.507200  1.0  0.0285
  C  C251  1  0.201300  0.673460  0.495800  1.0  -0.0867
  C  C252  1  0.600900  0.596100  0.536100  1.0  0.6688
  C  C253  1  0.833900  0.378300  0.356900  1.0  0.7069
  C  C254  1  0.703600  0.345060  0.338900  1.0  -0.1567
  C  C255  1  0.711700  0.286620  0.337500  1.0  -0.0809
  C  C256  1  0.592400  0.255260  0.327700  1.0  0.0204
  C  C257  1  0.464600  0.279720  0.319000  1.0  -0.0402
  C  C258  1  0.456300  0.337980  0.317900  1.0  -0.1453
  C  C259  1  0.575300  0.370540  0.327700  1.0  0.0105
  C  C260  1  0.315800  0.365200  0.306900  1.0  0.6873
  N  N261  1  0.671100  0.012140  0.697210  1.0  -0.3137
  N  N262  1  0.878100  0.717660  0.555600  1.0  -0.3113
  N  N263  1  0.753100  0.001040  0.466020  1.0  -0.4088
  N  N264  1  0.857200  0.896040  0.422000  1.0  -0.3922
  N  N265  1  0.808100  0.732970  0.008800  1.0  0.6401
  N  N266  1  0.104300  0.306560  0.828100  1.0  0.6112
  N  N267  1  0.828900  0.512140  0.802790  1.0  -0.3152
  N  N268  1  0.621900  0.217660  0.944400  1.0  -0.3116
  N  N269  1  0.746900  0.501040  0.033980  1.0  -0.4097
  N  N270  1  0.642800  0.396040  0.078000  1.0  -0.3922
  N  N271  1  0.691900  0.232970  0.491200  1.0  0.6372
  N  N272  1  0.395700  0.806560  0.671900  1.0  0.6103
  N  N273  1  0.328900  0.987860  0.302790  1.0  -0.3169
  N  N274  1  0.121900  0.282340  0.444400  1.0  -0.311
  N  N275  1  0.246900  0.998960  0.533980  1.0  -0.4096
  N  N276  1  0.142800  0.103960  0.578000  1.0  -0.3906
  N  N277  1  0.191900  0.267030  0.991200  1.0  0.6369
  N  N278  1  0.895700  0.693440  0.171900  1.0  0.6097
  N  N279  1  0.171100  0.487860  0.197210  1.0  -0.3136
  N  N280  1  0.378100  0.782340  0.055600  1.0  -0.3113
  N  N281  1  0.253100  0.498960  0.966020  1.0  -0.4096
  N  N282  1  0.357200  0.603960  0.922000  1.0  -0.3919
  N  N283  1  0.308100  0.767030  0.508800  1.0  0.6407
  N  N284  1  0.604300  0.193440  0.328100  1.0  0.6095
  O  O285  1  0.599400  0.964920  0.946480  1.0  -0.5878
  O  O286  1  0.312700  0.966570  0.911420  1.0  -0.699
  O  O287  1  0.475100  0.903350  0.994470  1.0  -0.5754
  O  O288  1  0.696200  0.712200  0.992500  1.0  -0.4183
  O  O289  1  0.911300  0.705520  0.026500  1.0  -0.4439
  O  O290  1  0.198500  0.868120  0.038590  1.0  -0.6059
  O  O291  1  0.114300  0.954270  0.049560  1.0  -0.5498
  O  O292  1  0.325900  0.069010  0.862520  1.0  -0.5677
  O  O293  1  0.442000  0.151100  0.866740  1.0  -0.5728
  O  O294  1  0.219600  0.326790  0.830900  1.0  -0.4919
  O  O295  1  0.999800  0.334460  0.823900  1.0  -0.4559
  O  O296  1  0.712800  0.164080  0.812750  1.0  -0.6565
  O  O297  1  0.814500  0.083030  0.793050  1.0  -0.5742
  O  O298  1  0.586000  0.937670  0.477280  1.0  -0.5217
  O  O299  1  0.022500  0.911710  0.505110  1.0  -0.5589
  O  O300  1  0.625800  0.058040  0.878750  1.0  -0.7134
  O  O301  1  0.900600  0.464920  0.553520  1.0  -0.5886
  O  O302  1  0.187300  0.466570  0.588580  1.0  -0.6994
  O  O303  1  0.024900  0.403350  0.505530  1.0  -0.5741
  O  O304  1  0.803800  0.212200  0.507500  1.0  -0.4186
  O  O305  1  0.588700  0.205520  0.473500  1.0  -0.4424
  O  O306  1  0.301500  0.368120  0.461410  1.0  -0.6056
  O  O307  1  0.385700  0.454270  0.450440  1.0  -0.5489
  O  O308  1  0.174100  0.569010  0.637480  1.0  -0.568
  O  O309  1  0.058000  0.651100  0.633260  1.0  -0.572
  O  O310  1  0.280400  0.826790  0.669100  1.0  -0.492
  O  O311  1  0.500200  0.834460  0.676100  1.0  -0.4566
  O  O312  1  0.787200  0.664080  0.687250  1.0  -0.6569
  O  O313  1  0.685500  0.583030  0.706950  1.0  -0.5746
  O  O314  1  0.914000  0.437670  0.022720  1.0  -0.521
  O  O315  1  0.477500  0.411710  0.994890  1.0  -0.559
  O  O316  1  0.874200  0.558040  0.621250  1.0  -0.7126
  O  O317  1  0.400600  0.035080  0.053520  1.0  -0.5888
  O  O318  1  0.687300  0.033430  0.088580  1.0  -0.7022
  O  O319  1  0.524900  0.096650  0.005530  1.0  -0.574
  O  O320  1  0.303800  0.287800  0.007500  1.0  -0.4185
  O  O321  1  0.088700  0.294480  0.973500  1.0  -0.4412
  O  O322  1  0.801500  0.131880  0.961410  1.0  -0.6055
  O  O323  1  0.885700  0.045730  0.950440  1.0  -0.5473
  O  O324  1  0.674100  0.930990  0.137480  1.0  -0.5672
  O  O325  1  0.558000  0.848900  0.133260  1.0  -0.5709
  O  O326  1  0.780400  0.673210  0.169100  1.0  -0.4921
  O  O327  1  0.000200  0.665540  0.176100  1.0  -0.4543
  O  O328  1  0.287200  0.835920  0.187250  1.0  -0.6576
  O  O329  1  0.185500  0.916970  0.206950  1.0  -0.5737
  O  O330  1  0.414000  0.062330  0.522720  1.0  -0.5203
  O  O331  1  0.977500  0.088290  0.494890  1.0  -0.5579
  O  O332  1  0.374200  0.941960  0.121250  1.0  -0.7124
  O  O333  1  0.099400  0.535080  0.446480  1.0  -0.588
  O  O334  1  0.812700  0.533430  0.411420  1.0  -0.7007
  O  O335  1  0.975100  0.596650  0.494470  1.0  -0.5754
  O  O336  1  0.196200  0.787800  0.492500  1.0  -0.4182
  O  O337  1  0.411300  0.794480  0.526500  1.0  -0.4426
  O  O338  1  0.698500  0.631880  0.538590  1.0  -0.6052
  O  O339  1  0.614300  0.545730  0.549560  1.0  -0.5475
  O  O340  1  0.825900  0.430990  0.362520  1.0  -0.5667
  O  O341  1  0.942000  0.348900  0.366740  1.0  -0.5728
  O  O342  1  0.719600  0.173210  0.330900  1.0  -0.4923
  O  O343  1  0.499800  0.165540  0.323900  1.0  -0.4559
  O  O344  1  0.212800  0.335920  0.312750  1.0  -0.6568
  O  O345  1  0.314500  0.416970  0.293050  1.0  -0.5743
  O  O346  1  0.086000  0.562330  0.977280  1.0  -0.5207
  O  O347  1  0.522500  0.588290  0.005110  1.0  -0.5578
  O  O348  1  0.125800  0.441960  0.378750  1.0  -0.7133
