# generated using pymatgen
data_Zn3P2CO10
_symmetry_space_group_name_H-M   'P 1'
_cell_length_a   5.00300000
_cell_length_b   8.54340000
_cell_length_c   12.43360000
_cell_angle_alpha   92.99000000
_cell_angle_beta   97.13800000
_cell_angle_gamma   91.46500000
_symmetry_Int_Tables_number   1
_chemical_formula_structural   Zn3P2CO10
_chemical_formula_sum   'Zn6 P4 C2 O20'
_cell_volume   526.33256760
_cell_formula_units_Z   2
loop_
 _symmetry_equiv_pos_site_id
 _symmetry_equiv_pos_as_xyz
  1  'x, y, z'
loop_
 _atom_site_type_symbol
 _atom_site_label
 _atom_site_symmetry_multiplicity
 _atom_site_fract_x
 _atom_site_fract_y
 _atom_site_fract_z
 _atom_site_occupancy
 _atom_site_charge
  Zn  Zn1  1  0.606300  0.136740  0.940450  1.0  1.1793
  Zn  Zn2  1  0.113800  0.362760  0.139500  1.0  1.2353
  Zn  Zn3  1  0.855300  0.968200  0.702330  1.0  1.1726
  Zn  Zn4  1  0.393700  0.863260  0.059550  1.0  1.1935
  Zn  Zn5  1  0.886200  0.637240  0.860500  1.0  1.2332
  Zn  Zn6  1  0.144700  0.031800  0.297670  1.0  1.1731
  P  P7  1  0.617800  0.176100  0.200300  1.0  1.8149
  P  P8  1  0.041800  0.287900  0.876900  1.0  1.8007
  P  P9  1  0.382200  0.823900  0.799700  1.0  1.8149
  P  P10  1  0.958200  0.712100  0.123100  1.0  1.8012
  C  C11  1  0.040500  0.085000  0.517300  1.0  0.5193
  C  C12  1  0.959500  0.915000  0.482700  1.0  0.5191
  O  O13  1  0.339100  0.275000  0.876700  1.0  -0.794
  O  O14  1  0.545100  0.085600  0.090300  1.0  -0.9561
  O  O15  1  0.881300  0.136700  0.828700  1.0  -0.8744
  O  O16  1  0.954800  0.305100  0.993000  1.0  -0.9529
  O  O17  1  0.948100  0.426200  0.809900  1.0  -0.7331
  O  O18  1  0.490100  0.336400  0.191800  1.0  -0.7825
  O  O19  1  0.928400  0.201300  0.221500  1.0  -0.8889
  O  O20  1  0.527600  0.080200  0.289700  1.0  -0.7985
  O  O21  1  0.989900  0.136800  0.609900  1.0  -0.4865
  O  O22  1  0.143000  0.163500  0.450700  1.0  -0.4339
  O  O23  1  0.660900  0.725000  0.123300  1.0  -0.7941
  O  O24  1  0.454900  0.914400  0.909700  1.0  -0.9556
  O  O25  1  0.118700  0.863300  0.171300  1.0  -0.8762
  O  O26  1  0.045200  0.694900  0.007000  1.0  -0.9531
  O  O27  1  0.051900  0.573800  0.190100  1.0  -0.7363
  O  O28  1  0.509900  0.663600  0.808200  1.0  -0.783
  O  O29  1  0.071600  0.798700  0.778500  1.0  -0.8899
  O  O30  1  0.472400  0.919800  0.710300  1.0  -0.7972
  O  O31  1  0.010100  0.863200  0.390100  1.0  -0.5094
  O  O32  1  0.857000  0.836500  0.549300  1.0  -0.4614
