# generated using pymatgen
data_CdH16C23N2O5
_symmetry_space_group_name_H-M   'P 1'
_cell_length_a   29.47900000
_cell_length_b   16.68760000
_cell_length_c   15.76640000
_cell_angle_alpha   90.00000000
_cell_angle_beta   113.53000000
_cell_angle_gamma   90.00000000
_symmetry_Int_Tables_number   1
_chemical_formula_structural   CdH16C23N2O5
_chemical_formula_sum   'Cd8 H128 C184 N16 O40'
_cell_volume   7111.12003705
_cell_formula_units_Z   8
loop_
 _symmetry_equiv_pos_site_id
 _symmetry_equiv_pos_as_xyz
  1  'x, y, z'
loop_
 _atom_site_type_symbol
 _atom_site_label
 _atom_site_symmetry_multiplicity
 _atom_site_fract_x
 _atom_site_fract_y
 _atom_site_fract_z
 _atom_site_occupancy
 _atom_site_charge
  Cd  Cd1  1  0.248170  0.281100  0.874960  1.0  1.0148
  Cd  Cd2  1  0.748170  0.781100  0.874960  1.0  1.0148
  Cd  Cd3  1  0.751830  0.281100  0.625040  1.0  1.0147
  Cd  Cd4  1  0.251830  0.781100  0.625040  1.0  1.0147
  Cd  Cd5  1  0.751830  0.718900  0.125040  1.0  1.0146
  Cd  Cd6  1  0.251830  0.218900  0.125040  1.0  1.0146
  Cd  Cd7  1  0.248170  0.718900  0.374960  1.0  1.0146
  Cd  Cd8  1  0.748170  0.218900  0.374960  1.0  1.0146
  H  H9  1  0.341400  0.184700  0.883000  1.0  0.0647
  H  H10  1  0.652900  0.329300  0.327500  1.0  0.0687
  H  H11  1  0.567200  0.333333  0.231600  1.0  0.1173
  H  H12  1  0.654700  0.104400  0.290400  1.0  0.0614
  H  H13  1  0.342600  0.388900  0.001000  1.0  0.0514
  H  H14  1  0.570800  0.106900  0.202500  1.0  0.073
  H  H15  1  0.428200  0.183500  0.944000  1.0  0.0933
  H  H16  1  0.426900  0.389100  0.066900  1.0  0.099
  H  H17  1  0.512200  0.310700  0.050500  1.0  0.1007
  H  H18  1  0.248000  0.512000  0.691000  1.0  0.0835
  H  H19  1  0.234500  0.304200  0.557800  1.0  0.098
  H  H20  1  0.225400  0.352200  0.276700  1.0  0.1053
  H  H21  1  0.239600  0.435900  0.325200  1.0  0.0765
  H  H22  1  0.233300  0.511400  0.425100  1.0  0.1052
  H  H23  1  0.092400  0.447600  0.205300  1.0  0.222
  H  H24  1  0.484300  0.191100  0.155700  1.0  0.1021
  H  H25  1  0.841400  0.684700  0.883000  1.0  0.0647
  H  H26  1  0.152900  0.829300  0.327500  1.0  0.0686
  H  H27  1  0.067200  0.833300  0.231600  1.0  0.1172
  H  H28  1  0.154700  0.604400  0.290400  1.0  0.0612
  H  H29  1  0.842600  0.888900  0.001000  1.0  0.0514
  H  H30  1  0.070800  0.606900  0.202500  1.0  0.0738
  H  H31  1  0.928200  0.683500  0.944000  1.0  0.0933
  H  H32  1  0.926900  0.889100  0.066900  1.0  0.099
  H  H33  1  0.012200  0.810700  0.050500  1.0  0.1007
  H  H34  1  0.748000  0.012000  0.691000  1.0  0.0835
  H  H35  1  0.734500  0.804200  0.557800  1.0  0.098
  H  H36  1  0.725400  0.852200  0.276700  1.0  0.1053
  H  H37  1  0.739600  0.935900  0.325200  1.0  0.0766
  H  H38  1  0.733300  0.011400  0.425100  1.0  0.1052
  H  H39  1  0.592400  0.947600  0.205300  1.0  0.2192
  H  H40  1  0.984300  0.691100  0.155700  1.0  0.1021
  H  H41  1  0.658600  0.184700  0.617000  1.0  0.0649
  H  H42  1  0.347100  0.329300  0.172500  1.0  0.0684
  H  H43  1  0.432800  0.333333  0.268400  1.0  0.1176
  H  H44  1  0.345300  0.104400  0.209600  1.0  0.0621
  H  H45  1  0.657400  0.388900  0.499000  1.0  0.0512
  H  H46  1  0.429200  0.106900  0.297500  1.0  0.0736
  H  H47  1  0.571800  0.183500  0.556000  1.0  0.0937
  H  H48  1  0.573100  0.389100  0.433100  1.0  0.0993
  H  H49  1  0.487800  0.310700  0.449500  1.0  0.1015
  H  H50  1  0.752000  0.512000  0.809000  1.0  0.0835
  H  H51  1  0.765500  0.304200  0.942200  1.0  0.098
  H  H52  1  0.774600  0.352200  0.223300  1.0  0.1054
  H  H53  1  0.760400  0.435900  0.174800  1.0  0.0772
  H  H54  1  0.766700  0.511400  0.074900  1.0  0.1044
  H  H55  1  0.907600  0.447600  0.294700  1.0  0.2203
  H  H56  1  0.515700  0.191100  0.344300  1.0  0.1025
  H  H57  1  0.158600  0.684700  0.617000  1.0  0.0649
  H  H58  1  0.847100  0.829300  0.172500  1.0  0.0683
  H  H59  1  0.932800  0.833300  0.268400  1.0  0.1172
  H  H60  1  0.845300  0.604400  0.209600  1.0  0.0619
  H  H61  1  0.157400  0.888900  0.499000  1.0  0.0512
  H  H62  1  0.929200  0.606900  0.297500  1.0  0.0745
  H  H63  1  0.071800  0.683500  0.556000  1.0  0.0937
  H  H64  1  0.073100  0.889100  0.433100  1.0  0.0993
  H  H65  1  0.987800  0.810700  0.449500  1.0  0.1015
  H  H66  1  0.252000  0.012000  0.809000  1.0  0.0835
  H  H67  1  0.265500  0.804200  0.942200  1.0  0.098
  H  H68  1  0.274600  0.852200  0.223300  1.0  0.1054
  H  H69  1  0.260400  0.935900  0.174800  1.0  0.0773
  H  H70  1  0.266700  0.011400  0.074900  1.0  0.1044
  H  H71  1  0.407600  0.947600  0.294700  1.0  0.2174
  H  H72  1  0.015700  0.691100  0.344300  1.0  0.1025
  H  H73  1  0.658600  0.815300  0.117000  1.0  0.0645
  H  H74  1  0.347100  0.670700  0.672500  1.0  0.0682
  H  H75  1  0.432800  0.666667  0.768400  1.0  0.1173
  H  H76  1  0.345300  0.895600  0.709600  1.0  0.0624
  H  H77  1  0.657400  0.611100  0.999000  1.0  0.0519
  H  H78  1  0.429200  0.893100  0.797500  1.0  0.073
  H  H79  1  0.571800  0.816500  0.056000  1.0  0.0941
  H  H80  1  0.573100  0.610900  0.933100  1.0  0.0987
  H  H81  1  0.487800  0.689300  0.949500  1.0  0.1016
  H  H82  1  0.752000  0.488000  0.309000  1.0  0.0838
  H  H83  1  0.765500  0.695800  0.442200  1.0  0.0973
  H  H84  1  0.774600  0.647800  0.723300  1.0  0.1047
  H  H85  1  0.760400  0.564100  0.674800  1.0  0.0765
  H  H86  1  0.766700  0.488600  0.574900  1.0  0.1047
  H  H87  1  0.907600  0.552400  0.794700  1.0  0.2208
  H  H88  1  0.515700  0.808900  0.844300  1.0  0.1027
  H  H89  1  0.158600  0.315300  0.117000  1.0  0.0645
  H  H90  1  0.847100  0.170700  0.672500  1.0  0.0681
  H  H91  1  0.932800  0.166700  0.768400  1.0  0.1171
  H  H92  1  0.845300  0.395600  0.709600  1.0  0.0623
  H  H93  1  0.157400  0.111100  0.999000  1.0  0.0519
  H  H94  1  0.929200  0.393100  0.797500  1.0  0.074
  H  H95  1  0.071800  0.316500  0.056000  1.0  0.0941
  H  H96  1  0.073100  0.110900  0.933100  1.0  0.0987
  H  H97  1  0.987800  0.189300  0.949500  1.0  0.1016
  H  H98  1  0.252000  0.988000  0.309000  1.0  0.0838
  H  H99  1  0.265500  0.195800  0.442200  1.0  0.0973
  H  H100  1  0.274600  0.147800  0.723300  1.0  0.1047
  H  H101  1  0.260400  0.064100  0.674800  1.0  0.0765
  H  H102  1  0.266700  0.988600  0.574900  1.0  0.1047
  H  H103  1  0.407600  0.052400  0.794700  1.0  0.217
  H  H104  1  0.015700  0.308900  0.844300  1.0  0.1027
  H  H105  1  0.341400  0.815300  0.383000  1.0  0.0648
  H  H106  1  0.652900  0.670700  0.827500  1.0  0.0687
  H  H107  1  0.567200  0.666667  0.731600  1.0  0.1167
  H  H108  1  0.654700  0.895600  0.790400  1.0  0.0612
  H  H109  1  0.342600  0.611100  0.501000  1.0  0.0517
  H  H110  1  0.570800  0.893100  0.702500  1.0  0.0736
  H  H111  1  0.428200  0.816500  0.444000  1.0  0.0942
  H  H112  1  0.426900  0.610900  0.566900  1.0  0.099
  H  H113  1  0.512200  0.689300  0.550500  1.0  0.0995
  H  H114  1  0.248000  0.488000  0.191000  1.0  0.0839
  H  H115  1  0.234500  0.695800  0.057800  1.0  0.0972
  H  H116  1  0.225400  0.647800  0.776700  1.0  0.1048
  H  H117  1  0.239600  0.564100  0.825200  1.0  0.0764
  H  H118  1  0.233300  0.488600  0.925100  1.0  0.1058
  H  H119  1  0.092400  0.552400  0.705300  1.0  0.2223
  H  H120  1  0.484300  0.808900  0.655700  1.0  0.1019
  H  H121  1  0.841400  0.315300  0.383000  1.0  0.0648
  H  H122  1  0.152900  0.170700  0.827500  1.0  0.0686
  H  H123  1  0.067200  0.166700  0.731600  1.0  0.1167
  H  H124  1  0.154700  0.395600  0.790400  1.0  0.0611
  H  H125  1  0.842600  0.111100  0.501000  1.0  0.0517
  H  H126  1  0.070800  0.393100  0.702500  1.0  0.0746
  H  H127  1  0.928200  0.316500  0.444000  1.0  0.0942
  H  H128  1  0.926900  0.110900  0.566900  1.0  0.099
  H  H129  1  0.012200  0.189300  0.550500  1.0  0.0995
  H  H130  1  0.748000  0.988000  0.191000  1.0  0.0839
  H  H131  1  0.734500  0.195800  0.057800  1.0  0.0972
  H  H132  1  0.725400  0.147800  0.776700  1.0  0.1048
  H  H133  1  0.739600  0.064100  0.825200  1.0  0.0765
  H  H134  1  0.733300  0.988600  0.925100  1.0  0.1058
  H  H135  1  0.592400  0.052400  0.705300  1.0  0.2185
  H  H136  1  0.984300  0.308900  0.655700  1.0  0.1019
  C  C137  1  0.358700  0.224500  0.924500  1.0  0.1423
  C  C138  1  0.637200  0.283800  0.295000  1.0  0.1268
  C  C139  1  0.563800  0.219400  0.195200  1.0  0.2546
  C  C140  1  0.585300  0.286400  0.238200  1.0  -0.1922
  C  C141  1  0.638300  0.153300  0.274400  1.0  0.1022
  C  C142  1  0.359000  0.343500  0.994100  1.0  0.1557
  C  C143  1  0.587600  0.155200  0.220500  1.0  -0.1425
  C  C144  1  0.410700  0.222100  0.960900  1.0  -0.1715
  C  C145  1  0.409900  0.344600  0.033900  1.0  -0.1975
  C  C146  1  0.491200  0.280000  0.068600  1.0  -0.1521
  C  C147  1  0.433300  0.282100  0.024100  1.0  0.0356
  C  C148  1  0.166700  0.415400  0.271400  1.0  0.154
  C  C149  1  0.245900  0.358500  0.723000  1.0  0.6503
  C  C150  1  0.242400  0.401700  0.637100  1.0  -0.1799
  C  C151  1  0.244600  0.483900  0.637800  1.0  -0.0375
  C  C152  1  0.236500  0.359800  0.558300  1.0  -0.069
  C  C153  1  0.233600  0.400600  0.479300  1.0  0.1747
  C  C154  1  0.246400  0.614400  0.563800  1.0  0.6695
  C  C155  1  0.218200  0.389800  0.316600  1.0  -0.0314
  C  C156  1  0.235800  0.484100  0.478200  1.0  -0.1815
  C  C157  1  0.125500  0.433300  0.234700  1.0  0.2751
  C  C158  1  0.506200  0.222800  0.141000  1.0  -0.1155
  C  C159  1  0.241700  0.525400  0.558900  1.0  -0.1709
  C  C160  1  0.858700  0.724500  0.924500  1.0  0.1423
  C  C161  1  0.137200  0.783800  0.295000  1.0  0.1267
  C  C162  1  0.063800  0.719400  0.195200  1.0  0.2546
  C  C163  1  0.085300  0.786400  0.238200  1.0  -0.1933
  C  C164  1  0.138300  0.653300  0.274400  1.0  0.1022
  C  C165  1  0.859000  0.843500  0.994100  1.0  0.1557
  C  C166  1  0.087600  0.655200  0.220500  1.0  -0.1425
  C  C167  1  0.910700  0.722100  0.960900  1.0  -0.1715
  C  C168  1  0.909900  0.844600  0.033900  1.0  -0.1977
  C  C169  1  0.991200  0.780000  0.068600  1.0  -0.1521
  C  C170  1  0.933300  0.782100  0.024100  1.0  0.0356
  C  C171  1  0.666667  0.915400  0.271400  1.0  0.1556
  C  C172  1  0.745900  0.858500  0.723000  1.0  0.6503
  C  C173  1  0.742400  0.901700  0.637100  1.0  -0.1799
  C  C174  1  0.744600  0.983900  0.637800  1.0  -0.0376
  C  C175  1  0.736500  0.859800  0.558300  1.0  -0.069
  C  C176  1  0.733600  0.900600  0.479300  1.0  0.1748
  C  C177  1  0.746400  0.114400  0.563800  1.0  0.6695
  C  C178  1  0.718200  0.889800  0.316600  1.0  -0.0316
  C  C179  1  0.735800  0.984100  0.478200  1.0  -0.1814
  C  C180  1  0.625500  0.933300  0.234700  1.0  0.2751
  C  C181  1  0.006200  0.722800  0.141000  1.0  -0.1155
  C  C182  1  0.741700  0.025400  0.558900  1.0  -0.1709
  C  C183  1  0.641300  0.224500  0.575500  1.0  0.1421
  C  C184  1  0.362800  0.283800  0.205000  1.0  0.1281
  C  C185  1  0.436200  0.219400  0.304800  1.0  0.2576
  C  C186  1  0.414700  0.286400  0.261800  1.0  -0.1902
  C  C187  1  0.361700  0.153300  0.225600  1.0  0.102
  C  C188  1  0.641000  0.343500  0.505900  1.0  0.1561
  C  C189  1  0.412400  0.155200  0.279500  1.0  -0.1415
  C  C190  1  0.589300  0.222100  0.539100  1.0  -0.1735
  C  C191  1  0.590100  0.344600  0.466100  1.0  -0.1987
  C  C192  1  0.508800  0.280000  0.431400  1.0  -0.1509
  C  C193  1  0.566700  0.282100  0.475900  1.0  0.036
  C  C194  1  0.833300  0.415400  0.228600  1.0  0.1574
  C  C195  1  0.754100  0.358500  0.777000  1.0  0.6503
  C  C196  1  0.757600  0.401700  0.862900  1.0  -0.1796
  C  C197  1  0.755400  0.483900  0.862200  1.0  -0.0372
  C  C198  1  0.763500  0.359800  0.941700  1.0  -0.0694
  C  C199  1  0.766400  0.400600  0.020700  1.0  0.1747
  C  C200  1  0.753600  0.614400  0.936200  1.0  0.6699
  C  C201  1  0.781800  0.389800  0.183400  1.0  -0.0332
  C  C202  1  0.764200  0.484100  0.021800  1.0  -0.1821
  C  C203  1  0.874500  0.433300  0.265300  1.0  0.276
  C  C204  1  0.493800  0.222800  0.359000  1.0  -0.1148
  C  C205  1  0.758300  0.525400  0.941100  1.0  -0.1709
  C  C206  1  0.141300  0.724500  0.575500  1.0  0.1421
  C  C207  1  0.862800  0.783800  0.205000  1.0  0.1281
  C  C208  1  0.936200  0.719400  0.304800  1.0  0.2577
  C  C209  1  0.914700  0.786400  0.261800  1.0  -0.1911
  C  C210  1  0.861700  0.653300  0.225600  1.0  0.102
  C  C211  1  0.141000  0.843500  0.505900  1.0  0.1561
  C  C212  1  0.912400  0.655200  0.279500  1.0  -0.1415
  C  C213  1  0.089300  0.722100  0.539100  1.0  -0.1735
  C  C214  1  0.090100  0.844600  0.466100  1.0  -0.1989
  C  C215  1  0.008800  0.780000  0.431400  1.0  -0.1509
  C  C216  1  0.066700  0.782100  0.475900  1.0  0.0359
  C  C217  1  0.333333  0.915400  0.228600  1.0  0.159
  C  C218  1  0.254100  0.858500  0.777000  1.0  0.6503
  C  C219  1  0.257600  0.901700  0.862900  1.0  -0.1796
  C  C220  1  0.255400  0.983900  0.862200  1.0  -0.0373
  C  C221  1  0.263500  0.859800  0.941700  1.0  -0.0694
  C  C222  1  0.266400  0.900600  0.020700  1.0  0.1747
  C  C223  1  0.253600  0.114400  0.936200  1.0  0.6699
  C  C224  1  0.281800  0.889800  0.183400  1.0  -0.0334
  C  C225  1  0.264200  0.984100  0.021800  1.0  -0.1821
  C  C226  1  0.374500  0.933300  0.265300  1.0  0.276
  C  C227  1  0.993800  0.722800  0.359000  1.0  -0.1148
  C  C228  1  0.258300  0.025400  0.941100  1.0  -0.1709
  C  C229  1  0.641300  0.775500  0.075500  1.0  0.1426
  C  C230  1  0.362800  0.716200  0.705000  1.0  0.1278
  C  C231  1  0.436200  0.780600  0.804800  1.0  0.2584
  C  C232  1  0.414700  0.713600  0.761800  1.0  -0.1905
  C  C233  1  0.361700  0.846700  0.725600  1.0  0.101
  C  C234  1  0.641000  0.656500  0.005900  1.0  0.1548
  C  C235  1  0.412400  0.844800  0.779500  1.0  -0.1382
  C  C236  1  0.589300  0.777900  0.039100  1.0  -0.1746
  C  C237  1  0.590100  0.655400  0.966100  1.0  -0.198
  C  C238  1  0.508800  0.720000  0.931400  1.0  -0.1485
  C  C239  1  0.566700  0.717900  0.975900  1.0  0.035
  C  C240  1  0.833300  0.584600  0.728600  1.0  0.1574
  C  C241  1  0.754100  0.641500  0.277000  1.0  0.6506
  C  C242  1  0.757600  0.598300  0.362900  1.0  -0.1789
  C  C243  1  0.755400  0.516100  0.362200  1.0  -0.0382
  C  C244  1  0.763500  0.640200  0.441700  1.0  -0.0716
  C  C245  1  0.766400  0.599400  0.520700  1.0  0.1746
  C  C246  1  0.753600  0.385600  0.436200  1.0  0.6713
  C  C247  1  0.781800  0.610200  0.683400  1.0  -0.0335
  C  C248  1  0.764200  0.515900  0.521800  1.0  -0.183
  C  C249  1  0.874500  0.566700  0.765300  1.0  0.2761
  C  C250  1  0.493800  0.777200  0.859000  1.0  -0.115
  C  C251  1  0.758300  0.474600  0.441100  1.0  -0.1706
  C  C252  1  0.141300  0.275500  0.075500  1.0  0.1426
  C  C253  1  0.862800  0.216200  0.705000  1.0  0.1278
  C  C254  1  0.936200  0.280600  0.804800  1.0  0.2584
  C  C255  1  0.914700  0.213600  0.761800  1.0  -0.1911
  C  C256  1  0.861700  0.346700  0.725600  1.0  0.101
  C  C257  1  0.141000  0.156500  0.005900  1.0  0.1548
  C  C258  1  0.912400  0.344800  0.779500  1.0  -0.1382
  C  C259  1  0.089300  0.277900  0.039100  1.0  -0.1746
  C  C260  1  0.090100  0.155400  0.966100  1.0  -0.1982
  C  C261  1  0.008800  0.220000  0.931400  1.0  -0.1485
  C  C262  1  0.066700  0.217900  0.975900  1.0  0.035
  C  C263  1  0.333333  0.084600  0.728600  1.0  0.1589
  C  C264  1  0.254100  0.141500  0.277000  1.0  0.6506
  C  C265  1  0.257600  0.098300  0.362900  1.0  -0.1789
  C  C266  1  0.255400  0.016100  0.362200  1.0  -0.0383
  C  C267  1  0.263500  0.140200  0.441700  1.0  -0.0716
  C  C268  1  0.266400  0.099400  0.520700  1.0  0.1746
  C  C269  1  0.253600  0.885600  0.436200  1.0  0.6713
  C  C270  1  0.281800  0.110200  0.683400  1.0  -0.0338
  C  C271  1  0.264200  0.015900  0.521800  1.0  -0.183
  C  C272  1  0.374500  0.066700  0.765300  1.0  0.276
  C  C273  1  0.993800  0.277200  0.859000  1.0  -0.115
  C  C274  1  0.258300  0.974600  0.441100  1.0  -0.1706
  C  C275  1  0.358700  0.775500  0.424500  1.0  0.1425
  C  C276  1  0.637200  0.716200  0.795000  1.0  0.127
  C  C277  1  0.563800  0.780600  0.695200  1.0  0.2549
  C  C278  1  0.585300  0.713600  0.738200  1.0  -0.1925
  C  C279  1  0.638300  0.846700  0.774400  1.0  0.1015
  C  C280  1  0.359000  0.656500  0.494100  1.0  0.1549
  C  C281  1  0.587600  0.844800  0.720500  1.0  -0.1392
  C  C282  1  0.410700  0.777900  0.460900  1.0  -0.1722
  C  C283  1  0.409900  0.655400  0.533900  1.0  -0.1983
  C  C284  1  0.491200  0.720000  0.568600  1.0  -0.1507
  C  C285  1  0.433300  0.717900  0.524100  1.0  0.0352
  C  C286  1  0.166700  0.584600  0.771400  1.0  0.1534
  C  C287  1  0.245900  0.641500  0.223000  1.0  0.6506
  C  C288  1  0.242400  0.598300  0.137100  1.0  -0.1798
  C  C289  1  0.244600  0.516100  0.137800  1.0  -0.038
  C  C290  1  0.236500  0.640200  0.058300  1.0  -0.0712
  C  C291  1  0.233600  0.599400  0.979300  1.0  0.1746
  C  C292  1  0.246400  0.385600  0.063800  1.0  0.6708
  C  C293  1  0.218200  0.610200  0.816600  1.0  -0.0315
  C  C294  1  0.235800  0.515900  0.978200  1.0  -0.1822
  C  C295  1  0.125500  0.566700  0.734700  1.0  0.2753
  C  C296  1  0.506200  0.777200  0.641000  1.0  -0.1161
  C  C297  1  0.241700  0.474600  0.058900  1.0  -0.1708
  C  C298  1  0.858700  0.275500  0.424500  1.0  0.1425
  C  C299  1  0.137200  0.216200  0.795000  1.0  0.1269
  C  C300  1  0.063800  0.280600  0.695200  1.0  0.2549
  C  C301  1  0.085300  0.213600  0.738200  1.0  -0.1931
  C  C302  1  0.138300  0.346700  0.774400  1.0  0.1015
  C  C303  1  0.859000  0.156500  0.494100  1.0  0.155
  C  C304  1  0.087600  0.344800  0.720500  1.0  -0.1392
  C  C305  1  0.910700  0.277900  0.460900  1.0  -0.1722
  C  C306  1  0.909900  0.155400  0.533900  1.0  -0.1985
  C  C307  1  0.991200  0.220000  0.568600  1.0  -0.1507
  C  C308  1  0.933300  0.217900  0.524100  1.0  0.0351
  C  C309  1  0.666667  0.084600  0.771400  1.0  0.1551
  C  C310  1  0.745900  0.141500  0.223000  1.0  0.6506
  C  C311  1  0.742400  0.098300  0.137100  1.0  -0.1798
  C  C312  1  0.744600  0.016100  0.137800  1.0  -0.0381
  C  C313  1  0.736500  0.140200  0.058300  1.0  -0.0712
  C  C314  1  0.733600  0.099400  0.979300  1.0  0.1746
  C  C315  1  0.746400  0.885600  0.063800  1.0  0.6708
  C  C316  1  0.718200  0.110200  0.816600  1.0  -0.0317
  C  C317  1  0.735800  0.015900  0.978200  1.0  -0.1821
  C  C318  1  0.625500  0.066700  0.734700  1.0  0.2752
  C  C319  1  0.006200  0.277200  0.641000  1.0  -0.1161
  C  C320  1  0.741700  0.974600  0.058900  1.0  -0.1708
  N  N321  1  0.331700  0.282700  0.946800  1.0  -0.3932
  N  N322  1  0.662500  0.218600  0.301800  1.0  -0.3333
  N  N323  1  0.831700  0.782700  0.946800  1.0  -0.3932
  N  N324  1  0.162500  0.718600  0.301800  1.0  -0.3333
  N  N325  1  0.668300  0.282700  0.553200  1.0  -0.3944
  N  N326  1  0.337500  0.218600  0.198200  1.0  -0.3286
  N  N327  1  0.168300  0.782700  0.553200  1.0  -0.3944
  N  N328  1  0.837500  0.718600  0.198200  1.0  -0.3286
  N  N329  1  0.668300  0.717300  0.053200  1.0  -0.3943
  N  N330  1  0.337500  0.781400  0.698200  1.0  -0.3285
  N  N331  1  0.168300  0.217300  0.053200  1.0  -0.3943
  N  N332  1  0.837500  0.281400  0.698200  1.0  -0.3285
  N  N333  1  0.331700  0.717300  0.446800  1.0  -0.393
  N  N334  1  0.662500  0.781400  0.801800  1.0  -0.3332
  N  N335  1  0.831700  0.217300  0.446800  1.0  -0.393
  N  N336  1  0.162500  0.281400  0.801800  1.0  -0.3332
  O  O337  1  0.246100  0.282800  0.722700  1.0  -0.6637
  O  O338  1  0.249600  0.648200  0.635500  1.0  -0.6113
  O  O339  1  0.248700  0.399100  0.792900  1.0  -0.6136
  O  O340  1  0.247000  0.652400  0.497100  1.0  -0.7356
  O  O341  1  0.228900  0.352500  0.404900  1.0  -0.2908
  O  O342  1  0.746100  0.782800  0.722700  1.0  -0.6637
  O  O343  1  0.749600  0.148200  0.635500  1.0  -0.6113
  O  O344  1  0.748700  0.899100  0.792900  1.0  -0.6136
  O  O345  1  0.747000  0.152400  0.497100  1.0  -0.7356
  O  O346  1  0.728900  0.852500  0.404900  1.0  -0.2908
  O  O347  1  0.753900  0.282800  0.777300  1.0  -0.6636
  O  O348  1  0.750400  0.648200  0.864500  1.0  -0.6119
  O  O349  1  0.751300  0.399100  0.707100  1.0  -0.6125
  O  O350  1  0.753000  0.652400  0.002900  1.0  -0.7364
  O  O351  1  0.771100  0.352500  0.095100  1.0  -0.2926
  O  O352  1  0.253900  0.782800  0.777300  1.0  -0.6636
  O  O353  1  0.250400  0.148200  0.864500  1.0  -0.6119
  O  O354  1  0.251300  0.899100  0.707100  1.0  -0.6125
  O  O355  1  0.253000  0.152400  0.002900  1.0  -0.7364
  O  O356  1  0.271100  0.852500  0.095100  1.0  -0.2926
  O  O357  1  0.753900  0.717200  0.277300  1.0  -0.6627
  O  O358  1  0.750400  0.351800  0.364500  1.0  -0.6115
  O  O359  1  0.751300  0.600900  0.207100  1.0  -0.6128
  O  O360  1  0.753000  0.347600  0.502900  1.0  -0.736
  O  O361  1  0.771100  0.647500  0.595100  1.0  -0.2907
  O  O362  1  0.253900  0.217200  0.277300  1.0  -0.6627
  O  O363  1  0.250400  0.851800  0.364500  1.0  -0.6115
  O  O364  1  0.251300  0.100900  0.207100  1.0  -0.6128
  O  O365  1  0.253000  0.847600  0.502900  1.0  -0.736
  O  O366  1  0.271100  0.147500  0.595100  1.0  -0.2908
  O  O367  1  0.246100  0.717200  0.222700  1.0  -0.6639
  O  O368  1  0.249600  0.351800  0.135500  1.0  -0.6113
  O  O369  1  0.248700  0.600900  0.292900  1.0  -0.6135
  O  O370  1  0.247000  0.347600  0.997100  1.0  -0.7355
  O  O371  1  0.228900  0.647500  0.904900  1.0  -0.2897
  O  O372  1  0.746100  0.217200  0.222700  1.0  -0.6639
  O  O373  1  0.749600  0.851800  0.135500  1.0  -0.6113
  O  O374  1  0.748700  0.100900  0.292900  1.0  -0.6135
  O  O375  1  0.747000  0.847600  0.997100  1.0  -0.7355
  O  O376  1  0.728900  0.147500  0.904900  1.0  -0.2897
