# generated using pymatgen
data_MnCr7(CO2)24
_symmetry_space_group_name_H-M   'P 1'
_cell_length_a   21.91800000
_cell_length_b   14.03300000
_cell_length_c   22.46700000
_cell_angle_alpha   90.00000000
_cell_angle_beta   92.63900000
_cell_angle_gamma   90.00000000
_symmetry_Int_Tables_number   1
_chemical_formula_structural   MnCr7(CO2)24
_chemical_formula_sum   'Mn2 Cr14 C48 O96'
_cell_volume   6902.96549224
_cell_formula_units_Z   2
loop_
 _symmetry_equiv_pos_site_id
 _symmetry_equiv_pos_as_xyz
  1  'x, y, z'
loop_
 _atom_site_type_symbol
 _atom_site_label
 _atom_site_symmetry_multiplicity
 _atom_site_fract_x
 _atom_site_fract_y
 _atom_site_fract_z
 _atom_site_occupancy
 _atom_site_charge
  Mn  Mn1  1  0.410440  0.240840  0.800890  1.0  0.9757
  Mn  Mn2  1  0.410440  0.759160  0.300890  1.0  0.9757
  Cr  Cr3  1  0.764100  0.961900  0.659390  1.0  0.7938
  Cr  Cr4  1  0.519940  0.966370  0.675790  1.0  0.8267
  Cr  Cr5  1  0.882760  0.225690  0.537930  1.0  0.9623
  Cr  Cr6  1  0.910440  0.740840  0.800890  1.0  0.8182
  Cr  Cr7  1  0.264100  0.461900  0.659390  1.0  0.7938
  Cr  Cr8  1  0.019940  0.466370  0.675790  1.0  0.8267
  Cr  Cr9  1  0.382760  0.725690  0.537930  1.0  0.9623
  Cr  Cr10  1  0.764100  0.038100  0.159390  1.0  0.7935
  Cr  Cr11  1  0.519940  0.033630  0.175790  1.0  0.8267
  Cr  Cr12  1  0.882760  0.774310  0.037930  1.0  0.9624
  Cr  Cr13  1  0.910440  0.259160  0.300890  1.0  0.8184
  Cr  Cr14  1  0.264100  0.538100  0.159390  1.0  0.7935
  Cr  Cr15  1  0.019940  0.533630  0.175790  1.0  0.8267
  Cr  Cr16  1  0.382760  0.274310  0.037930  1.0  0.9624
  C  C17  1  0.637300  0.954000  0.633700  1.0  0.5566
  C  C18  1  0.646800  0.958800  0.702100  1.0  0.6402
  C  C19  1  0.798600  0.130200  0.606900  1.0  0.6284
  C  C20  1  0.834200  0.052100  0.579500  1.0  0.6519
  C  C21  1  0.854600  0.895900  0.745000  1.0  0.5662
  C  C22  1  0.823800  0.810300  0.714600  1.0  0.5445
  C  C23  1  0.432300  0.887600  0.596000  1.0  0.6345
  C  C24  1  0.462500  0.801400  0.627700  1.0  0.6367
  C  C25  1  0.486400  0.144300  0.723700  1.0  0.5671
  C  C26  1  0.452800  0.067700  0.759200  1.0  0.572
  C  C27  1  0.860300  0.252800  0.410900  1.0  0.5916
  C  C28  1  0.931400  0.237300  0.420900  1.0  0.616
  C  C29  1  0.137300  0.454000  0.633700  1.0  0.5566
  C  C30  1  0.146800  0.458800  0.702100  1.0  0.6402
  C  C31  1  0.298600  0.630200  0.606900  1.0  0.6284
  C  C32  1  0.334200  0.552100  0.579500  1.0  0.6519
  C  C33  1  0.354600  0.395900  0.745000  1.0  0.5662
  C  C34  1  0.323800  0.310300  0.714600  1.0  0.5445
  C  C35  1  0.932300  0.387600  0.596000  1.0  0.6345
  C  C36  1  0.962500  0.301400  0.627700  1.0  0.6367
  C  C37  1  0.986400  0.644300  0.723700  1.0  0.5673
  C  C38  1  0.952800  0.567700  0.759200  1.0  0.5719
  C  C39  1  0.360300  0.752800  0.410900  1.0  0.5916
  C  C40  1  0.431400  0.737300  0.420900  1.0  0.616
  C  C41  1  0.637300  0.046000  0.133700  1.0  0.5568
  C  C42  1  0.646800  0.041200  0.202100  1.0  0.6403
  C  C43  1  0.798600  0.869800  0.106900  1.0  0.6298
  C  C44  1  0.834200  0.947900  0.079500  1.0  0.652
  C  C45  1  0.854600  0.104100  0.245000  1.0  0.5681
  C  C46  1  0.823800  0.189700  0.214600  1.0  0.5443
  C  C47  1  0.432300  0.112400  0.096000  1.0  0.6353
  C  C48  1  0.462500  0.198600  0.127700  1.0  0.6339
  C  C49  1  0.486400  0.855700  0.223700  1.0  0.566
  C  C50  1  0.452800  0.932300  0.259200  1.0  0.5704
  C  C51  1  0.860300  0.747200  0.910900  1.0  0.5919
  C  C52  1  0.931400  0.762700  0.920900  1.0  0.6178
  C  C53  1  0.137300  0.546000  0.133700  1.0  0.5568
  C  C54  1  0.146800  0.541200  0.202100  1.0  0.6403
  C  C55  1  0.298600  0.369800  0.106900  1.0  0.6298
  C  C56  1  0.334200  0.447900  0.079500  1.0  0.652
  C  C57  1  0.354600  0.604100  0.245000  1.0  0.5681
  C  C58  1  0.323800  0.689700  0.214600  1.0  0.5443
  C  C59  1  0.932300  0.612400  0.096000  1.0  0.6353
  C  C60  1  0.962500  0.698600  0.127700  1.0  0.6339
  C  C61  1  0.986400  0.355700  0.223700  1.0  0.5662
  C  C62  1  0.952800  0.432300  0.259200  1.0  0.5703
  C  C63  1  0.360300  0.247200  0.910900  1.0  0.5919
  C  C64  1  0.431400  0.262700  0.920900  1.0  0.6178
  O  O65  1  0.686700  0.943400  0.606400  1.0  -0.4571
  O  O66  1  0.699300  0.962900  0.723300  1.0  -0.419
  O  O67  1  0.584200  0.959300  0.611900  1.0  -0.4135
  O  O68  1  0.598500  0.962800  0.731100  1.0  -0.4442
  O  O69  1  0.762600  0.106900  0.646300  1.0  -0.4804
  O  O70  1  0.824500  0.969600  0.592300  1.0  -0.4031
  O  O71  1  0.808000  0.217300  0.593500  1.0  -0.473
  O  O72  1  0.873200  0.079800  0.541200  1.0  -0.4427
  O  O73  1  0.834000  0.976000  0.723800  1.0  -0.4823
  O  O74  1  0.783200  0.822900  0.674900  1.0  -0.4589
  O  O75  1  0.895100  0.883200  0.784900  1.0  -0.4116
  O  O76  1  0.845100  0.729700  0.732300  1.0  -0.4922
  O  O77  1  0.449600  0.969600  0.610600  1.0  -0.4716
  O  O78  1  0.501900  0.820800  0.670300  1.0  -0.4579
  O  O79  1  0.392800  0.870800  0.555900  1.0  -0.4448
  O  O80  1  0.446800  0.721500  0.610300  1.0  -0.43
  O  O81  1  0.519900  0.116000  0.683300  1.0  -0.4337
  O  O82  1  0.460200  0.982800  0.742700  1.0  -0.4394
  O  O83  1  0.477800  0.228400  0.739900  1.0  -0.4584
  O  O84  1  0.419500  0.095300  0.799100  1.0  -0.4291
  O  O85  1  0.830800  0.251600  0.458400  1.0  -0.4503
  O  O86  1  0.950600  0.223600  0.474900  1.0  -0.448
  O  O87  1  0.842000  0.264700  0.361300  1.0  -0.43
  O  O88  1  0.962700  0.238900  0.377500  1.0  -0.4217
  O  O89  1  0.186700  0.443400  0.606400  1.0  -0.4571
  O  O90  1  0.199300  0.462900  0.723300  1.0  -0.419
  O  O91  1  0.084200  0.459300  0.611900  1.0  -0.4135
  O  O92  1  0.098500  0.462800  0.731100  1.0  -0.4408
  O  O93  1  0.262600  0.606900  0.646300  1.0  -0.4804
  O  O94  1  0.324500  0.469600  0.592300  1.0  -0.4031
  O  O95  1  0.308000  0.717300  0.593500  1.0  -0.4716
  O  O96  1  0.373200  0.579800  0.541200  1.0  -0.4394
  O  O97  1  0.334000  0.476000  0.723800  1.0  -0.4823
  O  O98  1  0.283200  0.322900  0.674900  1.0  -0.4589
  O  O99  1  0.395100  0.383200  0.784900  1.0  -0.4121
  O  O100  1  0.345100  0.229700  0.732300  1.0  -0.4914
  O  O101  1  0.949600  0.469600  0.610600  1.0  -0.4716
  O  O102  1  0.001900  0.320800  0.670300  1.0  -0.4576
  O  O103  1  0.892800  0.370800  0.555900  1.0  -0.4434
  O  O104  1  0.946800  0.221500  0.610300  1.0  -0.425
  O  O105  1  0.019900  0.616000  0.683300  1.0  -0.4337
  O  O106  1  0.960200  0.482800  0.742700  1.0  -0.4394
  O  O107  1  0.977800  0.728400  0.739900  1.0  -0.4557
  O  O108  1  0.919500  0.595300  0.799100  1.0  -0.4301
  O  O109  1  0.330800  0.751600  0.458400  1.0  -0.4502
  O  O110  1  0.450600  0.723600  0.474900  1.0  -0.4452
  O  O111  1  0.342000  0.764700  0.361300  1.0  -0.4304
  O  O112  1  0.462700  0.738900  0.377500  1.0  -0.4206
  O  O113  1  0.686700  0.056600  0.106400  1.0  -0.4572
  O  O114  1  0.699300  0.037100  0.223300  1.0  -0.4196
  O  O115  1  0.584200  0.040700  0.111900  1.0  -0.4133
  O  O116  1  0.598500  0.037200  0.231100  1.0  -0.4443
  O  O117  1  0.762600  0.893100  0.146300  1.0  -0.4817
  O  O118  1  0.824500  0.030400  0.092300  1.0  -0.4033
  O  O119  1  0.808000  0.782700  0.093500  1.0  -0.4711
  O  O120  1  0.873200  0.920200  0.041200  1.0  -0.4376
  O  O121  1  0.834000  0.024000  0.223800  1.0  -0.4845
  O  O122  1  0.783200  0.177100  0.174900  1.0  -0.4594
  O  O123  1  0.895100  0.116800  0.284900  1.0  -0.4118
  O  O124  1  0.845100  0.270300  0.232300  1.0  -0.4931
  O  O125  1  0.449600  0.030400  0.110600  1.0  -0.4716
  O  O126  1  0.501900  0.179200  0.170300  1.0  -0.4576
  O  O127  1  0.392800  0.129200  0.055900  1.0  -0.4449
  O  O128  1  0.446800  0.278500  0.110300  1.0  -0.427
  O  O129  1  0.519900  0.884000  0.183300  1.0  -0.4335
  O  O130  1  0.460200  0.017200  0.242700  1.0  -0.4382
  O  O131  1  0.477800  0.771600  0.239900  1.0  -0.4589
  O  O132  1  0.419500  0.904700  0.299100  1.0  -0.4329
  O  O133  1  0.830800  0.748400  0.958400  1.0  -0.4503
  O  O134  1  0.950600  0.776400  0.974900  1.0  -0.4426
  O  O135  1  0.842000  0.735300  0.861300  1.0  -0.4294
  O  O136  1  0.962700  0.761100  0.877500  1.0  -0.4207
  O  O137  1  0.186700  0.556600  0.106400  1.0  -0.4572
  O  O138  1  0.199300  0.537100  0.223300  1.0  -0.4196
  O  O139  1  0.084200  0.540700  0.111900  1.0  -0.4133
  O  O140  1  0.098500  0.537200  0.231100  1.0  -0.4443
  O  O141  1  0.262600  0.393100  0.146300  1.0  -0.4817
  O  O142  1  0.324500  0.530400  0.092300  1.0  -0.4069
  O  O143  1  0.308000  0.282700  0.093500  1.0  -0.4697
  O  O144  1  0.373200  0.420200  0.041200  1.0  -0.4409
  O  O145  1  0.334000  0.524000  0.223800  1.0  -0.4845
  O  O146  1  0.283200  0.677100  0.174900  1.0  -0.4594
  O  O147  1  0.395100  0.616800  0.284900  1.0  -0.4127
  O  O148  1  0.345100  0.770300  0.232300  1.0  -0.4924
  O  O149  1  0.949600  0.530400  0.110600  1.0  -0.4716
  O  O150  1  0.001900  0.679200  0.170300  1.0  -0.4576
  O  O151  1  0.892800  0.629200  0.055900  1.0  -0.4432
  O  O152  1  0.946800  0.778500  0.110300  1.0  -0.4227
  O  O153  1  0.019900  0.384000  0.183300  1.0  -0.4336
  O  O154  1  0.960200  0.517200  0.242700  1.0  -0.4382
  O  O155  1  0.977800  0.271600  0.239900  1.0  -0.4571
  O  O156  1  0.919500  0.404700  0.299100  1.0  -0.4319
  O  O157  1  0.330800  0.248400  0.958400  1.0  -0.461
  O  O158  1  0.450600  0.276400  0.974900  1.0  -0.4454
  O  O159  1  0.342000  0.235300  0.861300  1.0  -0.4287
  O  O160  1  0.462700  0.261100  0.877500  1.0  -0.42
