# generated using pymatgen
data_MnCr(CO2)6
_symmetry_space_group_name_H-M   'P 1'
_cell_length_a   16.27400000
_cell_length_b   20.46500000
_cell_length_c   21.24300000
_cell_angle_alpha   90.00000000
_cell_angle_beta   90.00000000
_cell_angle_gamma   90.00000000
_symmetry_Int_Tables_number   1
_chemical_formula_structural   MnCr(CO2)6
_chemical_formula_sum   'Mn8 Cr8 C48 O96'
_cell_volume   7074.92613063
_cell_formula_units_Z   8
loop_
 _symmetry_equiv_pos_site_id
 _symmetry_equiv_pos_as_xyz
  1  'x, y, z'
loop_
 _atom_site_type_symbol
 _atom_site_label
 _atom_site_symmetry_multiplicity
 _atom_site_fract_x
 _atom_site_fract_y
 _atom_site_fract_z
 _atom_site_occupancy
 _atom_site_charge
  Mn  Mn1  1  0.258150  0.008890  0.629490  1.0  1.0177
  Mn  Mn2  1  0.016620  0.625230  0.494620  1.0  1.0607
  Mn  Mn3  1  0.758150  0.991110  0.370510  1.0  1.0187
  Mn  Mn4  1  0.516620  0.374770  0.505380  1.0  1.0611
  Mn  Mn5  1  0.258150  0.508890  0.870510  1.0  1.0181
  Mn  Mn6  1  0.016620  0.125230  0.005380  1.0  1.0607
  Mn  Mn7  1  0.758150  0.491110  0.129490  1.0  1.0183
  Mn  Mn8  1  0.516620  0.874770  0.994620  1.0  1.0609
  Cr  Cr9  1  0.012090  0.887970  0.501690  1.0  1.4638
  Cr  Cr10  1  0.261720  0.999890  0.883280  1.0  1.4156
  Cr  Cr11  1  0.512090  0.112030  0.498310  1.0  1.4659
  Cr  Cr12  1  0.761720  0.000110  0.116720  1.0  1.4155
  Cr  Cr13  1  0.012090  0.387970  0.998310  1.0  1.4653
  Cr  Cr14  1  0.261720  0.499890  0.616720  1.0  1.4159
  Cr  Cr15  1  0.512090  0.612030  0.001690  1.0  1.4645
  Cr  Cr16  1  0.761720  0.500110  0.383280  1.0  1.4152
  C  C17  1  0.014400  0.759800  0.535300  1.0  0.5912
  C  C18  1  0.016600  0.761300  0.462100  1.0  0.5909
  C  C19  1  0.163300  0.932000  0.542100  1.0  0.5265
  C  C20  1  0.098600  0.967300  0.583400  1.0  0.5299
  C  C21  1  0.358900  0.081500  0.542400  1.0  0.5719
  C  C22  1  0.420000  0.042700  0.583400  1.0  0.5475
  C  C23  1  0.354100  0.917100  0.955700  1.0  0.5535
  C  C24  1  0.416400  0.960300  0.918700  1.0  0.5313
  C  C25  1  0.253100  0.042300  0.761000  1.0  0.5266
  C  C26  1  0.264900  0.965500  0.759000  1.0  0.5536
  C  C27  1  0.110800  0.037600  0.927600  1.0  0.5297
  C  C28  1  0.175600  0.080300  0.960700  1.0  0.5523
  C  C29  1  0.514400  0.240200  0.464700  1.0  0.5917
  C  C30  1  0.516600  0.238700  0.537900  1.0  0.5918
  C  C31  1  0.663300  0.068000  0.457900  1.0  0.5265
  C  C32  1  0.598600  0.032700  0.416600  1.0  0.5312
  C  C33  1  0.858900  0.918500  0.457600  1.0  0.5721
  C  C34  1  0.920000  0.957300  0.416600  1.0  0.5492
  C  C35  1  0.854100  0.082900  0.044300  1.0  0.5539
  C  C36  1  0.916400  0.039700  0.081300  1.0  0.5315
  C  C37  1  0.753100  0.957700  0.239000  1.0  0.5291
  C  C38  1  0.764900  0.034500  0.241000  1.0  0.5535
  C  C39  1  0.610800  0.962400  0.072400  1.0  0.5303
  C  C40  1  0.675600  0.919700  0.039300  1.0  0.552
  C  C41  1  0.014400  0.259800  0.964700  1.0  0.5918
  C  C42  1  0.016600  0.261300  0.037900  1.0  0.5912
  C  C43  1  0.163300  0.432000  0.957900  1.0  0.5268
  C  C44  1  0.098600  0.467300  0.916600  1.0  0.5322
  C  C45  1  0.358900  0.581500  0.957600  1.0  0.5708
  C  C46  1  0.420000  0.542700  0.916600  1.0  0.5455
  C  C47  1  0.354100  0.417100  0.544300  1.0  0.5536
  C  C48  1  0.416400  0.460300  0.581300  1.0  0.5314
  C  C49  1  0.253100  0.542300  0.739000  1.0  0.5268
  C  C50  1  0.264900  0.465500  0.741000  1.0  0.5549
  C  C51  1  0.110800  0.537600  0.572400  1.0  0.53
  C  C52  1  0.175600  0.580300  0.539300  1.0  0.5532
  C  C53  1  0.514400  0.740200  0.035300  1.0  0.5911
  C  C54  1  0.516600  0.738700  0.962100  1.0  0.5909
  C  C55  1  0.663300  0.568000  0.042100  1.0  0.5272
  C  C56  1  0.598600  0.532700  0.083400  1.0  0.531
  C  C57  1  0.858900  0.418500  0.042400  1.0  0.5721
  C  C58  1  0.920000  0.457300  0.083400  1.0  0.5487
  C  C59  1  0.854100  0.582900  0.455700  1.0  0.5522
  C  C60  1  0.916400  0.539700  0.418700  1.0  0.5305
  C  C61  1  0.753100  0.457700  0.261000  1.0  0.5286
  C  C62  1  0.764900  0.534500  0.259000  1.0  0.5529
  C  C63  1  0.610800  0.462400  0.427600  1.0  0.5299
  C  C64  1  0.675600  0.419700  0.460700  1.0  0.5529
  O  O65  1  0.015800  0.814700  0.561500  1.0  -0.5089
  O  O66  1  0.013000  0.818700  0.438100  1.0  -0.5161
  O  O67  1  0.011200  0.705700  0.561900  1.0  -0.5019
  O  O68  1  0.018700  0.708600  0.433000  1.0  -0.4459
  O  O69  1  0.132700  0.895700  0.498400  1.0  -0.4874
  O  O70  1  0.023200  0.953300  0.569800  1.0  -0.4682
  O  O71  1  0.235700  0.939500  0.553900  1.0  -0.4526
  O  O72  1  0.123800  0.004800  0.623200  1.0  -0.4503
  O  O73  1  0.390900  0.112600  0.495700  1.0  -0.506
  O  O74  1  0.495500  0.047300  0.566900  1.0  -0.4815
  O  O75  1  0.285400  0.079700  0.556500  1.0  -0.4817
  O  O76  1  0.392500  0.012600  0.628200  1.0  -0.473
  O  O77  1  0.381900  0.874500  0.991100  1.0  -0.4868
  O  O78  1  0.489600  0.949400  0.923300  1.0  -0.475
  O  O79  1  0.382400  0.004700  0.884200  1.0  -0.5002
  O  O80  1  0.278500  0.929200  0.945000  1.0  -0.4782
  O  O81  1  0.249300  0.072600  0.711600  1.0  -0.4808
  O  O82  1  0.267800  0.939600  0.707400  1.0  -0.4703
  O  O83  1  0.251300  0.065900  0.816500  1.0  -0.5157
  O  O84  1  0.264800  0.938000  0.812000  1.0  -0.5045
  O  O85  1  0.141200  0.993500  0.891700  1.0  -0.4859
  O  O86  1  0.249500  0.068700  0.947500  1.0  -0.472
  O  O87  1  0.037600  0.047600  0.936800  1.0  -0.4717
  O  O88  1  0.149400  0.123500  0.997200  1.0  -0.4497
  O  O89  1  0.515800  0.185300  0.438500  1.0  -0.5075
  O  O90  1  0.513000  0.181300  0.561900  1.0  -0.5165
  O  O91  1  0.511200  0.294300  0.438100  1.0  -0.5052
  O  O92  1  0.518700  0.291400  0.567000  1.0  -0.4449
  O  O93  1  0.632700  0.104300  0.501600  1.0  -0.4903
  O  O94  1  0.523200  0.046700  0.430200  1.0  -0.4667
  O  O95  1  0.735700  0.060500  0.446100  1.0  -0.4531
  O  O96  1  0.623800  0.995200  0.376800  1.0  -0.4519
  O  O97  1  0.890900  0.887400  0.504300  1.0  -0.5057
  O  O98  1  0.995500  0.952700  0.433100  1.0  -0.4846
  O  O99  1  0.785400  0.920300  0.443500  1.0  -0.4818
  O  O100  1  0.892500  0.987400  0.371800  1.0  -0.4742
  O  O101  1  0.881900  0.125500  0.008900  1.0  -0.4866
  O  O102  1  0.989600  0.050600  0.076700  1.0  -0.4767
  O  O103  1  0.882400  0.995300  0.115800  1.0  -0.5003
  O  O104  1  0.778500  0.070800  0.055000  1.0  -0.4786
  O  O105  1  0.749300  0.927400  0.288400  1.0  -0.4826
  O  O106  1  0.767800  0.060400  0.292600  1.0  -0.4673
  O  O107  1  0.751300  0.934100  0.183500  1.0  -0.5166
  O  O108  1  0.764800  0.062000  0.188000  1.0  -0.5039
  O  O109  1  0.641200  0.006500  0.108300  1.0  -0.4859
  O  O110  1  0.749500  0.931300  0.052500  1.0  -0.4713
  O  O111  1  0.537600  0.952400  0.063200  1.0  -0.4742
  O  O112  1  0.649400  0.876500  0.002800  1.0  -0.449
  O  O113  1  0.015800  0.314700  0.938500  1.0  -0.507
  O  O114  1  0.013000  0.318700  0.061900  1.0  -0.5163
  O  O115  1  0.011200  0.205700  0.938100  1.0  -0.5025
  O  O116  1  0.018700  0.208600  0.067000  1.0  -0.445
  O  O117  1  0.132700  0.395700  0.001600  1.0  -0.4896
  O  O118  1  0.023200  0.453300  0.930200  1.0  -0.4661
  O  O119  1  0.235700  0.439500  0.946100  1.0  -0.4531
  O  O120  1  0.123800  0.504800  0.876800  1.0  -0.4526
  O  O121  1  0.390900  0.612600  0.004300  1.0  -0.5056
  O  O122  1  0.495500  0.547300  0.933100  1.0  -0.4806
  O  O123  1  0.285400  0.579700  0.943500  1.0  -0.4812
  O  O124  1  0.392500  0.512600  0.871800  1.0  -0.4711
  O  O125  1  0.381900  0.374500  0.508900  1.0  -0.4912
  O  O126  1  0.489600  0.449400  0.576700  1.0  -0.4745
  O  O127  1  0.382400  0.504700  0.615800  1.0  -0.5
  O  O128  1  0.278500  0.429200  0.555000  1.0  -0.4783
  O  O129  1  0.249300  0.572600  0.788400  1.0  -0.4788
  O  O130  1  0.267800  0.439600  0.792600  1.0  -0.4706
  O  O131  1  0.251300  0.565900  0.683500  1.0  -0.5165
  O  O132  1  0.264800  0.438000  0.688000  1.0  -0.5038
  O  O133  1  0.141200  0.493500  0.608300  1.0  -0.4856
  O  O134  1  0.249500  0.568700  0.552500  1.0  -0.4726
  O  O135  1  0.037600  0.547600  0.563200  1.0  -0.4714
  O  O136  1  0.149400  0.623500  0.502800  1.0  -0.4514
  O  O137  1  0.515800  0.685300  0.061500  1.0  -0.5088
  O  O138  1  0.513000  0.681300  0.938100  1.0  -0.5161
  O  O139  1  0.511200  0.794300  0.061900  1.0  -0.5059
  O  O140  1  0.518700  0.791400  0.933000  1.0  -0.446
  O  O141  1  0.632700  0.604300  0.998400  1.0  -0.4888
  O  O142  1  0.523200  0.546700  0.069800  1.0  -0.4683
  O  O143  1  0.735700  0.560500  0.053900  1.0  -0.453
  O  O144  1  0.623800  0.495200  0.123200  1.0  -0.4503
  O  O145  1  0.890900  0.387400  0.995700  1.0  -0.5052
  O  O146  1  0.995500  0.452700  0.066900  1.0  -0.4807
  O  O147  1  0.785400  0.420300  0.056500  1.0  -0.4813
  O  O148  1  0.892500  0.487400  0.128200  1.0  -0.4687
  O  O149  1  0.881900  0.625500  0.491100  1.0  -0.4905
  O  O150  1  0.989600  0.550600  0.423300  1.0  -0.4744
  O  O151  1  0.882400  0.495300  0.384200  1.0  -0.5013
  O  O152  1  0.778500  0.570800  0.445000  1.0  -0.478
  O  O153  1  0.749300  0.427400  0.211600  1.0  -0.4825
  O  O154  1  0.767800  0.560400  0.207400  1.0  -0.4685
  O  O155  1  0.751300  0.434100  0.316500  1.0  -0.5167
  O  O156  1  0.764800  0.562000  0.312000  1.0  -0.5031
  O  O157  1  0.641200  0.506500  0.391700  1.0  -0.4864
  O  O158  1  0.749500  0.431300  0.447500  1.0  -0.471
  O  O159  1  0.537600  0.452400  0.436800  1.0  -0.4719
  O  O160  1  0.649400  0.376500  0.497200  1.0  -0.4495
