# generated using pymatgen
data_In2H9C17O12
_symmetry_space_group_name_H-M   'P 1'
_cell_length_a   13.50200000
_cell_length_b   15.46500000
_cell_length_c   32.41600000
_cell_angle_alpha   90.00000000
_cell_angle_beta   90.00000000
_cell_angle_gamma   90.00000000
_symmetry_Int_Tables_number   1
_chemical_formula_structural   In2H9C17O12
_chemical_formula_sum   'In16 H72 C136 O96'
_cell_volume   6768.73406688
_cell_formula_units_Z   8
loop_
 _symmetry_equiv_pos_site_id
 _symmetry_equiv_pos_as_xyz
  1  'x, y, z'
loop_
 _atom_site_type_symbol
 _atom_site_label
 _atom_site_symmetry_multiplicity
 _atom_site_fract_x
 _atom_site_fract_y
 _atom_site_fract_z
 _atom_site_occupancy
 _atom_site_charge
  In  In1  1  0.722370  0.923760  0.658820  1.0  1.6863
  In  In2  1  0.277210  0.818180  0.381540  1.0  1.7492
  In  In3  1  0.777630  0.076240  0.158820  1.0  1.6849
  In  In4  1  0.222790  0.181820  0.881540  1.0  1.7472
  In  In5  1  0.277630  0.423760  0.841180  1.0  1.6842
  In  In6  1  0.722790  0.318180  0.118460  1.0  1.7483
  In  In7  1  0.222370  0.576240  0.341180  1.0  1.6867
  In  In8  1  0.777210  0.681820  0.618460  1.0  1.7472
  In  In9  1  0.277630  0.076240  0.341180  1.0  1.6848
  In  In10  1  0.722790  0.181820  0.618460  1.0  1.7479
  In  In11  1  0.222370  0.923760  0.841180  1.0  1.6863
  In  In12  1  0.777210  0.818180  0.118460  1.0  1.7497
  In  In13  1  0.722370  0.576240  0.158820  1.0  1.6867
  In  In14  1  0.277210  0.681820  0.881540  1.0  1.7475
  In  In15  1  0.777630  0.423760  0.658820  1.0  1.6842
  In  In16  1  0.222790  0.318180  0.381540  1.0  1.7487
  H  H17  1  0.998400  0.992100  0.759600  1.0  0.1365
  H  H18  1  0.027100  0.251100  0.803300  1.0  0.1307
  H  H19  1  0.918100  0.306900  0.755300  1.0  0.1426
  H  H20  1  0.436400  0.719400  0.485200  1.0  0.1267
  H  H21  1  0.534600  0.685500  0.539400  1.0  0.1465
  H  H22  1  0.513200  0.944200  0.577800  1.0  0.159
  H  H23  1  0.405900  0.973300  0.525400  1.0  0.155
  H  H24  1  0.874800  0.845700  0.623100  1.0  0.4019
  H  H25  1  0.776200  0.013200  0.588500  1.0  0.3152
  H  H26  1  0.501600  0.007900  0.259600  1.0  0.1366
  H  H27  1  0.472900  0.748900  0.303300  1.0  0.1316
  H  H28  1  0.581900  0.693100  0.255300  1.0  0.1425
  H  H29  1  0.063600  0.280600  0.985200  1.0  0.1271
  H  H30  1  0.965400  0.314500  0.039400  1.0  0.1462
  H  H31  1  0.986800  0.055800  0.077800  1.0  0.159
  H  H32  1  0.094100  0.026700  0.025400  1.0  0.1557
  H  H33  1  0.625200  0.154300  0.123100  1.0  0.4018
  H  H34  1  0.723800  0.986800  0.088500  1.0  0.3161
  H  H35  1  0.001600  0.492100  0.740400  1.0  0.1365
  H  H36  1  0.972900  0.751100  0.696700  1.0  0.131
  H  H37  1  0.081900  0.806900  0.744700  1.0  0.1431
  H  H38  1  0.563600  0.219400  0.014800  1.0  0.1263
  H  H39  1  0.465400  0.185500  0.960600  1.0  0.1461
  H  H40  1  0.486800  0.444200  0.922200  1.0  0.1587
  H  H41  1  0.594100  0.473300  0.974600  1.0  0.1557
  H  H42  1  0.125200  0.345700  0.876900  1.0  0.4021
  H  H43  1  0.223800  0.513200  0.911500  1.0  0.317
  H  H44  1  0.498400  0.507900  0.240400  1.0  0.1366
  H  H45  1  0.527100  0.248900  0.196700  1.0  0.1312
  H  H46  1  0.418100  0.193100  0.244700  1.0  0.1425
  H  H47  1  0.936400  0.780600  0.514800  1.0  0.1264
  H  H48  1  0.034600  0.814500  0.460600  1.0  0.1466
  H  H49  1  0.013200  0.555800  0.422200  1.0  0.1586
  H  H50  1  0.905900  0.526700  0.474600  1.0  0.155
  H  H51  1  0.374800  0.654300  0.376900  1.0  0.4014
  H  H52  1  0.276200  0.486800  0.411500  1.0  0.3133
  H  H53  1  0.001600  0.007900  0.240400  1.0  0.1366
  H  H54  1  0.972900  0.748900  0.196700  1.0  0.1312
  H  H55  1  0.081900  0.693100  0.244700  1.0  0.1426
  H  H56  1  0.563600  0.280600  0.514800  1.0  0.1264
  H  H57  1  0.465400  0.314500  0.460600  1.0  0.1462
  H  H58  1  0.486800  0.055800  0.422200  1.0  0.1589
  H  H59  1  0.594100  0.026700  0.474600  1.0  0.1559
  H  H60  1  0.125200  0.154300  0.376900  1.0  0.4022
  H  H61  1  0.223800  0.986800  0.411500  1.0  0.3159
  H  H62  1  0.498400  0.992100  0.740400  1.0  0.1365
  H  H63  1  0.527100  0.251100  0.696700  1.0  0.1311
  H  H64  1  0.418100  0.306900  0.744700  1.0  0.1429
  H  H65  1  0.936400  0.719400  0.014800  1.0  0.1264
  H  H66  1  0.034600  0.685500  0.960600  1.0  0.1465
  H  H67  1  0.013200  0.944200  0.922200  1.0  0.1586
  H  H68  1  0.905900  0.973300  0.974600  1.0  0.1555
  H  H69  1  0.374800  0.845700  0.876900  1.0  0.4016
  H  H70  1  0.276200  0.013200  0.911500  1.0  0.314
  H  H71  1  0.998400  0.507900  0.259600  1.0  0.1366
  H  H72  1  0.027100  0.248900  0.303300  1.0  0.1314
  H  H73  1  0.918100  0.193100  0.255300  1.0  0.1424
  H  H74  1  0.436400  0.780600  0.985200  1.0  0.1273
  H  H75  1  0.534600  0.814500  0.039400  1.0  0.1464
  H  H76  1  0.513200  0.555800  0.077800  1.0  0.1593
  H  H77  1  0.405900  0.526700  0.025400  1.0  0.1549
  H  H78  1  0.874800  0.654300  0.123100  1.0  0.4011
  H  H79  1  0.776200  0.486800  0.088500  1.0  0.3152
  H  H80  1  0.501600  0.492100  0.759600  1.0  0.1364
  H  H81  1  0.472900  0.751100  0.803300  1.0  0.1307
  H  H82  1  0.581900  0.806900  0.755300  1.0  0.1428
  H  H83  1  0.063600  0.219400  0.485200  1.0  0.1265
  H  H84  1  0.965400  0.185500  0.539400  1.0  0.1461
  H  H85  1  0.986800  0.444200  0.577800  1.0  0.1587
  H  H86  1  0.094100  0.473300  0.525400  1.0  0.155
  H  H87  1  0.625200  0.345700  0.623100  1.0  0.4024
  H  H88  1  0.723800  0.513200  0.588500  1.0  0.3163
  C  C89  1  0.918900  0.082700  0.730600  1.0  -0.0382
  C  C90  1  0.981800  0.050400  0.757900  1.0  -0.0666
  C  C91  1  0.022100  0.117500  0.785100  1.0  -0.0776
  C  C92  1  0.997300  0.214700  0.784100  1.0  -0.0342
  C  C93  1  0.934800  0.248600  0.756700  1.0  -0.093
  C  C94  1  0.896800  0.183100  0.729800  1.0  -0.1173
  C  C95  1  0.878300  0.004300  0.703000  1.0  0.6195
  C  C96  1  0.836300  0.225800  0.697800  1.0  0.562
  C  C97  1  0.091100  0.084200  0.813800  1.0  0.5558
  C  C98  1  0.361700  0.878700  0.462900  1.0  0.66
  C  C99  1  0.424600  0.857300  0.496700  1.0  -0.113
  C  C100  1  0.458400  0.762100  0.503200  1.0  -0.0123
  C  C101  1  0.516000  0.741700  0.532900  1.0  -0.0831
  C  C102  1  0.550000  0.821800  0.556100  1.0  -0.1445
  C  C103  1  0.501300  0.904300  0.556900  1.0  -0.0578
  C  C104  1  0.439200  0.920800  0.526700  1.0  -0.0777
  C  C105  1  0.621800  0.806200  0.586700  1.0  0.6456
  C  C106  1  0.581100  0.917300  0.230600  1.0  -0.0371
  C  C107  1  0.518200  0.949600  0.257900  1.0  -0.0708
  C  C108  1  0.477900  0.882500  0.285100  1.0  -0.0784
  C  C109  1  0.502700  0.785300  0.284100  1.0  -0.0351
  C  C110  1  0.565200  0.751400  0.256700  1.0  -0.0897
  C  C111  1  0.603200  0.816900  0.229800  1.0  -0.1176
  C  C112  1  0.621700  0.995700  0.203000  1.0  0.6211
  C  C113  1  0.663700  0.774200  0.197800  1.0  0.5632
  C  C114  1  0.408900  0.915800  0.313800  1.0  0.5563
  C  C115  1  0.138300  0.121300  0.962900  1.0  0.6607
  C  C116  1  0.075400  0.142700  0.996700  1.0  -0.1126
  C  C117  1  0.041600  0.237900  0.003200  1.0  -0.0127
  C  C118  1  0.984000  0.258300  0.032900  1.0  -0.0822
  C  C119  1  0.950000  0.178200  0.056100  1.0  -0.1431
  C  C120  1  0.998700  0.095700  0.056900  1.0  -0.058
  C  C121  1  0.060800  0.079200  0.026700  1.0  -0.0782
  C  C122  1  0.878200  0.193800  0.086700  1.0  0.6454
  C  C123  1  0.081100  0.582700  0.769400  1.0  -0.0366
  C  C124  1  0.018200  0.550400  0.742100  1.0  -0.0662
  C  C125  1  0.977900  0.617500  0.714900  1.0  -0.0784
  C  C126  1  0.002700  0.714700  0.715900  1.0  -0.0348
  C  C127  1  0.065200  0.748600  0.743300  1.0  -0.0928
  C  C128  1  0.103200  0.683100  0.770200  1.0  -0.1163
  C  C129  1  0.121700  0.504300  0.797000  1.0  0.6213
  C  C130  1  0.163700  0.725800  0.802200  1.0  0.5626
  C  C131  1  0.908900  0.584200  0.686200  1.0  0.5558
  C  C132  1  0.638300  0.378700  0.037100  1.0  0.6623
  C  C133  1  0.575400  0.357300  0.003300  1.0  -0.1119
  C  C134  1  0.541600  0.262100  0.996800  1.0  -0.0119
  C  C135  1  0.484000  0.241700  0.967100  1.0  -0.0847
  C  C136  1  0.450000  0.321800  0.943900  1.0  -0.144
  C  C137  1  0.498700  0.404300  0.943100  1.0  -0.0603
  C  C138  1  0.560800  0.420800  0.973300  1.0  -0.0783
  C  C139  1  0.378200  0.306200  0.913300  1.0  0.6455
  C  C140  1  0.418900  0.417300  0.269400  1.0  -0.0379
  C  C141  1  0.481800  0.449600  0.242100  1.0  -0.0709
  C  C142  1  0.522100  0.382500  0.214900  1.0  -0.0778
  C  C143  1  0.497300  0.285300  0.215900  1.0  -0.0337
  C  C144  1  0.434800  0.251400  0.243300  1.0  -0.0912
  C  C145  1  0.396800  0.316900  0.270200  1.0  -0.1179
  C  C146  1  0.378300  0.495700  0.297000  1.0  0.6191
  C  C147  1  0.336300  0.274200  0.302200  1.0  0.5627
  C  C148  1  0.591100  0.415800  0.186200  1.0  0.556
  C  C149  1  0.861700  0.621300  0.537100  1.0  0.661
  C  C150  1  0.924600  0.642700  0.503300  1.0  -0.1108
  C  C151  1  0.958400  0.737900  0.496800  1.0  -0.0134
  C  C152  1  0.016000  0.758300  0.467100  1.0  -0.083
  C  C153  1  0.050000  0.678200  0.443900  1.0  -0.1427
  C  C154  1  0.001300  0.595700  0.443100  1.0  -0.0578
  C  C155  1  0.939200  0.579200  0.473300  1.0  -0.0773
  C  C156  1  0.121800  0.693800  0.413300  1.0  0.6451
  C  C157  1  0.081100  0.917300  0.269400  1.0  -0.0367
  C  C158  1  0.018200  0.949600  0.242100  1.0  -0.0706
  C  C159  1  0.977900  0.882500  0.214900  1.0  -0.0782
  C  C160  1  0.002700  0.785300  0.215900  1.0  -0.0349
  C  C161  1  0.065200  0.751400  0.243300  1.0  -0.09
  C  C162  1  0.103200  0.816900  0.270200  1.0  -0.1173
  C  C163  1  0.121700  0.995700  0.297000  1.0  0.6211
  C  C164  1  0.163700  0.774200  0.302200  1.0  0.5633
  C  C165  1  0.908900  0.915800  0.186200  1.0  0.556
  C  C166  1  0.638300  0.121300  0.537100  1.0  0.662
  C  C167  1  0.575400  0.142700  0.503300  1.0  -0.1119
  C  C168  1  0.541600  0.237900  0.496800  1.0  -0.0121
  C  C169  1  0.484000  0.258300  0.467100  1.0  -0.0832
  C  C170  1  0.450000  0.178200  0.443900  1.0  -0.1424
  C  C171  1  0.498700  0.095700  0.443100  1.0  -0.0595
  C  C172  1  0.560800  0.079200  0.473300  1.0  -0.0774
  C  C173  1  0.378200  0.193800  0.413300  1.0  0.6454
  C  C174  1  0.418900  0.082700  0.769400  1.0  -0.038
  C  C175  1  0.481800  0.050400  0.742100  1.0  -0.0665
  C  C176  1  0.522100  0.117500  0.714900  1.0  -0.0777
  C  C177  1  0.497300  0.214700  0.715900  1.0  -0.0343
  C  C178  1  0.434800  0.248600  0.743300  1.0  -0.0936
  C  C179  1  0.396800  0.183100  0.770200  1.0  -0.1169
  C  C180  1  0.378300  0.004300  0.797000  1.0  0.6196
  C  C181  1  0.336300  0.225800  0.802200  1.0  0.562
  C  C182  1  0.591100  0.084200  0.686200  1.0  0.5555
  C  C183  1  0.861700  0.878700  0.037100  1.0  0.6613
  C  C184  1  0.924600  0.857300  0.003300  1.0  -0.1112
  C  C185  1  0.958400  0.762100  0.996800  1.0  -0.0129
  C  C186  1  0.016000  0.741700  0.967100  1.0  -0.0837
  C  C187  1  0.050000  0.821800  0.943900  1.0  -0.1439
  C  C188  1  0.001300  0.904300  0.943100  1.0  -0.0587
  C  C189  1  0.939200  0.920800  0.973300  1.0  -0.0768
  C  C190  1  0.121800  0.806200  0.913300  1.0  0.6453
  C  C191  1  0.918900  0.417300  0.230600  1.0  -0.0383
  C  C192  1  0.981800  0.449600  0.257900  1.0  -0.0711
  C  C193  1  0.022100  0.382500  0.285100  1.0  -0.0776
  C  C194  1  0.997300  0.285300  0.284100  1.0  -0.0339
  C  C195  1  0.934800  0.251400  0.256700  1.0  -0.0908
  C  C196  1  0.896800  0.316900  0.229800  1.0  -0.118
  C  C197  1  0.878300  0.495700  0.203000  1.0  0.6191
  C  C198  1  0.836300  0.274200  0.197800  1.0  0.5625
  C  C199  1  0.091100  0.415800  0.313800  1.0  0.5557
  C  C200  1  0.361700  0.621300  0.962900  1.0  0.6602
  C  C201  1  0.424600  0.642700  0.996700  1.0  -0.112
  C  C202  1  0.458400  0.737900  0.003200  1.0  -0.0139
  C  C203  1  0.516000  0.758300  0.032900  1.0  -0.0818
  C  C204  1  0.550000  0.678200  0.056100  1.0  -0.1434
  C  C205  1  0.501300  0.595700  0.056900  1.0  -0.0572
  C  C206  1  0.439200  0.579200  0.026700  1.0  -0.078
  C  C207  1  0.621800  0.693800  0.086700  1.0  0.6453
  C  C208  1  0.581100  0.582700  0.730600  1.0  -0.0368
  C  C209  1  0.518200  0.550400  0.757900  1.0  -0.0664
  C  C210  1  0.477900  0.617500  0.785100  1.0  -0.0787
  C  C211  1  0.502700  0.714700  0.784100  1.0  -0.0351
  C  C212  1  0.565200  0.748600  0.756700  1.0  -0.0919
  C  C213  1  0.603200  0.683100  0.729800  1.0  -0.1168
  C  C214  1  0.621700  0.504300  0.703000  1.0  0.6213
  C  C215  1  0.663700  0.725800  0.697800  1.0  0.5627
  C  C216  1  0.408900  0.584200  0.813800  1.0  0.5566
  C  C217  1  0.138300  0.378700  0.462900  1.0  0.6606
  C  C218  1  0.075400  0.357300  0.496700  1.0  -0.1133
  C  C219  1  0.041600  0.262100  0.503200  1.0  -0.0117
  C  C220  1  0.984000  0.241700  0.532900  1.0  -0.0839
  C  C221  1  0.950000  0.321800  0.556100  1.0  -0.1447
  C  C222  1  0.998700  0.404300  0.556900  1.0  -0.0585
  C  C223  1  0.060800  0.420800  0.526700  1.0  -0.0789
  C  C224  1  0.878200  0.306200  0.586700  1.0  0.6455
  O  O225  1  0.796600  0.993400  0.706830  1.0  -0.5268
  O  O226  1  0.923600  0.953200  0.681100  1.0  -0.5077
  O  O227  1  0.807800  0.310400  0.704410  1.0  -0.5807
  O  O228  1  0.822900  0.174500  0.666130  1.0  -0.586
  O  O229  1  0.122700  0.149000  0.836200  1.0  -0.6492
  O  O230  1  0.112800  0.996200  0.812990  1.0  -0.6027
  O  O231  1  0.363900  0.820600  0.432500  1.0  -0.5814
  O  O232  1  0.314400  0.952400  0.465000  1.0  -0.4944
  O  O233  1  0.673700  0.736200  0.579410  1.0  -0.5884
  O  O234  1  0.622900  0.863000  0.617440  1.0  -0.6083
  O  O235  1  0.812200  0.827400  0.631300  1.0  -0.7823
  O  O236  1  0.749700  0.031100  0.613530  1.0  -0.7695
  O  O237  1  0.703400  0.006600  0.206830  1.0  -0.5258
  O  O238  1  0.576400  0.046800  0.181100  1.0  -0.507
  O  O239  1  0.692200  0.689600  0.204410  1.0  -0.5822
  O  O240  1  0.677100  0.825500  0.166130  1.0  -0.5852
  O  O241  1  0.377300  0.851000  0.336200  1.0  -0.6501
  O  O242  1  0.387200  0.003800  0.312990  1.0  -0.6024
  O  O243  1  0.136100  0.179400  0.932500  1.0  -0.5832
  O  O244  1  0.185600  0.047600  0.965000  1.0  -0.4962
  O  O245  1  0.826300  0.263800  0.079410  1.0  -0.5888
  O  O246  1  0.877100  0.137000  0.117440  1.0  -0.608
  O  O247  1  0.687800  0.172600  0.131300  1.0  -0.7821
  O  O248  1  0.750300  0.968900  0.113530  1.0  -0.7691
  O  O249  1  0.203400  0.493400  0.793170  1.0  -0.526
  O  O250  1  0.076400  0.453200  0.818900  1.0  -0.5056
  O  O251  1  0.192200  0.810400  0.795590  1.0  -0.5815
  O  O252  1  0.177100  0.674500  0.833870  1.0  -0.5851
  O  O253  1  0.877300  0.649000  0.663800  1.0  -0.6489
  O  O254  1  0.887200  0.496200  0.687010  1.0  -0.6027
  O  O255  1  0.636100  0.320600  0.067500  1.0  -0.5821
  O  O256  1  0.685600  0.452400  0.035000  1.0  -0.4939
  O  O257  1  0.326300  0.236200  0.920590  1.0  -0.5895
  O  O258  1  0.377100  0.363000  0.882560  1.0  -0.6046
  O  O259  1  0.187800  0.327400  0.868700  1.0  -0.782
  O  O260  1  0.250300  0.531100  0.886470  1.0  -0.7718
  O  O261  1  0.296600  0.506600  0.293170  1.0  -0.527
  O  O262  1  0.423600  0.546800  0.318900  1.0  -0.5079
  O  O263  1  0.307800  0.189600  0.295590  1.0  -0.582
  O  O264  1  0.322900  0.325500  0.333870  1.0  -0.5855
  O  O265  1  0.622700  0.351000  0.163800  1.0  -0.6489
  O  O266  1  0.612800  0.503800  0.187010  1.0  -0.6028
  O  O267  1  0.863900  0.679400  0.567500  1.0  -0.5831
  O  O268  1  0.814400  0.547600  0.535000  1.0  -0.4949
  O  O269  1  0.173700  0.763800  0.420590  1.0  -0.5878
  O  O270  1  0.122900  0.637000  0.382560  1.0  -0.6066
  O  O271  1  0.312200  0.672600  0.368700  1.0  -0.7826
  O  O272  1  0.249700  0.468900  0.386470  1.0  -0.7724
  O  O273  1  0.203400  0.006600  0.293170  1.0  -0.5259
  O  O274  1  0.076400  0.046800  0.318900  1.0  -0.5062
  O  O275  1  0.192200  0.689600  0.295590  1.0  -0.5837
  O  O276  1  0.177100  0.825500  0.333870  1.0  -0.5851
  O  O277  1  0.877300  0.851000  0.163800  1.0  -0.6496
  O  O278  1  0.887200  0.003800  0.187010  1.0  -0.6026
  O  O279  1  0.636100  0.179400  0.567500  1.0  -0.5836
  O  O280  1  0.685600  0.047600  0.535000  1.0  -0.4957
  O  O281  1  0.326300  0.263800  0.420590  1.0  -0.5888
  O  O282  1  0.377100  0.137000  0.382560  1.0  -0.6053
  O  O283  1  0.187800  0.172600  0.368700  1.0  -0.7819
  O  O284  1  0.250300  0.968900  0.386470  1.0  -0.772
  O  O285  1  0.296600  0.993400  0.793170  1.0  -0.5269
  O  O286  1  0.423600  0.953200  0.818900  1.0  -0.5072
  O  O287  1  0.307800  0.310400  0.795590  1.0  -0.5816
  O  O288  1  0.322900  0.174500  0.833870  1.0  -0.5857
  O  O289  1  0.622700  0.149000  0.663800  1.0  -0.6488
  O  O290  1  0.612800  0.996200  0.687010  1.0  -0.6026
  O  O291  1  0.863900  0.820600  0.067500  1.0  -0.582
  O  O292  1  0.814400  0.952400  0.035000  1.0  -0.4935
  O  O293  1  0.173700  0.736200  0.920590  1.0  -0.588
  O  O294  1  0.122900  0.863000  0.882560  1.0  -0.6059
  O  O295  1  0.312200  0.827400  0.868700  1.0  -0.7829
  O  O296  1  0.249700  0.031100  0.886470  1.0  -0.772
  O  O297  1  0.796600  0.506600  0.206830  1.0  -0.5271
  O  O298  1  0.923600  0.546800  0.181100  1.0  -0.5081
  O  O299  1  0.807800  0.189600  0.204410  1.0  -0.5825
  O  O300  1  0.822900  0.325500  0.166130  1.0  -0.5856
  O  O301  1  0.122700  0.351000  0.336200  1.0  -0.6496
  O  O302  1  0.112800  0.503800  0.312990  1.0  -0.6027
  O  O303  1  0.363900  0.679400  0.932500  1.0  -0.582
  O  O304  1  0.314400  0.547600  0.965000  1.0  -0.4931
  O  O305  1  0.673700  0.763800  0.079410  1.0  -0.5876
  O  O306  1  0.622900  0.637000  0.117440  1.0  -0.6086
  O  O307  1  0.812200  0.672600  0.131300  1.0  -0.7825
  O  O308  1  0.749700  0.468900  0.113530  1.0  -0.7699
  O  O309  1  0.703400  0.493400  0.706830  1.0  -0.5257
  O  O310  1  0.576400  0.453200  0.681100  1.0  -0.5073
  O  O311  1  0.692200  0.810400  0.704410  1.0  -0.5822
  O  O312  1  0.677100  0.674500  0.666130  1.0  -0.5856
  O  O313  1  0.377300  0.649000  0.836200  1.0  -0.6493
  O  O314  1  0.387200  0.496200  0.812990  1.0  -0.6026
  O  O315  1  0.136100  0.320600  0.432500  1.0  -0.5822
  O  O316  1  0.185600  0.452400  0.465000  1.0  -0.4932
  O  O317  1  0.826300  0.236200  0.579410  1.0  -0.59
  O  O318  1  0.877100  0.363000  0.617440  1.0  -0.6076
  O  O319  1  0.687800  0.327400  0.631300  1.0  -0.7816
  O  O320  1  0.750300  0.531100  0.613530  1.0  -0.7688
