# generated using pymatgen
data_CdCuH4(C3O4)2
_symmetry_space_group_name_H-M   'P 1'
_cell_length_a   6.62600000
_cell_length_b   13.05200000
_cell_length_c   13.95800000
_cell_angle_alpha   90.00000000
_cell_angle_beta   90.00000000
_cell_angle_gamma   90.00000000
_symmetry_Int_Tables_number   1
_chemical_formula_structural   CdCuH4(C3O4)2
_chemical_formula_sum   'Cd4 Cu4 H16 C24 O32'
_cell_volume   1207.12346082
_cell_formula_units_Z   4
loop_
 _symmetry_equiv_pos_site_id
 _symmetry_equiv_pos_as_xyz
  1  'x, y, z'
loop_
 _atom_site_type_symbol
 _atom_site_label
 _atom_site_symmetry_multiplicity
 _atom_site_fract_x
 _atom_site_fract_y
 _atom_site_fract_z
 _atom_site_occupancy
 _atom_site_charge
  Cd  Cd1  1  0.000000  0.250000  0.774230  1.0  1.1106
  Cd  Cd2  1  0.500000  0.750000  0.725770  1.0  1.11
  Cd  Cd3  1  0.000000  0.750000  0.225770  1.0  1.11
  Cd  Cd4  1  0.500000  0.250000  0.274230  1.0  1.1106
  Cu  Cu5  1  0.500000  0.500000  0.500000  1.0  1.0052
  Cu  Cu6  1  0.000000  0.000000  0.000000  1.0  1.0052
  Cu  Cu7  1  0.500000  0.000000  0.500000  1.0  1.0052
  Cu  Cu8  1  0.000000  0.500000  0.000000  1.0  1.0052
  H  H9  1  0.433600  0.381500  0.723600  1.0  0.1882
  H  H10  1  0.644100  0.397600  0.771400  1.0  0.1678
  H  H11  1  0.066400  0.881500  0.776400  1.0  0.1894
  H  H12  1  0.855900  0.897600  0.728600  1.0  0.1667
  H  H13  1  0.566400  0.118500  0.723600  1.0  0.1884
  H  H14  1  0.355900  0.102400  0.771400  1.0  0.1672
  H  H15  1  0.933600  0.618500  0.776400  1.0  0.1882
  H  H16  1  0.144100  0.602400  0.728600  1.0  0.1665
  H  H17  1  0.566400  0.618500  0.276400  1.0  0.189
  H  H18  1  0.355900  0.602400  0.228600  1.0  0.1665
  H  H19  1  0.933600  0.118500  0.223600  1.0  0.1878
  H  H20  1  0.144100  0.102400  0.271400  1.0  0.1672
  H  H21  1  0.433600  0.881500  0.276400  1.0  0.1881
  H  H22  1  0.644100  0.897600  0.228600  1.0  0.167
  H  H23  1  0.066400  0.381500  0.223600  1.0  0.1894
  H  H24  1  0.855900  0.397600  0.271400  1.0  0.1676
  C  C25  1  0.665700  0.350700  0.632980  1.0  0.7851
  C  C26  1  0.566900  0.410100  0.713500  1.0  -0.5746
  C  C27  1  0.544000  0.524500  0.702500  1.0  0.7676
  C  C28  1  0.834300  0.850700  0.867020  1.0  0.7866
  C  C29  1  0.933100  0.910100  0.786500  1.0  -0.5715
  C  C30  1  0.956000  0.024500  0.797500  1.0  0.7681
  C  C31  1  0.334300  0.149300  0.632980  1.0  0.7857
  C  C32  1  0.433100  0.089900  0.713500  1.0  -0.5746
  C  C33  1  0.456000  0.975500  0.702500  1.0  0.7674
  C  C34  1  0.165700  0.649300  0.867020  1.0  0.7868
  C  C35  1  0.066900  0.589900  0.786500  1.0  -0.5727
  C  C36  1  0.044000  0.475500  0.797500  1.0  0.7681
  C  C37  1  0.334300  0.649300  0.367020  1.0  0.7863
  C  C38  1  0.433100  0.589900  0.286500  1.0  -0.5725
  C  C39  1  0.456000  0.475500  0.297500  1.0  0.768
  C  C40  1  0.165700  0.149300  0.132980  1.0  0.7849
  C  C41  1  0.066900  0.089900  0.213500  1.0  -0.5752
  C  C42  1  0.044000  0.975500  0.202500  1.0  0.7677
  C  C43  1  0.665700  0.850700  0.367020  1.0  0.7869
  C  C44  1  0.566900  0.910100  0.286500  1.0  -0.5718
  C  C45  1  0.544000  0.024500  0.297500  1.0  0.768
  C  C46  1  0.834300  0.350700  0.132980  1.0  0.7859
  C  C47  1  0.933100  0.410100  0.213500  1.0  -0.5739
  C  C48  1  0.956000  0.524500  0.202500  1.0  0.7676
  O  O49  1  0.763100  0.272350  0.653500  1.0  -0.5935
  O  O50  1  0.637600  0.378080  0.546910  1.0  -0.5975
  O  O51  1  0.493300  0.563410  0.623230  1.0  -0.6544
  O  O52  1  0.566000  0.580420  0.773970  1.0  -0.5472
  O  O53  1  0.736900  0.772350  0.846500  1.0  -0.5939
  O  O54  1  0.862400  0.878080  0.953090  1.0  -0.5997
  O  O55  1  0.006700  0.063410  0.876770  1.0  -0.6544
  O  O56  1  0.934000  0.080420  0.726030  1.0  -0.5469
  O  O57  1  0.236900  0.227650  0.653500  1.0  -0.5951
  O  O58  1  0.362400  0.121920  0.546910  1.0  -0.5981
  O  O59  1  0.506700  0.936590  0.623230  1.0  -0.655
  O  O60  1  0.434000  0.919580  0.773970  1.0  -0.5439
  O  O61  1  0.263100  0.727650  0.846500  1.0  -0.5954
  O  O62  1  0.137600  0.621920  0.953090  1.0  -0.5998
  O  O63  1  0.993300  0.436590  0.876770  1.0  -0.6542
  O  O64  1  0.066000  0.419580  0.726030  1.0  -0.5453
  O  O65  1  0.236900  0.727650  0.346500  1.0  -0.596
  O  O66  1  0.362400  0.621920  0.453090  1.0  -0.6005
  O  O67  1  0.506700  0.436590  0.376770  1.0  -0.654
  O  O68  1  0.434000  0.419580  0.226030  1.0  -0.5449
  O  O69  1  0.263100  0.227650  0.153500  1.0  -0.5948
  O  O70  1  0.137600  0.121920  0.046910  1.0  -0.5983
  O  O71  1  0.993300  0.936590  0.123230  1.0  -0.6552
  O  O72  1  0.066000  0.919580  0.273970  1.0  -0.5441
  O  O73  1  0.763100  0.772350  0.346500  1.0  -0.594
  O  O74  1  0.637600  0.878080  0.453090  1.0  -0.5992
  O  O75  1  0.493300  0.063410  0.376770  1.0  -0.6548
  O  O76  1  0.566000  0.080420  0.226030  1.0  -0.5473
  O  O77  1  0.736900  0.272350  0.153500  1.0  -0.5938
  O  O78  1  0.862400  0.378080  0.046910  1.0  -0.5974
  O  O79  1  0.006700  0.563410  0.123230  1.0  -0.6546
  O  O80  1  0.934000  0.580420  0.273970  1.0  -0.547
