# generated using pymatgen
data_CdCuH4(C3O4)2
_symmetry_space_group_name_H-M   'P 1'
_cell_length_a   6.62240000
_cell_length_b   13.04070000
_cell_length_c   13.97720000
_cell_angle_alpha   90.00000000
_cell_angle_beta   90.00000000
_cell_angle_gamma   90.00000000
_symmetry_Int_Tables_number   1
_chemical_formula_structural   CdCuH4(C3O4)2
_chemical_formula_sum   'Cd4 Cu4 H16 C24 O32'
_cell_volume   1207.08121884
_cell_formula_units_Z   4
loop_
 _symmetry_equiv_pos_site_id
 _symmetry_equiv_pos_as_xyz
  1  'x, y, z'
loop_
 _atom_site_type_symbol
 _atom_site_label
 _atom_site_symmetry_multiplicity
 _atom_site_fract_x
 _atom_site_fract_y
 _atom_site_fract_z
 _atom_site_occupancy
 _atom_site_charge
  Cd  Cd1  1  0.000000  0.750000  0.774060  1.0  1.1071
  Cd  Cd2  1  0.500000  0.750000  0.274060  1.0  1.1071
  Cd  Cd3  1  0.000000  0.250000  0.225940  1.0  1.1066
  Cd  Cd4  1  0.500000  0.250000  0.725940  1.0  1.1066
  Cu  Cu5  1  0.500000  0.000000  0.500000  1.0  0.9996
  Cu  Cu6  1  0.500000  0.500000  0.500000  1.0  0.9996
  Cu  Cu7  1  0.000000  0.000000  0.000000  1.0  0.9996
  Cu  Cu8  1  0.000000  0.500000  0.000000  1.0  0.9996
  H  H9  1  0.355200  0.897800  0.770900  1.0  0.1691
  H  H10  1  0.434100  0.618500  0.723300  1.0  0.188
  H  H11  1  0.934100  0.381500  0.776700  1.0  0.1884
  H  H12  1  0.144800  0.897800  0.270900  1.0  0.1693
  H  H13  1  0.934100  0.881500  0.223300  1.0  0.1884
  H  H14  1  0.065900  0.118500  0.776700  1.0  0.1888
  H  H15  1  0.144800  0.397800  0.729100  1.0  0.1686
  H  H16  1  0.644800  0.602200  0.770900  1.0  0.1688
  H  H17  1  0.565900  0.381500  0.276700  1.0  0.1893
  H  H18  1  0.065900  0.618500  0.223300  1.0  0.1883
  H  H19  1  0.644800  0.102200  0.229100  1.0  0.1681
  H  H20  1  0.355200  0.397800  0.229100  1.0  0.1682
  H  H21  1  0.855200  0.602200  0.270900  1.0  0.1687
  H  H22  1  0.434100  0.118500  0.276700  1.0  0.1884
  H  H23  1  0.565900  0.881500  0.723300  1.0  0.1892
  H  H24  1  0.855200  0.102200  0.729100  1.0  0.1681
  C  C25  1  0.067400  0.410290  0.786880  1.0  -0.5655
  C  C26  1  0.666100  0.649320  0.632810  1.0  0.7901
  C  C27  1  0.166100  0.850680  0.132810  1.0  0.7905
  C  C28  1  0.067400  0.910290  0.213120  1.0  -0.5666
  C  C29  1  0.166100  0.350680  0.867190  1.0  0.7924
  C  C30  1  0.543800  0.475480  0.702520  1.0  0.7745
  C  C31  1  0.932600  0.589710  0.213120  1.0  -0.5663
  C  C32  1  0.333900  0.850680  0.632810  1.0  0.7809
  C  C33  1  0.432600  0.910290  0.713120  1.0  -0.5643
  C  C34  1  0.567400  0.089710  0.286880  1.0  -0.5663
  C  C35  1  0.956200  0.975480  0.797480  1.0  0.7749
  C  C36  1  0.956200  0.475480  0.202520  1.0  0.7743
  C  C37  1  0.833900  0.149320  0.867190  1.0  0.7917
  C  C38  1  0.043800  0.024520  0.202520  1.0  0.7746
  C  C39  1  0.543800  0.975480  0.297480  1.0  0.7692
  C  C40  1  0.456200  0.024520  0.702520  1.0  0.7744
  C  C41  1  0.666100  0.149320  0.367190  1.0  0.7923
  C  C42  1  0.333900  0.350680  0.367190  1.0  0.7921
  C  C43  1  0.932600  0.089710  0.786880  1.0  -0.566
  C  C44  1  0.432600  0.410290  0.286880  1.0  -0.5637
  C  C45  1  0.833900  0.649320  0.132810  1.0  0.7818
  C  C46  1  0.043800  0.524520  0.797480  1.0  0.7753
  C  C47  1  0.456200  0.524520  0.297480  1.0  0.7752
  C  C48  1  0.567400  0.589710  0.713120  1.0  -0.5658
  O  O49  1  0.493300  0.936770  0.376970  1.0  -0.651
  O  O50  1  0.638000  0.121760  0.453360  1.0  -0.5994
  O  O51  1  0.006700  0.936770  0.876970  1.0  -0.6507
  O  O52  1  0.993300  0.563230  0.876970  1.0  -0.6513
  O  O53  1  0.493300  0.436770  0.623030  1.0  -0.6521
  O  O54  1  0.506700  0.563230  0.376970  1.0  -0.6508
  O  O55  1  0.006700  0.436770  0.123030  1.0  -0.6519
  O  O56  1  0.566100  0.919750  0.226300  1.0  -0.5582
  O  O57  1  0.066100  0.580250  0.726300  1.0  -0.5594
  O  O58  1  0.362000  0.378240  0.453360  1.0  -0.5993
  O  O59  1  0.736600  0.727830  0.153300  1.0  -0.6012
  O  O60  1  0.763400  0.727830  0.653300  1.0  -0.6011
  O  O61  1  0.862000  0.121760  0.953360  1.0  -0.5999
  O  O62  1  0.763400  0.227830  0.346700  1.0  -0.6015
  O  O63  1  0.433900  0.080250  0.773700  1.0  -0.5589
  O  O64  1  0.638000  0.621760  0.546640  1.0  -0.5956
  O  O65  1  0.263400  0.272170  0.846700  1.0  -0.6004
  O  O66  1  0.236600  0.772170  0.653300  1.0  -0.5996
  O  O67  1  0.506700  0.063230  0.623030  1.0  -0.6512
  O  O68  1  0.993300  0.063230  0.123030  1.0  -0.6511
  O  O69  1  0.362000  0.878240  0.546640  1.0  -0.5966
  O  O70  1  0.236600  0.272170  0.346700  1.0  -0.5998
  O  O71  1  0.066100  0.080250  0.273700  1.0  -0.559
  O  O72  1  0.138000  0.878240  0.046640  1.0  -0.5967
  O  O73  1  0.933900  0.919750  0.726300  1.0  -0.5577
  O  O74  1  0.263400  0.772170  0.153300  1.0  -0.5998
  O  O75  1  0.736600  0.227830  0.846700  1.0  -0.6019
  O  O76  1  0.433900  0.580250  0.226300  1.0  -0.5591
  O  O77  1  0.138000  0.378240  0.953360  1.0  -0.5976
  O  O78  1  0.933900  0.419750  0.273700  1.0  -0.5563
  O  O79  1  0.862000  0.621760  0.046640  1.0  -0.5973
  O  O80  1  0.566100  0.419750  0.773700  1.0  -0.5567
