# generated using pymatgen
data_GdNiH6C15(NO5)2
_symmetry_space_group_name_H-M   'P 1'
_cell_length_a   9.99620000
_cell_length_b   10.62600000
_cell_length_c   10.82730000
_cell_angle_alpha   80.55200000
_cell_angle_beta   73.11700000
_cell_angle_gamma   74.12900000
_symmetry_Int_Tables_number   1
_chemical_formula_structural   GdNiH6C15(NO5)2
_chemical_formula_sum   'Gd2 Ni2 H12 C30 N4 O20'
_cell_volume   1054.05716990
_cell_formula_units_Z   2
loop_
 _symmetry_equiv_pos_site_id
 _symmetry_equiv_pos_as_xyz
  1  'x, y, z'
loop_
 _atom_site_type_symbol
 _atom_site_label
 _atom_site_symmetry_multiplicity
 _atom_site_fract_x
 _atom_site_fract_y
 _atom_site_fract_z
 _atom_site_occupancy
 _atom_site_charge
  Gd  Gd1  1  0.674840  0.692830  0.036670  1.0  2.1572
  Gd  Gd2  1  0.325160  0.307170  0.963330  1.0  2.1559
  Ni  Ni3  1  0.786850  0.867530  0.620090  1.0  0.7716
  Ni  Ni4  1  0.213150  0.132470  0.379910  1.0  0.7704
  H  H5  1  0.563800  0.694400  0.739800  1.0  0.0746
  H  H6  1  0.365700  0.665400  0.690700  1.0  0.1049
  H  H7  1  0.319000  0.755700  0.493900  1.0  0.0997
  H  H8  1  0.983200  0.269900  0.620300  1.0  0.0809
  H  H9  1  0.775800  0.436000  0.652700  1.0  0.1059
  H  H10  1  0.699700  0.552500  0.474100  1.0  0.0944
  H  H11  1  0.436200  0.305600  0.260200  1.0  0.0743
  H  H12  1  0.634300  0.334600  0.309300  1.0  0.1046
  H  H13  1  0.681000  0.244300  0.506100  1.0  0.0992
  H  H14  1  0.016800  0.730100  0.379700  1.0  0.0809
  H  H15  1  0.224200  0.564000  0.347300  1.0  0.105
  H  H16  1  0.300300  0.447500  0.525900  1.0  0.0947
  C  C17  1  0.545000  0.731100  0.660700  1.0  0.1457
  C  C18  1  0.426300  0.712800  0.631800  1.0  -0.1186
  C  C19  1  0.399300  0.765800  0.514500  1.0  -0.0247
  C  C20  1  0.492700  0.835000  0.426200  1.0  -0.0994
  C  C21  1  0.608900  0.850600  0.462700  1.0  0.0961
  C  C22  1  0.714200  0.929900  0.380600  1.0  0.6367
  C  C23  1  0.466400  0.883500  0.294800  1.0  0.7473
  C  C24  1  0.954200  0.318300  0.548900  1.0  0.1545
  C  C25  1  0.829100  0.417000  0.569100  1.0  -0.1167
  C  C26  1  0.784700  0.487100  0.462500  1.0  -0.0212
  C  C27  1  0.867500  0.459600  0.338300  1.0  -0.0848
  C  C28  1  0.993300  0.361200  0.326800  1.0  0.1128
  C  C29  1  0.099100  0.329700  0.198900  1.0  0.6921
  C  C30  1  0.814200  0.538000  0.224000  1.0  0.6835
  C  C31  1  0.440300  0.522800  0.060900  1.0  0.5502
  C  C32  1  0.455000  0.268900  0.339300  1.0  0.1464
  C  C33  1  0.573700  0.287200  0.368200  1.0  -0.1176
  C  C34  1  0.600700  0.234200  0.485500  1.0  -0.0266
  C  C35  1  0.507300  0.165000  0.573800  1.0  -0.0995
  C  C36  1  0.391100  0.149400  0.537300  1.0  0.0966
  C  C37  1  0.285800  0.070100  0.619400  1.0  0.6338
  C  C38  1  0.533600  0.116500  0.705200  1.0  0.7494
  C  C39  1  0.045800  0.681700  0.451100  1.0  0.153
  C  C40  1  0.170900  0.583000  0.430900  1.0  -0.1148
  C  C41  1  0.215300  0.512900  0.537500  1.0  -0.0215
  C  C42  1  0.132500  0.540400  0.661700  1.0  -0.0849
  C  C43  1  0.006700  0.638800  0.673200  1.0  0.114
  C  C44  1  0.900900  0.670300  0.801100  1.0  0.6932
  C  C45  1  0.185800  0.462000  0.776000  1.0  0.684
  C  C46  1  0.559700  0.477200  0.939100  1.0  0.551
  N  N47  1  0.633600  0.799600  0.579200  1.0  -0.2936
  N  N48  1  0.034700  0.290200  0.430100  1.0  -0.3239
  N  N49  1  0.366400  0.200400  0.420800  1.0  -0.2939
  N  N50  1  0.965300  0.709800  0.569900  1.0  -0.3276
  O  O51  1  0.801900  0.948400  0.435460  1.0  -0.5898
  O  O52  1  0.706300  0.973300  0.268470  1.0  -0.5292
  O  O53  1  0.526400  0.804600  0.209680  1.0  -0.7425
  O  O54  1  0.382900  0.991900  0.277350  1.0  -0.6783
  O  O55  1  0.079000  0.396100  0.097020  1.0  -0.6094
  O  O56  1  0.211900  0.238400  0.200670  1.0  -0.6341
  O  O57  1  0.746500  0.489200  0.171100  1.0  -0.5951
  O  O58  1  0.830300  0.652700  0.193500  1.0  -0.6148
  O  O59  1  0.456500  0.608300  0.117500  1.0  -0.6169
  O  O60  1  0.336300  0.468300  0.093140  1.0  -0.6145
  O  O61  1  0.198100  0.051600  0.564540  1.0  -0.5901
  O  O62  1  0.293700  0.026700  0.731530  1.0  -0.5304
  O  O63  1  0.473600  0.195400  0.790320  1.0  -0.7413
  O  O64  1  0.617100  0.008100  0.722650  1.0  -0.6778
  O  O65  1  0.921000  0.603900  0.902980  1.0  -0.6106
  O  O66  1  0.788100  0.761600  0.799330  1.0  -0.6291
  O  O67  1  0.253500  0.510800  0.828900  1.0  -0.596
  O  O68  1  0.169700  0.347300  0.806500  1.0  -0.6159
  O  O69  1  0.543500  0.391700  0.882500  1.0  -0.6149
  O  O70  1  0.663700  0.531700  0.906860  1.0  -0.6148
