# generated using pymatgen
data_MnGe2H8C6S3O4
_symmetry_space_group_name_H-M   'P 1'
_cell_length_a   12.31100000
_cell_length_b   14.04900000
_cell_length_c   14.18100000
_cell_angle_alpha   116.92000000
_cell_angle_beta   111.72000000
_cell_angle_gamma   91.66000000
_symmetry_Int_Tables_number   1
_chemical_formula_structural   MnGe2H8C6S3O4
_chemical_formula_sum   'Mn4 Ge8 H32 C24 S12 O16'
_cell_volume   1973.66255495
_cell_formula_units_Z   4
loop_
 _symmetry_equiv_pos_site_id
 _symmetry_equiv_pos_as_xyz
  1  'x, y, z'
loop_
 _atom_site_type_symbol
 _atom_site_label
 _atom_site_symmetry_multiplicity
 _atom_site_fract_x
 _atom_site_fract_y
 _atom_site_fract_z
 _atom_site_occupancy
 _atom_site_charge
  Mn  Mn1  1  0.811530  0.652640  0.209340  1.0  1.0598
  Mn  Mn2  1  0.188470  0.347360  0.790660  1.0  1.0605
  Mn  Mn3  1  0.500000  0.500000  0.000000  1.0  1.1069
  Mn  Mn4  1  0.000000  0.500000  0.000000  1.0  1.0004
  Ge  Ge5  1  0.634620  0.111290  0.867850  1.0  1.1155
  Ge  Ge6  1  0.340250  0.966230  0.653620  1.0  1.0997
  Ge  Ge7  1  0.518890  0.853370  0.810010  1.0  1.0688
  Ge  Ge8  1  0.589220  0.883940  0.604970  1.0  1.0717
  Ge  Ge9  1  0.365380  0.888710  0.132150  1.0  1.1182
  Ge  Ge10  1  0.659750  0.033770  0.346380  1.0  1.0993
  Ge  Ge11  1  0.481110  0.146630  0.189990  1.0  1.0706
  Ge  Ge12  1  0.410780  0.116060  0.395030  1.0  1.0699
  H  H13  1  0.807000  0.259200  0.028700  1.0  0.1171
  H  H14  1  0.689800  0.290000  0.041600  1.0  0.099
  H  H15  1  0.645300  0.317700  0.872500  1.0  0.0624
  H  H16  1  0.780500  0.317200  0.896400  1.0  0.0738
  H  H17  1  0.204800  0.082200  0.620500  1.0  0.0982
  H  H18  1  0.138800  0.991800  0.629200  1.0  0.13
  H  H19  1  0.058500  0.983300  0.440800  1.0  0.0377
  H  H20  1  0.169500  0.938500  0.425900  1.0  0.0896
  H  H21  1  0.490800  0.684700  0.816600  1.0  0.1125
  H  H22  1  0.460500  0.776600  0.912200  1.0  0.1279
  H  H23  1  0.698200  0.770000  0.937600  1.0  0.0831
  H  H24  1  0.664600  0.855600  0.034200  1.0  0.0882
  H  H25  1  0.723400  0.806300  0.516900  1.0  0.1271
  H  H26  1  0.658400  0.875800  0.462700  1.0  0.1295
  H  H27  1  0.552500  0.662400  0.398000  1.0  0.0828
  H  H28  1  0.483000  0.732100  0.346900  1.0  0.0808
  H  H29  1  0.193000  0.740800  0.971300  1.0  0.1122
  H  H30  1  0.310200  0.710000  0.958400  1.0  0.098
  H  H31  1  0.354700  0.682300  0.127500  1.0  0.0626
  H  H32  1  0.219500  0.682800  0.103600  1.0  0.0739
  H  H33  1  0.795200  0.917800  0.379500  1.0  0.0983
  H  H34  1  0.861200  0.008200  0.370800  1.0  0.1272
  H  H35  1  0.941500  0.016700  0.559200  1.0  0.0375
  H  H36  1  0.830500  0.061500  0.574100  1.0  0.0878
  H  H37  1  0.509200  0.315300  0.183400  1.0  0.1133
  H  H38  1  0.539500  0.223400  0.087800  1.0  0.1252
  H  H39  1  0.301800  0.230000  0.062400  1.0  0.0826
  H  H40  1  0.335400  0.144400  0.965800  1.0  0.0848
  H  H41  1  0.276600  0.193700  0.483100  1.0  0.1181
  H  H42  1  0.341600  0.124200  0.537300  1.0  0.1308
  H  H43  1  0.447500  0.337600  0.602000  1.0  0.0807
  H  H44  1  0.517000  0.267900  0.653100  1.0  0.0763
  C  C45  1  0.724800  0.259800  0.986200  1.0  -0.5034
  C  C46  1  0.725200  0.333100  0.932600  1.0  -0.3399
  C  C47  1  0.762700  0.451900  0.025700  1.0  0.6456
  C  C48  1  0.188100  0.004300  0.594200  1.0  -0.3964
  C  C49  1  0.115400  0.942200  0.462100  1.0  -0.3564
  C  C50  1  0.046800  0.826100  0.412600  1.0  0.7201
  C  C51  1  0.517400  0.761200  0.877900  1.0  -0.4401
  C  C52  1  0.640800  0.780000  0.971200  1.0  -0.4202
  C  C53  1  0.648000  0.704700  0.022700  1.0  0.691
  C  C54  1  0.646100  0.821700  0.484800  1.0  -0.5161
  C  C55  1  0.561400  0.717400  0.376200  1.0  -0.4093
  C  C56  1  0.601000  0.669500  0.277100  1.0  0.7044
  C  C57  1  0.275200  0.740200  0.013800  1.0  -0.5034
  C  C58  1  0.274800  0.666900  0.067400  1.0  -0.3378
  C  C59  1  0.237300  0.548100  0.974300  1.0  0.6477
  C  C60  1  0.811900  0.995700  0.405800  1.0  -0.3911
  C  C61  1  0.884600  0.057800  0.537900  1.0  -0.3578
  C  C62  1  0.953200  0.173900  0.587400  1.0  0.7218
  C  C63  1  0.482600  0.238800  0.122100  1.0  -0.4518
  C  C64  1  0.359200  0.220000  0.028800  1.0  -0.4222
  C  C65  1  0.352000  0.295300  0.977300  1.0  0.6918
  C  C66  1  0.353900  0.178300  0.515200  1.0  -0.5103
  C  C67  1  0.438600  0.282600  0.623800  1.0  -0.4076
  C  C68  1  0.399000  0.330500  0.722900  1.0  0.7023
  S  S69  1  0.453700  0.131590  0.790600  1.0  -0.258
  S  S70  1  0.713800  0.047830  0.740550  1.0  -0.3565
  S  S71  1  0.641880  0.014960  0.956490  1.0  -0.3422
  S  S72  1  0.400450  0.890180  0.512510  1.0  -0.3639
  S  S73  1  0.328750  0.858780  0.726730  1.0  -0.3498
  S  S74  1  0.595380  0.774350  0.680780  1.0  -0.3216
  S  S75  1  0.546300  0.868410  0.209400  1.0  -0.2578
  S  S76  1  0.286200  0.952170  0.259450  1.0  -0.3549
  S  S77  1  0.358120  0.985040  0.043510  1.0  -0.3437
  S  S78  1  0.599550  0.109820  0.487490  1.0  -0.3629
  S  S79  1  0.671250  0.141220  0.273270  1.0  -0.35
  S  S80  1  0.404620  0.225650  0.319220  1.0  -0.3209
  O  O81  1  0.691300  0.488600  0.071300  1.0  -0.723
  O  O82  1  0.861600  0.514100  0.061800  1.0  -0.7423
  O  O83  1  0.968300  0.780400  0.308600  1.0  -0.6825
  O  O84  1  0.073600  0.781800  0.474200  1.0  -0.563
  O  O85  1  0.751000  0.720600  0.100600  1.0  -0.6675
  O  O86  1  0.555500  0.637000  0.986900  1.0  -0.6736
  O  O87  1  0.710400  0.705500  0.304800  1.0  -0.6724
  O  O88  1  0.524600  0.598700  0.179400  1.0  -0.6581
  O  O89  1  0.308700  0.511400  0.928700  1.0  -0.7231
  O  O90  1  0.138400  0.485900  0.938200  1.0  -0.7437
  O  O91  1  0.031700  0.219600  0.691400  1.0  -0.6834
  O  O92  1  0.926400  0.218200  0.525800  1.0  -0.5663
  O  O93  1  0.249000  0.279400  0.899400  1.0  -0.6672
  O  O94  1  0.444500  0.363000  0.013100  1.0  -0.6747
  O  O95  1  0.289600  0.294500  0.695200  1.0  -0.6706
  O  O96  1  0.475400  0.401300  0.820600  1.0  -0.6578
