# generated using pymatgen
data_CrH5C8O5
_symmetry_space_group_name_H-M   'P 1'
_cell_length_a   19.68500000
_cell_length_b   7.84900000
_cell_length_c   6.78200000
_cell_angle_alpha   90.00000000
_cell_angle_beta   75.09940000
_cell_angle_gamma   90.00000000
_symmetry_Int_Tables_number   1
_chemical_formula_structural   CrH5C8O5
_chemical_formula_sum   'Cr4 H20 C32 O20'
_cell_volume   1012.63397614
_cell_formula_units_Z   4
loop_
 _symmetry_equiv_pos_site_id
 _symmetry_equiv_pos_as_xyz
  1  'x, y, z'
loop_
 _atom_site_type_symbol
 _atom_site_label
 _atom_site_symmetry_multiplicity
 _atom_site_fract_x
 _atom_site_fract_y
 _atom_site_fract_z
 _atom_site_occupancy
 _atom_site_charge
  Cr  Cr1  1  0.000000  0.000000  0.500000  1.0  1.6034
  Cr  Cr2  1  0.500000  0.500000  0.500000  1.0  1.6034
  Cr  Cr3  1  0.000000  0.000000  0.000000  1.0  1.6034
  Cr  Cr4  1  0.500000  0.500000  0.000000  1.0  1.6034
  H  H5  1  0.155520  0.338620  0.806560  1.0  0.1259
  H  H6  1  0.207860  0.137740  0.369220  1.0  0.1198
  H  H7  1  0.500000  0.740400  0.750000  1.0  0.4502
  H  H8  1  0.655520  0.838620  0.806560  1.0  0.1259
  H  H9  1  0.707860  0.637740  0.369220  1.0  0.1198
  H  H10  1  0.000000  0.240400  0.750000  1.0  0.4502
  H  H11  1  0.844480  0.338620  0.693440  1.0  0.1248
  H  H12  1  0.792140  0.137740  0.130780  1.0  0.12
  H  H13  1  0.344480  0.838620  0.693440  1.0  0.1248
  H  H14  1  0.292140  0.637740  0.130780  1.0  0.12
  H  H15  1  0.844480  0.661380  0.193440  1.0  0.1249
  H  H16  1  0.792140  0.862260  0.630780  1.0  0.1197
  H  H17  1  0.500000  0.259600  0.250000  1.0  0.4508
  H  H18  1  0.344480  0.161380  0.193440  1.0  0.1249
  H  H19  1  0.292140  0.362260  0.630780  1.0  0.1197
  H  H20  1  0.000000  0.759600  0.250000  1.0  0.4508
  H  H21  1  0.155520  0.661380  0.306560  1.0  0.1259
  H  H22  1  0.207860  0.862260  0.869220  1.0  0.1197
  H  H23  1  0.655520  0.161380  0.306560  1.0  0.1259
  H  H24  1  0.707860  0.362260  0.869220  1.0  0.1197
  C  C25  1  0.111000  0.190000  0.170000  1.0  0.6803
  C  C26  1  0.198000  0.296000  0.882000  1.0  -0.0031
  C  C27  1  0.229000  0.180000  0.204000  1.0  -0.0723
  C  C28  1  0.184000  0.210000  0.079000  1.0  -0.1113
  C  C29  1  0.611000  0.690000  0.170000  1.0  0.6803
  C  C30  1  0.698000  0.796000  0.882000  1.0  -0.0031
  C  C31  1  0.729000  0.680000  0.204000  1.0  -0.0723
  C  C32  1  0.684000  0.710000  0.079000  1.0  -0.1113
  C  C33  1  0.889000  0.190000  0.330000  1.0  0.6795
  C  C34  1  0.802000  0.296000  0.618000  1.0  -0.0009
  C  C35  1  0.771000  0.180000  0.296000  1.0  -0.0736
  C  C36  1  0.816000  0.210000  0.421000  1.0  -0.1104
  C  C37  1  0.389000  0.690000  0.330000  1.0  0.6795
  C  C38  1  0.302000  0.796000  0.618000  1.0  -0.0009
  C  C39  1  0.271000  0.680000  0.296000  1.0  -0.0736
  C  C40  1  0.316000  0.710000  0.421000  1.0  -0.1104
  C  C41  1  0.889000  0.810000  0.830000  1.0  0.6812
  C  C42  1  0.802000  0.704000  0.118000  1.0  -0.0014
  C  C43  1  0.771000  0.820000  0.796000  1.0  -0.0742
  C  C44  1  0.816000  0.790000  0.921000  1.0  -0.1096
  C  C45  1  0.389000  0.310000  0.830000  1.0  0.6812
  C  C46  1  0.302000  0.204000  0.118000  1.0  -0.0014
  C  C47  1  0.271000  0.320000  0.796000  1.0  -0.0742
  C  C48  1  0.316000  0.290000  0.921000  1.0  -0.1096
  C  C49  1  0.111000  0.810000  0.670000  1.0  0.682
  C  C50  1  0.198000  0.704000  0.382000  1.0  -0.0041
  C  C51  1  0.229000  0.820000  0.704000  1.0  -0.0729
  C  C52  1  0.184000  0.790000  0.579000  1.0  -0.1107
  C  C53  1  0.611000  0.310000  0.670000  1.0  0.682
  C  C54  1  0.698000  0.204000  0.382000  1.0  -0.0041
  C  C55  1  0.729000  0.320000  0.704000  1.0  -0.0729
  C  C56  1  0.684000  0.290000  0.579000  1.0  -0.1107
  O  O57  1  0.068000  0.166000  0.055000  1.0  -0.6921
  O  O58  1  0.087000  0.141000  0.348000  1.0  -0.5941
  O  O59  1  0.568000  0.666000  0.055000  1.0  -0.6921
  O  O60  1  0.587000  0.641000  0.348000  1.0  -0.5941
  O  O61  1  0.932000  0.166000  0.445000  1.0  -0.6923
  O  O62  1  0.913000  0.141000  0.152000  1.0  -0.5925
  O  O63  1  0.432000  0.666000  0.445000  1.0  -0.6923
  O  O64  1  0.413000  0.641000  0.152000  1.0  -0.5925
  O  O65  1  0.932000  0.834000  0.945000  1.0  -0.6905
  O  O66  1  0.913000  0.859000  0.652000  1.0  -0.5925
  O  O67  1  0.432000  0.334000  0.945000  1.0  -0.6905
  O  O68  1  0.413000  0.359000  0.652000  1.0  -0.5925
  O  O69  1  0.068000  0.834000  0.555000  1.0  -0.6912
  O  O70  1  0.087000  0.859000  0.848000  1.0  -0.5935
  O  O71  1  0.568000  0.334000  0.555000  1.0  -0.6912
  O  O72  1  0.587000  0.359000  0.848000  1.0  -0.5935
  O  O73  1  0.000000  0.887000  0.250000  1.0  -0.9691
  O  O74  1  0.500000  0.387000  0.250000  1.0  -0.9691
  O  O75  1  0.000000  0.113000  0.750000  1.0  -0.9591
  O  O76  1  0.500000  0.613000  0.750000  1.0  -0.9591
