# generated using pymatgen
data_CrH5C8O5
_symmetry_space_group_name_H-M   'P 1'
_cell_length_a   19.68120000
_cell_length_b   7.70050000
_cell_length_c   6.77800000
_cell_angle_alpha   90.00000000
_cell_angle_beta   75.49970000
_cell_angle_gamma   90.00000000
_symmetry_Int_Tables_number   1
_chemical_formula_structural   CrH5C8O5
_chemical_formula_sum   'Cr4 H20 C32 O20'
_cell_volume   994.51896098
_cell_formula_units_Z   4
loop_
 _symmetry_equiv_pos_site_id
 _symmetry_equiv_pos_as_xyz
  1  'x, y, z'
loop_
 _atom_site_type_symbol
 _atom_site_label
 _atom_site_symmetry_multiplicity
 _atom_site_fract_x
 _atom_site_fract_y
 _atom_site_fract_z
 _atom_site_occupancy
 _atom_site_charge
  Cr  Cr1  1  0.000000  0.000000  0.000000  1.0  1.2464
  Cr  Cr2  1  0.500000  0.500000  0.000000  1.0  1.2464
  Cr  Cr3  1  0.000000  0.000000  0.500000  1.0  1.2464
  Cr  Cr4  1  0.500000  0.500000  0.500000  1.0  1.2464
  H  H5  1  0.168700  0.729600  0.799400  1.0  0.1305
  H  H6  1  0.212500  0.836600  0.342600  1.0  0.121
  H  H7  1  0.668700  0.229600  0.799400  1.0  0.1305
  H  H8  1  0.712500  0.336600  0.342600  1.0  0.121
  H  H9  1  0.831300  0.729600  0.700600  1.0  0.1299
  H  H10  1  0.787500  0.836600  0.157400  1.0  0.1216
  H  H11  1  0.331300  0.229600  0.700600  1.0  0.1299
  H  H12  1  0.287500  0.336600  0.157400  1.0  0.1216
  H  H13  1  0.831300  0.270400  0.200600  1.0  0.1298
  H  H14  1  0.787500  0.163400  0.657400  1.0  0.123
  H  H15  1  0.331300  0.770400  0.200600  1.0  0.1298
  H  H16  1  0.287500  0.663400  0.657400  1.0  0.123
  H  H17  1  0.168700  0.270400  0.299400  1.0  0.1306
  H  H18  1  0.212500  0.163400  0.842600  1.0  0.1221
  H  H19  1  0.668700  0.770400  0.299400  1.0  0.1306
  H  H20  1  0.712500  0.663400  0.842600  1.0  0.1221
  H  H21  1  0.500000  0.749060  0.250000  1.0  0.4655
  H  H22  1  0.000000  0.249060  0.250000  1.0  0.4655
  H  H23  1  0.500000  0.250940  0.750000  1.0  0.4661
  H  H24  1  0.000000  0.750940  0.750000  1.0  0.4661
  C  C25  1  0.180800  0.788600  0.082700  1.0  -0.09
  C  C26  1  0.202600  0.738100  0.883100  1.0  -0.0493
  C  C27  1  0.228200  0.800500  0.199600  1.0  -0.0591
  C  C28  1  0.106600  0.829900  0.171400  1.0  0.7067
  C  C29  1  0.680800  0.288600  0.082700  1.0  -0.09
  C  C30  1  0.702600  0.238100  0.883100  1.0  -0.0493
  C  C31  1  0.728200  0.300500  0.199600  1.0  -0.0591
  C  C32  1  0.606600  0.329900  0.171400  1.0  0.7067
  C  C33  1  0.819200  0.788600  0.417300  1.0  -0.0892
  C  C34  1  0.797400  0.738100  0.616900  1.0  -0.0482
  C  C35  1  0.771800  0.800500  0.300400  1.0  -0.0579
  C  C36  1  0.893400  0.829900  0.328600  1.0  0.7072
  C  C37  1  0.319200  0.288600  0.417300  1.0  -0.0892
  C  C38  1  0.297400  0.238100  0.616900  1.0  -0.0482
  C  C39  1  0.271800  0.300500  0.300400  1.0  -0.0579
  C  C40  1  0.393400  0.329900  0.328600  1.0  0.7072
  C  C41  1  0.819200  0.211400  0.917300  1.0  -0.0893
  C  C42  1  0.797400  0.261900  0.116900  1.0  -0.0485
  C  C43  1  0.771800  0.199500  0.800400  1.0  -0.058
  C  C44  1  0.893400  0.170100  0.828600  1.0  0.7078
  C  C45  1  0.319200  0.711400  0.917300  1.0  -0.0893
  C  C46  1  0.297400  0.761900  0.116900  1.0  -0.0485
  C  C47  1  0.271800  0.699500  0.800400  1.0  -0.058
  C  C48  1  0.393400  0.670100  0.828600  1.0  0.7078
  C  C49  1  0.180800  0.211400  0.582700  1.0  -0.0898
  C  C50  1  0.202600  0.261900  0.383100  1.0  -0.0494
  C  C51  1  0.228200  0.199500  0.699600  1.0  -0.0594
  C  C52  1  0.106600  0.170100  0.671400  1.0  0.707
  C  C53  1  0.680800  0.711400  0.582700  1.0  -0.0898
  C  C54  1  0.702600  0.761900  0.383100  1.0  -0.0494
  C  C55  1  0.728200  0.699500  0.699600  1.0  -0.0594
  C  C56  1  0.606600  0.670100  0.671400  1.0  0.707
  O  O57  1  0.062800  0.820700  0.062400  1.0  -0.5933
  O  O58  1  0.086200  0.874900  0.357100  1.0  -0.5738
  O  O59  1  0.562800  0.320700  0.062400  1.0  -0.5933
  O  O60  1  0.586200  0.374900  0.357100  1.0  -0.5738
  O  O61  1  0.937200  0.820700  0.437600  1.0  -0.5922
  O  O62  1  0.913800  0.874900  0.142900  1.0  -0.5743
  O  O63  1  0.437200  0.320700  0.437600  1.0  -0.5922
  O  O64  1  0.413800  0.374900  0.142900  1.0  -0.5743
  O  O65  1  0.937200  0.179300  0.937600  1.0  -0.5914
  O  O66  1  0.913800  0.125100  0.642900  1.0  -0.574
  O  O67  1  0.437200  0.679300  0.937600  1.0  -0.5914
  O  O68  1  0.413800  0.625100  0.642900  1.0  -0.574
  O  O69  1  0.062800  0.179300  0.562400  1.0  -0.5923
  O  O70  1  0.086200  0.125100  0.857100  1.0  -0.5741
  O  O71  1  0.562800  0.679300  0.562400  1.0  -0.5923
  O  O72  1  0.586200  0.625100  0.857100  1.0  -0.5741
  O  O73  1  0.000000  0.880800  0.750000  1.0  -0.9063
  O  O74  1  0.500000  0.380800  0.750000  1.0  -0.9063
  O  O75  1  0.000000  0.119200  0.250000  1.0  -0.9015
  O  O76  1  0.500000  0.619200  0.250000  1.0  -0.9015
