# generated using pymatgen
data_ZnH2(C5O4)2
_symmetry_space_group_name_H-M   'P 1'
_cell_length_a   9.92180000
_cell_length_b   12.65300000
_cell_length_c   15.51310000
_cell_angle_alpha   90.00000000
_cell_angle_beta   90.76100000
_cell_angle_gamma   90.00000000
_symmetry_Int_Tables_number   1
_chemical_formula_structural   ZnH2(C5O4)2
_chemical_formula_sum   'Zn4 H8 C40 O32'
_cell_volume   1947.35110065
_cell_formula_units_Z   4
loop_
 _symmetry_equiv_pos_site_id
 _symmetry_equiv_pos_as_xyz
  1  'x, y, z'
loop_
 _atom_site_type_symbol
 _atom_site_label
 _atom_site_symmetry_multiplicity
 _atom_site_fract_x
 _atom_site_fract_y
 _atom_site_fract_z
 _atom_site_occupancy
 _atom_site_charge
  Zn  Zn1  1  0.000000  0.003410  0.250000  1.0  1.173
  Zn  Zn2  1  0.500000  0.503410  0.250000  1.0  1.173
  Zn  Zn3  1  0.000000  0.996590  0.750000  1.0  1.1728
  Zn  Zn4  1  0.500000  0.496590  0.750000  1.0  1.1728
  H  H5  1  0.368000  0.593400  0.505300  1.0  0.1356
  H  H6  1  0.868000  0.093400  0.505300  1.0  0.1356
  H  H7  1  0.632000  0.593400  0.994700  1.0  0.1359
  H  H8  1  0.132000  0.093400  0.994700  1.0  0.1359
  H  H9  1  0.632000  0.406600  0.494700  1.0  0.136
  H  H10  1  0.132000  0.906600  0.494700  1.0  0.136
  H  H11  1  0.368000  0.406600  0.005300  1.0  0.1357
  H  H12  1  0.868000  0.906600  0.005300  1.0  0.1357
  C  C13  1  0.210480  0.792610  0.419980  1.0  -0.1019
  C  C14  1  0.280470  0.696620  0.423400  1.0  -0.046
  C  C15  1  0.319840  0.656440  0.503190  1.0  0.0309
  C  C16  1  0.176170  0.846690  0.335560  1.0  0.6964
  C  C17  1  0.304480  0.627370  0.345560  1.0  0.7342
  C  C18  1  0.710480  0.292610  0.419980  1.0  -0.1019
  C  C19  1  0.780470  0.196620  0.423400  1.0  -0.046
  C  C20  1  0.819840  0.156440  0.503190  1.0  0.0309
  C  C21  1  0.676170  0.346690  0.335560  1.0  0.6964
  C  C22  1  0.804480  0.127370  0.345560  1.0  0.7342
  C  C23  1  0.789520  0.792610  0.080020  1.0  -0.1032
  C  C24  1  0.719530  0.696620  0.076600  1.0  -0.0452
  C  C25  1  0.680160  0.656440  0.996810  1.0  0.03
  C  C26  1  0.823830  0.846690  0.164440  1.0  0.6979
  C  C27  1  0.695520  0.627370  0.154440  1.0  0.7356
  C  C28  1  0.289520  0.292610  0.080020  1.0  -0.1032
  C  C29  1  0.219530  0.196620  0.076600  1.0  -0.0452
  C  C30  1  0.180160  0.156440  0.996810  1.0  0.03
  C  C31  1  0.323830  0.346690  0.164440  1.0  0.6979
  C  C32  1  0.195520  0.127370  0.154440  1.0  0.7356
  C  C33  1  0.789520  0.207390  0.580020  1.0  -0.1045
  C  C34  1  0.719530  0.303380  0.576600  1.0  -0.045
  C  C35  1  0.680160  0.343560  0.496810  1.0  0.0288
  C  C36  1  0.823830  0.153310  0.664440  1.0  0.6933
  C  C37  1  0.695520  0.372630  0.654440  1.0  0.7345
  C  C38  1  0.289520  0.707390  0.580020  1.0  -0.1045
  C  C39  1  0.219530  0.803380  0.576600  1.0  -0.045
  C  C40  1  0.180160  0.843560  0.496810  1.0  0.0288
  C  C41  1  0.323830  0.653310  0.664440  1.0  0.6933
  C  C42  1  0.195520  0.872630  0.654440  1.0  0.7345
  C  C43  1  0.210480  0.207390  0.919980  1.0  -0.1036
  C  C44  1  0.280470  0.303380  0.923400  1.0  -0.0455
  C  C45  1  0.319840  0.343560  0.003190  1.0  0.0292
  C  C46  1  0.176170  0.153310  0.835560  1.0  0.6919
  C  C47  1  0.304480  0.372630  0.845560  1.0  0.734
  C  C48  1  0.710480  0.707390  0.919980  1.0  -0.1036
  C  C49  1  0.780470  0.803380  0.923400  1.0  -0.0455
  C  C50  1  0.819840  0.843560  0.003190  1.0  0.0292
  C  C51  1  0.676170  0.653310  0.835560  1.0  0.6919
  C  C52  1  0.804480  0.872630  0.845560  1.0  0.734
  O  O53  1  0.080330  0.912610  0.338450  1.0  -0.5908
  O  O54  1  0.244740  0.826300  0.272830  1.0  -0.4612
  O  O55  1  0.425780  0.602250  0.333550  1.0  -0.5628
  O  O56  1  0.205980  0.593790  0.304870  1.0  -0.4167
  O  O57  1  0.580330  0.412610  0.338450  1.0  -0.5917
  O  O58  1  0.744740  0.326300  0.272830  1.0  -0.4612
  O  O59  1  0.925780  0.102250  0.333550  1.0  -0.5626
  O  O60  1  0.705980  0.093790  0.304870  1.0  -0.4167
  O  O61  1  0.919670  0.912610  0.161550  1.0  -0.5905
  O  O62  1  0.755260  0.826300  0.227170  1.0  -0.4611
  O  O63  1  0.574220  0.602250  0.166450  1.0  -0.5645
  O  O64  1  0.794020  0.593790  0.195130  1.0  -0.4169
  O  O65  1  0.419670  0.412610  0.161550  1.0  -0.5905
  O  O66  1  0.255260  0.326300  0.227170  1.0  -0.4611
  O  O67  1  0.074220  0.102250  0.166450  1.0  -0.5642
  O  O68  1  0.294020  0.093790  0.195130  1.0  -0.4169
  O  O69  1  0.919670  0.087390  0.661550  1.0  -0.5905
  O  O70  1  0.755260  0.173700  0.727170  1.0  -0.4611
  O  O71  1  0.574220  0.397750  0.666450  1.0  -0.5637
  O  O72  1  0.794020  0.406210  0.695130  1.0  -0.4178
  O  O73  1  0.419670  0.587390  0.661550  1.0  -0.5913
  O  O74  1  0.255260  0.673700  0.727170  1.0  -0.4611
  O  O75  1  0.074220  0.897750  0.666450  1.0  -0.5635
  O  O76  1  0.294020  0.906210  0.695130  1.0  -0.4178
  O  O77  1  0.080330  0.087390  0.838450  1.0  -0.591
  O  O78  1  0.244740  0.173700  0.772830  1.0  -0.461
  O  O79  1  0.425780  0.397750  0.833550  1.0  -0.5638
  O  O80  1  0.205980  0.406210  0.804870  1.0  -0.4173
  O  O81  1  0.580330  0.587390  0.838450  1.0  -0.591
  O  O82  1  0.744740  0.673700  0.772830  1.0  -0.461
  O  O83  1  0.925780  0.897750  0.833550  1.0  -0.5636
  O  O84  1  0.705980  0.906210  0.804870  1.0  -0.4173
