# generated using pymatgen
data_Ni3P4(WO7)4
_symmetry_space_group_name_H-M   'P 1'
_cell_length_a   17.05310000
_cell_length_b   17.05310000
_cell_length_c   10.73970000
_cell_angle_alpha   90.00000000
_cell_angle_beta   90.00000000
_cell_angle_gamma   90.00000000
_symmetry_Int_Tables_number   1
_chemical_formula_structural   Ni3P4(WO7)4
_chemical_formula_sum   'Ni12 P16 W16 O112'
_cell_volume   3123.19303615
_cell_formula_units_Z   4
loop_
 _symmetry_equiv_pos_site_id
 _symmetry_equiv_pos_as_xyz
  1  'x, y, z'
loop_
 _atom_site_type_symbol
 _atom_site_label
 _atom_site_symmetry_multiplicity
 _atom_site_fract_x
 _atom_site_fract_y
 _atom_site_fract_z
 _atom_site_occupancy
 _atom_site_charge
  Ni  Ni1  1  0.500000  0.750000  0.625000  1.0  0.5661
  Ni  Ni2  1  0.000000  0.250000  0.125000  1.0  0.5661
  Ni  Ni3  1  0.000000  0.750000  0.875000  1.0  0.5661
  Ni  Ni4  1  0.500000  0.250000  0.375000  1.0  0.5661
  Ni  Ni5  1  0.250000  0.750000  0.250000  1.0  0.7316
  Ni  Ni6  1  0.250000  0.250000  0.750000  1.0  0.7316
  Ni  Ni7  1  0.000000  0.500000  0.500000  1.0  0.7328
  Ni  Ni8  1  0.500000  0.000000  0.000000  1.0  0.7328
  Ni  Ni9  1  0.500000  0.500000  0.000000  1.0  0.7328
  Ni  Ni10  1  0.000000  0.000000  0.500000  1.0  0.7328
  Ni  Ni11  1  0.750000  0.250000  0.750000  1.0  0.7316
  Ni  Ni12  1  0.750000  0.750000  0.250000  1.0  0.7316
  P  P13  1  0.365220  0.832970  0.446200  1.0  1.8094
  P  P14  1  0.865220  0.332970  0.946200  1.0  1.8094
  P  P15  1  0.134780  0.167030  0.946200  1.0  1.8075
  P  P16  1  0.634780  0.667030  0.446200  1.0  1.8075
  P  P17  1  0.917030  0.615220  0.696200  1.0  1.8095
  P  P18  1  0.417030  0.115220  0.196200  1.0  1.8095
  P  P19  1  0.582970  0.384780  0.196200  1.0  1.8101
  P  P20  1  0.082970  0.884780  0.696200  1.0  1.8101
  P  P21  1  0.634780  0.167030  0.553800  1.0  1.8079
  P  P22  1  0.134780  0.667030  0.053800  1.0  1.8079
  P  P23  1  0.865220  0.832970  0.053800  1.0  1.8096
  P  P24  1  0.365220  0.332970  0.553800  1.0  1.8096
  P  P25  1  0.082970  0.384780  0.303800  1.0  1.8098
  P  P26  1  0.582970  0.884780  0.803800  1.0  1.8098
  P  P27  1  0.417030  0.615220  0.803800  1.0  1.81
  P  P28  1  0.917030  0.115220  0.303800  1.0  1.81
  W  W29  1  0.338130  0.941380  0.193400  1.0  2.3258
  W  W30  1  0.838130  0.441380  0.693400  1.0  2.3258
  W  W31  1  0.161870  0.058620  0.693400  1.0  2.3258
  W  W32  1  0.661870  0.558620  0.193400  1.0  2.3258
  W  W33  1  0.808620  0.588130  0.443400  1.0  2.3263
  W  W34  1  0.308620  0.088130  0.943400  1.0  2.3263
  W  W35  1  0.691380  0.411870  0.943400  1.0  2.3264
  W  W36  1  0.191380  0.911870  0.443400  1.0  2.3264
  W  W37  1  0.661870  0.058620  0.806600  1.0  2.3258
  W  W38  1  0.161870  0.558620  0.306600  1.0  2.3258
  W  W39  1  0.838130  0.941380  0.306600  1.0  2.3256
  W  W40  1  0.338130  0.441380  0.806600  1.0  2.3256
  W  W41  1  0.191380  0.411870  0.556600  1.0  2.3263
  W  W42  1  0.691380  0.911870  0.056600  1.0  2.3263
  W  W43  1  0.308620  0.588130  0.056600  1.0  2.326
  W  W44  1  0.808620  0.088130  0.556600  1.0  2.326
  O  O45  1  0.426800  0.931100  0.108000  1.0  -0.6435
  O  O46  1  0.250300  0.966500  0.331700  1.0  -0.6648
  O  O47  1  0.293000  0.850300  0.164900  1.0  -0.6648
  O  O48  1  0.392600  0.894800  0.348600  1.0  -0.6527
  O  O49  1  0.340100  0.757500  0.383100  1.0  -0.6388
  O  O50  1  0.295700  0.868500  0.521100  1.0  -0.6637
  O  O51  1  0.434100  0.821500  0.534200  1.0  -0.715
  O  O52  1  0.926800  0.431100  0.608000  1.0  -0.6435
  O  O53  1  0.750300  0.466500  0.831700  1.0  -0.6648
  O  O54  1  0.793000  0.350300  0.664900  1.0  -0.6648
  O  O55  1  0.892600  0.394800  0.848600  1.0  -0.6527
  O  O56  1  0.840100  0.257500  0.883100  1.0  -0.6388
  O  O57  1  0.795700  0.368500  0.021100  1.0  -0.6637
  O  O58  1  0.934100  0.321500  0.034200  1.0  -0.715
  O  O59  1  0.073200  0.068900  0.608000  1.0  -0.6445
  O  O60  1  0.249700  0.033500  0.831700  1.0  -0.6647
  O  O61  1  0.207000  0.149700  0.664900  1.0  -0.6647
  O  O62  1  0.107400  0.105200  0.848600  1.0  -0.6524
  O  O63  1  0.159900  0.242500  0.883100  1.0  -0.6381
  O  O64  1  0.204300  0.131500  0.021100  1.0  -0.664
  O  O65  1  0.065900  0.178500  0.034200  1.0  -0.7163
  O  O66  1  0.573200  0.568900  0.108000  1.0  -0.6445
  O  O67  1  0.749700  0.533500  0.331700  1.0  -0.6647
  O  O68  1  0.707000  0.649700  0.164900  1.0  -0.6647
  O  O69  1  0.607400  0.605200  0.348600  1.0  -0.6524
  O  O70  1  0.659900  0.742500  0.383100  1.0  -0.6381
  O  O71  1  0.704300  0.631500  0.521100  1.0  -0.664
  O  O72  1  0.565900  0.678500  0.534200  1.0  -0.7163
  O  O73  1  0.818900  0.676800  0.358000  1.0  -0.6407
  O  O74  1  0.783500  0.500300  0.581700  1.0  -0.662
  O  O75  1  0.899700  0.543000  0.414900  1.0  -0.6631
  O  O76  1  0.855200  0.642600  0.598600  1.0  -0.653
  O  O77  1  0.992500  0.590100  0.633100  1.0  -0.6393
  O  O78  1  0.881500  0.545700  0.771100  1.0  -0.6646
  O  O79  1  0.928500  0.684100  0.784200  1.0  -0.7163
  O  O80  1  0.318900  0.176800  0.858000  1.0  -0.6407
  O  O81  1  0.283500  0.000300  0.081700  1.0  -0.662
  O  O82  1  0.399700  0.043000  0.914900  1.0  -0.6631
  O  O83  1  0.355200  0.142600  0.098600  1.0  -0.653
  O  O84  1  0.492500  0.090100  0.133100  1.0  -0.6393
  O  O85  1  0.381500  0.045700  0.271100  1.0  -0.6646
  O  O86  1  0.428500  0.184100  0.284200  1.0  -0.7163
  O  O87  1  0.681100  0.323200  0.858000  1.0  -0.642
  O  O88  1  0.716500  0.499700  0.081700  1.0  -0.6614
  O  O89  1  0.600300  0.457000  0.914900  1.0  -0.6635
  O  O90  1  0.644800  0.357400  0.098600  1.0  -0.6536
  O  O91  1  0.507500  0.409900  0.133100  1.0  -0.6371
  O  O92  1  0.618500  0.454300  0.271100  1.0  -0.6636
  O  O93  1  0.571500  0.315900  0.284200  1.0  -0.7167
  O  O94  1  0.181100  0.823200  0.358000  1.0  -0.642
  O  O95  1  0.216500  0.999700  0.581700  1.0  -0.6614
  O  O96  1  0.100300  0.957000  0.414900  1.0  -0.6635
  O  O97  1  0.144800  0.857400  0.598600  1.0  -0.6536
  O  O98  1  0.007500  0.909900  0.633100  1.0  -0.6371
  O  O99  1  0.118500  0.954300  0.771100  1.0  -0.6636
  O  O100  1  0.071500  0.815900  0.784200  1.0  -0.7167
  O  O101  1  0.573200  0.068900  0.892000  1.0  -0.6447
  O  O102  1  0.749700  0.033500  0.668300  1.0  -0.6651
  O  O103  1  0.707000  0.149700  0.835100  1.0  -0.6638
  O  O104  1  0.607400  0.105200  0.651400  1.0  -0.6525
  O  O105  1  0.659900  0.242500  0.616900  1.0  -0.6386
  O  O106  1  0.704300  0.131500  0.478900  1.0  -0.6642
  O  O107  1  0.565900  0.178500  0.465800  1.0  -0.7177
  O  O108  1  0.073200  0.568900  0.392000  1.0  -0.6447
  O  O109  1  0.249700  0.533500  0.168300  1.0  -0.6651
  O  O110  1  0.207000  0.649700  0.335100  1.0  -0.6638
  O  O111  1  0.107400  0.605200  0.151400  1.0  -0.6525
  O  O112  1  0.159900  0.742500  0.116900  1.0  -0.6386
  O  O113  1  0.204300  0.631500  0.978900  1.0  -0.6642
  O  O114  1  0.065900  0.678500  0.965800  1.0  -0.7177
  O  O115  1  0.926800  0.931100  0.392000  1.0  -0.6438
  O  O116  1  0.750300  0.966500  0.168300  1.0  -0.6653
  O  O117  1  0.793000  0.850300  0.335100  1.0  -0.6644
  O  O118  1  0.892600  0.894800  0.151400  1.0  -0.6528
  O  O119  1  0.840100  0.757500  0.116900  1.0  -0.6397
  O  O120  1  0.795700  0.868500  0.978900  1.0  -0.665
  O  O121  1  0.934100  0.821500  0.965800  1.0  -0.716
  O  O122  1  0.426800  0.431100  0.892000  1.0  -0.6438
  O  O123  1  0.250300  0.466500  0.668300  1.0  -0.6653
  O  O124  1  0.293000  0.350300  0.835100  1.0  -0.6644
  O  O125  1  0.392600  0.394800  0.651400  1.0  -0.6528
  O  O126  1  0.340100  0.257500  0.616900  1.0  -0.6397
  O  O127  1  0.295700  0.368500  0.478900  1.0  -0.665
  O  O128  1  0.434100  0.321500  0.465800  1.0  -0.716
  O  O129  1  0.181100  0.323200  0.642000  1.0  -0.6422
  O  O130  1  0.216500  0.499700  0.418300  1.0  -0.6621
  O  O131  1  0.100300  0.457000  0.585100  1.0  -0.6633
  O  O132  1  0.144800  0.357400  0.401400  1.0  -0.6537
  O  O133  1  0.007500  0.409900  0.366900  1.0  -0.6381
  O  O134  1  0.118500  0.454300  0.228900  1.0  -0.6645
  O  O135  1  0.071500  0.315900  0.215800  1.0  -0.718
  O  O136  1  0.681100  0.823200  0.142000  1.0  -0.6422
  O  O137  1  0.716500  0.999700  0.918300  1.0  -0.6621
  O  O138  1  0.600300  0.957000  0.085100  1.0  -0.6633
  O  O139  1  0.644800  0.857400  0.901400  1.0  -0.6537
  O  O140  1  0.507500  0.909900  0.866900  1.0  -0.6381
  O  O141  1  0.618500  0.954300  0.728900  1.0  -0.6645
  O  O142  1  0.571500  0.815900  0.715800  1.0  -0.718
  O  O143  1  0.318900  0.676800  0.142000  1.0  -0.6414
  O  O144  1  0.283500  0.500300  0.918300  1.0  -0.6624
  O  O145  1  0.399700  0.543000  0.085100  1.0  -0.6621
  O  O146  1  0.355200  0.642600  0.901400  1.0  -0.653
  O  O147  1  0.492500  0.590100  0.866900  1.0  -0.64
  O  O148  1  0.381500  0.545700  0.728900  1.0  -0.6652
  O  O149  1  0.428500  0.684100  0.715800  1.0  -0.7188
  O  O150  1  0.818900  0.176800  0.642000  1.0  -0.6414
  O  O151  1  0.783500  0.000300  0.418300  1.0  -0.6624
  O  O152  1  0.899700  0.043000  0.585100  1.0  -0.6621
  O  O153  1  0.855200  0.142600  0.401400  1.0  -0.653
  O  O154  1  0.992500  0.090100  0.366900  1.0  -0.64
  O  O155  1  0.881500  0.045700  0.228900  1.0  -0.6652
  O  O156  1  0.928500  0.184100  0.215800  1.0  -0.7188
