# generated using pymatgen
data_Cu5H48Pt3C42(N6O7)2
_symmetry_space_group_name_H-M   'P 1'
_cell_length_a   24.04200000
_cell_length_b   12.49000000
_cell_length_c   31.15000000
_cell_angle_alpha   90.00000000
_cell_angle_beta   107.80000000
_cell_angle_gamma   90.00000000
_symmetry_Int_Tables_number   1
_chemical_formula_structural   Cu5H48Pt3C42(N6O7)2
_chemical_formula_sum   'Cu20 H192 Pt12 C168 N48 O56'
_cell_volume   8906.08948518
_cell_formula_units_Z   4
loop_
 _symmetry_equiv_pos_site_id
 _symmetry_equiv_pos_as_xyz
  1  'x, y, z'
loop_
 _atom_site_type_symbol
 _atom_site_label
 _atom_site_symmetry_multiplicity
 _atom_site_fract_x
 _atom_site_fract_y
 _atom_site_fract_z
 _atom_site_occupancy
 _atom_site_charge
  Cu  Cu1  1  0.537360  0.802810  0.457020  1.0  0.8507
  Cu  Cu2  1  0.599800  0.870480  0.570710  1.0  0.852
  Cu  Cu3  1  0.037360  0.302810  0.457020  1.0  0.8507
  Cu  Cu4  1  0.099800  0.370480  0.570710  1.0  0.852
  Cu  Cu5  1  0.462640  0.802810  0.042980  1.0  0.8526
  Cu  Cu6  1  0.400200  0.870480  0.929290  1.0  0.8535
  Cu  Cu7  1  0.962640  0.302810  0.042980  1.0  0.8526
  Cu  Cu8  1  0.900200  0.370480  0.929290  1.0  0.8535
  Cu  Cu9  1  0.462640  0.197190  0.542980  1.0  0.8505
  Cu  Cu10  1  0.400200  0.129520  0.429290  1.0  0.8536
  Cu  Cu11  1  0.962640  0.697190  0.542980  1.0  0.8505
  Cu  Cu12  1  0.900200  0.629520  0.429290  1.0  0.8536
  Cu  Cu13  1  0.537360  0.197190  0.957020  1.0  0.8492
  Cu  Cu14  1  0.599800  0.129520  0.070710  1.0  0.8525
  Cu  Cu15  1  0.037360  0.697190  0.957020  1.0  0.8492
  Cu  Cu16  1  0.099800  0.629520  0.070710  1.0  0.8525
  Cu  Cu17  1  0.500000  0.000000  0.500000  1.0  0.9432
  Cu  Cu18  1  0.000000  0.500000  0.500000  1.0  0.9432
  Cu  Cu19  1  0.500000  0.000000  0.000000  1.0  0.9432
  Cu  Cu20  1  0.000000  0.500000  0.000000  1.0  0.9432
  H  H21  1  0.270600  0.592800  0.319200  1.0  0.2865
  H  H22  1  0.329700  0.548800  0.333400  1.0  0.2774
  H  H23  1  0.299700  0.298000  0.382800  1.0  0.2939
  H  H24  1  0.237400  0.316500  0.361900  1.0  0.2825
  H  H25  1  0.567200  0.622200  0.810500  1.0  0.2946
  H  H26  1  0.508700  0.611000  0.815100  1.0  0.2732
  H  H27  1  0.229600  0.446800  0.284800  1.0  0.0772
  H  H28  1  0.290000  0.442900  0.275600  1.0  0.0842
  H  H29  1  0.322100  0.322100  0.322400  1.0  0.0697
  H  H30  1  0.256500  0.290100  0.300200  1.0  0.0726
  H  H31  1  0.374200  0.661600  0.413100  1.0  0.0639
  H  H32  1  0.315800  0.919900  0.460300  1.0  0.0817
  H  H33  1  0.225200  0.838000  0.442100  1.0  0.0749
  H  H34  1  0.213800  0.665000  0.418500  1.0  0.0821
  H  H35  1  0.693100  0.896500  0.430000  1.0  0.0787
  H  H36  1  0.767400  0.871100  0.563600  1.0  0.1014
  H  H37  1  0.852900  0.934100  0.552700  1.0  0.1
  H  H38  1  0.854600  0.977800  0.481900  1.0  0.0584
  H  H39  1  0.557100  0.491600  0.762900  1.0  0.0695
  H  H40  1  0.513500  0.451900  0.787700  1.0  0.0687
  H  H41  1  0.524300  0.813800  0.667600  1.0  0.0754
  H  H42  1  0.409600  0.045300  0.613600  1.0  0.0936
  H  H43  1  0.371600  0.025900  0.671100  1.0  0.082
  H  H44  1  0.405800  0.895000  0.724400  1.0  0.0779
  H  H45  1  0.770600  0.092800  0.319200  1.0  0.2865
  H  H46  1  0.829700  0.048800  0.333400  1.0  0.2774
  H  H47  1  0.799700  0.798000  0.382800  1.0  0.2939
  H  H48  1  0.737400  0.816500  0.361900  1.0  0.2825
  H  H49  1  0.067200  0.122200  0.810500  1.0  0.2946
  H  H50  1  0.008700  0.111000  0.815100  1.0  0.2732
  H  H51  1  0.729600  0.946800  0.284800  1.0  0.0772
  H  H52  1  0.790000  0.942900  0.275600  1.0  0.0842
  H  H53  1  0.822100  0.822100  0.322400  1.0  0.0697
  H  H54  1  0.756500  0.790100  0.300200  1.0  0.0726
  H  H55  1  0.874200  0.161600  0.413100  1.0  0.0639
  H  H56  1  0.815800  0.419900  0.460300  1.0  0.0817
  H  H57  1  0.725200  0.338000  0.442100  1.0  0.0749
  H  H58  1  0.713800  0.165000  0.418500  1.0  0.0818
  H  H59  1  0.193100  0.396500  0.430000  1.0  0.0787
  H  H60  1  0.267400  0.371100  0.563600  1.0  0.1014
  H  H61  1  0.352900  0.434100  0.552700  1.0  0.1
  H  H62  1  0.354600  0.477800  0.481900  1.0  0.0578
  H  H63  1  0.057100  0.991600  0.762900  1.0  0.0695
  H  H64  1  0.013500  0.951900  0.787700  1.0  0.0687
  H  H65  1  0.024300  0.313800  0.667600  1.0  0.0754
  H  H66  1  0.909600  0.545300  0.613600  1.0  0.0936
  H  H67  1  0.871600  0.525900  0.671100  1.0  0.082
  H  H68  1  0.905800  0.395000  0.724400  1.0  0.0779
  H  H69  1  0.729400  0.592800  0.180800  1.0  0.2867
  H  H70  1  0.670300  0.548800  0.166600  1.0  0.2752
  H  H71  1  0.700300  0.298000  0.117200  1.0  0.2934
  H  H72  1  0.762600  0.316500  0.138100  1.0  0.2759
  H  H73  1  0.432800  0.622200  0.689500  1.0  0.2907
  H  H74  1  0.491300  0.611000  0.684900  1.0  0.2721
  H  H75  1  0.770400  0.446800  0.215200  1.0  0.0765
  H  H76  1  0.710000  0.442900  0.224400  1.0  0.0854
  H  H77  1  0.677900  0.322100  0.177600  1.0  0.0729
  H  H78  1  0.743500  0.290100  0.199800  1.0  0.0753
  H  H79  1  0.625800  0.661600  0.086900  1.0  0.0643
  H  H80  1  0.684200  0.919900  0.039700  1.0  0.0823
  H  H81  1  0.774800  0.838000  0.057900  1.0  0.0751
  H  H82  1  0.786200  0.665000  0.081500  1.0  0.0829
  H  H83  1  0.306900  0.896500  0.070000  1.0  0.0787
  H  H84  1  0.232600  0.871100  0.936400  1.0  0.1025
  H  H85  1  0.147100  0.934100  0.947300  1.0  0.1
  H  H86  1  0.145400  0.977800  0.018100  1.0  0.0589
  H  H87  1  0.442900  0.491600  0.737100  1.0  0.0713
  H  H88  1  0.486500  0.451900  0.712300  1.0  0.0694
  H  H89  1  0.475700  0.813800  0.832400  1.0  0.0762
  H  H90  1  0.590400  0.045300  0.886400  1.0  0.0931
  H  H91  1  0.628400  0.025900  0.828900  1.0  0.082
  H  H92  1  0.594200  0.895000  0.775600  1.0  0.0778
  H  H93  1  0.229400  0.092800  0.180800  1.0  0.2867
  H  H94  1  0.170300  0.048800  0.166600  1.0  0.2752
  H  H95  1  0.200300  0.798000  0.117200  1.0  0.2934
  H  H96  1  0.262600  0.816500  0.138100  1.0  0.2759
  H  H97  1  0.932800  0.122200  0.689500  1.0  0.2907
  H  H98  1  0.991300  0.111000  0.684900  1.0  0.2721
  H  H99  1  0.270400  0.946800  0.215200  1.0  0.0765
  H  H100  1  0.210000  0.942900  0.224400  1.0  0.0854
  H  H101  1  0.177900  0.822100  0.177600  1.0  0.0729
  H  H102  1  0.243500  0.790100  0.199800  1.0  0.0753
  H  H103  1  0.125800  0.161600  0.086900  1.0  0.0643
  H  H104  1  0.184200  0.419900  0.039700  1.0  0.0823
  H  H105  1  0.274800  0.338000  0.057900  1.0  0.0751
  H  H106  1  0.286200  0.165000  0.081500  1.0  0.0825
  H  H107  1  0.806900  0.396500  0.070000  1.0  0.0787
  H  H108  1  0.732600  0.371100  0.936400  1.0  0.1025
  H  H109  1  0.647100  0.434100  0.947300  1.0  0.1
  H  H110  1  0.645400  0.477800  0.018100  1.0  0.0582
  H  H111  1  0.942900  0.991600  0.737100  1.0  0.0713
  H  H112  1  0.986500  0.951900  0.712300  1.0  0.0694
  H  H113  1  0.975700  0.313800  0.832400  1.0  0.0762
  H  H114  1  0.090400  0.545300  0.886400  1.0  0.0931
  H  H115  1  0.128400  0.525900  0.828900  1.0  0.082
  H  H116  1  0.094200  0.395000  0.775600  1.0  0.0778
  H  H117  1  0.729400  0.407200  0.680800  1.0  0.2871
  H  H118  1  0.670300  0.451200  0.666667  1.0  0.275
  H  H119  1  0.700300  0.702000  0.617200  1.0  0.2941
  H  H120  1  0.762600  0.683500  0.638100  1.0  0.2756
  H  H121  1  0.432800  0.377800  0.189500  1.0  0.2906
  H  H122  1  0.491300  0.389000  0.184900  1.0  0.2719
  H  H123  1  0.770400  0.553200  0.715200  1.0  0.0764
  H  H124  1  0.710000  0.557100  0.724400  1.0  0.0853
  H  H125  1  0.677900  0.677900  0.677600  1.0  0.0731
  H  H126  1  0.743500  0.709900  0.699800  1.0  0.075
  H  H127  1  0.625800  0.338400  0.586900  1.0  0.0643
  H  H128  1  0.684200  0.080100  0.539700  1.0  0.0823
  H  H129  1  0.774800  0.162000  0.557900  1.0  0.0748
  H  H130  1  0.786200  0.335000  0.581500  1.0  0.083
  H  H131  1  0.306900  0.103500  0.570000  1.0  0.0784
  H  H132  1  0.232600  0.128900  0.436400  1.0  0.1024
  H  H133  1  0.147100  0.065900  0.447300  1.0  0.0998
  H  H134  1  0.145400  0.022200  0.518100  1.0  0.0589
  H  H135  1  0.442900  0.508400  0.237100  1.0  0.0708
  H  H136  1  0.486500  0.548100  0.212300  1.0  0.0714
  H  H137  1  0.475700  0.186200  0.332400  1.0  0.0762
  H  H138  1  0.590400  0.954700  0.386400  1.0  0.0932
  H  H139  1  0.628400  0.974100  0.328900  1.0  0.0818
  H  H140  1  0.594200  0.105000  0.275600  1.0  0.0783
  H  H141  1  0.229400  0.907200  0.680800  1.0  0.2871
  H  H142  1  0.170300  0.951200  0.666667  1.0  0.275
  H  H143  1  0.200300  0.202000  0.617200  1.0  0.2941
  H  H144  1  0.262600  0.183500  0.638100  1.0  0.2756
  H  H145  1  0.932800  0.877800  0.189500  1.0  0.2906
  H  H146  1  0.991300  0.889000  0.184900  1.0  0.2719
  H  H147  1  0.270400  0.053200  0.715200  1.0  0.0764
  H  H148  1  0.210000  0.057100  0.724400  1.0  0.0853
  H  H149  1  0.177900  0.177900  0.677600  1.0  0.0731
  H  H150  1  0.243500  0.209900  0.699800  1.0  0.075
  H  H151  1  0.125800  0.838400  0.586900  1.0  0.0643
  H  H152  1  0.184200  0.580100  0.539700  1.0  0.0823
  H  H153  1  0.274800  0.662000  0.557900  1.0  0.0748
  H  H154  1  0.286200  0.835000  0.581500  1.0  0.0826
  H  H155  1  0.806900  0.603500  0.570000  1.0  0.0784
  H  H156  1  0.732600  0.628900  0.436400  1.0  0.1024
  H  H157  1  0.647100  0.565900  0.447300  1.0  0.0998
  H  H158  1  0.645400  0.522200  0.518100  1.0  0.0581
  H  H159  1  0.942900  0.008400  0.237100  1.0  0.0708
  H  H160  1  0.986500  0.048100  0.212300  1.0  0.0714
  H  H161  1  0.975700  0.686200  0.332400  1.0  0.0762
  H  H162  1  0.090400  0.454700  0.386400  1.0  0.0932
  H  H163  1  0.128400  0.474100  0.328900  1.0  0.0818
  H  H164  1  0.094200  0.605000  0.275600  1.0  0.0783
  H  H165  1  0.270600  0.407200  0.819200  1.0  0.2862
  H  H166  1  0.329700  0.451200  0.833400  1.0  0.2766
  H  H167  1  0.299700  0.702000  0.882800  1.0  0.2924
  H  H168  1  0.237400  0.683500  0.861900  1.0  0.2829
  H  H169  1  0.567200  0.377800  0.310500  1.0  0.2942
  H  H170  1  0.508700  0.389000  0.315100  1.0  0.2732
  H  H171  1  0.229600  0.553200  0.784800  1.0  0.0772
  H  H172  1  0.290000  0.557100  0.775600  1.0  0.084
  H  H173  1  0.322100  0.677900  0.822400  1.0  0.0714
  H  H174  1  0.256500  0.709900  0.800200  1.0  0.0752
  H  H175  1  0.374200  0.338400  0.913100  1.0  0.0643
  H  H176  1  0.315800  0.080100  0.960300  1.0  0.0821
  H  H177  1  0.225200  0.162000  0.942100  1.0  0.0748
  H  H178  1  0.213800  0.335000  0.918500  1.0  0.0819
  H  H179  1  0.693100  0.103500  0.930000  1.0  0.079
  H  H180  1  0.767400  0.128900  0.063600  1.0  0.1017
  H  H181  1  0.852900  0.065900  0.052700  1.0  0.1001
  H  H182  1  0.854600  0.022200  0.981900  1.0  0.0582
  H  H183  1  0.557100  0.508400  0.262900  1.0  0.0712
  H  H184  1  0.513500  0.548100  0.287700  1.0  0.069
  H  H185  1  0.524300  0.186200  0.167600  1.0  0.0757
  H  H186  1  0.409600  0.954700  0.113600  1.0  0.0931
  H  H187  1  0.371600  0.974100  0.171100  1.0  0.0821
  H  H188  1  0.405800  0.105000  0.224400  1.0  0.0776
  H  H189  1  0.770600  0.907200  0.819200  1.0  0.2862
  H  H190  1  0.829700  0.951200  0.833400  1.0  0.2766
  H  H191  1  0.799700  0.202000  0.882800  1.0  0.2924
  H  H192  1  0.737400  0.183500  0.861900  1.0  0.2829
  H  H193  1  0.067200  0.877800  0.310500  1.0  0.2942
  H  H194  1  0.008700  0.889000  0.315100  1.0  0.2732
  H  H195  1  0.729600  0.053200  0.784800  1.0  0.0772
  H  H196  1  0.790000  0.057100  0.775600  1.0  0.084
  H  H197  1  0.822100  0.177900  0.822400  1.0  0.0714
  H  H198  1  0.756500  0.209900  0.800200  1.0  0.0752
  H  H199  1  0.874200  0.838400  0.913100  1.0  0.0643
  H  H200  1  0.815800  0.580100  0.960300  1.0  0.0821
  H  H201  1  0.725200  0.662000  0.942100  1.0  0.0748
  H  H202  1  0.713800  0.835000  0.918500  1.0  0.0816
  H  H203  1  0.193100  0.603500  0.930000  1.0  0.079
  H  H204  1  0.267400  0.628900  0.063600  1.0  0.1017
  H  H205  1  0.352900  0.565900  0.052700  1.0  0.1001
  H  H206  1  0.354600  0.522200  0.981900  1.0  0.0576
  H  H207  1  0.057100  0.008400  0.262900  1.0  0.0712
  H  H208  1  0.013500  0.048100  0.287700  1.0  0.069
  H  H209  1  0.024300  0.686200  0.167600  1.0  0.0757
  H  H210  1  0.909600  0.454700  0.113600  1.0  0.0931
  H  H211  1  0.871600  0.474100  0.171100  1.0  0.0821
  H  H212  1  0.905800  0.605000  0.224400  1.0  0.0776
  Pt  Pt213  1  0.282170  0.492480  0.390290  1.0  0.1837
  Pt  Pt214  1  0.782170  0.992480  0.390290  1.0  0.1837
  Pt  Pt215  1  0.717830  0.492480  0.109710  1.0  0.1858
  Pt  Pt216  1  0.217830  0.992480  0.109710  1.0  0.1858
  Pt  Pt217  1  0.717830  0.507520  0.609710  1.0  0.1859
  Pt  Pt218  1  0.217830  0.007520  0.609710  1.0  0.1859
  Pt  Pt219  1  0.282170  0.507520  0.890290  1.0  0.1847
  Pt  Pt220  1  0.782170  0.007520  0.890290  1.0  0.1847
  Pt  Pt221  1  0.500000  0.731170  0.750000  1.0  0.0929
  Pt  Pt222  1  0.000000  0.231170  0.750000  1.0  0.0929
  Pt  Pt223  1  0.500000  0.268830  0.250000  1.0  0.0979
  Pt  Pt224  1  0.000000  0.768830  0.250000  1.0  0.0979
  C  C225  1  0.271300  0.440000  0.299200  1.0  0.0316
  C  C226  1  0.282100  0.343000  0.319300  1.0  0.0462
  C  C227  1  0.344100  0.695700  0.420800  1.0  0.1435
  C  C228  1  0.353800  0.797900  0.438500  1.0  -0.1803
  C  C229  1  0.310100  0.851500  0.447800  1.0  -0.0184
  C  C230  1  0.256900  0.801100  0.438200  1.0  -0.123
  C  C231  1  0.249700  0.698800  0.423000  1.0  0.1183
  C  C232  1  0.414200  0.845100  0.448400  1.0  0.683
  C  C233  1  0.725300  0.905900  0.455400  1.0  0.1654
  C  C234  1  0.719800  0.881300  0.497900  1.0  -0.1698
  C  C235  1  0.768600  0.889700  0.535000  1.0  -0.0365
  C  C236  1  0.819200  0.926500  0.528400  1.0  -0.1611
  C  C237  1  0.819900  0.952200  0.485400  1.0  0.1652
  C  C238  1  0.660600  0.852900  0.501100  1.0  0.6677
  C  C239  1  0.521000  0.508600  0.768900  1.0  0.0333
  C  C240  1  0.493500  0.857900  0.668500  1.0  0.1248
  C  C241  1  0.473700  0.933800  0.636300  1.0  -0.1777
  C  C242  1  0.425300  0.995800  0.636400  1.0  -0.0407
  C  C243  1  0.402400  0.983000  0.669700  1.0  -0.1279
  C  C244  1  0.423600  0.905000  0.702000  1.0  0.1336
  C  C245  1  0.501600  0.947100  0.599700  1.0  0.7199
  C  C246  1  0.771300  0.940000  0.299200  1.0  0.0316
  C  C247  1  0.782100  0.843000  0.319300  1.0  0.0462
  C  C248  1  0.844100  0.195700  0.420800  1.0  0.1435
  C  C249  1  0.853800  0.297900  0.438500  1.0  -0.1803
  C  C250  1  0.810100  0.351500  0.447800  1.0  -0.0184
  C  C251  1  0.756900  0.301100  0.438200  1.0  -0.123
  C  C252  1  0.749700  0.198800  0.423000  1.0  0.1183
  C  C253  1  0.914200  0.345100  0.448400  1.0  0.683
  C  C254  1  0.225300  0.405900  0.455400  1.0  0.1654
  C  C255  1  0.219800  0.381300  0.497900  1.0  -0.1698
  C  C256  1  0.268600  0.389700  0.535000  1.0  -0.0365
  C  C257  1  0.319200  0.426500  0.528400  1.0  -0.1611
  C  C258  1  0.319900  0.452200  0.485400  1.0  0.1652
  C  C259  1  0.160600  0.352900  0.501100  1.0  0.6677
  C  C260  1  0.021000  0.008600  0.768900  1.0  0.0333
  C  C261  1  0.993500  0.357900  0.668500  1.0  0.1248
  C  C262  1  0.973700  0.433800  0.636300  1.0  -0.1777
  C  C263  1  0.925300  0.495800  0.636400  1.0  -0.0407
  C  C264  1  0.902400  0.483000  0.669700  1.0  -0.1279
  C  C265  1  0.923600  0.405000  0.702000  1.0  0.1336
  C  C266  1  0.001600  0.447100  0.599700  1.0  0.7199
  C  C267  1  0.728700  0.440000  0.200800  1.0  0.0286
  C  C268  1  0.717900  0.343000  0.180700  1.0  0.0454
  C  C269  1  0.655900  0.695700  0.079200  1.0  0.1458
  C  C270  1  0.646200  0.797900  0.061500  1.0  -0.1795
  C  C271  1  0.689900  0.851500  0.052200  1.0  -0.0182
  C  C272  1  0.743100  0.801100  0.061800  1.0  -0.1208
  C  C273  1  0.750300  0.698800  0.077000  1.0  0.1186
  C  C274  1  0.585800  0.845100  0.051600  1.0  0.6836
  C  C275  1  0.274700  0.905900  0.044600  1.0  0.1638
  C  C276  1  0.280200  0.881300  0.002100  1.0  -0.1703
  C  C277  1  0.231400  0.889700  0.965000  1.0  -0.0335
  C  C278  1  0.180800  0.926500  0.971600  1.0  -0.1667
  C  C279  1  0.180100  0.952200  0.014600  1.0  0.1652
  C  C280  1  0.339400  0.852900  0.998900  1.0  0.6685
  C  C281  1  0.479000  0.508600  0.731100  1.0  0.0345
  C  C282  1  0.506500  0.857900  0.831500  1.0  0.1246
  C  C283  1  0.526300  0.933800  0.863700  1.0  -0.1775
  C  C284  1  0.574700  0.995800  0.863600  1.0  -0.0415
  C  C285  1  0.597600  0.983000  0.830300  1.0  -0.1258
  C  C286  1  0.576400  0.905000  0.798000  1.0  0.1312
  C  C287  1  0.498400  0.947100  0.900300  1.0  0.7211
  C  C288  1  0.228700  0.940000  0.200800  1.0  0.0286
  C  C289  1  0.217900  0.843000  0.180700  1.0  0.0454
  C  C290  1  0.155900  0.195700  0.079200  1.0  0.1458
  C  C291  1  0.146200  0.297900  0.061500  1.0  -0.1795
  C  C292  1  0.189900  0.351500  0.052200  1.0  -0.0182
  C  C293  1  0.243100  0.301100  0.061800  1.0  -0.1208
  C  C294  1  0.250300  0.198800  0.077000  1.0  0.1186
  C  C295  1  0.085800  0.345100  0.051600  1.0  0.6836
  C  C296  1  0.774700  0.405900  0.044600  1.0  0.1638
  C  C297  1  0.780200  0.381300  0.002100  1.0  -0.1703
  C  C298  1  0.731400  0.389700  0.965000  1.0  -0.0335
  C  C299  1  0.680800  0.426500  0.971600  1.0  -0.1667
  C  C300  1  0.680100  0.452200  0.014600  1.0  0.1652
  C  C301  1  0.839400  0.352900  0.998900  1.0  0.6685
  C  C302  1  0.979000  0.008600  0.731100  1.0  0.0345
  C  C303  1  0.006500  0.357900  0.831500  1.0  0.1246
  C  C304  1  0.026300  0.433800  0.863700  1.0  -0.1775
  C  C305  1  0.074700  0.495800  0.863600  1.0  -0.0415
  C  C306  1  0.097600  0.483000  0.830300  1.0  -0.1258
  C  C307  1  0.076400  0.405000  0.798000  1.0  0.1312
  C  C308  1  0.998400  0.447100  0.900300  1.0  0.7211
  C  C309  1  0.728700  0.560000  0.700800  1.0  0.0304
  C  C310  1  0.717900  0.657000  0.680700  1.0  0.0442
  C  C311  1  0.655900  0.304300  0.579200  1.0  0.1455
  C  C312  1  0.646200  0.202100  0.561500  1.0  -0.1794
  C  C313  1  0.689900  0.148500  0.552200  1.0  -0.0192
  C  C314  1  0.743100  0.198900  0.561800  1.0  -0.1206
  C  C315  1  0.750300  0.301200  0.577000  1.0  0.1187
  C  C316  1  0.585800  0.154900  0.551600  1.0  0.6831
  C  C317  1  0.274700  0.094100  0.544600  1.0  0.1638
  C  C318  1  0.280200  0.118700  0.502100  1.0  -0.1704
  C  C319  1  0.231400  0.110300  0.465000  1.0  -0.0335
  C  C320  1  0.180800  0.073500  0.471600  1.0  -0.1669
  C  C321  1  0.180100  0.047800  0.514600  1.0  0.1649
  C  C322  1  0.339400  0.147100  0.498900  1.0  0.6688
  C  C323  1  0.479000  0.491400  0.231100  1.0  0.0325
  C  C324  1  0.506500  0.142100  0.331500  1.0  0.1246
  C  C325  1  0.526300  0.066200  0.363700  1.0  -0.177
  C  C326  1  0.574700  0.004200  0.363600  1.0  -0.0411
  C  C327  1  0.597600  0.017000  0.330300  1.0  -0.1254
  C  C328  1  0.576400  0.095000  0.298000  1.0  0.131
  C  C329  1  0.498400  0.052900  0.400300  1.0  0.7209
  C  C330  1  0.228700  0.060000  0.700800  1.0  0.0304
  C  C331  1  0.217900  0.157000  0.680700  1.0  0.0442
  C  C332  1  0.155900  0.804300  0.579200  1.0  0.1455
  C  C333  1  0.146200  0.702100  0.561500  1.0  -0.1794
  C  C334  1  0.189900  0.648500  0.552200  1.0  -0.0192
  C  C335  1  0.243100  0.698900  0.561800  1.0  -0.1206
  C  C336  1  0.250300  0.801200  0.577000  1.0  0.1187
  C  C337  1  0.085800  0.654900  0.551600  1.0  0.6831
  C  C338  1  0.774700  0.594100  0.544600  1.0  0.1638
  C  C339  1  0.780200  0.618700  0.502100  1.0  -0.1704
  C  C340  1  0.731400  0.610300  0.465000  1.0  -0.0335
  C  C341  1  0.680800  0.573500  0.471600  1.0  -0.1669
  C  C342  1  0.680100  0.547800  0.514600  1.0  0.1649
  C  C343  1  0.839400  0.647100  0.498900  1.0  0.6688
  C  C344  1  0.979000  0.991400  0.231100  1.0  0.0325
  C  C345  1  0.006500  0.642100  0.331500  1.0  0.1246
  C  C346  1  0.026300  0.566200  0.363700  1.0  -0.177
  C  C347  1  0.074700  0.504200  0.363600  1.0  -0.0411
  C  C348  1  0.097600  0.517000  0.330300  1.0  -0.1254
  C  C349  1  0.076400  0.595000  0.298000  1.0  0.131
  C  C350  1  0.998400  0.552900  0.400300  1.0  0.7209
  C  C351  1  0.271300  0.560000  0.799200  1.0  0.0312
  C  C352  1  0.282100  0.657000  0.819300  1.0  0.0468
  C  C353  1  0.344100  0.304300  0.920800  1.0  0.1442
  C  C354  1  0.353800  0.202100  0.938500  1.0  -0.1798
  C  C355  1  0.310100  0.148500  0.947800  1.0  -0.0187
  C  C356  1  0.256900  0.198900  0.938200  1.0  -0.1229
  C  C357  1  0.249700  0.301200  0.923000  1.0  0.1182
  C  C358  1  0.414200  0.154900  0.948400  1.0  0.6826
  C  C359  1  0.725300  0.094100  0.955400  1.0  0.1656
  C  C360  1  0.719800  0.118700  0.997900  1.0  -0.1701
  C  C361  1  0.768600  0.110300  0.035000  1.0  -0.0363
  C  C362  1  0.819200  0.073500  0.028400  1.0  -0.1604
  C  C363  1  0.819900  0.047800  0.985400  1.0  0.1652
  C  C364  1  0.660600  0.147100  0.001100  1.0  0.668
  C  C365  1  0.521000  0.491400  0.268900  1.0  0.0329
  C  C366  1  0.493500  0.142100  0.168500  1.0  0.1251
  C  C367  1  0.473700  0.066200  0.136300  1.0  -0.1772
  C  C368  1  0.425300  0.004200  0.136400  1.0  -0.0412
  C  C369  1  0.402400  0.017000  0.169700  1.0  -0.1264
  C  C370  1  0.423600  0.095000  0.202000  1.0  0.1342
  C  C371  1  0.501600  0.052900  0.099700  1.0  0.7197
  C  C372  1  0.771300  0.060000  0.799200  1.0  0.0312
  C  C373  1  0.782100  0.157000  0.819300  1.0  0.0468
  C  C374  1  0.844100  0.804300  0.920800  1.0  0.1442
  C  C375  1  0.853800  0.702100  0.938500  1.0  -0.1798
  C  C376  1  0.810100  0.648500  0.947800  1.0  -0.0187
  C  C377  1  0.756900  0.698900  0.938200  1.0  -0.1229
  C  C378  1  0.749700  0.801200  0.923000  1.0  0.1182
  C  C379  1  0.914200  0.654900  0.948400  1.0  0.6826
  C  C380  1  0.225300  0.594100  0.955400  1.0  0.1656
  C  C381  1  0.219800  0.618700  0.997900  1.0  -0.1701
  C  C382  1  0.268600  0.610300  0.035000  1.0  -0.0363
  C  C383  1  0.319200  0.573500  0.028400  1.0  -0.1604
  C  C384  1  0.319900  0.547800  0.985400  1.0  0.1652
  C  C385  1  0.160600  0.647100  0.001100  1.0  0.668
  C  C386  1  0.021000  0.991400  0.268900  1.0  0.0329
  C  C387  1  0.993500  0.642100  0.168500  1.0  0.1251
  C  C388  1  0.973700  0.566200  0.136300  1.0  -0.1772
  C  C389  1  0.925300  0.504200  0.136400  1.0  -0.0412
  C  C390  1  0.902400  0.517000  0.169700  1.0  -0.1264
  C  C391  1  0.923600  0.595000  0.202000  1.0  0.1342
  C  C392  1  0.001600  0.552900  0.099700  1.0  0.7197
  N  N393  1  0.292000  0.534400  0.330300  1.0  -0.6289
  N  N394  1  0.273300  0.341600  0.364300  1.0  -0.6296
  N  N395  1  0.294600  0.644600  0.414300  1.0  -0.3271
  N  N396  1  0.775700  0.942900  0.450100  1.0  -0.3303
  N  N397  1  0.529200  0.612400  0.795300  1.0  -0.6291
  N  N398  1  0.469200  0.845700  0.701600  1.0  -0.3111
  N  N399  1  0.792000  0.034400  0.330300  1.0  -0.6289
  N  N400  1  0.773300  0.841600  0.364300  1.0  -0.6296
  N  N401  1  0.794600  0.144600  0.414300  1.0  -0.3271
  N  N402  1  0.275700  0.442900  0.450100  1.0  -0.3303
  N  N403  1  0.029200  0.112400  0.795300  1.0  -0.6291
  N  N404  1  0.969200  0.345700  0.701600  1.0  -0.3111
  N  N405  1  0.708000  0.534400  0.169700  1.0  -0.6331
  N  N406  1  0.726700  0.341600  0.135700  1.0  -0.6278
  N  N407  1  0.705400  0.644600  0.085700  1.0  -0.327
  N  N408  1  0.224300  0.942900  0.049900  1.0  -0.3289
  N  N409  1  0.470800  0.612400  0.704700  1.0  -0.6252
  N  N410  1  0.530800  0.845700  0.798400  1.0  -0.3105
  N  N411  1  0.208000  0.034400  0.169700  1.0  -0.6331
  N  N412  1  0.226700  0.841600  0.135700  1.0  -0.6278
  N  N413  1  0.205400  0.144600  0.085700  1.0  -0.327
  N  N414  1  0.724300  0.442900  0.049900  1.0  -0.3289
  N  N415  1  0.970800  0.112400  0.704700  1.0  -0.6252
  N  N416  1  0.030800  0.345700  0.798400  1.0  -0.3105
  N  N417  1  0.708000  0.465600  0.669700  1.0  -0.6321
  N  N418  1  0.726700  0.658400  0.635700  1.0  -0.6302
  N  N419  1  0.705400  0.355400  0.585700  1.0  -0.3269
  N  N420  1  0.224300  0.057100  0.549900  1.0  -0.3284
  N  N421  1  0.470800  0.387600  0.204700  1.0  -0.6259
  N  N422  1  0.530800  0.154300  0.298400  1.0  -0.3101
  N  N423  1  0.208000  0.965600  0.669700  1.0  -0.6321
  N  N424  1  0.226700  0.158400  0.635700  1.0  -0.6302
  N  N425  1  0.205400  0.855400  0.585700  1.0  -0.3269
  N  N426  1  0.724300  0.557100  0.549900  1.0  -0.3284
  N  N427  1  0.970800  0.887600  0.204700  1.0  -0.6259
  N  N428  1  0.030800  0.654300  0.298400  1.0  -0.3101
  N  N429  1  0.292000  0.465600  0.830300  1.0  -0.6285
  N  N430  1  0.273300  0.658400  0.864300  1.0  -0.6297
  N  N431  1  0.294600  0.355400  0.914300  1.0  -0.3266
  N  N432  1  0.775700  0.057100  0.950100  1.0  -0.3307
  N  N433  1  0.529200  0.387600  0.295300  1.0  -0.6301
  N  N434  1  0.469200  0.154300  0.201600  1.0  -0.3112
  N  N435  1  0.792000  0.965600  0.830300  1.0  -0.6285
  N  N436  1  0.773300  0.158400  0.864300  1.0  -0.6297
  N  N437  1  0.794600  0.855400  0.914300  1.0  -0.3266
  N  N438  1  0.275700  0.557100  0.950100  1.0  -0.3307
  N  N439  1  0.029200  0.887600  0.295300  1.0  -0.6301
  N  N440  1  0.969200  0.654300  0.201600  1.0  -0.3112
  O  O441  1  0.422700  0.935200  0.467400  1.0  -0.6498
  O  O442  1  0.451400  0.788200  0.438100  1.0  -0.6457
  O  O443  1  0.620100  0.835500  0.466900  1.0  -0.6042
  O  O444  1  0.660000  0.849300  0.542100  1.0  -0.6595
  O  O445  1  0.477600  0.002400  0.567200  1.0  -0.6137
  O  O446  1  0.548000  0.894400  0.606300  1.0  -0.6532
  O  O447  1  0.534500  0.858000  0.515200  1.0  -0.8437
  O  O448  1  0.922700  0.435200  0.467400  1.0  -0.6498
  O  O449  1  0.951400  0.288200  0.438100  1.0  -0.6457
  O  O450  1  0.120100  0.335500  0.466900  1.0  -0.6042
  O  O451  1  0.160000  0.349300  0.542100  1.0  -0.6595
  O  O452  1  0.977600  0.502400  0.567200  1.0  -0.6137
  O  O453  1  0.048000  0.394400  0.606300  1.0  -0.6532
  O  O454  1  0.034500  0.358000  0.515200  1.0  -0.8437
  O  O455  1  0.577300  0.935200  0.032600  1.0  -0.6506
  O  O456  1  0.548600  0.788200  0.061900  1.0  -0.6454
  O  O457  1  0.379900  0.835500  0.033100  1.0  -0.604
  O  O458  1  0.340000  0.849300  0.957900  1.0  -0.6593
  O  O459  1  0.522400  0.002400  0.932800  1.0  -0.6146
  O  O460  1  0.452000  0.894400  0.893700  1.0  -0.6545
  O  O461  1  0.465500  0.858000  0.984800  1.0  -0.8443
  O  O462  1  0.077300  0.435200  0.032600  1.0  -0.6506
  O  O463  1  0.048600  0.288200  0.061900  1.0  -0.6454
  O  O464  1  0.879900  0.335500  0.033100  1.0  -0.604
  O  O465  1  0.840000  0.349300  0.957900  1.0  -0.6593
  O  O466  1  0.022400  0.502400  0.932800  1.0  -0.6146
  O  O467  1  0.952000  0.394400  0.893700  1.0  -0.6545
  O  O468  1  0.965500  0.358000  0.984800  1.0  -0.8443
  O  O469  1  0.577300  0.064800  0.532600  1.0  -0.6502
  O  O470  1  0.548600  0.211800  0.561900  1.0  -0.6452
  O  O471  1  0.379900  0.164500  0.533100  1.0  -0.6047
  O  O472  1  0.340000  0.150700  0.457900  1.0  -0.6591
  O  O473  1  0.522400  0.997600  0.432800  1.0  -0.6149
  O  O474  1  0.452000  0.105600  0.393700  1.0  -0.6538
  O  O475  1  0.465500  0.142000  0.484800  1.0  -0.8442
  O  O476  1  0.077300  0.564800  0.532600  1.0  -0.6502
  O  O477  1  0.048600  0.711800  0.561900  1.0  -0.6452
  O  O478  1  0.879900  0.664500  0.533100  1.0  -0.6047
  O  O479  1  0.840000  0.650700  0.457900  1.0  -0.6591
  O  O480  1  0.022400  0.497600  0.432800  1.0  -0.6149
  O  O481  1  0.952000  0.605600  0.393700  1.0  -0.6538
  O  O482  1  0.965500  0.642000  0.484800  1.0  -0.8442
  O  O483  1  0.422700  0.064800  0.967400  1.0  -0.6492
  O  O484  1  0.451400  0.211800  0.938100  1.0  -0.6463
  O  O485  1  0.620100  0.164500  0.966900  1.0  -0.6039
  O  O486  1  0.660000  0.150700  0.042100  1.0  -0.6598
  O  O487  1  0.477600  0.997600  0.067200  1.0  -0.614
  O  O488  1  0.548000  0.105600  0.106300  1.0  -0.6529
  O  O489  1  0.534500  0.142000  0.015200  1.0  -0.843
  O  O490  1  0.922700  0.564800  0.967400  1.0  -0.6492
  O  O491  1  0.951400  0.711800  0.938100  1.0  -0.6463
  O  O492  1  0.120100  0.664500  0.966900  1.0  -0.6039
  O  O493  1  0.160000  0.650700  0.042100  1.0  -0.6598
  O  O494  1  0.977600  0.497600  0.067200  1.0  -0.614
  O  O495  1  0.048000  0.605600  0.106300  1.0  -0.6529
  O  O496  1  0.034500  0.642000  0.015200  1.0  -0.843
