# generated using pymatgen
data_ZnH8C12(IN2)2
_symmetry_space_group_name_H-M   'P 1'
_cell_length_a   27.74200000
_cell_length_b   13.87190000
_cell_length_c   44.52200000
_cell_angle_alpha   90.00000000
_cell_angle_beta   90.00000000
_cell_angle_gamma   90.00000000
_symmetry_Int_Tables_number   1
_chemical_formula_structural   ZnH8C12(IN2)2
_chemical_formula_sum   'Zn24 H192 C288 I48 N96'
_cell_volume   17133.59046960
_cell_formula_units_Z   24
loop_
 _symmetry_equiv_pos_site_id
 _symmetry_equiv_pos_as_xyz
  1  'x, y, z'
loop_
 _atom_site_type_symbol
 _atom_site_label
 _atom_site_symmetry_multiplicity
 _atom_site_fract_x
 _atom_site_fract_y
 _atom_site_fract_z
 _atom_site_occupancy
 _atom_site_charge
  Zn  Zn1  1  0.524400  0.881760  0.585150  1.0  0.8276
  Zn  Zn2  1  0.546040  0.642310  0.412300  1.0  0.8315
  Zn  Zn3  1  0.260570  0.181400  0.819890  1.0  0.8616
  Zn  Zn4  1  0.975600  0.118240  0.085150  1.0  0.8269
  Zn  Zn5  1  0.953960  0.357690  0.912300  1.0  0.8309
  Zn  Zn6  1  0.239430  0.818600  0.319890  1.0  0.8655
  Zn  Zn7  1  0.475600  0.381760  0.914850  1.0  0.8282
  Zn  Zn8  1  0.453960  0.142310  0.087700  1.0  0.8293
  Zn  Zn9  1  0.739430  0.681400  0.680110  1.0  0.8612
  Zn  Zn10  1  0.024400  0.618240  0.414850  1.0  0.8268
  Zn  Zn11  1  0.046040  0.857690  0.587700  1.0  0.8311
  Zn  Zn12  1  0.760570  0.318600  0.180110  1.0  0.8649
  Zn  Zn13  1  0.475600  0.118240  0.414850  1.0  0.8269
  Zn  Zn14  1  0.453960  0.357690  0.587700  1.0  0.8302
  Zn  Zn15  1  0.739430  0.818600  0.180110  1.0  0.865
  Zn  Zn16  1  0.024400  0.881760  0.914850  1.0  0.8278
  Zn  Zn17  1  0.046040  0.642310  0.087700  1.0  0.8301
  Zn  Zn18  1  0.760570  0.181400  0.680110  1.0  0.8616
  Zn  Zn19  1  0.524400  0.618240  0.085150  1.0  0.827
  Zn  Zn20  1  0.546040  0.857690  0.912300  1.0  0.8321
  Zn  Zn21  1  0.260570  0.318600  0.319890  1.0  0.8654
  Zn  Zn22  1  0.975600  0.381760  0.585150  1.0  0.8279
  Zn  Zn23  1  0.953960  0.142310  0.412300  1.0  0.8304
  Zn  Zn24  1  0.239430  0.681400  0.819890  1.0  0.8612
  H  H25  1  0.535000  0.021700  0.534000  1.0  0.0873
  H  H26  1  0.560600  0.177800  0.524700  1.0  0.1235
  H  H27  1  0.579000  0.036600  0.617800  1.0  0.0924
  H  H28  1  0.604900  0.193600  0.611300  1.0  0.1232
  H  H29  1  0.713300  0.472400  0.666800  1.0  0.0849
  H  H30  1  0.675400  0.382400  0.630000  1.0  0.1174
  H  H31  1  0.684800  0.713200  0.624400  1.0  0.0836
  H  H32  1  0.647100  0.630400  0.585800  1.0  0.1282
  H  H33  1  0.576000  0.701300  0.475400  1.0  0.0882
  H  H34  1  0.598100  0.627800  0.520300  1.0  0.1204
  H  H35  1  0.526900  0.455100  0.443200  1.0  0.082
  H  H36  1  0.548500  0.374400  0.486900  1.0  0.1242
  H  H37  1  0.083000  0.946100  0.644200  1.0  0.1004
  H  H38  1  0.155100  0.975000  0.668700  1.0  0.1248
  H  H39  1  0.151500  0.875300  0.569800  1.0  0.0912
  H  H40  1  0.225900  0.907100  0.591900  1.0  0.1246
  H  H41  1  0.418200  0.888100  0.570100  1.0  0.0891
  H  H42  1  0.344000  0.914000  0.593500  1.0  0.1233
  H  H43  1  0.487900  0.950800  0.644600  1.0  0.0895
  H  H44  1  0.416200  0.978600  0.670100  1.0  0.1218
  H  H45  1  0.340200  0.131900  0.776900  1.0  0.0888
  H  H46  1  0.350400  0.069100  0.729300  1.0  0.1214
  H  H47  1  0.202600  0.064300  0.776800  1.0  0.0933
  H  H48  1  0.208200  0.003600  0.727900  1.0  0.1206
  H  H49  1  0.965000  0.978300  0.034000  1.0  0.0876
  H  H50  1  0.939400  0.822200  0.024700  1.0  0.1236
  H  H51  1  0.921000  0.963400  0.117800  1.0  0.0925
  H  H52  1  0.895100  0.806400  0.111300  1.0  0.1237
  H  H53  1  0.786700  0.527600  0.166800  1.0  0.0845
  H  H54  1  0.824600  0.617600  0.130000  1.0  0.1172
  H  H55  1  0.815200  0.286800  0.124400  1.0  0.0847
  H  H56  1  0.852900  0.369600  0.085800  1.0  0.1274
  H  H57  1  0.924000  0.298700  0.975400  1.0  0.0888
  H  H58  1  0.901900  0.372200  0.020300  1.0  0.1205
  H  H59  1  0.973100  0.544900  0.943200  1.0  0.0822
  H  H60  1  0.951500  0.625600  0.986900  1.0  0.1239
  H  H61  1  0.417000  0.053900  0.144200  1.0  0.0997
  H  H62  1  0.344900  0.025000  0.168700  1.0  0.1242
  H  H63  1  0.348500  0.124700  0.069800  1.0  0.091
  H  H64  1  0.274100  0.092900  0.091900  1.0  0.125
  H  H65  1  0.081800  0.111900  0.070100  1.0  0.089
  H  H66  1  0.156000  0.086000  0.093500  1.0  0.123
  H  H67  1  0.012100  0.049200  0.144600  1.0  0.0899
  H  H68  1  0.083800  0.021400  0.170100  1.0  0.122
  H  H69  1  0.159800  0.868100  0.276900  1.0  0.0889
  H  H70  1  0.149600  0.930900  0.229300  1.0  0.1214
  H  H71  1  0.297400  0.935700  0.276800  1.0  0.093
  H  H72  1  0.291800  0.996400  0.227900  1.0  0.1205
  H  H73  1  0.465000  0.521700  0.966000  1.0  0.0883
  H  H74  1  0.439400  0.677800  0.975300  1.0  0.1235
  H  H75  1  0.421000  0.536600  0.882200  1.0  0.0922
  H  H76  1  0.395100  0.693600  0.888700  1.0  0.1234
  H  H77  1  0.286700  0.972400  0.833200  1.0  0.0848
  H  H78  1  0.324600  0.882400  0.870000  1.0  0.1169
  H  H79  1  0.315200  0.213200  0.875600  1.0  0.0835
  H  H80  1  0.352900  0.130400  0.914200  1.0  0.1284
  H  H81  1  0.424000  0.201300  0.024600  1.0  0.0883
  H  H82  1  0.401900  0.127800  0.979700  1.0  0.1209
  H  H83  1  0.473100  0.955100  0.056800  1.0  0.0828
  H  H84  1  0.451500  0.874400  0.013100  1.0  0.1236
  H  H85  1  0.917000  0.446100  0.855800  1.0  0.0995
  H  H86  1  0.844900  0.475000  0.831300  1.0  0.1242
  H  H87  1  0.848500  0.375300  0.930200  1.0  0.0912
  H  H88  1  0.774100  0.407100  0.908100  1.0  0.1252
  H  H89  1  0.581800  0.388100  0.929900  1.0  0.0899
  H  H90  1  0.656000  0.414000  0.906500  1.0  0.1236
  H  H91  1  0.512100  0.450800  0.855400  1.0  0.0894
  H  H92  1  0.583800  0.478600  0.829900  1.0  0.1216
  H  H93  1  0.659800  0.631900  0.723100  1.0  0.0882
  H  H94  1  0.649600  0.569100  0.770700  1.0  0.121
  H  H95  1  0.797400  0.564300  0.723200  1.0  0.0928
  H  H96  1  0.791800  0.503600  0.772100  1.0  0.1207
  H  H97  1  0.035000  0.478300  0.466000  1.0  0.0884
  H  H98  1  0.060600  0.322200  0.475300  1.0  0.1231
  H  H99  1  0.079000  0.463400  0.382200  1.0  0.0922
  H  H100  1  0.104900  0.306400  0.388700  1.0  0.1234
  H  H101  1  0.213300  0.027600  0.333200  1.0  0.0848
  H  H102  1  0.175400  0.117600  0.370000  1.0  0.1171
  H  H103  1  0.184800  0.786800  0.375600  1.0  0.0845
  H  H104  1  0.147100  0.869600  0.414200  1.0  0.1279
  H  H105  1  0.076000  0.798700  0.524600  1.0  0.0888
  H  H106  1  0.098100  0.872200  0.479700  1.0  0.1206
  H  H107  1  0.026900  0.044900  0.556800  1.0  0.0831
  H  H108  1  0.048500  0.125600  0.513100  1.0  0.1237
  H  H109  1  0.583000  0.553900  0.355800  1.0  0.0995
  H  H110  1  0.655100  0.525000  0.331300  1.0  0.1241
  H  H111  1  0.651500  0.624700  0.430200  1.0  0.0908
  H  H112  1  0.725900  0.592900  0.408100  1.0  0.1245
  H  H113  1  0.918200  0.611900  0.429900  1.0  0.0899
  H  H114  1  0.844000  0.586000  0.406500  1.0  0.1237
  H  H115  1  0.987900  0.549200  0.355400  1.0  0.0892
  H  H116  1  0.916200  0.521400  0.329900  1.0  0.1217
  H  H117  1  0.840200  0.368100  0.223100  1.0  0.0893
  H  H118  1  0.850400  0.430900  0.270700  1.0  0.1213
  H  H119  1  0.702600  0.435700  0.223200  1.0  0.0931
  H  H120  1  0.708200  0.496400  0.272100  1.0  0.1203
  H  H121  1  0.465000  0.978300  0.466000  1.0  0.0884
  H  H122  1  0.439400  0.822200  0.475300  1.0  0.1233
  H  H123  1  0.421000  0.963400  0.382200  1.0  0.0918
  H  H124  1  0.395100  0.806400  0.388700  1.0  0.1235
  H  H125  1  0.286700  0.527600  0.333200  1.0  0.0847
  H  H126  1  0.324600  0.617600  0.370000  1.0  0.1171
  H  H127  1  0.315200  0.286800  0.375600  1.0  0.0846
  H  H128  1  0.352900  0.369600  0.414200  1.0  0.1278
  H  H129  1  0.424000  0.298700  0.524600  1.0  0.0888
  H  H130  1  0.401900  0.372200  0.479700  1.0  0.1204
  H  H131  1  0.473100  0.544900  0.556800  1.0  0.0829
  H  H132  1  0.451500  0.625600  0.513100  1.0  0.1239
  H  H133  1  0.917000  0.053900  0.355800  1.0  0.0992
  H  H134  1  0.844900  0.025000  0.331300  1.0  0.1241
  H  H135  1  0.848500  0.124700  0.430200  1.0  0.0908
  H  H136  1  0.774100  0.092900  0.408100  1.0  0.1251
  H  H137  1  0.581800  0.111900  0.429900  1.0  0.0896
  H  H138  1  0.656000  0.086000  0.406500  1.0  0.1233
  H  H139  1  0.512100  0.049200  0.355400  1.0  0.0894
  H  H140  1  0.583800  0.021400  0.329900  1.0  0.1214
  H  H141  1  0.659800  0.868100  0.223100  1.0  0.0887
  H  H142  1  0.649600  0.930900  0.270700  1.0  0.1211
  H  H143  1  0.797400  0.935700  0.223200  1.0  0.0928
  H  H144  1  0.791800  0.996400  0.272100  1.0  0.1206
  H  H145  1  0.035000  0.021700  0.966000  1.0  0.0884
  H  H146  1  0.060600  0.177800  0.975300  1.0  0.1232
  H  H147  1  0.079000  0.036600  0.882200  1.0  0.0921
  H  H148  1  0.104900  0.193600  0.888700  1.0  0.1233
  H  H149  1  0.213300  0.472400  0.833200  1.0  0.0847
  H  H150  1  0.175400  0.382400  0.870000  1.0  0.117
  H  H151  1  0.184800  0.713200  0.875600  1.0  0.0835
  H  H152  1  0.147100  0.630400  0.914200  1.0  0.1286
  H  H153  1  0.076000  0.701300  0.024600  1.0  0.0881
  H  H154  1  0.098100  0.627800  0.979700  1.0  0.1211
  H  H155  1  0.026900  0.455100  0.056800  1.0  0.0828
  H  H156  1  0.048500  0.374400  0.013100  1.0  0.1238
  H  H157  1  0.583000  0.946100  0.855800  1.0  0.0998
  H  H158  1  0.655100  0.975000  0.831300  1.0  0.1242
  H  H159  1  0.651500  0.875300  0.930200  1.0  0.0909
  H  H160  1  0.725900  0.907100  0.908100  1.0  0.1248
  H  H161  1  0.918200  0.888100  0.929900  1.0  0.0905
  H  H162  1  0.844000  0.914000  0.906500  1.0  0.1237
  H  H163  1  0.987900  0.950800  0.855400  1.0  0.0892
  H  H164  1  0.916200  0.978600  0.829900  1.0  0.122
  H  H165  1  0.840200  0.131900  0.723100  1.0  0.0892
  H  H166  1  0.850400  0.069100  0.770700  1.0  0.1212
  H  H167  1  0.702600  0.064300  0.723200  1.0  0.0931
  H  H168  1  0.708200  0.003600  0.772100  1.0  0.1206
  H  H169  1  0.535000  0.478300  0.034000  1.0  0.0876
  H  H170  1  0.560600  0.322200  0.024700  1.0  0.1235
  H  H171  1  0.579000  0.463400  0.117800  1.0  0.0924
  H  H172  1  0.604900  0.306400  0.111300  1.0  0.1233
  H  H173  1  0.713300  0.027600  0.166800  1.0  0.0848
  H  H174  1  0.675400  0.117600  0.130000  1.0  0.1171
  H  H175  1  0.684800  0.786800  0.124400  1.0  0.0848
  H  H176  1  0.647100  0.869600  0.085800  1.0  0.1275
  H  H177  1  0.576000  0.798700  0.975400  1.0  0.0889
  H  H178  1  0.598100  0.872200  0.020300  1.0  0.1204
  H  H179  1  0.526900  0.044900  0.943200  1.0  0.0824
  H  H180  1  0.548500  0.125600  0.986900  1.0  0.1238
  H  H181  1  0.083000  0.553900  0.144200  1.0  0.1002
  H  H182  1  0.155100  0.525000  0.168700  1.0  0.1249
  H  H183  1  0.151500  0.624700  0.069800  1.0  0.0914
  H  H184  1  0.225900  0.592900  0.091900  1.0  0.1247
  H  H185  1  0.418200  0.611900  0.070100  1.0  0.089
  H  H186  1  0.344000  0.586000  0.093500  1.0  0.1236
  H  H187  1  0.487900  0.549200  0.144600  1.0  0.0896
  H  H188  1  0.416200  0.521400  0.170100  1.0  0.1218
  H  H189  1  0.340200  0.368100  0.276900  1.0  0.0894
  H  H190  1  0.350400  0.430900  0.229300  1.0  0.1214
  H  H191  1  0.202600  0.435700  0.276800  1.0  0.0931
  H  H192  1  0.208200  0.496400  0.227900  1.0  0.1205
  H  H193  1  0.965000  0.521700  0.534000  1.0  0.0874
  H  H194  1  0.939400  0.677800  0.524700  1.0  0.1235
  H  H195  1  0.921000  0.536600  0.617800  1.0  0.0931
  H  H196  1  0.895100  0.693600  0.611300  1.0  0.1235
  H  H197  1  0.786700  0.972400  0.666800  1.0  0.085
  H  H198  1  0.824600  0.882400  0.630000  1.0  0.1172
  H  H199  1  0.815200  0.213200  0.624400  1.0  0.0836
  H  H200  1  0.852900  0.130400  0.585800  1.0  0.128
  H  H201  1  0.924000  0.201300  0.475400  1.0  0.0884
  H  H202  1  0.901900  0.127800  0.520300  1.0  0.1206
  H  H203  1  0.973100  0.955100  0.443200  1.0  0.082
  H  H204  1  0.951500  0.874400  0.486900  1.0  0.1239
  H  H205  1  0.417000  0.446100  0.644200  1.0  0.0999
  H  H206  1  0.344900  0.475000  0.668700  1.0  0.1242
  H  H207  1  0.348500  0.375300  0.569800  1.0  0.0912
  H  H208  1  0.274100  0.407100  0.591900  1.0  0.1248
  H  H209  1  0.081800  0.388100  0.570100  1.0  0.089
  H  H210  1  0.156000  0.414000  0.593500  1.0  0.123
  H  H211  1  0.012100  0.450800  0.644600  1.0  0.0899
  H  H212  1  0.083800  0.478600  0.670100  1.0  0.1219
  H  H213  1  0.159800  0.631900  0.776900  1.0  0.0881
  H  H214  1  0.149600  0.569100  0.729300  1.0  0.1214
  H  H215  1  0.297400  0.564300  0.776800  1.0  0.0928
  H  H216  1  0.291800  0.503600  0.727900  1.0  0.1206
  C  C217  1  0.549490  0.057300  0.549830  1.0  0.1451
  C  C218  1  0.564370  0.150300  0.544060  1.0  -0.1463
  C  C219  1  0.575040  0.066200  0.598740  1.0  0.1593
  C  C220  1  0.590630  0.159600  0.595080  1.0  -0.1408
  C  C221  1  0.585120  0.203000  0.567410  1.0  -0.1133
  C  C222  1  0.598900  0.305700  0.562700  1.0  0.404
  C  C223  1  0.699500  0.504800  0.650090  1.0  0.1484
  C  C224  1  0.677200  0.450600  0.628250  1.0  -0.1365
  C  C225  1  0.683200  0.644900  0.625420  1.0  0.1503
  C  C226  1  0.660400  0.596200  0.602310  1.0  -0.1489
  C  C227  1  0.657540  0.496800  0.603760  1.0  -0.1278
  C  C228  1  0.632440  0.442300  0.579660  1.0  0.3933
  C  C229  1  0.571000  0.634000  0.477680  1.0  0.1377
  C  C230  1  0.584300  0.590600  0.504530  1.0  -0.1349
  C  C231  1  0.542440  0.489800  0.458890  1.0  0.13
  C  C232  1  0.554890  0.441300  0.484850  1.0  -0.1266
  C  C233  1  0.577040  0.492700  0.508080  1.0  -0.112
  C  C234  1  0.593120  0.441400  0.535650  1.0  0.3977
  C  C235  1  0.112390  0.936600  0.633720  1.0  0.1348
  C  C236  1  0.155130  0.954700  0.648380  1.0  -0.1019
  C  C237  1  0.152490  0.895900  0.590180  1.0  0.1398
  C  C238  1  0.196980  0.914000  0.603110  1.0  -0.1474
  C  C239  1  0.198090  0.942700  0.633090  1.0  -0.117
  C  C240  1  0.244560  0.957700  0.648920  1.0  0.4204
  C  C241  1  0.417660  0.906100  0.590700  1.0  0.1318
  C  C242  1  0.373130  0.921400  0.604460  1.0  -0.1413
  C  C243  1  0.458250  0.942800  0.634190  1.0  0.1418
  C  C244  1  0.415720  0.959400  0.649600  1.0  -0.1297
  C  C245  1  0.372220  0.947500  0.634570  1.0  -0.1175
  C  C246  1  0.325710  0.960100  0.650060  1.0  0.3976
  C  C247  1  0.313200  0.105500  0.766720  1.0  0.1405
  C  C248  1  0.319480  0.068900  0.738390  1.0  -0.1358
  C  C249  1  0.232690  0.066800  0.766650  1.0  0.137
  C  C250  1  0.235820  0.029600  0.737580  1.0  -0.1218
  C  C251  1  0.280070  0.031600  0.723240  1.0  -0.1357
  C  C252  1  0.283290  0.998100  0.691650  1.0  0.3772
  C  C253  1  0.950510  0.942700  0.049830  1.0  0.1453
  C  C254  1  0.935630  0.849700  0.044060  1.0  -0.1469
  C  C255  1  0.924960  0.933800  0.098740  1.0  0.1576
  C  C256  1  0.909370  0.840400  0.095080  1.0  -0.1414
  C  C257  1  0.914880  0.797000  0.067410  1.0  -0.1121
  C  C258  1  0.901100  0.694300  0.062700  1.0  0.4053
  C  C259  1  0.800500  0.495200  0.150090  1.0  0.1483
  C  C260  1  0.822800  0.549400  0.128250  1.0  -0.137
  C  C261  1  0.816800  0.355100  0.125420  1.0  0.1511
  C  C262  1  0.839600  0.403800  0.102310  1.0  -0.1492
  C  C263  1  0.842460  0.503200  0.103760  1.0  -0.1281
  C  C264  1  0.867560  0.557700  0.079660  1.0  0.3934
  C  C265  1  0.929000  0.366000  0.977680  1.0  0.1365
  C  C266  1  0.915700  0.409400  0.004530  1.0  -0.134
  C  C267  1  0.957560  0.510200  0.958890  1.0  0.1303
  C  C268  1  0.945110  0.558700  0.984850  1.0  -0.125
  C  C269  1  0.922960  0.507300  0.008080  1.0  -0.1089
  C  C270  1  0.906880  0.558600  0.035650  1.0  0.3985
  C  C271  1  0.387610  0.063400  0.133720  1.0  0.133
  C  C272  1  0.344870  0.045300  0.148380  1.0  -0.101
  C  C273  1  0.347510  0.104100  0.090180  1.0  0.1397
  C  C274  1  0.303020  0.086000  0.103110  1.0  -0.1474
  C  C275  1  0.301910  0.057300  0.133090  1.0  -0.117
  C  C276  1  0.255440  0.042300  0.148920  1.0  0.42
  C  C277  1  0.082340  0.093900  0.090700  1.0  0.1307
  C  C278  1  0.126870  0.078600  0.104460  1.0  -0.1419
  C  C279  1  0.041750  0.057200  0.134190  1.0  0.1414
  C  C280  1  0.084280  0.040600  0.149600  1.0  -0.13
  C  C281  1  0.127780  0.052500  0.134570  1.0  -0.1173
  C  C282  1  0.174290  0.039900  0.150060  1.0  0.3978
  C  C283  1  0.186800  0.894500  0.266720  1.0  0.1426
  C  C284  1  0.180520  0.931100  0.238390  1.0  -0.1362
  C  C285  1  0.267310  0.933200  0.266650  1.0  0.1376
  C  C286  1  0.264180  0.970400  0.237580  1.0  -0.1202
  C  C287  1  0.219930  0.968400  0.223240  1.0  -0.1356
  C  C288  1  0.216710  0.001900  0.191650  1.0  0.3771
  C  C289  1  0.450510  0.557300  0.950170  1.0  0.1467
  C  C290  1  0.435630  0.650300  0.955940  1.0  -0.1482
  C  C291  1  0.424960  0.566200  0.901260  1.0  0.1586
  C  C292  1  0.409370  0.659600  0.904920  1.0  -0.1405
  C  C293  1  0.414880  0.703000  0.932590  1.0  -0.1123
  C  C294  1  0.401100  0.805700  0.937300  1.0  0.4051
  C  C295  1  0.300500  0.004800  0.849910  1.0  0.1485
  C  C296  1  0.322800  0.950600  0.871750  1.0  -0.1366
  C  C297  1  0.316800  0.144900  0.874580  1.0  0.1501
  C  C298  1  0.339600  0.096200  0.897690  1.0  -0.1503
  C  C299  1  0.342460  0.996800  0.896240  1.0  -0.1284
  C  C300  1  0.367560  0.942300  0.920340  1.0  0.3932
  C  C301  1  0.429000  0.134000  0.022320  1.0  0.1369
  C  C302  1  0.415700  0.090600  0.995470  1.0  -0.1349
  C  C303  1  0.457560  0.989800  0.041110  1.0  0.1303
  C  C304  1  0.445110  0.941300  0.015150  1.0  -0.1248
  C  C305  1  0.422960  0.992700  0.991920  1.0  -0.1104
  C  C306  1  0.406880  0.941400  0.964350  1.0  0.3991
  C  C307  1  0.887610  0.436600  0.866280  1.0  0.1327
  C  C308  1  0.844870  0.454700  0.851620  1.0  -0.0996
  C  C309  1  0.847510  0.395900  0.909820  1.0  0.1397
  C  C310  1  0.803020  0.414000  0.896890  1.0  -0.1479
  C  C311  1  0.801910  0.442700  0.866910  1.0  -0.1171
  C  C312  1  0.755440  0.457700  0.851080  1.0  0.4202
  C  C313  1  0.582340  0.406100  0.909300  1.0  0.1294
  C  C314  1  0.626870  0.421400  0.895540  1.0  -0.1405
  C  C315  1  0.541750  0.442800  0.865810  1.0  0.1417
  C  C316  1  0.584280  0.459400  0.850400  1.0  -0.1283
  C  C317  1  0.627780  0.447500  0.865430  1.0  -0.1168
  C  C318  1  0.674290  0.460100  0.849940  1.0  0.3977
  C  C319  1  0.686800  0.605500  0.733280  1.0  0.1416
  C  C320  1  0.680520  0.568900  0.761610  1.0  -0.137
  C  C321  1  0.767310  0.566800  0.733350  1.0  0.137
  C  C322  1  0.764180  0.529600  0.762420  1.0  -0.1198
  C  C323  1  0.719930  0.531600  0.776760  1.0  -0.1348
  C  C324  1  0.716710  0.498100  0.808350  1.0  0.3769
  C  C325  1  0.049490  0.442700  0.450170  1.0  0.1458
  C  C326  1  0.064370  0.349700  0.455940  1.0  -0.1483
  C  C327  1  0.075040  0.433800  0.401260  1.0  0.1585
  C  C328  1  0.090630  0.340400  0.404920  1.0  -0.1413
  C  C329  1  0.085120  0.297000  0.432590  1.0  -0.1128
  C  C330  1  0.098900  0.194300  0.437300  1.0  0.4043
  C  C331  1  0.199500  0.995200  0.349910  1.0  0.1478
  C  C332  1  0.177200  0.049400  0.371750  1.0  -0.1377
  C  C333  1  0.183200  0.855100  0.374580  1.0  0.1514
  C  C334  1  0.160400  0.903800  0.397690  1.0  -0.1504
  C  C335  1  0.157540  0.003200  0.396240  1.0  -0.128
  C  C336  1  0.132440  0.057700  0.420340  1.0  0.3928
  C  C337  1  0.071000  0.866000  0.522320  1.0  0.1372
  C  C338  1  0.084300  0.909400  0.495470  1.0  -0.1354
  C  C339  1  0.042440  0.010200  0.541110  1.0  0.1296
  C  C340  1  0.054890  0.058700  0.515150  1.0  -0.1273
  C  C341  1  0.077040  0.007300  0.491920  1.0  -0.11
  C  C342  1  0.093120  0.058600  0.464350  1.0  0.3974
  C  C343  1  0.612390  0.563400  0.366280  1.0  0.1343
  C  C344  1  0.655130  0.545300  0.351620  1.0  -0.0994
  C  C345  1  0.652490  0.604100  0.409820  1.0  0.1394
  C  C346  1  0.696980  0.586000  0.396890  1.0  -0.1462
  C  C347  1  0.698090  0.557300  0.366910  1.0  -0.1168
  C  C348  1  0.744560  0.542300  0.351080  1.0  0.4204
  C  C349  1  0.917660  0.593900  0.409300  1.0  0.1291
  C  C350  1  0.873130  0.578600  0.395540  1.0  -0.1423
  C  C351  1  0.958250  0.557200  0.365810  1.0  0.142
  C  C352  1  0.915720  0.540600  0.350400  1.0  -0.1285
  C  C353  1  0.872220  0.552500  0.365430  1.0  -0.1172
  C  C354  1  0.825710  0.539900  0.349940  1.0  0.3977
  C  C355  1  0.813200  0.394500  0.233280  1.0  0.1399
  C  C356  1  0.819480  0.431100  0.261610  1.0  -0.1356
  C  C357  1  0.732690  0.433200  0.233350  1.0  0.1373
  C  C358  1  0.735820  0.470400  0.262420  1.0  -0.1219
  C  C359  1  0.780070  0.468400  0.276760  1.0  -0.1349
  C  C360  1  0.783290  0.501900  0.308350  1.0  0.3767
  C  C361  1  0.450510  0.942700  0.450170  1.0  0.1456
  C  C362  1  0.435630  0.849700  0.455940  1.0  -0.1487
  C  C363  1  0.424960  0.933800  0.401260  1.0  0.159
  C  C364  1  0.409370  0.840400  0.404920  1.0  -0.1404
  C  C365  1  0.414880  0.797000  0.432590  1.0  -0.112
  C  C366  1  0.401100  0.694300  0.437300  1.0  0.4054
  C  C367  1  0.300500  0.495200  0.349910  1.0  0.1488
  C  C368  1  0.322800  0.549400  0.371750  1.0  -0.1373
  C  C369  1  0.316800  0.355100  0.374580  1.0  0.1513
  C  C370  1  0.339600  0.403800  0.397690  1.0  -0.1501
  C  C371  1  0.342460  0.503200  0.396240  1.0  -0.1287
  C  C372  1  0.367560  0.557700  0.420340  1.0  0.3928
  C  C373  1  0.429000  0.366000  0.522320  1.0  0.1361
  C  C374  1  0.415700  0.409400  0.495470  1.0  -0.1343
  C  C375  1  0.457560  0.510200  0.541110  1.0  0.1296
  C  C376  1  0.445110  0.558700  0.515150  1.0  -0.126
  C  C377  1  0.422960  0.507300  0.491920  1.0  -0.1096
  C  C378  1  0.406880  0.558600  0.464350  1.0  0.399
  C  C379  1  0.887610  0.063400  0.366280  1.0  0.1326
  C  C380  1  0.844870  0.045300  0.351620  1.0  -0.0995
  C  C381  1  0.847510  0.104100  0.409820  1.0  0.1392
  C  C382  1  0.803020  0.086000  0.396890  1.0  -0.1478
  C  C383  1  0.801910  0.057300  0.366910  1.0  -0.1172
  C  C384  1  0.755440  0.042300  0.351080  1.0  0.4201
  C  C385  1  0.582340  0.093900  0.409300  1.0  0.1291
  C  C386  1  0.626870  0.078600  0.395540  1.0  -0.1409
  C  C387  1  0.541750  0.057200  0.365810  1.0  0.1416
  C  C388  1  0.584280  0.040600  0.350400  1.0  -0.1276
  C  C389  1  0.627780  0.052500  0.365430  1.0  -0.117
  C  C390  1  0.674290  0.039900  0.349940  1.0  0.3978
  C  C391  1  0.686800  0.894500  0.233280  1.0  0.1413
  C  C392  1  0.680520  0.931100  0.261610  1.0  -0.1364
  C  C393  1  0.767310  0.933200  0.233350  1.0  0.1369
  C  C394  1  0.764180  0.970400  0.262420  1.0  -0.12
  C  C395  1  0.719930  0.968400  0.276760  1.0  -0.1349
  C  C396  1  0.716710  0.001900  0.308350  1.0  0.3767
  C  C397  1  0.049490  0.057300  0.950170  1.0  0.1465
  C  C398  1  0.064370  0.150300  0.955940  1.0  -0.1479
  C  C399  1  0.075040  0.066200  0.901260  1.0  0.1582
  C  C400  1  0.090630  0.159600  0.904920  1.0  -0.1414
  C  C401  1  0.085120  0.203000  0.932590  1.0  -0.1136
  C  C402  1  0.098900  0.305700  0.937300  1.0  0.4041
  C  C403  1  0.199500  0.504800  0.849910  1.0  0.1473
  C  C404  1  0.177200  0.450600  0.871750  1.0  -0.1372
  C  C405  1  0.183200  0.644900  0.874580  1.0  0.1506
  C  C406  1  0.160400  0.596200  0.897690  1.0  -0.15
  C  C407  1  0.157540  0.496800  0.896240  1.0  -0.1275
  C  C408  1  0.132440  0.442300  0.920340  1.0  0.3931
  C  C409  1  0.071000  0.634000  0.022320  1.0  0.1376
  C  C410  1  0.084300  0.590600  0.995470  1.0  -0.1351
  C  C411  1  0.042440  0.489800  0.041110  1.0  0.1298
  C  C412  1  0.054890  0.441300  0.015150  1.0  -0.1265
  C  C413  1  0.077040  0.492700  0.991920  1.0  -0.1104
  C  C414  1  0.093120  0.441400  0.964350  1.0  0.3975
  C  C415  1  0.612390  0.936600  0.866280  1.0  0.1345
  C  C416  1  0.655130  0.954700  0.851620  1.0  -0.0995
  C  C417  1  0.652490  0.895900  0.909820  1.0  0.1397
  C  C418  1  0.696980  0.914000  0.896890  1.0  -0.1465
  C  C419  1  0.698090  0.942700  0.866910  1.0  -0.117
  C  C420  1  0.744560  0.957700  0.851080  1.0  0.4204
  C  C421  1  0.917660  0.906100  0.909300  1.0  0.1299
  C  C422  1  0.873130  0.921400  0.895540  1.0  -0.1417
  C  C423  1  0.958250  0.942800  0.865810  1.0  0.1419
  C  C424  1  0.915720  0.959400  0.850400  1.0  -0.129
  C  C425  1  0.872220  0.947500  0.865430  1.0  -0.1173
  C  C426  1  0.825710  0.960100  0.849940  1.0  0.3976
  C  C427  1  0.813200  0.105500  0.733280  1.0  0.14
  C  C428  1  0.819480  0.068900  0.761610  1.0  -0.1359
  C  C429  1  0.732690  0.066800  0.733350  1.0  0.1374
  C  C430  1  0.735820  0.029600  0.762420  1.0  -0.1218
  C  C431  1  0.780070  0.031600  0.776760  1.0  -0.1346
  C  C432  1  0.783290  0.998100  0.808350  1.0  0.3769
  C  C433  1  0.549490  0.442700  0.049830  1.0  0.1455
  C  C434  1  0.564370  0.349700  0.044060  1.0  -0.147
  C  C435  1  0.575040  0.433800  0.098740  1.0  0.1584
  C  C436  1  0.590630  0.340400  0.095080  1.0  -0.1408
  C  C437  1  0.585120  0.297000  0.067410  1.0  -0.1126
  C  C438  1  0.598900  0.194300  0.062700  1.0  0.4042
  C  C439  1  0.699500  0.995200  0.150090  1.0  0.1482
  C  C440  1  0.677200  0.049400  0.128250  1.0  -0.1373
  C  C441  1  0.683200  0.855100  0.125420  1.0  0.151
  C  C442  1  0.660400  0.903800  0.102310  1.0  -0.1494
  C  C443  1  0.657540  0.003200  0.103760  1.0  -0.1277
  C  C444  1  0.632440  0.057700  0.079660  1.0  0.393
  C  C445  1  0.571000  0.866000  0.977680  1.0  0.1375
  C  C446  1  0.584300  0.909400  0.004530  1.0  -0.1351
  C  C447  1  0.542440  0.010200  0.958890  1.0  0.1306
  C  C448  1  0.554890  0.058700  0.984850  1.0  -0.1262
  C  C449  1  0.577040  0.007300  0.008080  1.0  -0.1118
  C  C450  1  0.593120  0.058600  0.035650  1.0  0.3975
  C  C451  1  0.112390  0.563400  0.133720  1.0  0.1348
  C  C452  1  0.155130  0.545300  0.148380  1.0  -0.1017
  C  C453  1  0.152490  0.604100  0.090180  1.0  0.1397
  C  C454  1  0.196980  0.586000  0.103110  1.0  -0.1473
  C  C455  1  0.198090  0.557300  0.133090  1.0  -0.1168
  C  C456  1  0.244560  0.542300  0.148920  1.0  0.4204
  C  C457  1  0.417660  0.593900  0.090700  1.0  0.1312
  C  C458  1  0.373130  0.578600  0.104460  1.0  -0.1419
  C  C459  1  0.458250  0.557200  0.134190  1.0  0.1418
  C  C460  1  0.415720  0.540600  0.149600  1.0  -0.1297
  C  C461  1  0.372220  0.552500  0.134570  1.0  -0.1174
  C  C462  1  0.325710  0.539900  0.150060  1.0  0.3977
  C  C463  1  0.313200  0.394500  0.266720  1.0  0.1414
  C  C464  1  0.319480  0.431100  0.238390  1.0  -0.1353
  C  C465  1  0.232690  0.433200  0.266650  1.0  0.1373
  C  C466  1  0.235820  0.470400  0.237580  1.0  -0.1218
  C  C467  1  0.280070  0.468400  0.223240  1.0  -0.1354
  C  C468  1  0.283290  0.501900  0.191650  1.0  0.377
  C  C469  1  0.950510  0.557300  0.549830  1.0  0.1452
  C  C470  1  0.935630  0.650300  0.544060  1.0  -0.1462
  C  C471  1  0.924960  0.566200  0.598740  1.0  0.159
  C  C472  1  0.909370  0.659600  0.595080  1.0  -0.1416
  C  C473  1  0.914880  0.703000  0.567410  1.0  -0.1123
  C  C474  1  0.901100  0.805700  0.562700  1.0  0.405
  C  C475  1  0.800500  0.004800  0.650090  1.0  0.1488
  C  C476  1  0.822800  0.950600  0.628250  1.0  -0.1358
  C  C477  1  0.816800  0.144900  0.625420  1.0  0.1499
  C  C478  1  0.839600  0.096200  0.602310  1.0  -0.1491
  C  C479  1  0.842460  0.996800  0.603760  1.0  -0.1286
  C  C480  1  0.867560  0.942300  0.579660  1.0  0.3936
  C  C481  1  0.929000  0.134000  0.477680  1.0  0.1373
  C  C482  1  0.915700  0.090600  0.504530  1.0  -0.1347
  C  C483  1  0.957560  0.989800  0.458890  1.0  0.1302
  C  C484  1  0.945110  0.941300  0.484850  1.0  -0.1251
  C  C485  1  0.922960  0.992700  0.508080  1.0  -0.1095
  C  C486  1  0.906880  0.941400  0.535650  1.0  0.3987
  C  C487  1  0.387610  0.436600  0.633720  1.0  0.133
  C  C488  1  0.344870  0.454700  0.648380  1.0  -0.1012
  C  C489  1  0.347510  0.395900  0.590180  1.0  0.1399
  C  C490  1  0.303020  0.414000  0.603110  1.0  -0.1472
  C  C491  1  0.301910  0.442700  0.633090  1.0  -0.1169
  C  C492  1  0.255440  0.457700  0.648920  1.0  0.4201
  C  C493  1  0.082340  0.406100  0.590700  1.0  0.131
  C  C494  1  0.126870  0.421400  0.604460  1.0  -0.1415
  C  C495  1  0.041750  0.442800  0.634190  1.0  0.1415
  C  C496  1  0.084280  0.459400  0.649600  1.0  -0.1301
  C  C497  1  0.127780  0.447500  0.634570  1.0  -0.117
  C  C498  1  0.174290  0.460100  0.650060  1.0  0.3977
  C  C499  1  0.186800  0.605500  0.766720  1.0  0.1418
  C  C500  1  0.180520  0.568900  0.738390  1.0  -0.1366
  C  C501  1  0.267310  0.566800  0.766650  1.0  0.1372
  C  C502  1  0.264180  0.529600  0.737580  1.0  -0.1201
  C  C503  1  0.219930  0.531600  0.723240  1.0  -0.136
  C  C504  1  0.216710  0.498100  0.691650  1.0  0.3772
  I  I505  1  0.506730  0.804300  0.534060  1.0  -0.4015
  I  I506  1  0.573210  0.797440  0.625160  1.0  -0.3187
  I  I507  1  0.480840  0.555680  0.382980  1.0  -0.389
  I  I508  1  0.556510  0.824180  0.415140  1.0  -0.3953
  I  I509  1  0.171670  0.178320  0.834330  1.0  -0.3044
  I  I510  1  0.302720  0.342920  0.812520  1.0  -0.3614
  I  I511  1  0.993270  0.195700  0.034060  1.0  -0.4007
  I  I512  1  0.926790  0.202560  0.125160  1.0  -0.3189
  I  I513  1  0.019160  0.444320  0.882980  1.0  -0.3886
  I  I514  1  0.943490  0.175820  0.915140  1.0  -0.3957
  I  I515  1  0.328330  0.821680  0.334330  1.0  -0.3049
  I  I516  1  0.197280  0.657080  0.312520  1.0  -0.3617
  I  I517  1  0.493270  0.304300  0.965940  1.0  -0.401
  I  I518  1  0.426790  0.297440  0.874840  1.0  -0.3196
  I  I519  1  0.519160  0.055680  0.117020  1.0  -0.3866
  I  I520  1  0.443490  0.324180  0.084860  1.0  -0.3956
  I  I521  1  0.828330  0.678320  0.665670  1.0  -0.3051
  I  I522  1  0.697280  0.842920  0.687480  1.0  -0.3615
  I  I523  1  0.006730  0.695700  0.465940  1.0  -0.4011
  I  I524  1  0.073210  0.702560  0.374840  1.0  -0.3193
  I  I525  1  0.980840  0.944320  0.617020  1.0  -0.3863
  I  I526  1  0.056510  0.675820  0.584860  1.0  -0.3957
  I  I527  1  0.671670  0.321680  0.165670  1.0  -0.3047
  I  I528  1  0.802720  0.157080  0.187480  1.0  -0.3613
  I  I529  1  0.493270  0.195700  0.465940  1.0  -0.4008
  I  I530  1  0.426790  0.202560  0.374840  1.0  -0.3191
  I  I531  1  0.519160  0.444320  0.617020  1.0  -0.3863
  I  I532  1  0.443490  0.175820  0.584860  1.0  -0.3958
  I  I533  1  0.828330  0.821680  0.165670  1.0  -0.3052
  I  I534  1  0.697280  0.657080  0.187480  1.0  -0.3616
  I  I535  1  0.006730  0.804300  0.965940  1.0  -0.4015
  I  I536  1  0.073210  0.797440  0.874840  1.0  -0.3197
  I  I537  1  0.980840  0.555680  0.117020  1.0  -0.3868
  I  I538  1  0.056510  0.824180  0.084860  1.0  -0.3956
  I  I539  1  0.671670  0.178320  0.665670  1.0  -0.3047
  I  I540  1  0.802720  0.342920  0.687480  1.0  -0.3615
  I  I541  1  0.506730  0.695700  0.034060  1.0  -0.401
  I  I542  1  0.573210  0.702560  0.125160  1.0  -0.3191
  I  I543  1  0.480840  0.944320  0.882980  1.0  -0.3886
  I  I544  1  0.556510  0.675820  0.915140  1.0  -0.3956
  I  I545  1  0.171670  0.321680  0.334330  1.0  -0.3044
  I  I546  1  0.302720  0.157080  0.312520  1.0  -0.3614
  I  I547  1  0.993270  0.304300  0.534060  1.0  -0.401
  I  I548  1  0.926790  0.297440  0.625160  1.0  -0.3186
  I  I549  1  0.019160  0.055680  0.382980  1.0  -0.3886
  I  I550  1  0.943490  0.324180  0.415140  1.0  -0.3954
  I  I551  1  0.328330  0.678320  0.834330  1.0  -0.3049
  I  I552  1  0.197280  0.842920  0.812520  1.0  -0.3614
  N  N553  1  0.554500  0.014900  0.576570  1.0  -0.3288
  N  N554  1  0.702790  0.601600  0.648900  1.0  -0.3073
  N  N555  1  0.551510  0.584700  0.454880  1.0  -0.3167
  N  N556  1  0.625290  0.348200  0.584070  1.0  -0.4869
  N  N557  1  0.617800  0.492700  0.555740  1.0  -0.3547
  N  N558  1  0.581720  0.348400  0.538090  1.0  -0.5209
  N  N559  1  0.110710  0.906000  0.605020  1.0  -0.3534
  N  N560  1  0.459430  0.915900  0.605190  1.0  -0.3043
  N  N561  1  0.270370  0.105600  0.780720  1.0  -0.3153
  N  N562  1  0.285660  0.945000  0.634020  1.0  -0.4658
  N  N563  1  0.327090  0.987000  0.679230  1.0  -0.4118
  N  N564  1  0.241370  0.983700  0.677770  1.0  -0.4854
  N  N565  1  0.945500  0.985100  0.076570  1.0  -0.3279
  N  N566  1  0.797210  0.398400  0.148900  1.0  -0.3067
  N  N567  1  0.948490  0.415300  0.954880  1.0  -0.3179
  N  N568  1  0.874710  0.651800  0.084070  1.0  -0.4881
  N  N569  1  0.882200  0.507300  0.055740  1.0  -0.3528
  N  N570  1  0.918280  0.651600  0.038090  1.0  -0.5178
  N  N571  1  0.389290  0.094000  0.105020  1.0  -0.3556
  N  N572  1  0.040570  0.084100  0.105190  1.0  -0.3049
  N  N573  1  0.229630  0.894400  0.280720  1.0  -0.3146
  N  N574  1  0.214340  0.055000  0.134020  1.0  -0.4647
  N  N575  1  0.172910  0.013000  0.179230  1.0  -0.4104
  N  N576  1  0.258630  0.016300  0.177770  1.0  -0.4851
  N  N577  1  0.445500  0.514900  0.923430  1.0  -0.3279
  N  N578  1  0.297210  0.101600  0.851100  1.0  -0.3077
  N  N579  1  0.448490  0.084700  0.045120  1.0  -0.3143
  N  N580  1  0.374710  0.848200  0.915930  1.0  -0.4858
  N  N581  1  0.382200  0.992700  0.944260  1.0  -0.3549
  N  N582  1  0.418280  0.848400  0.961910  1.0  -0.5183
  N  N583  1  0.889290  0.406000  0.894980  1.0  -0.3559
  N  N584  1  0.540570  0.415900  0.894810  1.0  -0.3073
  N  N585  1  0.729630  0.605600  0.719280  1.0  -0.3164
  N  N586  1  0.714340  0.445000  0.865980  1.0  -0.4667
  N  N587  1  0.672910  0.487000  0.820770  1.0  -0.4098
  N  N588  1  0.758630  0.483700  0.822230  1.0  -0.4858
  N  N589  1  0.054500  0.485100  0.423430  1.0  -0.3276
  N  N590  1  0.202790  0.898400  0.351100  1.0  -0.3077
  N  N591  1  0.051510  0.915300  0.545120  1.0  -0.3131
  N  N592  1  0.125290  0.151800  0.415930  1.0  -0.4865
  N  N593  1  0.117800  0.007300  0.444260  1.0  -0.3543
  N  N594  1  0.081720  0.151600  0.461910  1.0  -0.5203
  N  N595  1  0.610710  0.594000  0.394980  1.0  -0.3536
  N  N596  1  0.959430  0.584100  0.394810  1.0  -0.3068
  N  N597  1  0.770370  0.394400  0.219280  1.0  -0.3164
  N  N598  1  0.785660  0.555000  0.365980  1.0  -0.4661
  N  N599  1  0.827090  0.513000  0.320770  1.0  -0.4112
  N  N600  1  0.741370  0.516300  0.322230  1.0  -0.486
  N  N601  1  0.445500  0.985100  0.423430  1.0  -0.3274
  N  N602  1  0.297210  0.398400  0.351100  1.0  -0.3081
  N  N603  1  0.448490  0.415300  0.545120  1.0  -0.314
  N  N604  1  0.374710  0.651800  0.415930  1.0  -0.4859
  N  N605  1  0.382200  0.507300  0.444260  1.0  -0.3533
  N  N606  1  0.418280  0.651600  0.461910  1.0  -0.5182
  N  N607  1  0.889290  0.094000  0.394980  1.0  -0.3562
  N  N608  1  0.540570  0.084100  0.394810  1.0  -0.3073
  N  N609  1  0.729630  0.894400  0.219280  1.0  -0.3161
  N  N610  1  0.714340  0.055000  0.365980  1.0  -0.4663
  N  N611  1  0.672910  0.013000  0.320770  1.0  -0.4097
  N  N612  1  0.758630  0.016300  0.322230  1.0  -0.4859
  N  N613  1  0.054500  0.014900  0.923430  1.0  -0.3283
  N  N614  1  0.202790  0.601600  0.851100  1.0  -0.308
  N  N615  1  0.051510  0.584700  0.045120  1.0  -0.3134
  N  N616  1  0.125290  0.348200  0.915930  1.0  -0.4863
  N  N617  1  0.117800  0.492700  0.944260  1.0  -0.3558
  N  N618  1  0.081720  0.348400  0.961910  1.0  -0.5208
  N  N619  1  0.610710  0.906000  0.894980  1.0  -0.3542
  N  N620  1  0.959430  0.915900  0.894810  1.0  -0.3059
  N  N621  1  0.770370  0.105600  0.719280  1.0  -0.3163
  N  N622  1  0.785660  0.945000  0.865980  1.0  -0.4666
  N  N623  1  0.827090  0.987000  0.820770  1.0  -0.4112
  N  N624  1  0.741370  0.983700  0.822230  1.0  -0.4857
  N  N625  1  0.554500  0.485100  0.076570  1.0  -0.3281
  N  N626  1  0.702790  0.898400  0.148900  1.0  -0.3057
  N  N627  1  0.551510  0.915300  0.954880  1.0  -0.3182
  N  N628  1  0.625290  0.151800  0.084070  1.0  -0.4882
  N  N629  1  0.617800  0.007300  0.055740  1.0  -0.3534
  N  N630  1  0.581720  0.151600  0.038090  1.0  -0.5191
  N  N631  1  0.110710  0.594000  0.105020  1.0  -0.3525
  N  N632  1  0.459430  0.584100  0.105190  1.0  -0.3047
  N  N633  1  0.270370  0.394400  0.280720  1.0  -0.3147
  N  N634  1  0.285660  0.555000  0.134020  1.0  -0.4645
  N  N635  1  0.327090  0.513000  0.179230  1.0  -0.4114
  N  N636  1  0.241370  0.516300  0.177770  1.0  -0.4854
  N  N637  1  0.945500  0.514900  0.576570  1.0  -0.3281
  N  N638  1  0.797210  0.101600  0.648900  1.0  -0.3081
  N  N639  1  0.948490  0.084700  0.454880  1.0  -0.317
  N  N640  1  0.874710  0.848200  0.584070  1.0  -0.4872
  N  N641  1  0.882200  0.992700  0.555740  1.0  -0.354
  N  N642  1  0.918280  0.848400  0.538090  1.0  -0.5187
  N  N643  1  0.389290  0.406000  0.605020  1.0  -0.3556
  N  N644  1  0.040570  0.415900  0.605190  1.0  -0.3054
  N  N645  1  0.229630  0.605600  0.780720  1.0  -0.3154
  N  N646  1  0.214340  0.445000  0.634020  1.0  -0.4659
  N  N647  1  0.172910  0.487000  0.679230  1.0  -0.4107
  N  N648  1  0.258630  0.483700  0.677770  1.0  -0.4853
