# generated using pymatgen
data_ZnH8C12(IN2)2
_symmetry_space_group_name_H-M   'P 1'
_cell_length_a   13.72870000
_cell_length_b   27.80000000
_cell_length_c   45.48100000
_cell_angle_alpha   90.00000000
_cell_angle_beta   90.00000000
_cell_angle_gamma   90.00000000
_symmetry_Int_Tables_number   1
_chemical_formula_structural   ZnH8C12(IN2)2
_chemical_formula_sum   'Zn24 H192 C288 I48 N96'
_cell_volume   17358.18113066
_cell_formula_units_Z   24
loop_
 _symmetry_equiv_pos_site_id
 _symmetry_equiv_pos_as_xyz
  1  'x, y, z'
loop_
 _atom_site_type_symbol
 _atom_site_label
 _atom_site_symmetry_multiplicity
 _atom_site_fract_x
 _atom_site_fract_y
 _atom_site_fract_z
 _atom_site_occupancy
 _atom_site_charge
  Zn  Zn1  1  0.856730  0.743910  0.812820  1.0  0.8935
  Zn  Zn2  1  0.642310  0.527000  0.915740  1.0  0.8289
  Zn  Zn3  1  0.664410  0.056640  0.926120  1.0  0.8568
  Zn  Zn4  1  0.143270  0.756090  0.312820  1.0  0.8953
  Zn  Zn5  1  0.357690  0.973000  0.415740  1.0  0.8296
  Zn  Zn6  1  0.335590  0.443360  0.426120  1.0  0.8546
  Zn  Zn7  1  0.356730  0.256090  0.687180  1.0  0.8938
  Zn  Zn8  1  0.142310  0.473000  0.584260  1.0  0.8282
  Zn  Zn9  1  0.164410  0.943360  0.573880  1.0  0.8558
  Zn  Zn10  1  0.643270  0.243910  0.187180  1.0  0.895
  Zn  Zn11  1  0.857690  0.027000  0.084260  1.0  0.8277
  Zn  Zn12  1  0.835590  0.556640  0.073880  1.0  0.8565
  Zn  Zn13  1  0.143270  0.256090  0.187180  1.0  0.8952
  Zn  Zn14  1  0.357690  0.473000  0.084260  1.0  0.8283
  Zn  Zn15  1  0.335590  0.943360  0.073880  1.0  0.854
  Zn  Zn16  1  0.856730  0.243910  0.687180  1.0  0.8932
  Zn  Zn17  1  0.642310  0.027000  0.584260  1.0  0.8284
  Zn  Zn18  1  0.664410  0.556640  0.573880  1.0  0.8574
  Zn  Zn19  1  0.643270  0.743910  0.312820  1.0  0.8952
  Zn  Zn20  1  0.857690  0.527000  0.415740  1.0  0.8289
  Zn  Zn21  1  0.835590  0.056640  0.426120  1.0  0.856
  Zn  Zn22  1  0.356730  0.756090  0.812820  1.0  0.8938
  Zn  Zn23  1  0.142310  0.973000  0.915740  1.0  0.8289
  Zn  Zn24  1  0.164410  0.443360  0.926120  1.0  0.856
  H  H25  1  0.065000  0.713100  0.826500  1.0  0.084
  H  H26  1  0.149600  0.674100  0.864300  1.0  0.1135
  H  H27  1  0.816000  0.690600  0.866300  1.0  0.0888
  H  H28  1  0.894900  0.654700  0.905800  1.0  0.1193
  H  H29  1  0.803600  0.598500  0.013400  1.0  0.0873
  H  H30  1  0.888300  0.615600  0.970900  1.0  0.1179
  H  H31  1  0.035700  0.541400  0.049100  1.0  0.0731
  H  H32  1  0.128500  0.559500  0.008300  1.0  0.1226
  H  H33  1  0.492700  0.534600  0.964500  1.0  0.0975
  H  H34  1  0.333600  0.562000  0.971300  1.0  0.1075
  H  H35  1  0.491500  0.582600  0.883000  1.0  0.0902
  H  H36  1  0.336900  0.613900  0.888900  1.0  0.1144
  H  H37  1  0.589500  0.489300  0.855800  1.0  0.082
  H  H38  1  0.575100  0.417100  0.829800  1.0  0.1186
  H  H39  1  0.622000  0.423800  0.930800  1.0  0.0965
  H  H40  1  0.597500  0.349400  0.908000  1.0  0.1074
  H  H41  1  0.657800  0.163000  0.935900  1.0  0.0909
  H  H42  1  0.629200  0.234300  0.910700  1.0  0.1192
  H  H43  1  0.582800  0.087200  0.866700  1.0  0.1048
  H  H44  1  0.551900  0.155400  0.840200  1.0  0.1144
  H  H45  1  0.470800  0.197400  0.730500  1.0  0.0984
  H  H46  1  0.529900  0.206300  0.779300  1.0  0.1178
  H  H47  1  0.417100  0.335200  0.725700  1.0  0.103
  H  H48  1  0.484200  0.347200  0.772500  1.0  0.1131
  H  H49  1  0.935000  0.786900  0.326500  1.0  0.0846
  H  H50  1  0.850400  0.825900  0.364300  1.0  0.1144
  H  H51  1  0.184000  0.809400  0.366300  1.0  0.0872
  H  H52  1  0.105100  0.845300  0.405800  1.0  0.1203
  H  H53  1  0.196400  0.901500  0.513400  1.0  0.0867
  H  H54  1  0.111700  0.884400  0.470900  1.0  0.1179
  H  H55  1  0.964300  0.958600  0.549100  1.0  0.0734
  H  H56  1  0.871500  0.940500  0.508300  1.0  0.1218
  H  H57  1  0.507300  0.965400  0.464500  1.0  0.0975
  H  H58  1  0.666400  0.938000  0.471300  1.0  0.1076
  H  H59  1  0.508500  0.917400  0.383000  1.0  0.0899
  H  H60  1  0.663100  0.886100  0.388900  1.0  0.1145
  H  H61  1  0.410500  0.010700  0.355800  1.0  0.0817
  H  H62  1  0.424900  0.082900  0.329800  1.0  0.1184
  H  H63  1  0.378000  0.076200  0.430800  1.0  0.0965
  H  H64  1  0.402500  0.150600  0.408000  1.0  0.1071
  H  H65  1  0.342200  0.337000  0.435900  1.0  0.0909
  H  H66  1  0.370800  0.265700  0.410700  1.0  0.1194
  H  H67  1  0.417200  0.412800  0.366700  1.0  0.1036
  H  H68  1  0.448100  0.344600  0.340200  1.0  0.1152
  H  H69  1  0.529200  0.302600  0.230500  1.0  0.0981
  H  H70  1  0.470100  0.293700  0.279300  1.0  0.1176
  H  H71  1  0.582900  0.164800  0.225700  1.0  0.1028
  H  H72  1  0.515800  0.152800  0.272500  1.0  0.1133
  H  H73  1  0.565000  0.286900  0.673500  1.0  0.085
  H  H74  1  0.649600  0.325900  0.635700  1.0  0.1133
  H  H75  1  0.316000  0.309400  0.633700  1.0  0.0888
  H  H76  1  0.394900  0.345300  0.594200  1.0  0.1199
  H  H77  1  0.303600  0.401500  0.486600  1.0  0.0869
  H  H78  1  0.388300  0.384400  0.529100  1.0  0.1189
  H  H79  1  0.535700  0.458600  0.450900  1.0  0.0724
  H  H80  1  0.628500  0.440500  0.491700  1.0  0.1223
  H  H81  1  0.992700  0.465400  0.535500  1.0  0.0972
  H  H82  1  0.833600  0.438000  0.528700  1.0  0.1077
  H  H83  1  0.991500  0.417400  0.617000  1.0  0.0904
  H  H84  1  0.836900  0.386100  0.611100  1.0  0.1143
  H  H85  1  0.089500  0.510700  0.644200  1.0  0.0821
  H  H86  1  0.075100  0.582900  0.670200  1.0  0.1188
  H  H87  1  0.122000  0.576200  0.569200  1.0  0.0952
  H  H88  1  0.097500  0.650600  0.592000  1.0  0.1074
  H  H89  1  0.157800  0.837000  0.564100  1.0  0.0907
  H  H90  1  0.129200  0.765700  0.589300  1.0  0.1194
  H  H91  1  0.082800  0.912800  0.633300  1.0  0.1046
  H  H92  1  0.051900  0.844600  0.659800  1.0  0.1146
  H  H93  1  0.970800  0.802600  0.769500  1.0  0.0982
  H  H94  1  0.029900  0.793700  0.720700  1.0  0.1179
  H  H95  1  0.917100  0.664800  0.774300  1.0  0.1028
  H  H96  1  0.984200  0.652800  0.727500  1.0  0.113
  H  H97  1  0.435000  0.213100  0.173500  1.0  0.0846
  H  H98  1  0.350400  0.174100  0.135700  1.0  0.1145
  H  H99  1  0.684000  0.190600  0.133700  1.0  0.0871
  H  H100  1  0.605100  0.154700  0.094200  1.0  0.1198
  H  H101  1  0.696400  0.098500  0.986600  1.0  0.087
  H  H102  1  0.611700  0.115600  0.029100  1.0  0.1186
  H  H103  1  0.464300  0.041400  0.950900  1.0  0.0726
  H  H104  1  0.371500  0.059500  0.991700  1.0  0.1222
  H  H105  1  0.007300  0.034600  0.035500  1.0  0.0972
  H  H106  1  0.166400  0.062000  0.028700  1.0  0.1076
  H  H107  1  0.008500  0.082600  0.117000  1.0  0.0902
  H  H108  1  0.163100  0.113900  0.111100  1.0  0.1141
  H  H109  1  0.910500  0.989300  0.144200  1.0  0.0818
  H  H110  1  0.924900  0.917100  0.170200  1.0  0.1186
  H  H111  1  0.878000  0.923800  0.069200  1.0  0.0954
  H  H112  1  0.902500  0.849400  0.092000  1.0  0.1073
  H  H113  1  0.842200  0.663000  0.064100  1.0  0.0911
  H  H114  1  0.870800  0.734300  0.089300  1.0  0.1192
  H  H115  1  0.917200  0.587200  0.133300  1.0  0.1048
  H  H116  1  0.948100  0.655400  0.159800  1.0  0.115
  H  H117  1  0.029200  0.697400  0.269500  1.0  0.0984
  H  H118  1  0.970100  0.706300  0.220700  1.0  0.1172
  H  H119  1  0.082900  0.835200  0.274300  1.0  0.1029
  H  H120  1  0.015800  0.847200  0.227500  1.0  0.1127
  H  H121  1  0.935000  0.286900  0.173500  1.0  0.0846
  H  H122  1  0.850400  0.325900  0.135700  1.0  0.1144
  H  H123  1  0.184000  0.309400  0.133700  1.0  0.0871
  H  H124  1  0.105100  0.345300  0.094200  1.0  0.12
  H  H125  1  0.196400  0.401500  0.986600  1.0  0.0869
  H  H126  1  0.111700  0.384400  0.029100  1.0  0.1186
  H  H127  1  0.964300  0.458600  0.950900  1.0  0.0722
  H  H128  1  0.871500  0.440500  0.991700  1.0  0.1219
  H  H129  1  0.507300  0.465400  0.035500  1.0  0.097
  H  H130  1  0.666400  0.438000  0.028700  1.0  0.1076
  H  H131  1  0.508500  0.417400  0.117000  1.0  0.0904
  H  H132  1  0.663100  0.386100  0.111100  1.0  0.1143
  H  H133  1  0.410500  0.510700  0.144200  1.0  0.082
  H  H134  1  0.424900  0.582900  0.170200  1.0  0.1188
  H  H135  1  0.378000  0.576200  0.069200  1.0  0.0952
  H  H136  1  0.402500  0.650600  0.092000  1.0  0.1071
  H  H137  1  0.342200  0.837000  0.064100  1.0  0.0911
  H  H138  1  0.370800  0.765700  0.089300  1.0  0.1192
  H  H139  1  0.417200  0.912800  0.133300  1.0  0.104
  H  H140  1  0.448100  0.844600  0.159800  1.0  0.115
  H  H141  1  0.529200  0.802600  0.269500  1.0  0.0981
  H  H142  1  0.470100  0.793700  0.220700  1.0  0.1178
  H  H143  1  0.582900  0.664800  0.274300  1.0  0.1028
  H  H144  1  0.515800  0.652800  0.227500  1.0  0.113
  H  H145  1  0.065000  0.213100  0.673500  1.0  0.0837
  H  H146  1  0.149600  0.174100  0.635700  1.0  0.1135
  H  H147  1  0.816000  0.190600  0.633700  1.0  0.0888
  H  H148  1  0.894900  0.154700  0.594200  1.0  0.1198
  H  H149  1  0.803600  0.098500  0.486600  1.0  0.0871
  H  H150  1  0.888300  0.115600  0.529100  1.0  0.1185
  H  H151  1  0.035700  0.041400  0.450900  1.0  0.0728
  H  H152  1  0.128500  0.059500  0.491700  1.0  0.1225
  H  H153  1  0.492700  0.034600  0.535500  1.0  0.0975
  H  H154  1  0.333600  0.062000  0.528700  1.0  0.1075
  H  H155  1  0.491500  0.082600  0.617000  1.0  0.0902
  H  H156  1  0.336900  0.113900  0.611100  1.0  0.1144
  H  H157  1  0.589500  0.989300  0.644200  1.0  0.0818
  H  H158  1  0.575100  0.917100  0.670200  1.0  0.1185
  H  H159  1  0.622000  0.923800  0.569200  1.0  0.0954
  H  H160  1  0.597500  0.849400  0.592000  1.0  0.1074
  H  H161  1  0.657800  0.663000  0.564100  1.0  0.0908
  H  H162  1  0.629200  0.734300  0.589300  1.0  0.1193
  H  H163  1  0.582800  0.587200  0.633300  1.0  0.1054
  H  H164  1  0.551900  0.655400  0.659800  1.0  0.1148
  H  H165  1  0.470800  0.697400  0.769500  1.0  0.0985
  H  H166  1  0.529900  0.706300  0.720700  1.0  0.1176
  H  H167  1  0.417100  0.835200  0.774300  1.0  0.1027
  H  H168  1  0.484200  0.847200  0.727500  1.0  0.1129
  H  H169  1  0.435000  0.713100  0.326500  1.0  0.0849
  H  H170  1  0.350400  0.674100  0.364300  1.0  0.1145
  H  H171  1  0.684000  0.690600  0.366300  1.0  0.0871
  H  H172  1  0.605100  0.654700  0.405800  1.0  0.1192
  H  H173  1  0.696400  0.598500  0.513400  1.0  0.087
  H  H174  1  0.611700  0.615600  0.470900  1.0  0.1181
  H  H175  1  0.464300  0.541400  0.549100  1.0  0.0737
  H  H176  1  0.371500  0.559500  0.508300  1.0  0.1221
  H  H177  1  0.007300  0.534600  0.464500  1.0  0.0976
  H  H178  1  0.166400  0.562000  0.471300  1.0  0.1077
  H  H179  1  0.008500  0.582600  0.383000  1.0  0.09
  H  H180  1  0.163100  0.613900  0.388900  1.0  0.1142
  H  H181  1  0.910500  0.489300  0.355800  1.0  0.0817
  H  H182  1  0.924900  0.417100  0.329800  1.0  0.1183
  H  H183  1  0.878000  0.423800  0.430800  1.0  0.0965
  H  H184  1  0.902500  0.349400  0.408000  1.0  0.1074
  H  H185  1  0.842200  0.163000  0.435900  1.0  0.0908
  H  H186  1  0.870800  0.234300  0.410700  1.0  0.1193
  H  H187  1  0.917200  0.087200  0.366700  1.0  0.1044
  H  H188  1  0.948100  0.155400  0.340200  1.0  0.1148
  H  H189  1  0.029200  0.197400  0.230500  1.0  0.0982
  H  H190  1  0.970100  0.206300  0.279300  1.0  0.1173
  H  H191  1  0.082900  0.335200  0.225700  1.0  0.1031
  H  H192  1  0.015800  0.347200  0.272500  1.0  0.1129
  H  H193  1  0.565000  0.786900  0.826500  1.0  0.0851
  H  H194  1  0.649600  0.825900  0.864300  1.0  0.1134
  H  H195  1  0.316000  0.809400  0.866300  1.0  0.0888
  H  H196  1  0.394900  0.845300  0.905800  1.0  0.1203
  H  H197  1  0.303600  0.901500  0.013400  1.0  0.0871
  H  H198  1  0.388300  0.884400  0.970900  1.0  0.118
  H  H199  1  0.535700  0.958600  0.049100  1.0  0.0728
  H  H200  1  0.628500  0.940500  0.008300  1.0  0.1224
  H  H201  1  0.992700  0.965400  0.964500  1.0  0.0973
  H  H202  1  0.833600  0.938000  0.971300  1.0  0.1076
  H  H203  1  0.991500  0.917400  0.883000  1.0  0.0901
  H  H204  1  0.836900  0.886100  0.888900  1.0  0.1145
  H  H205  1  0.089500  0.010700  0.855800  1.0  0.0819
  H  H206  1  0.075100  0.082900  0.829800  1.0  0.1187
  H  H207  1  0.122000  0.076200  0.930800  1.0  0.0964
  H  H208  1  0.097500  0.150600  0.908000  1.0  0.1072
  H  H209  1  0.157800  0.337000  0.935900  1.0  0.0906
  H  H210  1  0.129200  0.265700  0.910700  1.0  0.1195
  H  H211  1  0.082800  0.412800  0.866700  1.0  0.104
  H  H212  1  0.051900  0.344600  0.840200  1.0  0.1149
  H  H213  1  0.970800  0.302600  0.730500  1.0  0.0982
  H  H214  1  0.029900  0.293700  0.779300  1.0  0.1179
  H  H215  1  0.917100  0.164800  0.725700  1.0  0.1027
  H  H216  1  0.984200  0.152800  0.772500  1.0  0.1134
  C  C217  1  0.029600  0.700800  0.842900  1.0  0.1393
  C  C218  1  0.081100  0.678200  0.865500  1.0  -0.1392
  C  C219  1  0.885000  0.688300  0.866100  1.0  0.137
  C  C220  1  0.931500  0.666667  0.889600  1.0  -0.1006
  C  C221  1  0.030800  0.662400  0.889400  1.0  -0.0679
  C  C222  1  0.082400  0.639800  0.914400  1.0  0.3751
  C  C223  1  0.870500  0.590000  0.012300  1.0  0.1396
  C  C224  1  0.920800  0.601600  0.987300  1.0  -0.1518
  C  C225  1  0.005500  0.557300  0.033000  1.0  0.1409
  C  C226  1  0.061800  0.568400  0.009100  1.0  -0.1758
  C  C227  1  0.019400  0.592800  0.986300  1.0  -0.0438
  C  C228  1  0.075100  0.606200  0.960000  1.0  0.3193
  C  C229  1  0.460100  0.550300  0.948800  1.0  0.1208
  C  C230  1  0.365500  0.567300  0.953000  1.0  -0.0938
  C  C231  1  0.459500  0.578800  0.901400  1.0  0.1481
  C  C232  1  0.367200  0.597300  0.904700  1.0  -0.1181
  C  C233  1  0.318600  0.591600  0.931000  1.0  -0.1235
  C  C234  1  0.215700  0.606700  0.934600  1.0  0.3828
  C  C235  1  0.595200  0.459900  0.866300  1.0  0.1508
  C  C236  1  0.583800  0.417000  0.850500  1.0  -0.1667
  C  C237  1  0.612700  0.422500  0.910100  1.0  0.1188
  C  C238  1  0.598500  0.377800  0.896400  1.0  -0.1018
  C  C239  1  0.585900  0.374400  0.866300  1.0  -0.1131
  C  C240  1  0.573900  0.327500  0.851900  1.0  0.3802
  C  C241  1  0.636400  0.161400  0.916100  1.0  0.1294
  C  C242  1  0.620000  0.204300  0.901200  1.0  -0.1344
  C  C243  1  0.592600  0.117600  0.875800  1.0  0.1284
  C  C244  1  0.574800  0.157900  0.859900  1.0  -0.1209
  C  C245  1  0.590100  0.202400  0.872400  1.0  -0.1003
  C  C246  1  0.575700  0.246500  0.855300  1.0  0.4162
  C  C247  1  0.471400  0.228300  0.739400  1.0  0.1175
  C  C248  1  0.507700  0.233500  0.768600  1.0  -0.0874
  C  C249  1  0.441500  0.308500  0.736500  1.0  0.1237
  C  C250  1  0.479600  0.315600  0.764700  1.0  -0.1046
  C  C251  1  0.510100  0.277400  0.780800  1.0  -0.1282
  C  C252  1  0.541100  0.282600  0.812200  1.0  0.3856
  C  C253  1  0.970400  0.799200  0.342900  1.0  0.1401
  C  C254  1  0.918900  0.821800  0.365500  1.0  -0.1394
  C  C255  1  0.115000  0.811700  0.366100  1.0  0.1338
  C  C256  1  0.068500  0.833400  0.389600  1.0  -0.0967
  C  C257  1  0.969200  0.837600  0.389400  1.0  -0.0665
  C  C258  1  0.917600  0.860200  0.414400  1.0  0.3753
  C  C259  1  0.129500  0.910000  0.512300  1.0  0.1392
  C  C260  1  0.079200  0.898400  0.487300  1.0  -0.1535
  C  C261  1  0.994500  0.942700  0.533000  1.0  0.1408
  C  C262  1  0.938200  0.931600  0.509100  1.0  -0.1774
  C  C263  1  0.980600  0.907200  0.486300  1.0  -0.0444
  C  C264  1  0.924900  0.893800  0.460000  1.0  0.3192
  C  C265  1  0.539900  0.949700  0.448800  1.0  0.1201
  C  C266  1  0.634500  0.932700  0.453000  1.0  -0.0939
  C  C267  1  0.540500  0.921200  0.401400  1.0  0.1496
  C  C268  1  0.632800  0.902700  0.404700  1.0  -0.1191
  C  C269  1  0.681400  0.908400  0.431000  1.0  -0.1248
  C  C270  1  0.784300  0.893300  0.434600  1.0  0.3819
  C  C271  1  0.404800  0.040100  0.366300  1.0  0.1512
  C  C272  1  0.416200  0.083000  0.350500  1.0  -0.1664
  C  C273  1  0.387300  0.077500  0.410100  1.0  0.1182
  C  C274  1  0.401500  0.122200  0.396400  1.0  -0.1008
  C  C275  1  0.414100  0.125600  0.366300  1.0  -0.1116
  C  C276  1  0.426100  0.172500  0.351900  1.0  0.3809
  C  C277  1  0.363600  0.338600  0.416100  1.0  0.1294
  C  C278  1  0.380000  0.295700  0.401200  1.0  -0.1342
  C  C279  1  0.407400  0.382400  0.375800  1.0  0.1283
  C  C280  1  0.425200  0.342100  0.359900  1.0  -0.1218
  C  C281  1  0.409900  0.297600  0.372400  1.0  -0.1002
  C  C282  1  0.424300  0.253500  0.355300  1.0  0.416
  C  C283  1  0.528600  0.271700  0.239400  1.0  0.1159
  C  C284  1  0.492300  0.266500  0.268600  1.0  -0.0882
  C  C285  1  0.558500  0.191500  0.236500  1.0  0.1236
  C  C286  1  0.520400  0.184400  0.264700  1.0  -0.105
  C  C287  1  0.489900  0.222600  0.280800  1.0  -0.1281
  C  C288  1  0.458900  0.217400  0.312200  1.0  0.3852
  C  C289  1  0.529600  0.299200  0.657100  1.0  0.1392
  C  C290  1  0.581100  0.321800  0.634500  1.0  -0.1395
  C  C291  1  0.385000  0.311700  0.633900  1.0  0.1357
  C  C292  1  0.431500  0.333400  0.610400  1.0  -0.0962
  C  C293  1  0.530800  0.337600  0.610600  1.0  -0.0675
  C  C294  1  0.582400  0.360200  0.585600  1.0  0.3752
  C  C295  1  0.370500  0.410000  0.487700  1.0  0.1391
  C  C296  1  0.420800  0.398400  0.512700  1.0  -0.1521
  C  C297  1  0.505500  0.442700  0.467000  1.0  0.14
  C  C298  1  0.561800  0.431600  0.490900  1.0  -0.1759
  C  C299  1  0.519400  0.407200  0.513700  1.0  -0.0437
  C  C300  1  0.575100  0.393800  0.540000  1.0  0.3192
  C  C301  1  0.960100  0.449700  0.551200  1.0  0.1202
  C  C302  1  0.865500  0.432700  0.547000  1.0  -0.0913
  C  C303  1  0.959500  0.421200  0.598600  1.0  0.1496
  C  C304  1  0.867200  0.402700  0.595300  1.0  -0.1189
  C  C305  1  0.818600  0.408400  0.569000  1.0  -0.1241
  C  C306  1  0.715700  0.393300  0.565400  1.0  0.3828
  C  C307  1  0.095200  0.540100  0.633700  1.0  0.1508
  C  C308  1  0.083800  0.583000  0.649500  1.0  -0.1692
  C  C309  1  0.112700  0.577500  0.589900  1.0  0.1181
  C  C310  1  0.098500  0.622200  0.603600  1.0  -0.1013
  C  C311  1  0.085900  0.625600  0.633700  1.0  -0.1121
  C  C312  1  0.073900  0.672500  0.648100  1.0  0.3807
  C  C313  1  0.136400  0.838600  0.583900  1.0  0.129
  C  C314  1  0.120000  0.795700  0.598800  1.0  -0.1346
  C  C315  1  0.092600  0.882400  0.624200  1.0  0.1289
  C  C316  1  0.074800  0.842100  0.640100  1.0  -0.1221
  C  C317  1  0.090100  0.797600  0.627600  1.0  -0.1
  C  C318  1  0.075700  0.753500  0.644700  1.0  0.4158
  C  C319  1  0.971400  0.771700  0.760600  1.0  0.1163
  C  C320  1  0.007700  0.766500  0.731400  1.0  -0.0874
  C  C321  1  0.941500  0.691500  0.763500  1.0  0.125
  C  C322  1  0.979600  0.684400  0.735300  1.0  -0.1041
  C  C323  1  0.010100  0.722600  0.719200  1.0  -0.1283
  C  C324  1  0.041100  0.717400  0.687800  1.0  0.3856
  C  C325  1  0.470400  0.200800  0.157100  1.0  0.139
  C  C326  1  0.418900  0.178200  0.134500  1.0  -0.1399
  C  C327  1  0.615000  0.188300  0.133900  1.0  0.1341
  C  C328  1  0.568500  0.166600  0.110400  1.0  -0.0957
  C  C329  1  0.469200  0.162400  0.110600  1.0  -0.0682
  C  C330  1  0.417600  0.139800  0.085600  1.0  0.3752
  C  C331  1  0.629500  0.090000  0.987700  1.0  0.1383
  C  C332  1  0.579200  0.101600  0.012700  1.0  -0.1538
  C  C333  1  0.494500  0.057300  0.967000  1.0  0.142
  C  C334  1  0.438200  0.068400  0.990900  1.0  -0.178
  C  C335  1  0.480600  0.092800  0.013700  1.0  -0.0428
  C  C336  1  0.424900  0.106200  0.040000  1.0  0.3194
  C  C337  1  0.039900  0.050300  0.051200  1.0  0.1208
  C  C338  1  0.134500  0.067300  0.047000  1.0  -0.0923
  C  C339  1  0.040500  0.078800  0.098600  1.0  0.1489
  C  C340  1  0.132800  0.097300  0.095300  1.0  -0.12
  C  C341  1  0.181400  0.091600  0.069000  1.0  -0.1244
  C  C342  1  0.284300  0.106700  0.065400  1.0  0.3825
  C  C343  1  0.904800  0.959900  0.133700  1.0  0.1508
  C  C344  1  0.916200  0.917000  0.149500  1.0  -0.169
  C  C345  1  0.887300  0.922500  0.089900  1.0  0.1188
  C  C346  1  0.901500  0.877800  0.103600  1.0  -0.101
  C  C347  1  0.914100  0.874400  0.133700  1.0  -0.1125
  C  C348  1  0.926100  0.827500  0.148100  1.0  0.3801
  C  C349  1  0.863600  0.661400  0.083900  1.0  0.1283
  C  C350  1  0.880000  0.704300  0.098800  1.0  -0.1346
  C  C351  1  0.907400  0.617600  0.124200  1.0  0.1299
  C  C352  1  0.925200  0.657900  0.140100  1.0  -0.1223
  C  C353  1  0.909900  0.702400  0.127600  1.0  -0.1004
  C  C354  1  0.924300  0.746500  0.144700  1.0  0.416
  C  C355  1  0.028600  0.728300  0.260600  1.0  0.1173
  C  C356  1  0.992300  0.733500  0.231400  1.0  -0.0886
  C  C357  1  0.058500  0.808500  0.263500  1.0  0.1231
  C  C358  1  0.020400  0.815600  0.235300  1.0  -0.1043
  C  C359  1  0.989900  0.777400  0.219200  1.0  -0.1282
  C  C360  1  0.958900  0.782600  0.187800  1.0  0.3856
  C  C361  1  0.970400  0.299200  0.157100  1.0  0.14
  C  C362  1  0.918900  0.321800  0.134500  1.0  -0.1398
  C  C363  1  0.115000  0.311700  0.133900  1.0  0.1336
  C  C364  1  0.068500  0.333400  0.110400  1.0  -0.0959
  C  C365  1  0.969200  0.337600  0.110600  1.0  -0.0678
  C  C366  1  0.917600  0.360200  0.085600  1.0  0.3753
  C  C367  1  0.129500  0.410000  0.987700  1.0  0.1384
  C  C368  1  0.079200  0.398400  0.012700  1.0  -0.1537
  C  C369  1  0.994500  0.442700  0.967000  1.0  0.1418
  C  C370  1  0.938200  0.431600  0.990900  1.0  -0.1778
  C  C371  1  0.980600  0.407200  0.013700  1.0  -0.0435
  C  C372  1  0.924900  0.393800  0.040000  1.0  0.3194
  C  C373  1  0.539900  0.449700  0.051200  1.0  0.1212
  C  C374  1  0.634500  0.432700  0.047000  1.0  -0.0919
  C  C375  1  0.540500  0.421200  0.098600  1.0  0.1493
  C  C376  1  0.632800  0.402700  0.095300  1.0  -0.1191
  C  C377  1  0.681400  0.408400  0.069000  1.0  -0.1246
  C  C378  1  0.784300  0.393300  0.065400  1.0  0.382
  C  C379  1  0.404800  0.540100  0.133700  1.0  0.1517
  C  C380  1  0.416200  0.583000  0.149500  1.0  -0.169
  C  C381  1  0.387300  0.577500  0.089900  1.0  0.1188
  C  C382  1  0.401500  0.622200  0.103600  1.0  -0.1008
  C  C383  1  0.414100  0.625600  0.133700  1.0  -0.1118
  C  C384  1  0.426100  0.672500  0.148100  1.0  0.3808
  C  C385  1  0.363600  0.838600  0.083900  1.0  0.1289
  C  C386  1  0.380000  0.795700  0.098800  1.0  -0.1333
  C  C387  1  0.407400  0.882400  0.124200  1.0  0.1295
  C  C388  1  0.425200  0.842100  0.140100  1.0  -0.122
  C  C389  1  0.409900  0.797600  0.127600  1.0  -0.1
  C  C390  1  0.424300  0.753500  0.144700  1.0  0.4158
  C  C391  1  0.528600  0.771700  0.260600  1.0  0.1162
  C  C392  1  0.492300  0.766500  0.231400  1.0  -0.088
  C  C393  1  0.558500  0.691500  0.263500  1.0  0.1245
  C  C394  1  0.520400  0.684400  0.235300  1.0  -0.1044
  C  C395  1  0.489900  0.722600  0.219200  1.0  -0.1287
  C  C396  1  0.458900  0.717400  0.187800  1.0  0.3853
  C  C397  1  0.029600  0.200800  0.657100  1.0  0.1382
  C  C398  1  0.081100  0.178200  0.634500  1.0  -0.1395
  C  C399  1  0.885000  0.188300  0.633900  1.0  0.1357
  C  C400  1  0.931500  0.166600  0.610400  1.0  -0.0962
  C  C401  1  0.030800  0.162400  0.610600  1.0  -0.0679
  C  C402  1  0.082400  0.139800  0.585600  1.0  0.375
  C  C403  1  0.870500  0.090000  0.487700  1.0  0.139
  C  C404  1  0.920800  0.101600  0.512700  1.0  -0.1525
  C  C405  1  0.005500  0.057300  0.467000  1.0  0.1402
  C  C406  1  0.061800  0.068400  0.490900  1.0  -0.1755
  C  C407  1  0.019400  0.092800  0.513700  1.0  -0.043
  C  C408  1  0.075100  0.106200  0.540000  1.0  0.3193
  C  C409  1  0.460100  0.050300  0.551200  1.0  0.12
  C  C410  1  0.365500  0.067300  0.547000  1.0  -0.0916
  C  C411  1  0.459500  0.078800  0.598600  1.0  0.1492
  C  C412  1  0.367200  0.097300  0.595300  1.0  -0.1189
  C  C413  1  0.318600  0.091600  0.569000  1.0  -0.1234
  C  C414  1  0.215700  0.106700  0.565400  1.0  0.3829
  C  C415  1  0.595200  0.959900  0.633700  1.0  0.1509
  C  C416  1  0.583800  0.917000  0.649500  1.0  -0.169
  C  C417  1  0.612700  0.922500  0.589900  1.0  0.1181
  C  C418  1  0.598500  0.877800  0.603600  1.0  -0.1017
  C  C419  1  0.585900  0.874400  0.633700  1.0  -0.1131
  C  C420  1  0.573900  0.827500  0.648100  1.0  0.3801
  C  C421  1  0.636400  0.661400  0.583900  1.0  0.1282
  C  C422  1  0.620000  0.704300  0.598800  1.0  -0.1353
  C  C423  1  0.592600  0.617600  0.624200  1.0  0.1296
  C  C424  1  0.574800  0.657900  0.640100  1.0  -0.1216
  C  C425  1  0.590100  0.702400  0.627600  1.0  -0.1004
  C  C426  1  0.575700  0.746500  0.644700  1.0  0.416
  C  C427  1  0.471400  0.728300  0.760600  1.0  0.1176
  C  C428  1  0.507700  0.733500  0.731400  1.0  -0.0877
  C  C429  1  0.441500  0.808500  0.763500  1.0  0.123
  C  C430  1  0.479600  0.815600  0.735300  1.0  -0.1044
  C  C431  1  0.510100  0.777400  0.719200  1.0  -0.1278
  C  C432  1  0.541100  0.782600  0.687800  1.0  0.3858
  C  C433  1  0.470400  0.700800  0.342900  1.0  0.1402
  C  C434  1  0.418900  0.678200  0.365500  1.0  -0.1396
  C  C435  1  0.615000  0.688300  0.366100  1.0  0.1356
  C  C436  1  0.568500  0.666667  0.389600  1.0  -0.1008
  C  C437  1  0.469200  0.662400  0.389400  1.0  -0.0679
  C  C438  1  0.417600  0.639800  0.414400  1.0  0.3752
  C  C439  1  0.629500  0.590000  0.512300  1.0  0.1391
  C  C440  1  0.579200  0.601600  0.487300  1.0  -0.1529
  C  C441  1  0.494500  0.557300  0.533000  1.0  0.1411
  C  C442  1  0.438200  0.568400  0.509100  1.0  -0.1779
  C  C443  1  0.480600  0.592800  0.486300  1.0  -0.044
  C  C444  1  0.424900  0.606200  0.460000  1.0  0.3194
  C  C445  1  0.039900  0.550300  0.448800  1.0  0.1204
  C  C446  1  0.134500  0.567300  0.453000  1.0  -0.0944
  C  C447  1  0.040500  0.578800  0.401400  1.0  0.1499
  C  C448  1  0.132800  0.597300  0.404700  1.0  -0.1189
  C  C449  1  0.181400  0.591600  0.431000  1.0  -0.1246
  C  C450  1  0.284300  0.606700  0.434600  1.0  0.3823
  C  C451  1  0.904800  0.459900  0.366300  1.0  0.1512
  C  C452  1  0.916200  0.417000  0.350500  1.0  -0.1668
  C  C453  1  0.887300  0.422500  0.410100  1.0  0.1181
  C  C454  1  0.901500  0.377800  0.396400  1.0  -0.1015
  C  C455  1  0.914100  0.374400  0.366300  1.0  -0.1125
  C  C456  1  0.926100  0.327500  0.351900  1.0  0.3802
  C  C457  1  0.863600  0.161400  0.416100  1.0  0.129
  C  C458  1  0.880000  0.204300  0.401200  1.0  -0.135
  C  C459  1  0.907400  0.117600  0.375800  1.0  0.1286
  C  C460  1  0.925200  0.157900  0.359900  1.0  -0.1223
  C  C461  1  0.909900  0.202400  0.372400  1.0  -0.1002
  C  C462  1  0.924300  0.246500  0.355300  1.0  0.4162
  C  C463  1  0.028600  0.228300  0.239400  1.0  0.1172
  C  C464  1  0.992300  0.233500  0.268600  1.0  -0.0883
  C  C465  1  0.058500  0.308500  0.236500  1.0  0.1237
  C  C466  1  0.020400  0.315600  0.264700  1.0  -0.1046
  C  C467  1  0.989900  0.277400  0.280800  1.0  -0.1283
  C  C468  1  0.958900  0.282600  0.312200  1.0  0.3854
  C  C469  1  0.529600  0.799200  0.842900  1.0  0.1391
  C  C470  1  0.581100  0.821800  0.865500  1.0  -0.1392
  C  C471  1  0.385000  0.811700  0.866100  1.0  0.1359
  C  C472  1  0.431500  0.833400  0.889600  1.0  -0.0965
  C  C473  1  0.530800  0.837600  0.889400  1.0  -0.0665
  C  C474  1  0.582400  0.860200  0.914400  1.0  0.3752
  C  C475  1  0.370500  0.910000  0.012300  1.0  0.1395
  C  C476  1  0.420800  0.898400  0.987300  1.0  -0.1519
  C  C477  1  0.505500  0.942700  0.033000  1.0  0.1407
  C  C478  1  0.561800  0.931600  0.009100  1.0  -0.176
  C  C479  1  0.519400  0.907200  0.986300  1.0  -0.0443
  C  C480  1  0.575100  0.893800  0.960000  1.0  0.3189
  C  C481  1  0.960100  0.949700  0.948800  1.0  0.1204
  C  C482  1  0.865500  0.932700  0.953000  1.0  -0.0934
  C  C483  1  0.959500  0.921200  0.901400  1.0  0.1482
  C  C484  1  0.867200  0.902700  0.904700  1.0  -0.1185
  C  C485  1  0.818600  0.908400  0.931000  1.0  -0.1242
  C  C486  1  0.715700  0.893300  0.934600  1.0  0.3826
  C  C487  1  0.095200  0.040100  0.866300  1.0  0.1501
  C  C488  1  0.083800  0.083000  0.850500  1.0  -0.1663
  C  C489  1  0.112700  0.077500  0.910100  1.0  0.1186
  C  C490  1  0.098500  0.122200  0.896400  1.0  -0.1007
  C  C491  1  0.085900  0.125600  0.866300  1.0  -0.1119
  C  C492  1  0.073900  0.172500  0.851900  1.0  0.3809
  C  C493  1  0.136400  0.338600  0.916100  1.0  0.1299
  C  C494  1  0.120000  0.295700  0.901200  1.0  -0.1349
  C  C495  1  0.092600  0.382400  0.875800  1.0  0.1279
  C  C496  1  0.074800  0.342100  0.859900  1.0  -0.1209
  C  C497  1  0.090100  0.297600  0.872400  1.0  -0.1003
  C  C498  1  0.075700  0.253500  0.855300  1.0  0.416
  C  C499  1  0.971400  0.271700  0.739400  1.0  0.1161
  C  C500  1  0.007700  0.266500  0.768600  1.0  -0.0875
  C  C501  1  0.941500  0.191500  0.736500  1.0  0.1244
  C  C502  1  0.979600  0.184400  0.764700  1.0  -0.1045
  C  C503  1  0.010100  0.222600  0.780800  1.0  -0.1281
  C  C504  1  0.041100  0.217400  0.812200  1.0  0.3854
  I  I505  1  0.695990  0.700650  0.803570  1.0  -0.3819
  I  I506  1  0.853850  0.831490  0.827680  1.0  -0.3216
  I  I507  1  0.725970  0.579260  0.877880  1.0  -0.3436
  I  I508  1  0.715420  0.507210  0.965770  1.0  -0.391
  I  I509  1  0.845170  0.068940  0.935520  1.0  -0.3874
  I  I510  1  0.583650  0.988820  0.898130  1.0  -0.3505
  I  I511  1  0.304010  0.799350  0.303570  1.0  -0.3834
  I  I512  1  0.146150  0.668510  0.327680  1.0  -0.3226
  I  I513  1  0.274030  0.920740  0.377880  1.0  -0.3433
  I  I514  1  0.284580  0.992790  0.465770  1.0  -0.3918
  I  I515  1  0.154830  0.431060  0.435520  1.0  -0.3856
  I  I516  1  0.416350  0.511180  0.398130  1.0  -0.3515
  I  I517  1  0.195990  0.299350  0.696430  1.0  -0.384
  I  I518  1  0.353850  0.168510  0.672320  1.0  -0.3227
  I  I519  1  0.225970  0.420740  0.622120  1.0  -0.3426
  I  I520  1  0.215420  0.492790  0.534230  1.0  -0.3913
  I  I521  1  0.345170  0.931060  0.564480  1.0  -0.3873
  I  I522  1  0.083650  0.011180  0.601870  1.0  -0.3501
  I  I523  1  0.804010  0.200650  0.196430  1.0  -0.3822
  I  I524  1  0.646150  0.331490  0.172320  1.0  -0.3221
  I  I525  1  0.774030  0.079260  0.122120  1.0  -0.3423
  I  I526  1  0.784580  0.007210  0.034230  1.0  -0.392
  I  I527  1  0.654830  0.568940  0.064480  1.0  -0.386
  I  I528  1  0.916350  0.488820  0.101870  1.0  -0.3507
  I  I529  1  0.304010  0.299350  0.196430  1.0  -0.3843
  I  I530  1  0.146150  0.168510  0.172320  1.0  -0.3228
  I  I531  1  0.274030  0.420740  0.122120  1.0  -0.3423
  I  I532  1  0.284580  0.492790  0.034230  1.0  -0.392
  I  I533  1  0.154830  0.931060  0.064480  1.0  -0.3858
  I  I534  1  0.416350  0.011180  0.101870  1.0  -0.3509
  I  I535  1  0.695990  0.200650  0.696430  1.0  -0.3825
  I  I536  1  0.853850  0.331490  0.672320  1.0  -0.3222
  I  I537  1  0.725970  0.079260  0.622120  1.0  -0.3427
  I  I538  1  0.715420  0.007210  0.534230  1.0  -0.3913
  I  I539  1  0.845170  0.568940  0.564480  1.0  -0.3874
  I  I540  1  0.583650  0.488820  0.601870  1.0  -0.3499
  I  I541  1  0.804010  0.700650  0.303570  1.0  -0.3818
  I  I542  1  0.646150  0.831490  0.327680  1.0  -0.3215
  I  I543  1  0.774030  0.579260  0.377880  1.0  -0.3432
  I  I544  1  0.784580  0.507210  0.465770  1.0  -0.3917
  I  I545  1  0.654830  0.068940  0.435520  1.0  -0.386
  I  I546  1  0.916350  0.988820  0.398130  1.0  -0.3518
  I  I547  1  0.195990  0.799350  0.803570  1.0  -0.3834
  I  I548  1  0.353850  0.668510  0.827680  1.0  -0.3225
  I  I549  1  0.225970  0.920740  0.877880  1.0  -0.3438
  I  I550  1  0.215420  0.992790  0.965770  1.0  -0.3911
  I  I551  1  0.345170  0.431060  0.935520  1.0  -0.3871
  I  I552  1  0.083650  0.511180  0.898130  1.0  -0.3502
  N  N553  1  0.932900  0.705900  0.843200  1.0  -0.3086
  N  N554  1  0.910300  0.567500  0.035000  1.0  -0.3009
  N  N555  1  0.505800  0.555800  0.923000  1.0  -0.31
  N  N556  1  0.028600  0.628400  0.937630  1.0  -0.4344
  N  N557  1  0.170500  0.594800  0.958860  1.0  -0.4545
  N  N558  1  0.177600  0.629800  0.911900  1.0  -0.4709
  N  N559  1  0.613300  0.462200  0.894800  1.0  -0.3314
  N  N560  1  0.623700  0.118700  0.904130  1.0  -0.3093
  N  N561  1  0.438900  0.265500  0.724780  1.0  -0.2892
  N  N562  1  0.586700  0.288700  0.868500  1.0  -0.4765
  N  N563  1  0.553200  0.241400  0.826870  1.0  -0.4691
  N  N564  1  0.551100  0.326500  0.823380  1.0  -0.5124
  N  N565  1  0.067100  0.794100  0.343200  1.0  -0.3104
  N  N566  1  0.089700  0.932500  0.535000  1.0  -0.3007
  N  N567  1  0.494200  0.944200  0.423000  1.0  -0.3111
  N  N568  1  0.971400  0.871600  0.437630  1.0  -0.4308
  N  N569  1  0.829500  0.905200  0.458860  1.0  -0.4533
  N  N570  1  0.822400  0.870200  0.411900  1.0  -0.473
  N  N571  1  0.386700  0.037800  0.394800  1.0  -0.3274
  N  N572  1  0.376300  0.381300  0.404130  1.0  -0.3109
  N  N573  1  0.561100  0.234500  0.224780  1.0  -0.2897
  N  N574  1  0.413300  0.211300  0.368500  1.0  -0.4764
  N  N575  1  0.446800  0.258600  0.326870  1.0  -0.4682
  N  N576  1  0.448900  0.173500  0.323380  1.0  -0.5106
  N  N577  1  0.432900  0.294100  0.656800  1.0  -0.3088
  N  N578  1  0.410300  0.432500  0.465000  1.0  -0.301
  N  N579  1  0.005800  0.444200  0.577000  1.0  -0.3095
  N  N580  1  0.528600  0.371600  0.562370  1.0  -0.4288
  N  N581  1  0.670500  0.405200  0.541140  1.0  -0.4533
  N  N582  1  0.677600  0.370200  0.588100  1.0  -0.472
  N  N583  1  0.113300  0.537800  0.605200  1.0  -0.3284
  N  N584  1  0.123700  0.881300  0.595870  1.0  -0.3102
  N  N585  1  0.938900  0.734500  0.775220  1.0  -0.2878
  N  N586  1  0.086700  0.711300  0.631500  1.0  -0.4749
  N  N587  1  0.053200  0.758600  0.673130  1.0  -0.4685
  N  N588  1  0.051100  0.673500  0.676620  1.0  -0.5108
  N  N589  1  0.567100  0.205900  0.156800  1.0  -0.3098
  N  N590  1  0.589700  0.067500  0.965000  1.0  -0.3037
  N  N591  1  0.994200  0.055800  0.077000  1.0  -0.3121
  N  N592  1  0.471400  0.128400  0.062370  1.0  -0.4313
  N  N593  1  0.329500  0.094800  0.041140  1.0  -0.4533
  N  N594  1  0.322400  0.129800  0.088100  1.0  -0.4723
  N  N595  1  0.886700  0.962200  0.105200  1.0  -0.3292
  N  N596  1  0.876300  0.618700  0.095870  1.0  -0.3088
  N  N597  1  0.061100  0.765500  0.275220  1.0  -0.2877
  N  N598  1  0.913300  0.788700  0.131500  1.0  -0.475
  N  N599  1  0.946800  0.741400  0.173130  1.0  -0.4682
  N  N600  1  0.948900  0.826500  0.176620  1.0  -0.5126
  N  N601  1  0.067100  0.294100  0.156800  1.0  -0.309
  N  N602  1  0.089700  0.432500  0.965000  1.0  -0.3019
  N  N603  1  0.494200  0.444200  0.077000  1.0  -0.3113
  N  N604  1  0.971400  0.371600  0.062370  1.0  -0.4305
  N  N605  1  0.829500  0.405200  0.041140  1.0  -0.4522
  N  N606  1  0.822400  0.370200  0.088100  1.0  -0.4727
  N  N607  1  0.386700  0.537800  0.105200  1.0  -0.3277
  N  N608  1  0.376300  0.881300  0.095870  1.0  -0.3097
  N  N609  1  0.561100  0.734500  0.275220  1.0  -0.2878
  N  N610  1  0.413300  0.711300  0.131500  1.0  -0.4753
  N  N611  1  0.446800  0.758600  0.173130  1.0  -0.4684
  N  N612  1  0.448900  0.673500  0.176620  1.0  -0.5108
  N  N613  1  0.932900  0.205900  0.656800  1.0  -0.3092
  N  N614  1  0.910300  0.067500  0.465000  1.0  -0.3034
  N  N615  1  0.505800  0.055800  0.577000  1.0  -0.31
  N  N616  1  0.028600  0.128400  0.562370  1.0  -0.4289
  N  N617  1  0.170500  0.094800  0.541140  1.0  -0.4547
  N  N618  1  0.177600  0.129800  0.588100  1.0  -0.472
  N  N619  1  0.613300  0.962200  0.605200  1.0  -0.3312
  N  N620  1  0.623700  0.618700  0.595870  1.0  -0.3084
  N  N621  1  0.438900  0.765500  0.775220  1.0  -0.2878
  N  N622  1  0.586700  0.788700  0.631500  1.0  -0.4747
  N  N623  1  0.553200  0.741400  0.673130  1.0  -0.4685
  N  N624  1  0.551100  0.826500  0.676620  1.0  -0.5124
  N  N625  1  0.567100  0.705900  0.343200  1.0  -0.3098
  N  N626  1  0.589700  0.567500  0.535000  1.0  -0.301
  N  N627  1  0.994200  0.555800  0.423000  1.0  -0.3121
  N  N628  1  0.471400  0.628400  0.437630  1.0  -0.4364
  N  N629  1  0.329500  0.594800  0.458860  1.0  -0.453
  N  N630  1  0.322400  0.629800  0.411900  1.0  -0.4714
  N  N631  1  0.886700  0.462200  0.394800  1.0  -0.3292
  N  N632  1  0.876300  0.118700  0.404130  1.0  -0.3095
  N  N633  1  0.061100  0.265500  0.224780  1.0  -0.2898
  N  N634  1  0.913300  0.288700  0.368500  1.0  -0.4765
  N  N635  1  0.946800  0.241400  0.326870  1.0  -0.4686
  N  N636  1  0.948900  0.326500  0.323380  1.0  -0.5127
  N  N637  1  0.432900  0.794100  0.843200  1.0  -0.31
  N  N638  1  0.410300  0.932500  0.035000  1.0  -0.3007
  N  N639  1  0.005800  0.944200  0.923000  1.0  -0.3094
  N  N640  1  0.528600  0.871600  0.937630  1.0  -0.4292
  N  N641  1  0.670500  0.905200  0.958860  1.0  -0.4544
  N  N642  1  0.677600  0.870200  0.911900  1.0  -0.4724
  N  N643  1  0.113300  0.037800  0.894800  1.0  -0.3282
  N  N644  1  0.123700  0.381300  0.904130  1.0  -0.3113
  N  N645  1  0.938900  0.234500  0.724780  1.0  -0.2888
  N  N646  1  0.086700  0.211300  0.868500  1.0  -0.4764
  N  N647  1  0.053200  0.258600  0.826870  1.0  -0.4685
  N  N648  1  0.051100  0.173500  0.823380  1.0  -0.5106
