# generated using pymatgen
data_FeHC4O3
_symmetry_space_group_name_H-M   'P 1'
_cell_length_a   26.00870000
_cell_length_b   26.00870000
_cell_length_c   6.81310000
_cell_angle_alpha   90.00000000
_cell_angle_beta   90.00000000
_cell_angle_gamma   120.00000000
_symmetry_Int_Tables_number   1
_chemical_formula_structural   FeHC4O3
_chemical_formula_sum   'Fe18 H18 C72 O54'
_cell_volume   3991.28450099
_cell_formula_units_Z   18
loop_
 _symmetry_equiv_pos_site_id
 _symmetry_equiv_pos_as_xyz
  1  'x, y, z'
loop_
 _atom_site_type_symbol
 _atom_site_label
 _atom_site_symmetry_multiplicity
 _atom_site_fract_x
 _atom_site_fract_y
 _atom_site_fract_z
 _atom_site_occupancy
 _atom_site_charge
  Fe  Fe1  1  0.380400  0.347900  0.141000  1.0  1.0011
  Fe  Fe2  1  0.047070  0.681230  0.474330  1.0  1.0024
  Fe  Fe3  1  0.713730  0.014570  0.807670  1.0  1.0025
  Fe  Fe4  1  0.652100  0.032500  0.141000  1.0  1.0083
  Fe  Fe5  1  0.318770  0.365830  0.474330  1.0  1.0083
  Fe  Fe6  1  0.985430  0.699170  0.807670  1.0  1.0071
  Fe  Fe7  1  0.967500  0.619600  0.141000  1.0  1.005
  Fe  Fe8  1  0.634170  0.952930  0.474330  1.0  1.0039
  Fe  Fe9  1  0.300830  0.286270  0.807670  1.0  1.005
  Fe  Fe10  1  0.619600  0.652100  0.859000  1.0  1.0055
  Fe  Fe11  1  0.286270  0.985430  0.192330  1.0  1.0067
  Fe  Fe12  1  0.952930  0.318770  0.525670  1.0  1.0067
  Fe  Fe13  1  0.347900  0.967500  0.859000  1.0  1.0042
  Fe  Fe14  1  0.014570  0.300830  0.192330  1.0  1.0028
  Fe  Fe15  1  0.681230  0.634170  0.525670  1.0  1.0042
  Fe  Fe16  1  0.032500  0.380400  0.859000  1.0  1.0067
  Fe  Fe17  1  0.699170  0.713730  0.192330  1.0  1.0067
  Fe  Fe18  1  0.365830  0.047070  0.525670  1.0  1.0055
  H  H19  1  0.370100  0.192200  0.820000  1.0  0.1411
  H  H20  1  0.036770  0.525530  0.153330  1.0  0.1411
  H  H21  1  0.703430  0.858870  0.486670  1.0  0.1437
  H  H22  1  0.807800  0.177900  0.820000  1.0  0.147
  H  H23  1  0.474470  0.511230  0.153330  1.0  0.147
  H  H24  1  0.141130  0.844570  0.486670  1.0  0.1465
  H  H25  1  0.822100  0.629900  0.820000  1.0  0.1469
  H  H26  1  0.488770  0.963230  0.153330  1.0  0.1469
  H  H27  1  0.155430  0.296570  0.486670  1.0  0.1463
  H  H28  1  0.629900  0.807800  0.180000  1.0  0.1401
  H  H29  1  0.296570  0.141130  0.513330  1.0  0.1426
  H  H30  1  0.963230  0.474470  0.846670  1.0  0.1401
  H  H31  1  0.192200  0.822100  0.180000  1.0  0.1467
  H  H32  1  0.858870  0.155430  0.513330  1.0  0.1458
  H  H33  1  0.525530  0.488770  0.846670  1.0  0.1467
  H  H34  1  0.177900  0.370100  0.180000  1.0  0.1471
  H  H35  1  0.844570  0.703430  0.513330  1.0  0.1459
  H  H36  1  0.511230  0.036770  0.846670  1.0  0.1471
  C  C37  1  0.317500  0.246500  0.414500  1.0  0.5099
  C  C38  1  0.333600  0.209100  0.300500  1.0  -0.1473
  C  C39  1  0.346000  0.225900  0.097100  1.0  0.3078
  C  C40  1  0.353700  0.182300  0.983900  1.0  0.1257
  C  C41  1  0.984170  0.579830  0.747830  1.0  0.5099
  C  C42  1  0.000270  0.542430  0.633830  1.0  -0.1472
  C  C43  1  0.012670  0.559230  0.430430  1.0  0.308
  C  C44  1  0.020370  0.515630  0.317230  1.0  0.1258
  C  C45  1  0.650830  0.913170  0.081170  1.0  0.5099
  C  C46  1  0.666930  0.875770  0.967170  1.0  -0.1474
  C  C47  1  0.679330  0.892570  0.763770  1.0  0.308
  C  C48  1  0.687030  0.848970  0.650570  1.0  0.1255
  C  C49  1  0.753500  0.071000  0.414500  1.0  0.5071
  C  C50  1  0.790900  0.124500  0.300500  1.0  -0.1481
  C  C51  1  0.774100  0.120100  0.097100  1.0  0.3079
  C  C52  1  0.817700  0.171400  0.983900  1.0  0.1189
  C  C53  1  0.420170  0.404330  0.747830  1.0  0.5073
  C  C54  1  0.457570  0.457830  0.633830  1.0  -0.1476
  C  C55  1  0.440770  0.453430  0.430430  1.0  0.3077
  C  C56  1  0.484370  0.504730  0.317230  1.0  0.1189
  C  C57  1  0.086830  0.737670  0.081170  1.0  0.5071
  C  C58  1  0.124230  0.791170  0.967170  1.0  -0.1477
  C  C59  1  0.107430  0.786770  0.763770  1.0  0.3079
  C  C60  1  0.151030  0.838070  0.650570  1.0  0.1409
  C  C61  1  0.929000  0.682500  0.414500  1.0  0.5072
  C  C62  1  0.875500  0.666400  0.300500  1.0  -0.1477
  C  C63  1  0.879900  0.654000  0.097100  1.0  0.3068
  C  C64  1  0.828600  0.646300  0.983900  1.0  0.1165
  C  C65  1  0.595670  0.015830  0.747830  1.0  0.5072
  C  C66  1  0.542170  0.999730  0.633830  1.0  -0.1475
  C  C67  1  0.546570  0.987330  0.430430  1.0  0.3067
  C  C68  1  0.495270  0.979630  0.317230  1.0  0.1166
  C  C69  1  0.262330  0.349170  0.081170  1.0  0.5072
  C  C70  1  0.208830  0.333070  0.967170  1.0  -0.1475
  C  C71  1  0.213230  0.320670  0.763770  1.0  0.3067
  C  C72  1  0.161930  0.312970  0.650570  1.0  0.1232
  C  C73  1  0.682500  0.753500  0.585500  1.0  0.5087
  C  C74  1  0.666400  0.790900  0.699500  1.0  -0.1501
  C  C75  1  0.654000  0.774100  0.902900  1.0  0.3077
  C  C76  1  0.646300  0.817700  0.016100  1.0  0.1259
  C  C77  1  0.349170  0.086830  0.918830  1.0  0.5087
  C  C78  1  0.333070  0.124230  0.032830  1.0  -0.1503
  C  C79  1  0.320670  0.107430  0.236230  1.0  0.3079
  C  C80  1  0.312970  0.151030  0.349430  1.0  0.1257
  C  C81  1  0.015830  0.420170  0.252170  1.0  0.5086
  C  C82  1  0.999730  0.457570  0.366170  1.0  -0.1501
  C  C83  1  0.987330  0.440770  0.569570  1.0  0.3079
  C  C84  1  0.979630  0.484370  0.682770  1.0  0.126
  C  C85  1  0.246500  0.929000  0.585500  1.0  0.5084
  C  C86  1  0.209100  0.875500  0.699500  1.0  -0.1486
  C  C87  1  0.225900  0.879900  0.902900  1.0  0.3089
  C  C88  1  0.182300  0.828600  0.016100  1.0  0.1197
  C  C89  1  0.913170  0.262330  0.918830  1.0  0.5084
  C  C90  1  0.875770  0.208830  0.032830  1.0  -0.1482
  C  C91  1  0.892570  0.213230  0.236230  1.0  0.3089
  C  C92  1  0.848970  0.161930  0.349430  1.0  0.1417
  C  C93  1  0.579830  0.595670  0.252170  1.0  0.5084
  C  C94  1  0.542430  0.542170  0.366170  1.0  -0.1481
  C  C95  1  0.559230  0.546570  0.569570  1.0  0.3087
  C  C96  1  0.515630  0.495270  0.682770  1.0  0.1198
  C  C97  1  0.071000  0.317500  0.585500  1.0  0.5083
  C  C98  1  0.124500  0.333600  0.699500  1.0  -0.1489
  C  C99  1  0.120100  0.346000  0.902900  1.0  0.3088
  C  C100  1  0.171400  0.353700  0.016100  1.0  0.117
  C  C101  1  0.737670  0.650830  0.918830  1.0  0.5083
  C  C102  1  0.791170  0.666930  0.032830  1.0  -0.1487
  C  C103  1  0.786770  0.679330  0.236230  1.0  0.3088
  C  C104  1  0.838070  0.687030  0.349430  1.0  0.124
  C  C105  1  0.404330  0.984170  0.252170  1.0  0.5083
  C  C106  1  0.457830  0.000270  0.366170  1.0  -0.1487
  C  C107  1  0.453430  0.012670  0.569570  1.0  0.3088
  C  C108  1  0.504730  0.020370  0.682770  1.0  0.1171
  O  O109  1  0.326600  0.296800  0.349100  1.0  -0.6478
  O  O110  1  0.299700  0.220600  0.608000  1.0  -0.6411
  O  O111  1  0.356800  0.273000  0.007300  1.0  -0.6495
  O  O112  1  0.993270  0.630130  0.682430  1.0  -0.6478
  O  O113  1  0.966370  0.553930  0.941330  1.0  -0.6413
  O  O114  1  0.023470  0.606330  0.340630  1.0  -0.6496
  O  O115  1  0.659930  0.963470  0.015770  1.0  -0.6479
  O  O116  1  0.633030  0.887270  0.274670  1.0  -0.6411
  O  O117  1  0.690130  0.939670  0.673970  1.0  -0.6495
  O  O118  1  0.703200  0.029800  0.349100  1.0  -0.6511
  O  O119  1  0.779400  0.079100  0.608000  1.0  -0.6432
  O  O120  1  0.727000  0.083800  0.007300  1.0  -0.6492
  O  O121  1  0.369870  0.363130  0.682430  1.0  -0.651
  O  O122  1  0.446070  0.412430  0.941330  1.0  -0.6431
  O  O123  1  0.393670  0.417130  0.340630  1.0  -0.6492
  O  O124  1  0.036530  0.696470  0.015770  1.0  -0.651
  O  O125  1  0.112730  0.745770  0.274670  1.0  -0.6434
  O  O126  1  0.060330  0.750470  0.673970  1.0  -0.6491
  O  O127  1  0.970200  0.673400  0.349100  1.0  -0.6509
  O  O128  1  0.920900  0.700300  0.608000  1.0  -0.6428
  O  O129  1  0.916200  0.643200  0.007300  1.0  -0.6486
  O  O130  1  0.636870  0.006730  0.682430  1.0  -0.6509
  O  O131  1  0.587570  0.033630  0.941330  1.0  -0.6427
  O  O132  1  0.582870  0.976530  0.340630  1.0  -0.6485
  O  O133  1  0.303530  0.340070  0.015770  1.0  -0.6508
  O  O134  1  0.254230  0.366970  0.274670  1.0  -0.6426
  O  O135  1  0.249530  0.309870  0.673970  1.0  -0.6486
  O  O136  1  0.673400  0.703200  0.650900  1.0  -0.6488
  O  O137  1  0.700300  0.779400  0.392000  1.0  -0.6432
  O  O138  1  0.643200  0.727000  0.992700  1.0  -0.6501
  O  O139  1  0.340070  0.036530  0.984230  1.0  -0.6489
  O  O140  1  0.366970  0.112730  0.725330  1.0  -0.6432
  O  O141  1  0.309870  0.060330  0.326030  1.0  -0.6501
  O  O142  1  0.006730  0.369870  0.317570  1.0  -0.6488
  O  O143  1  0.033630  0.446070  0.058670  1.0  -0.6433
  O  O144  1  0.976530  0.393670  0.659370  1.0  -0.6501
  O  O145  1  0.296800  0.970200  0.650900  1.0  -0.6512
  O  O146  1  0.220600  0.920900  0.392000  1.0  -0.6427
  O  O147  1  0.273000  0.916200  0.992700  1.0  -0.6476
  O  O148  1  0.963470  0.303530  0.984230  1.0  -0.6511
  O  O149  1  0.887270  0.254230  0.725330  1.0  -0.6429
  O  O150  1  0.939670  0.249530  0.326030  1.0  -0.6476
  O  O151  1  0.630130  0.636870  0.317570  1.0  -0.6511
  O  O152  1  0.553930  0.587570  0.058670  1.0  -0.6426
  O  O153  1  0.606330  0.582870  0.659370  1.0  -0.6476
  O  O154  1  0.029800  0.326600  0.650900  1.0  -0.6507
  O  O155  1  0.079100  0.299700  0.392000  1.0  -0.6435
  O  O156  1  0.083800  0.356800  0.992700  1.0  -0.6492
  O  O157  1  0.696470  0.659930  0.984230  1.0  -0.6507
  O  O158  1  0.745770  0.633030  0.725330  1.0  -0.6433
  O  O159  1  0.750470  0.690130  0.326030  1.0  -0.6492
  O  O160  1  0.363130  0.993270  0.317570  1.0  -0.6508
  O  O161  1  0.412430  0.966370  0.058670  1.0  -0.6435
  O  O162  1  0.417130  0.023470  0.659370  1.0  -0.6491
