# generated using pymatgen
data_LaH20C25N5Cl3
_symmetry_space_group_name_H-M   'P 1'
_cell_length_a   13.44700000
_cell_length_b   13.71500000
_cell_length_c   14.30100000
_cell_angle_alpha   79.48000000
_cell_angle_beta   63.90000000
_cell_angle_gamma   65.68000000
_symmetry_Int_Tables_number   1
_chemical_formula_structural   LaH20C25N5Cl3
_chemical_formula_sum   'La2 H40 C50 N10 Cl6'
_cell_volume   2158.33457492
_cell_formula_units_Z   2
loop_
 _symmetry_equiv_pos_site_id
 _symmetry_equiv_pos_as_xyz
  1  'x, y, z'
loop_
 _atom_site_type_symbol
 _atom_site_label
 _atom_site_symmetry_multiplicity
 _atom_site_fract_x
 _atom_site_fract_y
 _atom_site_fract_z
 _atom_site_occupancy
 _atom_site_charge
  La  La1  1  0.475810  0.080460  0.341870  1.0  1.6875
  La  La2  1  0.524190  0.919540  0.658130  1.0  1.6883
  H  H3  1  0.125100  0.452400  0.580500  1.0  0.1314
  H  H4  1  0.293500  0.301400  0.518100  1.0  0.0774
  H  H5  1  0.658600  0.151000  0.088700  1.0  0.0741
  H  H6  1  0.847800  0.134400  0.969400  1.0  0.1287
  H  H7  1  0.592900  0.658700  0.979000  1.0  0.1251
  H  H8  1  0.552800  0.946400  0.108400  1.0  0.0749
  H  H9  1  0.979300  0.876100  0.128500  1.0  0.1275
  H  H10  1  0.259800  0.978800  0.561800  1.0  0.0727
  H  H11  1  0.533900  0.651400  0.318000  1.0  0.1239
  H  H12  1  0.786000  0.895700  0.238400  1.0  0.071
  H  H13  1  0.498700  0.808400  0.384200  1.0  0.0772
  H  H14  1  0.593800  0.504600  0.249400  1.0  0.1279
  H  H15  1  0.578900  0.795500  0.038300  1.0  0.1188
  H  H16  1  0.076700  0.964700  0.619100  1.0  0.1257
  H  H17  1  0.625400  0.351600  0.177600  1.0  0.0741
  H  H18  1  0.029000  0.413800  0.364900  1.0  0.1247
  H  H19  1  0.638200  0.497600  0.913500  1.0  0.0779
  H  H20  1  0.202000  0.265000  0.306700  1.0  0.0765
  H  H21  1  0.270500  0.052100  0.282800  1.0  0.07
  H  H22  1  0.090300  0.038500  0.330800  1.0  0.1306
  H  H23  1  0.874900  0.547600  0.419500  1.0  0.1318
  H  H24  1  0.706500  0.698600  0.481900  1.0  0.0776
  H  H25  1  0.341400  0.849000  0.911300  1.0  0.0737
  H  H26  1  0.152200  0.865600  0.030600  1.0  0.1297
  H  H27  1  0.407100  0.341300  0.021000  1.0  0.1257
  H  H28  1  0.447200  0.053600  0.891600  1.0  0.075
  H  H29  1  0.020700  0.123900  0.871500  1.0  0.1275
  H  H30  1  0.740200  0.021200  0.438200  1.0  0.0731
  H  H31  1  0.466100  0.348600  0.682000  1.0  0.1236
  H  H32  1  0.214000  0.104300  0.761600  1.0  0.0721
  H  H33  1  0.501300  0.191600  0.615800  1.0  0.0774
  H  H34  1  0.406200  0.495400  0.750600  1.0  0.1283
  H  H35  1  0.421100  0.204500  0.961700  1.0  0.1182
  H  H36  1  0.923300  0.035300  0.380900  1.0  0.1256
  H  H37  1  0.374600  0.648400  0.822400  1.0  0.0737
  H  H38  1  0.971000  0.586200  0.635100  1.0  0.1252
  H  H39  1  0.361800  0.502400  0.086500  1.0  0.077
  H  H40  1  0.798000  0.735000  0.693300  1.0  0.0755
  H  H41  1  0.729500  0.947900  0.717200  1.0  0.0692
  H  H42  1  0.909700  0.961500  0.669200  1.0  0.1301
  C  C43  1  0.138200  0.414700  0.524000  1.0  -0.2066
  C  C44  1  0.562400  0.703200  0.168800  1.0  0.0937
  C  C45  1  0.937400  0.004900  0.036300  1.0  0.0934
  C  C46  1  0.055600  0.450700  0.480200  1.0  0.094
  C  C47  1  0.239100  0.324200  0.485700  1.0  0.1778
  C  C48  1  0.724700  0.094000  0.097100  1.0  0.1807
  C  C49  1  0.587900  0.602200  0.123000  1.0  0.0903
  C  C50  1  0.837900  0.085300  0.025800  1.0  -0.1995
  C  C51  1  0.601200  0.596500  0.021600  1.0  -0.1947
  C  C52  1  0.547200  0.886200  0.152400  1.0  0.1631
  C  C53  1  0.914900  0.933700  0.118100  1.0  -0.2131
  C  C54  1  0.223800  0.993500  0.514000  1.0  0.1806
  C  C55  1  0.537300  0.711400  0.273200  1.0  -0.2144
  C  C56  1  0.798500  0.946900  0.184400  1.0  0.1755
  C  C57  1  0.059300  0.003200  0.482600  1.0  0.1058
  C  C58  1  0.517200  0.805600  0.312300  1.0  0.1683
  C  C59  1  0.600100  0.506300  0.180400  1.0  -0.21
  C  C60  1  0.564900  0.795300  0.109500  1.0  -0.1865
  C  C61  1  0.114100  0.984300  0.548800  1.0  -0.1965
  C  C62  1  0.621300  0.414300  0.135800  1.0  0.1769
  C  C63  1  0.082200  0.392500  0.398200  1.0  -0.2063
  C  C64  1  0.626600  0.499600  0.983700  1.0  0.1662
  C  C65  1  0.186100  0.303100  0.364000  1.0  0.185
  C  C66  1  0.230000  0.035500  0.353400  1.0  0.176
  C  C67  1  0.121900  0.027400  0.381400  1.0  -0.2111
  C  C68  1  0.861800  0.585300  0.476000  1.0  -0.2059
  C  C69  1  0.437600  0.296800  0.831200  1.0  0.0948
  C  C70  1  0.062600  0.995100  0.963700  1.0  0.0926
  C  C71  1  0.944400  0.549300  0.519800  1.0  0.0942
  C  C72  1  0.760900  0.675800  0.514300  1.0  0.177
  C  C73  1  0.275300  0.906000  0.902900  1.0  0.1824
  C  C74  1  0.412100  0.397800  0.877000  1.0  0.0905
  C  C75  1  0.162100  0.914700  0.974200  1.0  -0.1999
  C  C76  1  0.398800  0.403500  0.978400  1.0  -0.1943
  C  C77  1  0.452800  0.113800  0.847600  1.0  0.1638
  C  C78  1  0.085100  0.066300  0.881900  1.0  -0.2086
  C  C79  1  0.776200  0.006500  0.486000  1.0  0.1797
  C  C80  1  0.462700  0.288600  0.726800  1.0  -0.2151
  C  C81  1  0.201500  0.053100  0.815600  1.0  0.1762
  C  C82  1  0.940700  0.996800  0.517400  1.0  0.1052
  C  C83  1  0.482800  0.194400  0.687700  1.0  0.1682
  C  C84  1  0.399900  0.493700  0.819600  1.0  -0.2086
  C  C85  1  0.435100  0.204700  0.890500  1.0  -0.1856
  C  C86  1  0.885900  0.015700  0.451200  1.0  -0.1952
  C  C87  1  0.378700  0.585700  0.864200  1.0  0.1808
  C  C88  1  0.917800  0.607500  0.601800  1.0  -0.2057
  C  C89  1  0.373400  0.500400  0.016300  1.0  0.1685
  C  C90  1  0.813900  0.696900  0.636000  1.0  0.1855
  C  C91  1  0.770000  0.964500  0.646600  1.0  0.1766
  C  C92  1  0.878100  0.972600  0.618600  1.0  -0.2116
  N  N93  1  0.702000  0.027000  0.177800  1.0  -0.4083
  N  N94  1  0.522500  0.894600  0.253700  1.0  -0.4331
  N  N95  1  0.266300  0.266300  0.406500  1.0  -0.4039
  N  N96  1  0.281600  0.021900  0.417100  1.0  -0.4008
  N  N97  1  0.636400  0.407500  0.038400  1.0  -0.4192
  N  N98  1  0.298000  0.973000  0.822200  1.0  -0.4135
  N  N99  1  0.477500  0.105400  0.746300  1.0  -0.4318
  N  N100  1  0.733700  0.733700  0.593500  1.0  -0.4036
  N  N101  1  0.718400  0.978100  0.582900  1.0  -0.4024
  N  N102  1  0.363600  0.592500  0.961600  1.0  -0.4211
  Cl  Cl103  1  0.622380  0.905610  0.428340  1.0  -0.5903
  Cl  Cl104  1  0.425440  0.158950  0.165760  1.0  -0.597
  Cl  Cl105  1  0.572300  0.216770  0.356970  1.0  -0.6395
  Cl  Cl106  1  0.377620  0.094390  0.571660  1.0  -0.5887
  Cl  Cl107  1  0.574560  0.841050  0.834240  1.0  -0.597
  Cl  Cl108  1  0.427700  0.783230  0.643030  1.0  -0.6399
