# generated using pymatgen
data_Cu3H24C32(NO2)6
_symmetry_space_group_name_H-M   'P 1'
_cell_length_a   13.84740000
_cell_length_b   32.65300000
_cell_length_c   18.53430000
_cell_angle_alpha   101.24200000
_cell_angle_beta   90.00000000
_cell_angle_gamma   90.00000000
_symmetry_Int_Tables_number   1
_chemical_formula_structural   Cu3H24C32(NO2)6
_chemical_formula_sum   'Cu24 H192 C256 N48 O96'
_cell_volume   8219.65351425
_cell_formula_units_Z   8
loop_
 _symmetry_equiv_pos_site_id
 _symmetry_equiv_pos_as_xyz
  1  'x, y, z'
loop_
 _atom_site_type_symbol
 _atom_site_label
 _atom_site_symmetry_multiplicity
 _atom_site_fract_x
 _atom_site_fract_y
 _atom_site_fract_z
 _atom_site_occupancy
 _atom_site_charge
  Cu  Cu1  1  0.336850  0.708090  0.309020  1.0  0.834
  Cu  Cu2  1  0.674920  0.703950  0.562590  1.0  0.8554
  Cu  Cu3  1  0.003510  0.493310  0.753740  1.0  0.9134
  Cu  Cu4  1  0.171050  0.801210  0.492700  1.0  0.7954
  Cu  Cu5  1  0.824420  0.807290  0.737560  1.0  0.8007
  Cu  Cu6  1  0.836850  0.791910  0.190980  1.0  0.8343
  Cu  Cu7  1  0.174920  0.796050  0.937410  1.0  0.8557
  Cu  Cu8  1  0.503510  0.006690  0.746260  1.0  0.9135
  Cu  Cu9  1  0.671050  0.698790  0.007300  1.0  0.7951
  Cu  Cu10  1  0.324420  0.692710  0.762440  1.0  0.8009
  Cu  Cu11  1  0.663150  0.291910  0.690980  1.0  0.8342
  Cu  Cu12  1  0.325080  0.296050  0.437410  1.0  0.8562
  Cu  Cu13  1  0.996490  0.506690  0.246260  1.0  0.9137
  Cu  Cu14  1  0.828950  0.198790  0.507300  1.0  0.7953
  Cu  Cu15  1  0.175580  0.192710  0.262440  1.0  0.7999
  Cu  Cu16  1  0.163150  0.208090  0.809020  1.0  0.8338
  Cu  Cu17  1  0.825080  0.203950  0.062590  1.0  0.8559
  Cu  Cu18  1  0.496490  0.993310  0.253740  1.0  0.9136
  Cu  Cu19  1  0.328950  0.301210  0.992700  1.0  0.7956
  Cu  Cu20  1  0.675580  0.307290  0.237560  1.0  0.7999
  Cu  Cu21  1  0.000000  0.500000  0.500000  1.0  0.9246
  Cu  Cu22  1  0.500000  0.000000  0.000000  1.0  0.9246
  Cu  Cu23  1  0.500000  0.000000  0.500000  1.0  0.8959
  Cu  Cu24  1  0.000000  0.500000  0.000000  1.0  0.8959
  H  H25  1  0.912600  0.598600  0.396900  1.0  0.1448
  H  H26  1  0.992600  0.593300  0.334700  1.0  0.1269
  H  H27  1  0.007300  0.626300  0.408800  1.0  0.1271
  H  H28  1  0.309100  0.549500  0.513100  1.0  0.1537
  H  H29  1  0.314900  0.543500  0.426300  1.0  0.1284
  H  H30  1  0.306000  0.504100  0.463900  1.0  0.1471
  H  H31  1  0.243100  0.626900  0.491200  1.0  0.1228
  H  H32  1  0.168500  0.571100  0.286600  1.0  0.1166
  H  H33  1  0.250300  0.623400  0.243300  1.0  0.1028
  H  H34  1  0.323300  0.677100  0.443900  1.0  0.0858
  H  H35  1  0.287100  0.777000  0.218200  1.0  0.114
  H  H36  1  0.378200  0.826100  0.173700  1.0  0.0871
  H  H37  1  0.630300  0.824000  0.432900  1.0  0.0838
  H  H38  1  0.724100  0.776800  0.479800  1.0  0.1147
  H  H39  1  0.691400  0.675700  0.701300  1.0  0.0768
  H  H40  1  0.754700  0.618700  0.501400  1.0  0.0971
  H  H41  1  0.833200  0.565600  0.545000  1.0  0.1253
  H  H42  1  0.763200  0.623900  0.750200  1.0  0.131
  H  H43  1  0.696700  0.503200  0.734300  1.0  0.1487
  H  H44  1  0.688400  0.537700  0.685200  1.0  0.1423
  H  H45  1  0.698200  0.551200  0.771800  1.0  0.149
  H  H46  1  0.093400  0.591000  0.648600  1.0  0.1305
  H  H47  1  0.003700  0.621200  0.668500  1.0  0.1285
  H  H48  1  0.007500  0.589800  0.591700  1.0  0.1245
  H  H49  1  0.222800  0.725300  0.566500  1.0  0.1105
  H  H50  1  0.135500  0.670600  0.596300  1.0  0.0891
  H  H51  1  0.177600  0.816200  0.340600  1.0  0.1044
  H  H52  1  0.262500  0.883600  0.528500  1.0  0.0941
  H  H53  1  0.249000  0.862600  0.277000  1.0  0.1198
  H  H54  1  0.337600  0.931000  0.467800  1.0  0.1168
  H  H55  1  0.189700  0.982100  0.269000  1.0  0.1453
  H  H56  1  0.181400  0.952700  0.327200  1.0  0.1306
  H  H57  1  0.189700  0.933000  0.242300  1.0  0.1476
  H  H58  1  0.575300  0.885400  0.340700  1.0  0.1421
  H  H59  1  0.475100  0.872100  0.370400  1.0  0.1167
  H  H60  1  0.536600  0.908400  0.418500  1.0  0.1337
  H  H61  1  0.275900  0.772200  0.695400  1.0  0.1091
  H  H62  1  0.369500  0.823000  0.657100  1.0  0.091
  H  H63  1  0.822500  0.824400  0.586500  1.0  0.0845
  H  H64  1  0.750100  0.870400  0.523300  1.0  0.1208
  H  H65  1  0.732900  0.889000  0.773900  1.0  0.0938
  H  H66  1  0.659800  0.937200  0.715000  1.0  0.1159
  H  H67  1  0.809900  0.945100  0.494400  1.0  0.1515
  H  H68  1  0.814000  0.962500  0.580300  1.0  0.1288
  H  H69  1  0.805900  0.993900  0.525300  1.0  0.1452
  H  H70  1  0.475700  0.909500  0.664300  1.0  0.1292
  H  H71  1  0.518900  0.874700  0.600900  1.0  0.1236
  H  H72  1  0.417300  0.895000  0.590200  1.0  0.1336
  H  H73  1  0.412600  0.901400  0.103100  1.0  0.145
  H  H74  1  0.492600  0.906700  0.165300  1.0  0.1265
  H  H75  1  0.507300  0.873700  0.091200  1.0  0.1273
  H  H76  1  0.809100  0.950500  0.986900  1.0  0.1537
  H  H77  1  0.814900  0.956500  0.073700  1.0  0.1284
  H  H78  1  0.806000  0.995900  0.036100  1.0  0.1469
  H  H79  1  0.743100  0.873100  0.008800  1.0  0.1239
  H  H80  1  0.668500  0.928900  0.213400  1.0  0.1164
  H  H81  1  0.750300  0.876600  0.256700  1.0  0.1023
  H  H82  1  0.823300  0.822900  0.056100  1.0  0.0859
  H  H83  1  0.787100  0.723000  0.281800  1.0  0.1138
  H  H84  1  0.878200  0.673900  0.326300  1.0  0.0877
  H  H85  1  0.130300  0.676000  0.067100  1.0  0.0842
  H  H86  1  0.224100  0.723200  0.020200  1.0  0.1145
  H  H87  1  0.191400  0.824300  0.798700  1.0  0.0762
  H  H88  1  0.254700  0.881300  0.998600  1.0  0.0974
  H  H89  1  0.333200  0.934400  0.955000  1.0  0.1261
  H  H90  1  0.263200  0.876100  0.749800  1.0  0.1322
  H  H91  1  0.196700  0.996800  0.765700  1.0  0.1491
  H  H92  1  0.188400  0.962300  0.814800  1.0  0.143
  H  H93  1  0.198200  0.948800  0.728200  1.0  0.1484
  H  H94  1  0.593400  0.909000  0.851400  1.0  0.1309
  H  H95  1  0.503700  0.878800  0.831500  1.0  0.1283
  H  H96  1  0.507500  0.910200  0.908300  1.0  0.1249
  H  H97  1  0.722800  0.774700  0.933500  1.0  0.111
  H  H98  1  0.635500  0.829400  0.903700  1.0  0.0883
  H  H99  1  0.677600  0.683800  0.159400  1.0  0.104
  H  H100  1  0.762500  0.616400  0.971500  1.0  0.0946
  H  H101  1  0.749000  0.637400  0.223000  1.0  0.1186
  H  H102  1  0.837600  0.569000  0.032200  1.0  0.1162
  H  H103  1  0.689700  0.517900  0.231000  1.0  0.1456
  H  H104  1  0.681400  0.547300  0.172800  1.0  0.1296
  H  H105  1  0.689700  0.567000  0.257700  1.0  0.1483
  H  H106  1  0.075300  0.614600  0.159300  1.0  0.1417
  H  H107  1  0.975100  0.627900  0.129600  1.0  0.1162
  H  H108  1  0.036600  0.591600  0.081500  1.0  0.1334
  H  H109  1  0.775900  0.727800  0.804600  1.0  0.1098
  H  H110  1  0.869500  0.677000  0.842900  1.0  0.0916
  H  H111  1  0.322500  0.675600  0.913500  1.0  0.0836
  H  H112  1  0.250100  0.629600  0.976700  1.0  0.1189
  H  H113  1  0.232900  0.611000  0.726100  1.0  0.0949
  H  H114  1  0.159800  0.562800  0.785000  1.0  0.116
  H  H115  1  0.309900  0.554900  0.005600  1.0  0.1512
  H  H116  1  0.314000  0.537500  0.919700  1.0  0.1287
  H  H117  1  0.305900  0.506100  0.974700  1.0  0.1449
  H  H118  1  0.975700  0.590500  0.835700  1.0  0.1292
  H  H119  1  0.018900  0.625300  0.899100  1.0  0.1236
  H  H120  1  0.917300  0.605000  0.909800  1.0  0.133
  H  H121  1  0.087400  0.401400  0.603100  1.0  0.1447
  H  H122  1  0.007400  0.406700  0.665300  1.0  0.1272
  H  H123  1  0.992700  0.373700  0.591200  1.0  0.1278
  H  H124  1  0.690900  0.450500  0.486900  1.0  0.1526
  H  H125  1  0.685100  0.456500  0.573700  1.0  0.1285
  H  H126  1  0.694000  0.495900  0.536100  1.0  0.1467
  H  H127  1  0.756900  0.373100  0.508800  1.0  0.124
  H  H128  1  0.831500  0.428900  0.713400  1.0  0.1165
  H  H129  1  0.749700  0.376600  0.756700  1.0  0.1028
  H  H130  1  0.676700  0.322900  0.556100  1.0  0.0863
  H  H131  1  0.712900  0.223000  0.781800  1.0  0.1129
  H  H132  1  0.621800  0.173900  0.826300  1.0  0.0862
  H  H133  1  0.369700  0.176000  0.567100  1.0  0.0848
  H  H134  1  0.275900  0.223200  0.520200  1.0  0.1141
  H  H135  1  0.308600  0.324300  0.298700  1.0  0.0761
  H  H136  1  0.245300  0.381300  0.498600  1.0  0.0963
  H  H137  1  0.166800  0.434400  0.455000  1.0  0.1262
  H  H138  1  0.236800  0.376100  0.249800  1.0  0.1316
  H  H139  1  0.303300  0.496800  0.265700  1.0  0.1498
  H  H140  1  0.311600  0.462300  0.314800  1.0  0.1417
  H  H141  1  0.301800  0.448800  0.228200  1.0  0.1491
  H  H142  1  0.906600  0.409000  0.351400  1.0  0.1323
  H  H143  1  0.996300  0.378800  0.331500  1.0  0.1278
  H  H144  1  0.992500  0.410200  0.408300  1.0  0.1244
  H  H145  1  0.777200  0.274700  0.433500  1.0  0.1111
  H  H146  1  0.864500  0.329400  0.403700  1.0  0.0889
  H  H147  1  0.822400  0.183800  0.659400  1.0  0.1031
  H  H148  1  0.737500  0.116400  0.471500  1.0  0.0944
  H  H149  1  0.751000  0.137400  0.723000  1.0  0.1183
  H  H150  1  0.662400  0.069000  0.532200  1.0  0.116
  H  H151  1  0.810300  0.017900  0.731000  1.0  0.1459
  H  H152  1  0.818600  0.047300  0.672800  1.0  0.1293
  H  H153  1  0.810300  0.067000  0.757700  1.0  0.1487
  H  H154  1  0.424700  0.114600  0.659300  1.0  0.1404
  H  H155  1  0.524900  0.127900  0.629600  1.0  0.1154
  H  H156  1  0.463400  0.091600  0.581500  1.0  0.1331
  H  H157  1  0.724100  0.227800  0.304600  1.0  0.1096
  H  H158  1  0.630500  0.177000  0.342900  1.0  0.0915
  H  H159  1  0.177500  0.175600  0.413500  1.0  0.0842
  H  H160  1  0.249900  0.129600  0.476700  1.0  0.1201
  H  H161  1  0.267100  0.111000  0.226100  1.0  0.0953
  H  H162  1  0.340200  0.062800  0.285000  1.0  0.1158
  H  H163  1  0.190100  0.054900  0.505600  1.0  0.1513
  H  H164  1  0.186000  0.037500  0.419700  1.0  0.1288
  H  H165  1  0.194100  0.006100  0.474700  1.0  0.146
  H  H166  1  0.524300  0.090500  0.335700  1.0  0.1297
  H  H167  1  0.481100  0.125300  0.399100  1.0  0.1241
  H  H168  1  0.582700  0.105000  0.409800  1.0  0.1344
  H  H169  1  0.587400  0.098600  0.896900  1.0  0.1443
  H  H170  1  0.507400  0.093300  0.834700  1.0  0.1276
  H  H171  1  0.492700  0.126300  0.908800  1.0  0.1274
  H  H172  1  0.190900  0.049500  0.013100  1.0  0.1542
  H  H173  1  0.185100  0.043500  0.926300  1.0  0.1281
  H  H174  1  0.194000  0.004100  0.963900  1.0  0.1465
  H  H175  1  0.256900  0.126900  0.991200  1.0  0.1229
  H  H176  1  0.331500  0.071100  0.786600  1.0  0.1164
  H  H177  1  0.249700  0.123400  0.743300  1.0  0.1027
  H  H178  1  0.176700  0.177100  0.943900  1.0  0.0866
  H  H179  1  0.212900  0.277000  0.718200  1.0  0.1129
  H  H180  1  0.121800  0.326100  0.673700  1.0  0.0871
  H  H181  1  0.869700  0.324000  0.932900  1.0  0.0844
  H  H182  1  0.775900  0.276800  0.979800  1.0  0.1143
  H  H183  1  0.808600  0.175700  0.201300  1.0  0.0764
  H  H184  1  0.745300  0.118700  0.001400  1.0  0.0967
  H  H185  1  0.666800  0.065600  0.045000  1.0  0.1256
  H  H186  1  0.736800  0.123900  0.250200  1.0  0.1306
  H  H187  1  0.803300  0.003200  0.234300  1.0  0.1494
  H  H188  1  0.811600  0.037700  0.185200  1.0  0.1414
  H  H189  1  0.801800  0.051200  0.271800  1.0  0.1491
  H  H190  1  0.406600  0.091000  0.148600  1.0  0.132
  H  H191  1  0.496300  0.121200  0.168500  1.0  0.1285
  H  H192  1  0.492500  0.089800  0.091700  1.0  0.124
  H  H193  1  0.277200  0.225300  0.066500  1.0  0.1108
  H  H194  1  0.364500  0.170600  0.096300  1.0  0.0894
  H  H195  1  0.322400  0.316200  0.840600  1.0  0.1043
  H  H196  1  0.237500  0.383600  0.028500  1.0  0.0936
  H  H197  1  0.251000  0.362600  0.777000  1.0  0.1193
  H  H198  1  0.162400  0.431000  0.967800  1.0  0.1162
  H  H199  1  0.310300  0.482100  0.769000  1.0  0.1465
  H  H200  1  0.318600  0.452700  0.827200  1.0  0.1299
  H  H201  1  0.310300  0.433000  0.742300  1.0  0.1486
  H  H202  1  0.924700  0.385400  0.840700  1.0  0.1408
  H  H203  1  0.024900  0.372100  0.870400  1.0  0.1161
  H  H204  1  0.963400  0.408400  0.918500  1.0  0.1329
  H  H205  1  0.224100  0.272200  0.195400  1.0  0.1097
  H  H206  1  0.130500  0.323000  0.157100  1.0  0.0906
  H  H207  1  0.677500  0.324400  0.086500  1.0  0.0844
  H  H208  1  0.749900  0.370400  0.023300  1.0  0.1212
  H  H209  1  0.767100  0.389000  0.273900  1.0  0.0942
  H  H210  1  0.840200  0.437200  0.215000  1.0  0.1162
  H  H211  1  0.690100  0.445100  0.994400  1.0  0.1508
  H  H212  1  0.686000  0.462500  0.080300  1.0  0.1298
  H  H213  1  0.694100  0.493900  0.025300  1.0  0.1459
  H  H214  1  0.024300  0.409500  0.164300  1.0  0.1297
  H  H215  1  0.981100  0.374700  0.100900  1.0  0.1237
  H  H216  1  0.082700  0.395000  0.090200  1.0  0.1342
  C  C217  1  0.981400  0.599010  0.387400  1.0  -0.3479
  C  C218  1  0.030700  0.566220  0.421000  1.0  0.3599
  C  C219  1  0.132500  0.563460  0.426000  1.0  -0.0781
  C  C220  1  0.179300  0.535450  0.463200  1.0  0.3525
  C  C221  1  0.286700  0.532900  0.467000  1.0  -0.397
  C  C222  1  0.192700  0.594100  0.394400  1.0  0.1203
  C  C223  1  0.242100  0.625930  0.440200  1.0  -0.1931
  C  C224  1  0.197900  0.592990  0.319900  1.0  -0.2067
  C  C225  1  0.246900  0.624480  0.294300  1.0  0.1718
  C  C226  1  0.289700  0.656050  0.411700  1.0  0.1861
  C  C227  1  0.534500  0.718250  0.304000  1.0  0.6168
  C  C228  1  0.493600  0.751980  0.267700  1.0  0.0644
  C  C229  1  0.354500  0.777770  0.224600  1.0  0.1198
  C  C230  1  0.409500  0.807530  0.198900  1.0  0.1738
  C  C231  1  0.546800  0.783120  0.243200  1.0  0.1095
  C  C232  1  0.653600  0.790070  0.254300  1.0  0.6707
  C  C233  1  0.353500  0.771480  0.477600  1.0  0.6951
  C  C234  1  0.461500  0.773110  0.485000  1.0  0.0593
  C  C235  1  0.517100  0.744570  0.514000  1.0  0.0835
  C  C236  1  0.599400  0.803800  0.454600  1.0  0.185
  C  C237  1  0.656400  0.775420  0.481900  1.0  0.1237
  C  C238  1  0.477400  0.710360  0.550000  1.0  0.6481
  C  C239  1  0.721900  0.653530  0.669400  1.0  0.19
  C  C240  1  0.759600  0.620250  0.552400  1.0  0.1739
  C  C241  1  0.806600  0.588310  0.578100  1.0  -0.2142
  C  C242  1  0.765700  0.622930  0.699200  1.0  -0.2038
  C  C243  1  0.813700  0.590630  0.653600  1.0  0.1118
  C  C244  1  0.717700  0.530800  0.728900  1.0  -0.3988
  C  C245  1  0.825500  0.531270  0.721700  1.0  0.377
  C  C246  1  0.872400  0.559280  0.683800  1.0  -0.0609
  C  C247  1  0.973600  0.560840  0.677100  1.0  0.362
  C  C248  1  0.024100  0.593620  0.643500  1.0  -0.353
  C  C249  1  0.980000  0.777980  0.464700  1.0  0.5954
  C  C250  1  0.021200  0.745540  0.503800  1.0  0.0949
  C  C251  1  0.156900  0.722600  0.554600  1.0  0.124
  C  C252  1  0.104000  0.689900  0.572800  1.0  0.1609
  C  C253  1  0.968200  0.713070  0.522900  1.0  0.0775
  C  C254  1  0.862200  0.705110  0.507100  1.0  0.6853
  C  C255  1  0.211500  0.839380  0.366800  1.0  0.1663
  C  C256  1  0.261400  0.878700  0.476800  1.0  0.1662
  C  C257  1  0.254900  0.866940  0.328400  1.0  -0.164
  C  C258  1  0.307000  0.907280  0.440400  1.0  -0.165
  C  C259  1  0.306800  0.900680  0.365500  1.0  0.0738
  C  C260  1  0.210200  0.955800  0.280900  1.0  -0.3959
  C  C261  1  0.318000  0.955360  0.287500  1.0  0.3426
  C  C262  1  0.365400  0.928940  0.327500  1.0  -0.0771
  C  C263  1  0.467100  0.926910  0.332900  1.0  0.3618
  C  C264  1  0.518100  0.895380  0.368800  1.0  -0.3665
  C  C265  1  0.644500  0.774440  0.721300  1.0  0.6668
  C  C266  1  0.517300  0.713100  0.787400  1.0  0.6402
  C  C267  1  0.478900  0.745260  0.746500  1.0  0.0746
  C  C268  1  0.535500  0.775390  0.722300  1.0  0.0695
  C  C269  1  0.343100  0.772490  0.702800  1.0  0.123
  C  C270  1  0.399600  0.803090  0.680000  1.0  0.1665
  C  C271  1  0.787100  0.846950  0.612900  1.0  0.181
  C  C272  1  0.743800  0.874520  0.574700  1.0  -0.1986
  C  C273  1  0.735000  0.884750  0.722300  1.0  0.1689
  C  C274  1  0.690500  0.913730  0.687100  1.0  -0.1677
  C  C275  1  0.691400  0.908150  0.612400  1.0  0.0985
  C  C276  1  0.786600  0.966700  0.534200  1.0  -0.3979
  C  C277  1  0.678900  0.964690  0.537900  1.0  0.3701
  C  C278  1  0.632100  0.936440  0.575400  1.0  -0.0676
  C  C279  1  0.530400  0.933440  0.578900  1.0  0.3708
  C  C280  1  0.481200  0.900210  0.611500  1.0  -0.3602
  C  C281  1  0.481400  0.900990  0.112600  1.0  -0.3478
  C  C282  1  0.530700  0.933780  0.079000  1.0  0.3622
  C  C283  1  0.632500  0.936540  0.074000  1.0  -0.0781
  C  C284  1  0.679300  0.964550  0.036800  1.0  0.3532
  C  C285  1  0.786700  0.967100  0.033000  1.0  -0.3967
  C  C286  1  0.692700  0.905900  0.105600  1.0  0.1201
  C  C287  1  0.742100  0.874070  0.059800  1.0  -0.1927
  C  C288  1  0.697900  0.907010  0.180100  1.0  -0.2071
  C  C289  1  0.746900  0.875520  0.205700  1.0  0.17
  C  C290  1  0.789700  0.843950  0.088300  1.0  0.1855
  C  C291  1  0.034500  0.781750  0.196000  1.0  0.6179
  C  C292  1  0.993600  0.748020  0.232300  1.0  0.0647
  C  C293  1  0.854500  0.722230  0.275400  1.0  0.1195
  C  C294  1  0.909500  0.692470  0.301100  1.0  0.1734
  C  C295  1  0.046800  0.716880  0.256800  1.0  0.1098
  C  C296  1  0.153600  0.709930  0.245700  1.0  0.671
  C  C297  1  0.853500  0.728520  0.022400  1.0  0.6953
  C  C298  1  0.961500  0.726890  0.015000  1.0  0.0592
  C  C299  1  0.017100  0.755430  0.986000  1.0  0.0837
  C  C300  1  0.099400  0.696200  0.045400  1.0  0.1857
  C  C301  1  0.156400  0.724580  0.018100  1.0  0.1238
  C  C302  1  0.977400  0.789640  0.950000  1.0  0.6478
  C  C303  1  0.221900  0.846470  0.830600  1.0  0.1898
  C  C304  1  0.259600  0.879750  0.947600  1.0  0.1719
  C  C305  1  0.306600  0.911690  0.921900  1.0  -0.2145
  C  C306  1  0.265700  0.877070  0.800800  1.0  -0.2032
  C  C307  1  0.313700  0.909370  0.846400  1.0  0.1114
  C  C308  1  0.217700  0.969200  0.771100  1.0  -0.3988
  C  C309  1  0.325500  0.968730  0.778300  1.0  0.3759
  C  C310  1  0.372400  0.940720  0.816200  1.0  -0.0606
  C  C311  1  0.473600  0.939160  0.822900  1.0  0.363
  C  C312  1  0.524100  0.906380  0.856500  1.0  -0.3525
  C  C313  1  0.480000  0.722020  0.035300  1.0  0.5941
  C  C314  1  0.521200  0.754460  0.996200  1.0  0.0959
  C  C315  1  0.656900  0.777400  0.945400  1.0  0.1239
  C  C316  1  0.604000  0.810100  0.927200  1.0  0.1609
  C  C317  1  0.468200  0.786930  0.977100  1.0  0.0775
  C  C318  1  0.362200  0.794890  0.992900  1.0  0.6855
  C  C319  1  0.711500  0.660620  0.133200  1.0  0.1661
  C  C320  1  0.761400  0.621300  0.023200  1.0  0.1661
  C  C321  1  0.754900  0.633060  0.171600  1.0  -0.163
  C  C322  1  0.807000  0.592720  0.059600  1.0  -0.1642
  C  C323  1  0.806800  0.599320  0.134500  1.0  0.074
  C  C324  1  0.710200  0.544200  0.219100  1.0  -0.3962
  C  C325  1  0.818000  0.544640  0.212500  1.0  0.3415
  C  C326  1  0.865400  0.571060  0.172500  1.0  -0.0769
  C  C327  1  0.967100  0.573090  0.167100  1.0  0.3602
  C  C328  1  0.018100  0.604620  0.131200  1.0  -0.3665
  C  C329  1  0.144500  0.725560  0.778700  1.0  0.6673
  C  C330  1  0.017300  0.786900  0.712600  1.0  0.6415
  C  C331  1  0.978900  0.754740  0.753500  1.0  0.0738
  C  C332  1  0.035500  0.724610  0.777700  1.0  0.0698
  C  C333  1  0.843100  0.727510  0.797200  1.0  0.1227
  C  C334  1  0.899600  0.696910  0.820000  1.0  0.1668
  C  C335  1  0.287100  0.653050  0.887100  1.0  0.1814
  C  C336  1  0.243800  0.625480  0.925300  1.0  -0.1995
  C  C337  1  0.235000  0.615250  0.777700  1.0  0.1704
  C  C338  1  0.190500  0.586270  0.812900  1.0  -0.1685
  C  C339  1  0.191400  0.591850  0.887600  1.0  0.0988
  C  C340  1  0.286600  0.533300  0.965800  1.0  -0.3964
  C  C341  1  0.178900  0.535310  0.962100  1.0  0.3695
  C  C342  1  0.132100  0.563560  0.924600  1.0  -0.0686
  C  C343  1  0.030400  0.566560  0.921100  1.0  0.3698
  C  C344  1  0.981200  0.599790  0.888500  1.0  -0.3596
  C  C345  1  0.018600  0.400990  0.612600  1.0  -0.3496
  C  C346  1  0.969300  0.433780  0.579000  1.0  0.3624
  C  C347  1  0.867500  0.436540  0.574000  1.0  -0.0787
  C  C348  1  0.820700  0.464550  0.536800  1.0  0.3537
  C  C349  1  0.713300  0.467100  0.533000  1.0  -0.3933
  C  C350  1  0.807300  0.405900  0.605600  1.0  0.1194
  C  C351  1  0.757900  0.374070  0.559800  1.0  -0.1921
  C  C352  1  0.802100  0.407010  0.680100  1.0  -0.209
  C  C353  1  0.753100  0.375520  0.705700  1.0  0.1697
  C  C354  1  0.710300  0.343950  0.588300  1.0  0.1858
  C  C355  1  0.465500  0.281750  0.696000  1.0  0.6179
  C  C356  1  0.506400  0.248020  0.732300  1.0  0.0651
  C  C357  1  0.645500  0.222230  0.775400  1.0  0.1193
  C  C358  1  0.590500  0.192470  0.801100  1.0  0.174
  C  C359  1  0.453200  0.216880  0.756800  1.0  0.1101
  C  C360  1  0.346400  0.209930  0.745700  1.0  0.6702
  C  C361  1  0.646500  0.228520  0.522400  1.0  0.6959
  C  C362  1  0.538500  0.226890  0.515000  1.0  0.0589
  C  C363  1  0.482900  0.255430  0.486000  1.0  0.0845
  C  C364  1  0.400600  0.196200  0.545400  1.0  0.186
  C  C365  1  0.343600  0.224580  0.518100  1.0  0.1243
  C  C366  1  0.522600  0.289640  0.450000  1.0  0.6488
  C  C367  1  0.278100  0.346470  0.330600  1.0  0.1882
  C  C368  1  0.240400  0.379750  0.447600  1.0  0.1733
  C  C369  1  0.193400  0.411690  0.421900  1.0  -0.2122
  C  C370  1  0.234300  0.377070  0.300800  1.0  -0.2045
  C  C371  1  0.186300  0.409370  0.346400  1.0  0.1123
  C  C372  1  0.282300  0.469200  0.271100  1.0  -0.3994
  C  C373  1  0.174500  0.468730  0.278300  1.0  0.3745
  C  C374  1  0.127600  0.440720  0.316200  1.0  -0.0594
  C  C375  1  0.026400  0.439160  0.322900  1.0  0.3636
  C  C376  1  0.975900  0.406380  0.356500  1.0  -0.3524
  C  C377  1  0.020000  0.222020  0.535300  1.0  0.5942
  C  C378  1  0.978800  0.254460  0.496200  1.0  0.0964
  C  C379  1  0.843100  0.277400  0.445400  1.0  0.1252
  C  C380  1  0.896000  0.310100  0.427200  1.0  0.1607
  C  C381  1  0.031800  0.286930  0.477100  1.0  0.0778
  C  C382  1  0.137800  0.294890  0.492900  1.0  0.6864
  C  C383  1  0.788500  0.160620  0.633200  1.0  0.1671
  C  C384  1  0.738600  0.121300  0.523200  1.0  0.1662
  C  C385  1  0.745100  0.133060  0.671600  1.0  -0.1641
  C  C386  1  0.693000  0.092720  0.559600  1.0  -0.1654
  C  C387  1  0.693200  0.099320  0.634500  1.0  0.0734
  C  C388  1  0.789800  0.044200  0.719100  1.0  -0.3971
  C  C389  1  0.682000  0.044640  0.712500  1.0  0.342
  C  C390  1  0.634600  0.071060  0.672500  1.0  -0.0756
  C  C391  1  0.532900  0.073090  0.667100  1.0  0.3605
  C  C392  1  0.481900  0.104620  0.631200  1.0  -0.3662
  C  C393  1  0.355500  0.225560  0.278700  1.0  0.666
  C  C394  1  0.482700  0.286900  0.212600  1.0  0.6415
  C  C395  1  0.521100  0.254740  0.253500  1.0  0.0735
  C  C396  1  0.464500  0.224610  0.277700  1.0  0.0696
  C  C397  1  0.656900  0.227510  0.297200  1.0  0.1221
  C  C398  1  0.600400  0.196910  0.320000  1.0  0.1672
  C  C399  1  0.212900  0.153050  0.387100  1.0  0.1801
  C  C400  1  0.256200  0.125480  0.425300  1.0  -0.1988
  C  C401  1  0.265000  0.115250  0.277700  1.0  0.1695
  C  C402  1  0.309500  0.086270  0.312900  1.0  -0.1697
  C  C403  1  0.308600  0.091850  0.387600  1.0  0.0997
  C  C404  1  0.213400  0.033300  0.465800  1.0  -0.3952
  C  C405  1  0.321100  0.035310  0.462100  1.0  0.37
  C  C406  1  0.367900  0.063560  0.424600  1.0  -0.0687
  C  C407  1  0.469600  0.066560  0.421100  1.0  0.3697
  C  C408  1  0.518800  0.099790  0.388500  1.0  -0.3607
  C  C409  1  0.518600  0.099010  0.887400  1.0  -0.3498
  C  C410  1  0.469300  0.066220  0.921000  1.0  0.3605
  C  C411  1  0.367500  0.063460  0.926000  1.0  -0.0787
  C  C412  1  0.320700  0.035450  0.963200  1.0  0.3529
  C  C413  1  0.213300  0.032900  0.967000  1.0  -0.3943
  C  C414  1  0.307300  0.094100  0.894400  1.0  0.1201
  C  C415  1  0.257900  0.125930  0.940200  1.0  -0.1916
  C  C416  1  0.302100  0.092990  0.819900  1.0  -0.2085
  C  C417  1  0.253100  0.124480  0.794300  1.0  0.1716
  C  C418  1  0.210300  0.156050  0.911700  1.0  0.1859
  C  C419  1  0.965500  0.218250  0.804000  1.0  0.617
  C  C420  1  0.006400  0.251980  0.767700  1.0  0.0645
  C  C421  1  0.145500  0.277770  0.724600  1.0  0.1194
  C  C422  1  0.090500  0.307530  0.698900  1.0  0.1739
  C  C423  1  0.953200  0.283120  0.743200  1.0  0.1092
  C  C424  1  0.846400  0.290070  0.754300  1.0  0.6699
  C  C425  1  0.146500  0.271480  0.977600  1.0  0.6958
  C  C426  1  0.038500  0.273110  0.985000  1.0  0.0595
  C  C427  1  0.982900  0.244570  0.014000  1.0  0.0846
  C  C428  1  0.900600  0.303800  0.954600  1.0  0.1855
  C  C429  1  0.843600  0.275420  0.981900  1.0  0.1246
  C  C430  1  0.022600  0.210360  0.050000  1.0  0.6493
  C  C431  1  0.778100  0.153530  0.169400  1.0  0.1888
  C  C432  1  0.740400  0.120250  0.052400  1.0  0.1745
  C  C433  1  0.693400  0.088310  0.078100  1.0  -0.2126
  C  C434  1  0.734300  0.122930  0.199200  1.0  -0.2054
  C  C435  1  0.686300  0.090630  0.153600  1.0  0.1122
  C  C436  1  0.782300  0.030800  0.228900  1.0  -0.3986
  C  C437  1  0.674500  0.031270  0.221700  1.0  0.3763
  C  C438  1  0.627600  0.059280  0.183800  1.0  -0.0596
  C  C439  1  0.526400  0.060840  0.177100  1.0  0.3627
  C  C440  1  0.475900  0.093620  0.143500  1.0  -0.3527
  C  C441  1  0.520000  0.277980  0.964700  1.0  0.5952
  C  C442  1  0.478800  0.245540  0.003800  1.0  0.0953
  C  C443  1  0.343100  0.222600  0.054600  1.0  0.1249
  C  C444  1  0.396000  0.189900  0.072800  1.0  0.1608
  C  C445  1  0.531800  0.213070  0.022900  1.0  0.0774
  C  C446  1  0.637800  0.205110  0.007100  1.0  0.6861
  C  C447  1  0.288500  0.339380  0.866800  1.0  0.1665
  C  C448  1  0.238600  0.378700  0.976800  1.0  0.1665
  C  C449  1  0.245100  0.366940  0.828400  1.0  -0.1637
  C  C450  1  0.193000  0.407280  0.940400  1.0  -0.1661
  C  C451  1  0.193200  0.400680  0.865500  1.0  0.0734
  C  C452  1  0.289800  0.455800  0.780900  1.0  -0.3979
  C  C453  1  0.182000  0.455360  0.787500  1.0  0.3427
  C  C454  1  0.134600  0.428940  0.827500  1.0  -0.0757
  C  C455  1  0.032900  0.426910  0.832900  1.0  0.3621
  C  C456  1  0.981900  0.395380  0.868800  1.0  -0.3661
  C  C457  1  0.855500  0.274440  0.221300  1.0  0.6652
  C  C458  1  0.982700  0.213100  0.287400  1.0  0.6402
  C  C459  1  0.021100  0.245260  0.246500  1.0  0.0739
  C  C460  1  0.964500  0.275390  0.222300  1.0  0.0693
  C  C461  1  0.156900  0.272490  0.202800  1.0  0.1217
  C  C462  1  0.100400  0.303090  0.180000  1.0  0.1666
  C  C463  1  0.712900  0.346950  0.112900  1.0  0.1809
  C  C464  1  0.756200  0.374520  0.074700  1.0  -0.199
  C  C465  1  0.765000  0.384750  0.222300  1.0  0.1688
  C  C466  1  0.809500  0.413730  0.187100  1.0  -0.1692
  C  C467  1  0.808600  0.408150  0.112400  1.0  0.0993
  C  C468  1  0.713400  0.466700  0.034200  1.0  -0.3955
  C  C469  1  0.821100  0.464690  0.037900  1.0  0.371
  C  C470  1  0.867900  0.436440  0.075400  1.0  -0.0675
  C  C471  1  0.969600  0.433440  0.078900  1.0  0.3705
  C  C472  1  0.018800  0.400210  0.111500  1.0  -0.361
  N  N473  1  0.289800  0.656580  0.340100  1.0  -0.3178
  N  N474  1  0.397700  0.750460  0.258300  1.0  -0.2895
  N  N475  1  0.504100  0.810800  0.208500  1.0  -0.367
  N  N476  1  0.504300  0.804010  0.457300  1.0  -0.3924
  N  N477  1  0.613000  0.746120  0.511200  1.0  -0.252
  N  N478  1  0.720600  0.653330  0.597800  1.0  -0.312
  N  N479  1  0.114900  0.749950  0.520400  1.0  -0.2934
  N  N480  1  0.010600  0.685010  0.558200  1.0  -0.4119
  N  N481  1  0.216900  0.845010  0.440500  1.0  -0.3069
  N  N482  1  0.383800  0.743710  0.734800  1.0  -0.2797
  N  N483  1  0.494600  0.804920  0.689900  1.0  -0.4035
  N  N484  1  0.780400  0.851200  0.685100  1.0  -0.3121
  N  N485  1  0.789800  0.843420  0.159900  1.0  -0.3174
  N  N486  1  0.897700  0.749540  0.241700  1.0  -0.2916
  N  N487  1  0.004100  0.689200  0.291500  1.0  -0.3661
  N  N488  1  0.004300  0.695990  0.042700  1.0  -0.3916
  N  N489  1  0.113000  0.753880  0.988800  1.0  -0.255
  N  N490  1  0.220600  0.846670  0.902200  1.0  -0.3113
  N  N491  1  0.614900  0.750050  0.979600  1.0  -0.2913
  N  N492  1  0.510600  0.814990  0.941800  1.0  -0.4112
  N  N493  1  0.716900  0.654990  0.059500  1.0  -0.3072
  N  N494  1  0.883800  0.756290  0.765200  1.0  -0.2809
  N  N495  1  0.994600  0.695080  0.810100  1.0  -0.4012
  N  N496  1  0.280400  0.648800  0.814900  1.0  -0.3124
  N  N497  1  0.710200  0.343420  0.659900  1.0  -0.3191
  N  N498  1  0.602300  0.249540  0.741700  1.0  -0.2912
  N  N499  1  0.495900  0.189200  0.791500  1.0  -0.368
  N  N500  1  0.495700  0.195990  0.542700  1.0  -0.392
  N  N501  1  0.387000  0.253880  0.488800  1.0  -0.2565
  N  N502  1  0.279400  0.346670  0.402200  1.0  -0.31
  N  N503  1  0.885100  0.250050  0.479600  1.0  -0.2914
  N  N504  1  0.989400  0.314990  0.441800  1.0  -0.41
  N  N505  1  0.783100  0.154990  0.559500  1.0  -0.3056
  N  N506  1  0.616200  0.256290  0.265200  1.0  -0.2791
  N  N507  1  0.505400  0.195080  0.310100  1.0  -0.4022
  N  N508  1  0.219600  0.148800  0.314900  1.0  -0.3134
  N  N509  1  0.210200  0.156580  0.840100  1.0  -0.3196
  N  N510  1  0.102300  0.250460  0.758300  1.0  -0.2891
  N  N511  1  0.995900  0.310800  0.708500  1.0  -0.3689
  N  N512  1  0.995700  0.304010  0.957300  1.0  -0.3938
  N  N513  1  0.887000  0.246120  0.011200  1.0  -0.2538
  N  N514  1  0.779400  0.153330  0.097800  1.0  -0.3109
  N  N515  1  0.385100  0.249950  0.020400  1.0  -0.2933
  N  N516  1  0.489400  0.185010  0.058200  1.0  -0.4088
  N  N517  1  0.283100  0.345010  0.940500  1.0  -0.3063
  N  N518  1  0.116200  0.243710  0.234800  1.0  -0.2782
  N  N519  1  0.005400  0.304920  0.189900  1.0  -0.4031
  N  N520  1  0.719600  0.351200  0.185100  1.0  -0.3132
  O  O521  1  0.134700  0.509850  0.496400  1.0  -0.5852
  O  O522  1  0.971700  0.542670  0.447400  1.0  -0.5884
  O  O523  1  0.471900  0.693910  0.323400  1.0  -0.5745
  O  O524  1  0.622600  0.715790  0.311300  1.0  -0.5622
  O  O525  1  0.705300  0.772150  0.201200  1.0  -0.5668
  O  O526  1  0.681900  0.814550  0.309300  1.0  -0.5498
  O  O527  1  0.318200  0.750590  0.421190  1.0  -0.6341
  O  O528  1  0.304800  0.794620  0.527780  1.0  -0.5869
  O  O529  1  0.389200  0.706850  0.556280  1.0  -0.5505
  O  O530  1  0.540600  0.687630  0.573000  1.0  -0.5719
  O  O531  1  0.032200  0.535410  0.699700  1.0  -0.5908
  O  O532  1  0.869600  0.504970  0.752500  1.0  -0.5812
  O  O533  1  0.041100  0.804580  0.451400  1.0  -0.5769
  O  O534  1  0.893900  0.777040  0.448300  1.0  -0.5596
  O  O535  1  0.807000  0.724110  0.556100  1.0  -0.5716
  O  O536  1  0.838500  0.679120  0.452000  1.0  -0.5778
  O  O537  1  0.361800  0.981170  0.254100  1.0  -0.5769
  O  O538  1  0.525600  0.950920  0.306700  1.0  -0.5763
  O  O539  1  0.684200  0.749960  0.671800  1.0  -0.6173
  O  O540  1  0.688400  0.800720  0.769100  1.0  -0.5953
  O  O541  1  0.603700  0.713420  0.803680  1.0  -0.5429
  O  O542  1  0.454900  0.687370  0.801800  1.0  -0.5761
  O  O543  1  0.635200  0.990410  0.505300  1.0  -0.5822
  O  O544  1  0.471900  0.957330  0.552200  1.0  -0.587
  O  O545  1  0.634700  0.990150  0.003600  1.0  -0.5849
  O  O546  1  0.471700  0.957330  0.052600  1.0  -0.5878
  O  O547  1  0.971900  0.806090  0.176600  1.0  -0.5745
  O  O548  1  0.122600  0.784210  0.188700  1.0  -0.564
  O  O549  1  0.205300  0.727850  0.298800  1.0  -0.5661
  O  O550  1  0.181900  0.685450  0.190700  1.0  -0.5506
  O  O551  1  0.818200  0.749410  0.078810  1.0  -0.6338
  O  O552  1  0.804800  0.705380  0.972220  1.0  -0.587
  O  O553  1  0.889200  0.793150  0.943720  1.0  -0.551
  O  O554  1  0.040600  0.812370  0.927000  1.0  -0.5712
  O  O555  1  0.532200  0.964590  0.800300  1.0  -0.5909
  O  O556  1  0.369600  0.995030  0.747500  1.0  -0.5786
  O  O557  1  0.541100  0.695420  0.048600  1.0  -0.5767
  O  O558  1  0.393900  0.722960  0.051700  1.0  -0.5599
  O  O559  1  0.307000  0.775890  0.943900  1.0  -0.5718
  O  O560  1  0.338500  0.820880  0.048000  1.0  -0.5775
  O  O561  1  0.861800  0.518830  0.245900  1.0  -0.577
  O  O562  1  0.025600  0.549080  0.193300  1.0  -0.5758
  O  O563  1  0.184200  0.750040  0.828200  1.0  -0.6171
  O  O564  1  0.188400  0.699280  0.730900  1.0  -0.595
  O  O565  1  0.103700  0.786580  0.696320  1.0  -0.5436
  O  O566  1  0.954900  0.812630  0.698200  1.0  -0.577
  O  O567  1  0.135200  0.509590  0.994700  1.0  -0.5825
  O  O568  1  0.971900  0.542670  0.947800  1.0  -0.5876
  O  O569  1  0.865300  0.490150  0.503600  1.0  -0.5853
  O  O570  1  0.028300  0.457330  0.552600  1.0  -0.5855
  O  O571  1  0.528100  0.306090  0.676600  1.0  -0.5747
  O  O572  1  0.377400  0.284210  0.688700  1.0  -0.5632
  O  O573  1  0.294700  0.227850  0.798800  1.0  -0.5655
  O  O574  1  0.318100  0.185450  0.690700  1.0  -0.5513
  O  O575  1  0.681800  0.249410  0.578810  1.0  -0.634
  O  O576  1  0.695200  0.205380  0.472220  1.0  -0.5859
  O  O577  1  0.610800  0.293150  0.443720  1.0  -0.5526
  O  O578  1  0.459400  0.312370  0.427000  1.0  -0.5717
  O  O579  1  0.967800  0.464590  0.300300  1.0  -0.5914
  O  O580  1  0.130400  0.495030  0.247500  1.0  -0.5785
  O  O581  1  0.958900  0.195420  0.548600  1.0  -0.5777
  O  O582  1  0.106100  0.222960  0.551700  1.0  -0.5613
  O  O583  1  0.193000  0.275890  0.443900  1.0  -0.5712
  O  O584  1  0.161500  0.320880  0.548000  1.0  -0.5764
  O  O585  1  0.638200  0.018830  0.745900  1.0  -0.5782
  O  O586  1  0.474400  0.049080  0.693300  1.0  -0.5759
  O  O587  1  0.315800  0.250040  0.328200  1.0  -0.617
  O  O588  1  0.311600  0.199280  0.230900  1.0  -0.5957
  O  O589  1  0.396300  0.286580  0.196320  1.0  -0.5412
  O  O590  1  0.545100  0.312630  0.198200  1.0  -0.5773
  O  O591  1  0.364800  0.009590  0.494700  1.0  -0.5823
  O  O592  1  0.528100  0.042670  0.447800  1.0  -0.5861
  O  O593  1  0.365300  0.009850  0.996400  1.0  -0.5854
  O  O594  1  0.528300  0.042670  0.947400  1.0  -0.586
  O  O595  1  0.028100  0.193910  0.823400  1.0  -0.5726
  O  O596  1  0.877400  0.215790  0.811300  1.0  -0.5619
  O  O597  1  0.794700  0.272150  0.701200  1.0  -0.566
  O  O598  1  0.818100  0.314550  0.809300  1.0  -0.5499
  O  O599  1  0.181800  0.250590  0.921190  1.0  -0.6341
  O  O600  1  0.195200  0.294620  0.027780  1.0  -0.5861
  O  O601  1  0.110800  0.206850  0.056280  1.0  -0.5519
  O  O602  1  0.959400  0.187630  0.073000  1.0  -0.5737
  O  O603  1  0.467800  0.035410  0.199700  1.0  -0.5919
  O  O604  1  0.630400  0.004970  0.252500  1.0  -0.58
  O  O605  1  0.458900  0.304580  0.951400  1.0  -0.577
  O  O606  1  0.606100  0.277040  0.948300  1.0  -0.5612
  O  O607  1  0.693000  0.224110  0.056100  1.0  -0.5709
  O  O608  1  0.661500  0.179120  0.952000  1.0  -0.5767
  O  O609  1  0.138200  0.481170  0.754100  1.0  -0.5782
  O  O610  1  0.974400  0.450920  0.806700  1.0  -0.5764
  O  O611  1  0.815800  0.249960  0.171800  1.0  -0.6172
  O  O612  1  0.811600  0.300720  0.269100  1.0  -0.5958
  O  O613  1  0.896300  0.213420  0.303680  1.0  -0.5403
  O  O614  1  0.045100  0.187370  0.301800  1.0  -0.5753
  O  O615  1  0.864800  0.490410  0.005300  1.0  -0.5813
  O  O616  1  0.028100  0.457330  0.052200  1.0  -0.5867
