# generated using pymatgen
data_AlPH2CO3F
_symmetry_space_group_name_H-M   'P 1'
_cell_length_a   4.93870000
_cell_length_b   8.18560000
_cell_length_c   12.06000000
_cell_angle_alpha   90.00000000
_cell_angle_beta   90.00000000
_cell_angle_gamma   92.04500000
_symmetry_Int_Tables_number   1
_chemical_formula_structural   AlPH2CO3F
_chemical_formula_sum   'Al4 P4 H8 C4 O12 F4'
_cell_volume   487.22973590
_cell_formula_units_Z   4
loop_
 _symmetry_equiv_pos_site_id
 _symmetry_equiv_pos_as_xyz
  1  'x, y, z'
loop_
 _atom_site_type_symbol
 _atom_site_label
 _atom_site_symmetry_multiplicity
 _atom_site_fract_x
 _atom_site_fract_y
 _atom_site_fract_z
 _atom_site_occupancy
 _atom_site_charge
  Al  Al1  1  0.754400  0.861800  0.250000  1.0  2.0099
  Al  Al2  1  0.245600  0.138200  0.750000  1.0  2.0099
  Al  Al3  1  0.500000  0.000000  0.500000  1.0  1.9252
  Al  Al4  1  0.500000  0.000000  0.000000  1.0  1.9252
  P  P5  1  0.991000  0.765900  0.482470  1.0  1.686
  P  P6  1  0.009000  0.234100  0.982470  1.0  1.6863
  P  P7  1  0.009000  0.234100  0.517530  1.0  1.6856
  P  P8  1  0.991000  0.765900  0.017530  1.0  1.6855
  H  H9  1  0.696000  0.551000  0.528000  1.0  0.1498
  H  H10  1  0.937000  0.565000  0.618000  1.0  0.1617
  H  H11  1  0.304000  0.449000  0.028000  1.0  0.1498
  H  H12  1  0.063000  0.435000  0.118000  1.0  0.162
  H  H13  1  0.304000  0.449000  0.472000  1.0  0.1504
  H  H14  1  0.063000  0.435000  0.382000  1.0  0.1612
  H  H15  1  0.696000  0.551000  0.972000  1.0  0.1504
  H  H16  1  0.937000  0.565000  0.882000  1.0  0.1608
  C  C17  1  0.918000  0.564400  0.531400  1.0  -0.4738
  C  C18  1  0.082000  0.435600  0.031400  1.0  -0.4727
  C  C19  1  0.082000  0.435600  0.468600  1.0  -0.4733
  C  C20  1  0.918000  0.564400  0.968600  1.0  -0.4737
  O  O21  1  0.797200  0.878200  0.541800  1.0  -0.9499
  O  O22  1  0.282000  0.807700  0.508300  1.0  -0.9231
  O  O23  1  0.946400  0.762900  0.357100  1.0  -0.996
  O  O24  1  0.202800  0.121800  0.041800  1.0  -0.9491
  O  O25  1  0.718000  0.192300  0.008300  1.0  -0.9218
  O  O26  1  0.053600  0.237100  0.857100  1.0  -0.9958
  O  O27  1  0.202800  0.121800  0.458200  1.0  -0.95
  O  O28  1  0.718000  0.192300  0.491700  1.0  -0.9219
  O  O29  1  0.053600  0.237100  0.642900  1.0  -0.9955
  O  O30  1  0.797200  0.878200  0.958200  1.0  -0.9503
  O  O31  1  0.282000  0.807700  0.991700  1.0  -0.9232
  O  O32  1  0.946400  0.762900  0.142900  1.0  -0.9959
  F  F33  1  0.557200  0.964200  0.352800  1.0  -0.6237
  F  F34  1  0.442800  0.035800  0.852800  1.0  -0.6236
  F  F35  1  0.442800  0.035800  0.647200  1.0  -0.6231
  F  F36  1  0.557200  0.964200  0.147200  1.0  -0.6233
