# generated using pymatgen
data_Co2H32C34S(NO4)2
_symmetry_space_group_name_H-M   'P 1'
_cell_length_a   9.53840000
_cell_length_b   12.17590000
_cell_length_c   19.31300000
_cell_angle_alpha   101.15200000
_cell_angle_beta   100.35100000
_cell_angle_gamma   105.30400000
_symmetry_Int_Tables_number   1
_chemical_formula_structural   Co2H32C34S(NO4)2
_chemical_formula_sum   'Co4 H64 C68 S2 N4 O16'
_cell_volume   2058.53966573
_cell_formula_units_Z   2
loop_
 _symmetry_equiv_pos_site_id
 _symmetry_equiv_pos_as_xyz
  1  'x, y, z'
loop_
 _atom_site_type_symbol
 _atom_site_label
 _atom_site_symmetry_multiplicity
 _atom_site_fract_x
 _atom_site_fract_y
 _atom_site_fract_z
 _atom_site_occupancy
 _atom_site_charge
  Co  Co1  1  0.995940  0.422700  0.646610  1.0  0.963
  Co  Co2  1  0.004060  0.577300  0.353390  1.0  0.9645
  Co  Co3  1  0.000000  0.500000  0.500000  1.0  1.1366
  Co  Co4  1  0.500000  0.000000  0.000000  1.0  0.8165
  H  H5  1  0.152900  0.257500  0.247200  1.0  0.1126
  H  H6  1  0.129500  0.317600  0.321900  1.0  0.1086
  H  H7  1  0.280200  0.366400  0.300200  1.0  0.1196
  H  H8  1  0.173300  0.045600  0.344200  1.0  0.1108
  H  H9  1  0.067300  0.123700  0.352400  1.0  0.1037
  H  H10  1  0.085500  0.070300  0.275100  1.0  0.1114
  H  H11  1  0.330000  0.141300  0.245000  1.0  0.108
  H  H12  1  0.457300  0.251100  0.297100  1.0  0.1167
  H  H13  1  0.422200  0.129900  0.317700  1.0  0.1116
  H  H14  1  0.494800  0.416400  0.614500  1.0  0.112
  H  H15  1  0.551300  0.298000  0.415700  1.0  0.0998
  H  H16  1  0.140000  0.281500  0.441500  1.0  0.1019
  H  H17  1  0.702000  0.207100  0.205100  1.0  0.1071
  H  H18  1  0.589400  0.914600  0.276100  1.0  0.1014
  H  H19  1  0.839200  0.220300  0.416600  1.0  0.1041
  H  H20  1  0.784400  0.861900  0.364800  1.0  0.1109
  H  H21  1  0.828900  0.881600  0.449500  1.0  0.1106
  H  H22  1  0.920300  0.969800  0.412400  1.0  0.1208
  H  H23  1  0.491600  0.956900  0.413400  1.0  0.1118
  H  H24  1  0.564400  0.879100  0.454700  1.0  0.1145
  H  H25  1  0.530200  0.850900  0.369600  1.0  0.1069
  H  H26  1  0.874200  0.130100  0.500100  1.0  0.1161
  H  H27  1  0.770900  0.039200  0.531300  1.0  0.1166
  H  H28  1  0.709700  0.130900  0.499100  1.0  0.1101
  H  H29  1  0.157900  0.298000  0.741300  1.0  0.0887
  H  H30  1  0.123400  0.200000  0.829800  1.0  0.1224
  H  H31  1  0.699900  0.206500  0.792900  1.0  0.126
  H  H32  1  0.744400  0.301000  0.704700  1.0  0.0846
  H  H33  1  0.139600  0.245400  0.998300  1.0  0.1317
  H  H34  1  0.348700  0.194200  0.039500  1.0  0.0846
  H  H35  1  0.176900  0.883800  0.908300  1.0  0.0861
  H  H36  1  0.962200  0.924700  0.864900  1.0  0.116
  H  H37  1  0.847100  0.742500  0.752800  1.0  0.1137
  H  H38  1  0.870500  0.682400  0.678100  1.0  0.1092
  H  H39  1  0.719800  0.633600  0.699800  1.0  0.1188
  H  H40  1  0.826700  0.954400  0.655800  1.0  0.1107
  H  H41  1  0.932700  0.876300  0.647600  1.0  0.1042
  H  H42  1  0.914500  0.929700  0.724900  1.0  0.1123
  H  H43  1  0.670000  0.858700  0.755000  1.0  0.1084
  H  H44  1  0.542700  0.748900  0.702900  1.0  0.1178
  H  H45  1  0.577800  0.870100  0.682300  1.0  0.1124
  H  H46  1  0.505200  0.583600  0.385500  1.0  0.1137
  H  H47  1  0.448700  0.702000  0.584300  1.0  0.1002
  H  H48  1  0.860000  0.718500  0.558500  1.0  0.1031
  H  H49  1  0.298000  0.792900  0.794900  1.0  0.108
  H  H50  1  0.410600  0.085400  0.723900  1.0  0.1016
  H  H51  1  0.160800  0.779700  0.583400  1.0  0.104
  H  H52  1  0.215600  0.138100  0.635200  1.0  0.1107
  H  H53  1  0.171100  0.118400  0.550500  1.0  0.1113
  H  H54  1  0.079700  0.030200  0.587600  1.0  0.1179
  H  H55  1  0.508400  0.043100  0.586600  1.0  0.1133
  H  H56  1  0.435600  0.120900  0.545300  1.0  0.1146
  H  H57  1  0.469800  0.149100  0.630400  1.0  0.1064
  H  H58  1  0.125800  0.869900  0.499900  1.0  0.1163
  H  H59  1  0.229100  0.960800  0.468700  1.0  0.1168
  H  H60  1  0.290300  0.869100  0.500900  1.0  0.1127
  H  H61  1  0.842100  0.702000  0.258700  1.0  0.0887
  H  H62  1  0.876600  0.800000  0.170200  1.0  0.1225
  H  H63  1  0.300100  0.793500  0.207100  1.0  0.1196
  H  H64  1  0.255600  0.699000  0.295300  1.0  0.0841
  H  H65  1  0.860400  0.754600  0.001700  1.0  0.1312
  H  H66  1  0.651300  0.805800  0.960500  1.0  0.0859
  H  H67  1  0.823100  0.116200  0.091700  1.0  0.0862
  H  H68  1  0.037800  0.075300  0.135100  1.0  0.1151
  C  C69  1  0.201400  0.296600  0.297300  1.0  -0.3713
  C  C70  1  0.136100  0.102900  0.325600  1.0  -0.3663
  C  C71  1  0.379400  0.181000  0.294900  1.0  -0.3793
  C  C72  1  0.301700  0.353700  0.534600  1.0  -0.143
  C  C73  1  0.455500  0.383700  0.564830  1.0  -0.0021
  C  C74  1  0.548500  0.363800  0.519560  1.0  -0.133
  C  C75  1  0.487400  0.310300  0.445470  1.0  -0.0771
  C  C76  1  0.333700  0.274700  0.414790  1.0  -0.0035
  C  C77  1  0.242500  0.300500  0.460790  1.0  -0.0638
  C  C78  1  0.199100  0.377000  0.582230  1.0  0.6603
  C  C79  1  0.716000  0.399400  0.545840  1.0  0.6947
  C  C80  1  0.267900  0.213300  0.333900  1.0  0.2209
  C  C81  1  0.786800  0.232100  0.312750  1.0  -0.1481
  C  C82  1  0.705700  0.169600  0.242710  1.0  -0.0132
  C  C83  1  0.630100  0.050300  0.229330  1.0  -0.143
  C  C84  1  0.636800  0.995100  0.285920  1.0  -0.0945
  C  C85  1  0.713300  0.057900  0.357330  1.0  -0.0085
  C  C86  1  0.787600  0.176600  0.369540  1.0  -0.0499
  C  C87  1  0.876500  0.358000  0.328510  1.0  0.6586
  C  C88  1  0.541200  0.981800  0.153310  1.0  0.681
  C  C89  1  0.717400  0.994300  0.418710  1.0  0.198
  C  C90  1  0.822500  0.920000  0.410600  1.0  -0.3774
  C  C91  1  0.561400  0.912700  0.413600  1.0  -0.378
  C  C92  1  0.773300  0.081900  0.494440  1.0  -0.3855
  C  C93  1  0.064600  0.279700  0.752000  1.0  0.1972
  C  C94  1  0.045100  0.221100  0.805600  1.0  -0.1728
  C  C95  1  0.907700  0.194200  0.822980  1.0  0.0632
  C  C96  1  0.794500  0.224800  0.783500  1.0  -0.1652
  C  C97  1  0.822300  0.281800  0.730840  1.0  0.1872
  C  C98  1  0.028600  0.091000  0.924510  1.0  0.0582
  C  C99  1  0.145100  0.171200  0.978500  1.0  -0.1682
  C  C100  1  0.270600  0.139400  0.002900  1.0  0.1747
  C  C101  1  0.170100  0.958200  0.926600  1.0  0.1681
  C  C102  1  0.040700  0.982300  0.899700  1.0  -0.1535
  C  C103  1  0.798600  0.703400  0.702700  1.0  -0.3714
  C  C104  1  0.863900  0.897100  0.674400  1.0  -0.3651
  C  C105  1  0.620600  0.819000  0.705100  1.0  -0.379
  C  C106  1  0.698300  0.646300  0.465400  1.0  -0.1427
  C  C107  1  0.544500  0.616300  0.435170  1.0  -0.002
  C  C108  1  0.451500  0.636200  0.480440  1.0  -0.1342
  C  C109  1  0.512600  0.689700  0.554530  1.0  -0.0784
  C  C110  1  0.666300  0.725300  0.585210  1.0  -0.003
  C  C111  1  0.757500  0.699500  0.539210  1.0  -0.0633
  C  C112  1  0.800900  0.623000  0.417770  1.0  0.6598
  C  C113  1  0.284000  0.600600  0.454160  1.0  0.6916
  C  C114  1  0.732100  0.786700  0.666100  1.0  0.2219
  C  C115  1  0.213200  0.767900  0.687250  1.0  -0.1481
  C  C116  1  0.294300  0.830400  0.757290  1.0  -0.012
  C  C117  1  0.369900  0.949700  0.770670  1.0  -0.1418
  C  C118  1  0.363200  0.004900  0.714080  1.0  -0.0877
  C  C119  1  0.286700  0.942100  0.642670  1.0  -0.009
  C  C120  1  0.212400  0.823400  0.630460  1.0  -0.0505
  C  C121  1  0.123500  0.642000  0.671490  1.0  0.6623
  C  C122  1  0.458800  0.018200  0.846690  1.0  0.6802
  C  C123  1  0.282600  0.005700  0.581290  1.0  0.1934
  C  C124  1  0.177500  0.080000  0.589400  1.0  -0.377
  C  C125  1  0.438600  0.087300  0.586400  1.0  -0.3785
  C  C126  1  0.226700  0.918100  0.505560  1.0  -0.3868
  C  C127  1  0.935400  0.720300  0.248000  1.0  0.1981
  C  C128  1  0.954900  0.778900  0.194400  1.0  -0.1532
  C  C129  1  0.092300  0.805800  0.177020  1.0  0.0215
  C  C130  1  0.205500  0.775200  0.216500  1.0  -0.1643
  C  C131  1  0.177700  0.718200  0.269160  1.0  0.1882
  C  C132  1  0.971400  0.909000  0.075490  1.0  0.0625
  C  C133  1  0.854900  0.828800  0.021500  1.0  -0.1773
  C  C134  1  0.729400  0.860600  0.997100  1.0  0.1753
  C  C135  1  0.829900  0.041800  0.073400  1.0  0.168
  C  C136  1  0.959300  0.017700  0.100300  1.0  -0.1529
  S  S137  1  0.861450  0.123010  0.890800  1.0  -0.0157
  S  S138  1  0.138550  0.876990  0.109200  1.0  -0.0145
  N  N139  1  0.957000  0.311700  0.714600  1.0  -0.3598
  N  N140  1  0.285700  0.035700  0.977240  1.0  -0.3331
  N  N141  1  0.043000  0.688300  0.285400  1.0  -0.3761
  N  N142  1  0.714300  0.964300  0.022760  1.0  -0.3333
  O  O143  1  0.062250  0.368820  0.551620  1.0  -0.6571
  O  O144  1  0.239800  0.402000  0.649260  1.0  -0.5834
  O  O145  1  0.774100  0.401960  0.610710  1.0  -0.5905
  O  O146  1  0.787500  0.421600  0.498900  1.0  -0.5989
  O  O147  1  0.877700  0.413960  0.279660  1.0  -0.563
  O  O148  1  0.957400  0.409960  0.391960  1.0  -0.6573
  O  O149  1  0.522800  0.043540  0.108650  1.0  -0.6216
  O  O150  1  0.492400  0.873000  0.139280  1.0  -0.5991
  O  O151  1  0.937750  0.631180  0.448380  1.0  -0.6569
  O  O152  1  0.760200  0.598000  0.350740  1.0  -0.5812
  O  O153  1  0.225900  0.598040  0.389290  1.0  -0.5927
  O  O154  1  0.212500  0.578400  0.501100  1.0  -0.5981
  O  O155  1  0.122300  0.586040  0.720340  1.0  -0.5632
  O  O156  1  0.042600  0.590040  0.608040  1.0  -0.6568
  O  O157  1  0.477200  0.956460  0.891350  1.0  -0.6203
  O  O158  1  0.507600  0.127000  0.860720  1.0  -0.5969
