# generated using pymatgen
data_VH2(CO)5
_symmetry_space_group_name_H-M   'P 1'
_cell_length_a   6.37580000
_cell_length_b   6.88400000
_cell_length_c   9.02540000
_cell_angle_alpha   69.01000000
_cell_angle_beta   85.19700000
_cell_angle_gamma   79.45200000
_symmetry_Int_Tables_number   1
_chemical_formula_structural   VH2(CO)5
_chemical_formula_sum   'V2 H4 C10 O10'
_cell_volume   363.52674821
_cell_formula_units_Z   2
loop_
 _symmetry_equiv_pos_site_id
 _symmetry_equiv_pos_as_xyz
  1  'x, y, z'
loop_
 _atom_site_type_symbol
 _atom_site_label
 _atom_site_symmetry_multiplicity
 _atom_site_fract_x
 _atom_site_fract_y
 _atom_site_fract_z
 _atom_site_occupancy
 _atom_site_charge
  V  V1  1  0.000000  0.500000  0.500000  1.0  1.7102
  V  V2  1  0.000000  0.000000  0.500000  1.0  1.6732
  H  H3  1  0.824400  0.608600  0.994300  1.0  0.1013
  H  H4  1  0.065700  0.837400  0.316600  1.0  0.4977
  H  H5  1  0.175600  0.391400  0.005700  1.0  0.1017
  H  H6  1  0.934300  0.162600  0.683400  1.0  0.4975
  C  C7  1  0.396100  0.543900  0.858600  1.0  -0.0662
  C  C8  1  0.267700  0.618800  0.711300  1.0  0.7051
  C  C9  1  0.594000  0.606400  0.855700  1.0  -0.0791
  C  C10  1  0.717400  0.685900  0.703100  1.0  0.6982
  C  C11  1  0.694500  0.564100  0.996600  1.0  -0.0496
  C  C12  1  0.603900  0.456100  0.141400  1.0  -0.0667
  C  C13  1  0.732300  0.381200  0.288700  1.0  0.706
  C  C14  1  0.406000  0.393600  0.144300  1.0  -0.0776
  C  C15  1  0.282600  0.314100  0.296900  1.0  0.6985
  C  C16  1  0.305500  0.435900  0.003400  1.0  -0.0483
  O  O17  1  0.010700  0.798900  0.392400  1.0  -1.0294
  O  O18  1  0.806700  0.842700  0.679100  1.0  -0.6252
  O  O19  1  0.174600  0.488700  0.684800  1.0  -0.6302
  O  O20  1  0.252000  0.813000  0.631000  1.0  -0.6064
  O  O21  1  0.731700  0.577900  0.614400  1.0  -0.6088
  O  O22  1  0.989300  0.201100  0.607600  1.0  -1.0291
  O  O23  1  0.193300  0.157300  0.320900  1.0  -0.6258
  O  O24  1  0.825400  0.511300  0.315200  1.0  -0.6292
  O  O25  1  0.748000  0.187000  0.369000  1.0  -0.6079
  O  O26  1  0.268300  0.422100  0.385600  1.0  -0.6098
