# generated using pymatgen
data_EuH6C14(NO4)2
_symmetry_space_group_name_H-M   'P 1'
_cell_length_a   26.71270000
_cell_length_b   17.97480000
_cell_length_c   17.80240000
_cell_angle_alpha   90.00000000
_cell_angle_beta   90.00000000
_cell_angle_gamma   90.00000000
_symmetry_Int_Tables_number   1
_chemical_formula_structural   EuH6C14(NO4)2
_chemical_formula_sum   'Eu16 H96 C224 N32 O128'
_cell_volume   8547.91920434
_cell_formula_units_Z   16
loop_
 _symmetry_equiv_pos_site_id
 _symmetry_equiv_pos_as_xyz
  1  'x, y, z'
loop_
 _atom_site_type_symbol
 _atom_site_label
 _atom_site_symmetry_multiplicity
 _atom_site_fract_x
 _atom_site_fract_y
 _atom_site_fract_z
 _atom_site_occupancy
 _atom_site_charge
  Eu  Eu1  1  0.875000  0.375000  0.502050  1.0  2.1539
  Eu  Eu2  1  0.875000  0.875000  0.002050  1.0  2.1539
  Eu  Eu3  1  0.375000  0.375000  0.002050  1.0  2.1539
  Eu  Eu4  1  0.375000  0.875000  0.502050  1.0  2.1539
  Eu  Eu5  1  0.875000  0.375000  0.247950  1.0  2.1534
  Eu  Eu6  1  0.875000  0.875000  0.747960  1.0  2.1535
  Eu  Eu7  1  0.375000  0.375000  0.747960  1.0  2.1535
  Eu  Eu8  1  0.375000  0.875000  0.247950  1.0  2.1534
  Eu  Eu9  1  0.125000  0.625000  0.497950  1.0  2.1515
  Eu  Eu10  1  0.125000  0.125000  0.997960  1.0  2.1515
  Eu  Eu11  1  0.625000  0.625000  0.997960  1.0  2.1515
  Eu  Eu12  1  0.625000  0.125000  0.497950  1.0  2.1515
  Eu  Eu13  1  0.125000  0.625000  0.752050  1.0  2.1516
  Eu  Eu14  1  0.125000  0.125000  0.252050  1.0  2.1516
  Eu  Eu15  1  0.625000  0.625000  0.252050  1.0  2.1516
  Eu  Eu16  1  0.625000  0.125000  0.752050  1.0  2.1516
  H  H17  1  0.016900  0.224800  0.293600  1.0  0.0785
  H  H18  1  0.943000  0.152300  0.469200  1.0  0.1146
  H  H19  1  0.995400  0.050000  0.469900  1.0  0.098
  H  H20  1  0.016900  0.724800  0.793600  1.0  0.0785
  H  H21  1  0.943000  0.652300  0.969200  1.0  0.1146
  H  H22  1  0.995400  0.550000  0.969900  1.0  0.098
  H  H23  1  0.516900  0.224800  0.793600  1.0  0.0785
  H  H24  1  0.443000  0.152300  0.969200  1.0  0.1146
  H  H25  1  0.495400  0.050000  0.969900  1.0  0.098
  H  H26  1  0.516900  0.724800  0.293600  1.0  0.0785
  H  H27  1  0.443000  0.652300  0.469200  1.0  0.1146
  H  H28  1  0.495400  0.550000  0.469900  1.0  0.098
  H  H29  1  0.733100  0.525200  0.293600  1.0  0.0782
  H  H30  1  0.807000  0.597700  0.469200  1.0  0.1144
  H  H31  1  0.754600  0.700000  0.469900  1.0  0.0973
  H  H32  1  0.733100  0.025200  0.793600  1.0  0.0782
  H  H33  1  0.807000  0.097700  0.969200  1.0  0.1144
  H  H34  1  0.754600  0.200000  0.969900  1.0  0.0973
  H  H35  1  0.233100  0.525200  0.793600  1.0  0.0782
  H  H36  1  0.307000  0.597700  0.969200  1.0  0.1144
  H  H37  1  0.254600  0.700000  0.969900  1.0  0.0973
  H  H38  1  0.233100  0.025200  0.293600  1.0  0.0782
  H  H39  1  0.307000  0.097700  0.469200  1.0  0.1144
  H  H40  1  0.254600  0.200000  0.469900  1.0  0.0973
  H  H41  1  0.733100  0.224800  0.456400  1.0  0.0781
  H  H42  1  0.807000  0.152300  0.280800  1.0  0.1137
  H  H43  1  0.754600  0.050000  0.280100  1.0  0.0979
  H  H44  1  0.733100  0.724800  0.956400  1.0  0.0781
  H  H45  1  0.807000  0.652300  0.780800  1.0  0.1137
  H  H46  1  0.754600  0.550000  0.780100  1.0  0.0979
  H  H47  1  0.233100  0.224800  0.956400  1.0  0.0781
  H  H48  1  0.307000  0.152300  0.780800  1.0  0.1137
  H  H49  1  0.254600  0.050000  0.780100  1.0  0.0979
  H  H50  1  0.233100  0.724800  0.456400  1.0  0.0781
  H  H51  1  0.307000  0.652300  0.280800  1.0  0.1137
  H  H52  1  0.254600  0.550000  0.280100  1.0  0.0979
  H  H53  1  0.016900  0.525200  0.456400  1.0  0.0791
  H  H54  1  0.943000  0.597700  0.280800  1.0  0.1141
  H  H55  1  0.995400  0.700000  0.280100  1.0  0.0984
  H  H56  1  0.016900  0.025200  0.956400  1.0  0.0791
  H  H57  1  0.943000  0.097700  0.780800  1.0  0.1141
  H  H58  1  0.995400  0.200000  0.780100  1.0  0.0984
  H  H59  1  0.516900  0.525200  0.956400  1.0  0.0791
  H  H60  1  0.443000  0.597700  0.780800  1.0  0.1141
  H  H61  1  0.495400  0.700000  0.780100  1.0  0.0984
  H  H62  1  0.516900  0.025200  0.456400  1.0  0.0791
  H  H63  1  0.443000  0.097700  0.280800  1.0  0.1141
  H  H64  1  0.495400  0.200000  0.280100  1.0  0.0984
  H  H65  1  0.983100  0.775200  0.706400  1.0  0.0786
  H  H66  1  0.057000  0.847700  0.530800  1.0  0.1137
  H  H67  1  0.004600  0.950000  0.530100  1.0  0.0979
  H  H68  1  0.983100  0.275200  0.206400  1.0  0.0786
  H  H69  1  0.057000  0.347700  0.030800  1.0  0.1137
  H  H70  1  0.004600  0.450000  0.030100  1.0  0.0979
  H  H71  1  0.483100  0.775200  0.206400  1.0  0.0786
  H  H72  1  0.557000  0.847700  0.030800  1.0  0.1137
  H  H73  1  0.504600  0.950000  0.030100  1.0  0.0979
  H  H74  1  0.483100  0.275200  0.706400  1.0  0.0786
  H  H75  1  0.557000  0.347700  0.530800  1.0  0.1137
  H  H76  1  0.504600  0.450000  0.530100  1.0  0.0979
  H  H77  1  0.266900  0.474800  0.706400  1.0  0.0785
  H  H78  1  0.193000  0.402300  0.530800  1.0  0.114
  H  H79  1  0.245400  0.300000  0.530100  1.0  0.0983
  H  H80  1  0.266900  0.974800  0.206400  1.0  0.0785
  H  H81  1  0.193000  0.902300  0.030800  1.0  0.114
  H  H82  1  0.245400  0.800000  0.030100  1.0  0.0983
  H  H83  1  0.766900  0.474800  0.206400  1.0  0.0785
  H  H84  1  0.693000  0.402300  0.030800  1.0  0.114
  H  H85  1  0.745400  0.300000  0.030100  1.0  0.0983
  H  H86  1  0.766900  0.974800  0.706400  1.0  0.0785
  H  H87  1  0.693000  0.902300  0.530800  1.0  0.114
  H  H88  1  0.745400  0.800000  0.530100  1.0  0.0983
  H  H89  1  0.266900  0.775200  0.543600  1.0  0.0786
  H  H90  1  0.193000  0.847700  0.719200  1.0  0.1147
  H  H91  1  0.245400  0.950000  0.719900  1.0  0.0974
  H  H92  1  0.266900  0.275200  0.043600  1.0  0.0786
  H  H93  1  0.193000  0.347700  0.219200  1.0  0.1147
  H  H94  1  0.245400  0.450000  0.219900  1.0  0.0974
  H  H95  1  0.766900  0.775200  0.043600  1.0  0.0786
  H  H96  1  0.693000  0.847700  0.219200  1.0  0.1147
  H  H97  1  0.745400  0.950000  0.219900  1.0  0.0974
  H  H98  1  0.766900  0.275200  0.543600  1.0  0.0786
  H  H99  1  0.693000  0.347700  0.719200  1.0  0.1147
  H  H100  1  0.745400  0.450000  0.719900  1.0  0.0974
  H  H101  1  0.983100  0.474800  0.543600  1.0  0.0782
  H  H102  1  0.057000  0.402300  0.719200  1.0  0.1144
  H  H103  1  0.004600  0.300000  0.719900  1.0  0.0979
  H  H104  1  0.983100  0.974800  0.043600  1.0  0.0782
  H  H105  1  0.057000  0.902300  0.219200  1.0  0.1144
  H  H106  1  0.004600  0.800000  0.219900  1.0  0.0979
  H  H107  1  0.483100  0.474800  0.043600  1.0  0.0782
  H  H108  1  0.557000  0.402300  0.219200  1.0  0.1144
  H  H109  1  0.504600  0.300000  0.219900  1.0  0.0979
  H  H110  1  0.483100  0.974800  0.543600  1.0  0.0782
  H  H111  1  0.557000  0.902300  0.719200  1.0  0.1144
  H  H112  1  0.504600  0.800000  0.719900  1.0  0.0979
  C  C113  1  0.940570  0.266600  0.374300  1.0  0.7412
  C  C114  1  0.974210  0.199800  0.380500  1.0  -0.0311
  C  C115  1  0.012840  0.189600  0.331400  1.0  0.1562
  C  C116  1  0.968300  0.147800  0.433500  1.0  -0.1028
  C  C117  1  0.000100  0.087400  0.434500  1.0  -0.1049
  C  C118  1  0.038500  0.081800  0.384200  1.0  0.1248
  C  C119  1  0.076400  0.019000  0.383000  1.0  0.7477
  C  C120  1  0.940570  0.766600  0.874300  1.0  0.7412
  C  C121  1  0.974210  0.699800  0.880500  1.0  -0.0311
  C  C122  1  0.012840  0.689600  0.831400  1.0  0.1562
  C  C123  1  0.968300  0.647800  0.933500  1.0  -0.1028
  C  C124  1  0.000100  0.587400  0.934500  1.0  -0.1049
  C  C125  1  0.038500  0.581800  0.884200  1.0  0.1248
  C  C126  1  0.076400  0.519000  0.883000  1.0  0.7477
  C  C127  1  0.440570  0.266600  0.874300  1.0  0.7412
  C  C128  1  0.474210  0.199800  0.880500  1.0  -0.0311
  C  C129  1  0.512840  0.189600  0.831400  1.0  0.1562
  C  C130  1  0.468300  0.147800  0.933500  1.0  -0.1028
  C  C131  1  0.500100  0.087400  0.934500  1.0  -0.1049
  C  C132  1  0.538500  0.081800  0.884200  1.0  0.1248
  C  C133  1  0.576400  0.019000  0.883000  1.0  0.7477
  C  C134  1  0.440570  0.766600  0.374300  1.0  0.7412
  C  C135  1  0.474210  0.699800  0.380500  1.0  -0.0311
  C  C136  1  0.512840  0.689600  0.331400  1.0  0.1562
  C  C137  1  0.468300  0.647800  0.433500  1.0  -0.1028
  C  C138  1  0.500100  0.587400  0.434500  1.0  -0.1049
  C  C139  1  0.538500  0.581800  0.384200  1.0  0.1248
  C  C140  1  0.576400  0.519000  0.383000  1.0  0.7477
  C  C141  1  0.809430  0.483400  0.374300  1.0  0.7398
  C  C142  1  0.775790  0.550200  0.380500  1.0  -0.0314
  C  C143  1  0.737160  0.560400  0.331400  1.0  0.1561
  C  C144  1  0.781700  0.602200  0.433500  1.0  -0.103
  C  C145  1  0.749900  0.662600  0.434500  1.0  -0.1046
  C  C146  1  0.711500  0.668200  0.384200  1.0  0.124
  C  C147  1  0.673600  0.731000  0.383000  1.0  0.7461
  C  C148  1  0.809430  0.983400  0.874300  1.0  0.7398
  C  C149  1  0.775790  0.050200  0.880500  1.0  -0.0314
  C  C150  1  0.737160  0.060400  0.831400  1.0  0.1561
  C  C151  1  0.781700  0.102200  0.933500  1.0  -0.103
  C  C152  1  0.749900  0.162600  0.934500  1.0  -0.1046
  C  C153  1  0.711500  0.168200  0.884200  1.0  0.124
  C  C154  1  0.673600  0.231000  0.883000  1.0  0.7461
  C  C155  1  0.309430  0.483400  0.874300  1.0  0.7398
  C  C156  1  0.275790  0.550200  0.880500  1.0  -0.0314
  C  C157  1  0.237160  0.560400  0.831400  1.0  0.1561
  C  C158  1  0.281700  0.602200  0.933500  1.0  -0.103
  C  C159  1  0.249900  0.662600  0.934500  1.0  -0.1046
  C  C160  1  0.211500  0.668200  0.884200  1.0  0.124
  C  C161  1  0.173600  0.731000  0.883000  1.0  0.7461
  C  C162  1  0.309430  0.983400  0.374300  1.0  0.7398
  C  C163  1  0.275790  0.050200  0.380500  1.0  -0.0314
  C  C164  1  0.237160  0.060400  0.331400  1.0  0.1561
  C  C165  1  0.281700  0.102200  0.433500  1.0  -0.103
  C  C166  1  0.249900  0.162600  0.434500  1.0  -0.1046
  C  C167  1  0.211500  0.168200  0.384200  1.0  0.124
  C  C168  1  0.173600  0.231000  0.383000  1.0  0.7461
  C  C169  1  0.809430  0.266600  0.375700  1.0  0.7405
  C  C170  1  0.775790  0.199800  0.369500  1.0  -0.0306
  C  C171  1  0.737160  0.189600  0.418600  1.0  0.1564
  C  C172  1  0.781700  0.147800  0.316500  1.0  -0.1016
  C  C173  1  0.749900  0.087400  0.315500  1.0  -0.1037
  C  C174  1  0.711500  0.081800  0.365800  1.0  0.1238
  C  C175  1  0.673600  0.019000  0.367000  1.0  0.747
  C  C176  1  0.809430  0.766600  0.875700  1.0  0.7405
  C  C177  1  0.775790  0.699800  0.869500  1.0  -0.0306
  C  C178  1  0.737160  0.689600  0.918600  1.0  0.1564
  C  C179  1  0.781700  0.647800  0.816500  1.0  -0.1016
  C  C180  1  0.749900  0.587400  0.815500  1.0  -0.1037
  C  C181  1  0.711500  0.581800  0.865800  1.0  0.1238
  C  C182  1  0.673600  0.519000  0.867000  1.0  0.747
  C  C183  1  0.309430  0.266600  0.875700  1.0  0.7405
  C  C184  1  0.275790  0.199800  0.869500  1.0  -0.0306
  C  C185  1  0.237160  0.189600  0.918600  1.0  0.1564
  C  C186  1  0.281700  0.147800  0.816500  1.0  -0.1016
  C  C187  1  0.249900  0.087400  0.815500  1.0  -0.1037
  C  C188  1  0.211500  0.081800  0.865800  1.0  0.1238
  C  C189  1  0.173600  0.019000  0.867000  1.0  0.747
  C  C190  1  0.309430  0.766600  0.375700  1.0  0.7405
  C  C191  1  0.275790  0.699800  0.369500  1.0  -0.0306
  C  C192  1  0.237160  0.689600  0.418600  1.0  0.1564
  C  C193  1  0.281700  0.647800  0.316500  1.0  -0.1016
  C  C194  1  0.249900  0.587400  0.315500  1.0  -0.1037
  C  C195  1  0.211500  0.581800  0.365800  1.0  0.1238
  C  C196  1  0.173600  0.519000  0.367000  1.0  0.747
  C  C197  1  0.940570  0.483400  0.375700  1.0  0.7411
  C  C198  1  0.974210  0.550200  0.369500  1.0  -0.0315
  C  C199  1  0.012840  0.560400  0.418600  1.0  0.1568
  C  C200  1  0.968300  0.602200  0.316500  1.0  -0.1024
  C  C201  1  0.000100  0.662600  0.315500  1.0  -0.1039
  C  C202  1  0.038500  0.668200  0.365800  1.0  0.1239
  C  C203  1  0.076400  0.731000  0.367000  1.0  0.7464
  C  C204  1  0.940570  0.983400  0.875700  1.0  0.7411
  C  C205  1  0.974210  0.050200  0.869500  1.0  -0.0315
  C  C206  1  0.012840  0.060400  0.918600  1.0  0.1568
  C  C207  1  0.968300  0.102200  0.816500  1.0  -0.1024
  C  C208  1  0.000100  0.162600  0.815500  1.0  -0.1039
  C  C209  1  0.038500  0.168200  0.865800  1.0  0.1239
  C  C210  1  0.076400  0.231000  0.867000  1.0  0.7464
  C  C211  1  0.440570  0.483400  0.875700  1.0  0.7411
  C  C212  1  0.474210  0.550200  0.869500  1.0  -0.0315
  C  C213  1  0.512840  0.560400  0.918600  1.0  0.1568
  C  C214  1  0.468300  0.602200  0.816500  1.0  -0.1024
  C  C215  1  0.500100  0.662600  0.815500  1.0  -0.1039
  C  C216  1  0.538500  0.668200  0.865800  1.0  0.1239
  C  C217  1  0.576400  0.731000  0.867000  1.0  0.7464
  C  C218  1  0.440570  0.983400  0.375700  1.0  0.7411
  C  C219  1  0.474210  0.050200  0.369500  1.0  -0.0315
  C  C220  1  0.512840  0.060400  0.418600  1.0  0.1568
  C  C221  1  0.468300  0.102200  0.316500  1.0  -0.1024
  C  C222  1  0.500100  0.162600  0.315500  1.0  -0.1039
  C  C223  1  0.538500  0.168200  0.365800  1.0  0.1239
  C  C224  1  0.576400  0.231000  0.367000  1.0  0.7464
  C  C225  1  0.059430  0.733400  0.625700  1.0  0.7402
  C  C226  1  0.025790  0.800200  0.619500  1.0  -0.0312
  C  C227  1  0.987160  0.810400  0.668600  1.0  0.1566
  C  C228  1  0.031700  0.852200  0.566500  1.0  -0.1014
  C  C229  1  0.999900  0.912600  0.565500  1.0  -0.1039
  C  C230  1  0.961500  0.918200  0.615800  1.0  0.1237
  C  C231  1  0.923600  0.981000  0.617000  1.0  0.7461
  C  C232  1  0.059430  0.233400  0.125700  1.0  0.7402
  C  C233  1  0.025790  0.300200  0.119500  1.0  -0.0312
  C  C234  1  0.987160  0.310400  0.168600  1.0  0.1566
  C  C235  1  0.031700  0.352200  0.066500  1.0  -0.1014
  C  C236  1  0.999900  0.412600  0.065500  1.0  -0.1039
  C  C237  1  0.961500  0.418200  0.115800  1.0  0.1237
  C  C238  1  0.923600  0.481000  0.117000  1.0  0.7461
  C  C239  1  0.559430  0.733400  0.125700  1.0  0.7402
  C  C240  1  0.525790  0.800200  0.119500  1.0  -0.0312
  C  C241  1  0.487160  0.810400  0.168600  1.0  0.1566
  C  C242  1  0.531700  0.852200  0.066500  1.0  -0.1014
  C  C243  1  0.499900  0.912600  0.065500  1.0  -0.1039
  C  C244  1  0.461500  0.918200  0.115800  1.0  0.1237
  C  C245  1  0.423600  0.981000  0.117000  1.0  0.7461
  C  C246  1  0.559430  0.233400  0.625700  1.0  0.7402
  C  C247  1  0.525790  0.300200  0.619500  1.0  -0.0312
  C  C248  1  0.487160  0.310400  0.668600  1.0  0.1566
  C  C249  1  0.531700  0.352200  0.566500  1.0  -0.1014
  C  C250  1  0.499900  0.412600  0.565500  1.0  -0.1039
  C  C251  1  0.461500  0.418200  0.615800  1.0  0.1237
  C  C252  1  0.423600  0.481000  0.617000  1.0  0.7461
  C  C253  1  0.190570  0.516600  0.625700  1.0  0.7412
  C  C254  1  0.224210  0.449800  0.619500  1.0  -0.0307
  C  C255  1  0.262840  0.439600  0.668600  1.0  0.1566
  C  C256  1  0.218300  0.397800  0.566500  1.0  -0.1022
  C  C257  1  0.250100  0.337400  0.565500  1.0  -0.1037
  C  C258  1  0.288500  0.331800  0.615800  1.0  0.1249
  C  C259  1  0.326400  0.269000  0.617000  1.0  0.7471
  C  C260  1  0.190570  0.016600  0.125700  1.0  0.7412
  C  C261  1  0.224210  0.949800  0.119500  1.0  -0.0307
  C  C262  1  0.262840  0.939600  0.168600  1.0  0.1566
  C  C263  1  0.218300  0.897800  0.066500  1.0  -0.1022
  C  C264  1  0.250100  0.837400  0.065500  1.0  -0.1037
  C  C265  1  0.288500  0.831800  0.115800  1.0  0.1249
  C  C266  1  0.326400  0.769000  0.117000  1.0  0.7471
  C  C267  1  0.690570  0.516600  0.125700  1.0  0.7412
  C  C268  1  0.724210  0.449800  0.119500  1.0  -0.0307
  C  C269  1  0.762840  0.439600  0.168600  1.0  0.1566
  C  C270  1  0.718300  0.397800  0.066500  1.0  -0.1022
  C  C271  1  0.750100  0.337400  0.065500  1.0  -0.1037
  C  C272  1  0.788500  0.331800  0.115800  1.0  0.1249
  C  C273  1  0.826400  0.269000  0.117000  1.0  0.7471
  C  C274  1  0.690570  0.016600  0.625700  1.0  0.7412
  C  C275  1  0.724210  0.949800  0.619500  1.0  -0.0307
  C  C276  1  0.762840  0.939600  0.668600  1.0  0.1566
  C  C277  1  0.718300  0.897800  0.566500  1.0  -0.1022
  C  C278  1  0.750100  0.837400  0.565500  1.0  -0.1037
  C  C279  1  0.788500  0.831800  0.615800  1.0  0.1249
  C  C280  1  0.826400  0.769000  0.617000  1.0  0.7471
  C  C281  1  0.190570  0.733400  0.624300  1.0  0.7407
  C  C282  1  0.224210  0.800200  0.630500  1.0  -0.0317
  C  C283  1  0.262840  0.810400  0.581400  1.0  0.1563
  C  C284  1  0.218300  0.852200  0.683500  1.0  -0.1034
  C  C285  1  0.250100  0.912600  0.684500  1.0  -0.1051
  C  C286  1  0.288500  0.918200  0.634200  1.0  0.1238
  C  C287  1  0.326400  0.981000  0.633000  1.0  0.7464
  C  C288  1  0.190570  0.233400  0.124300  1.0  0.7407
  C  C289  1  0.224210  0.300200  0.130500  1.0  -0.0317
  C  C290  1  0.262840  0.310400  0.081400  1.0  0.1563
  C  C291  1  0.218300  0.352200  0.183500  1.0  -0.1034
  C  C292  1  0.250100  0.412600  0.184500  1.0  -0.1051
  C  C293  1  0.288500  0.418200  0.134200  1.0  0.1238
  C  C294  1  0.326400  0.481000  0.133000  1.0  0.7464
  C  C295  1  0.690570  0.733400  0.124300  1.0  0.7407
  C  C296  1  0.724210  0.800200  0.130500  1.0  -0.0317
  C  C297  1  0.762840  0.810400  0.081400  1.0  0.1563
  C  C298  1  0.718300  0.852200  0.183500  1.0  -0.1034
  C  C299  1  0.750100  0.912600  0.184500  1.0  -0.1051
  C  C300  1  0.788500  0.918200  0.134200  1.0  0.1238
  C  C301  1  0.826400  0.981000  0.133000  1.0  0.7464
  C  C302  1  0.690570  0.233400  0.624300  1.0  0.7407
  C  C303  1  0.724210  0.300200  0.630500  1.0  -0.0317
  C  C304  1  0.762840  0.310400  0.581400  1.0  0.1563
  C  C305  1  0.718300  0.352200  0.683500  1.0  -0.1034
  C  C306  1  0.750100  0.412600  0.684500  1.0  -0.1051
  C  C307  1  0.788500  0.418200  0.634200  1.0  0.1238
  C  C308  1  0.826400  0.481000  0.633000  1.0  0.7464
  C  C309  1  0.059430  0.516600  0.624300  1.0  0.7404
  C  C310  1  0.025790  0.449800  0.630500  1.0  -0.0311
  C  C311  1  0.987160  0.439600  0.581400  1.0  0.1559
  C  C312  1  0.031700  0.397800  0.683500  1.0  -0.1028
  C  C313  1  0.999900  0.337400  0.684500  1.0  -0.1046
  C  C314  1  0.961500  0.331800  0.634200  1.0  0.1241
  C  C315  1  0.923600  0.269000  0.633000  1.0  0.7476
  C  C316  1  0.059430  0.016600  0.124300  1.0  0.7404
  C  C317  1  0.025790  0.949800  0.130500  1.0  -0.0311
  C  C318  1  0.987160  0.939600  0.081400  1.0  0.1559
  C  C319  1  0.031700  0.897800  0.183500  1.0  -0.1028
  C  C320  1  0.999900  0.837400  0.184500  1.0  -0.1046
  C  C321  1  0.961500  0.831800  0.134200  1.0  0.1241
  C  C322  1  0.923600  0.769000  0.133000  1.0  0.7476
  C  C323  1  0.559430  0.516600  0.124300  1.0  0.7404
  C  C324  1  0.525790  0.449800  0.130500  1.0  -0.0311
  C  C325  1  0.487160  0.439600  0.081400  1.0  0.1559
  C  C326  1  0.531700  0.397800  0.183500  1.0  -0.1028
  C  C327  1  0.499900  0.337400  0.184500  1.0  -0.1046
  C  C328  1  0.461500  0.331800  0.134200  1.0  0.1241
  C  C329  1  0.423600  0.269000  0.133000  1.0  0.7476
  C  C330  1  0.559430  0.016600  0.624300  1.0  0.7404
  C  C331  1  0.525790  0.949800  0.630500  1.0  -0.0311
  C  C332  1  0.487160  0.939600  0.581400  1.0  0.1559
  C  C333  1  0.531700  0.897800  0.683500  1.0  -0.1028
  C  C334  1  0.499900  0.837400  0.684500  1.0  -0.1046
  C  C335  1  0.461500  0.831800  0.634200  1.0  0.1241
  C  C336  1  0.423600  0.769000  0.633000  1.0  0.7476
  N  N337  1  0.045150  0.133500  0.333100  1.0  -0.3965
  N  N338  1  0.045150  0.633500  0.833100  1.0  -0.3965
  N  N339  1  0.545150  0.133500  0.833100  1.0  -0.3965
  N  N340  1  0.545150  0.633500  0.333100  1.0  -0.3965
  N  N341  1  0.704850  0.616500  0.333100  1.0  -0.3964
  N  N342  1  0.704850  0.116500  0.833100  1.0  -0.3964
  N  N343  1  0.204850  0.616500  0.833100  1.0  -0.3964
  N  N344  1  0.204850  0.116500  0.333100  1.0  -0.3964
  N  N345  1  0.704850  0.133500  0.416900  1.0  -0.3973
  N  N346  1  0.704850  0.633500  0.916900  1.0  -0.3973
  N  N347  1  0.204850  0.133500  0.916900  1.0  -0.3973
  N  N348  1  0.204850  0.633500  0.416900  1.0  -0.3973
  N  N349  1  0.045150  0.616500  0.416900  1.0  -0.3964
  N  N350  1  0.045150  0.116500  0.916900  1.0  -0.3964
  N  N351  1  0.545150  0.616500  0.916900  1.0  -0.3964
  N  N352  1  0.545150  0.116500  0.416900  1.0  -0.3964
  N  N353  1  0.954850  0.866500  0.666900  1.0  -0.397
  N  N354  1  0.954850  0.366500  0.166900  1.0  -0.397
  N  N355  1  0.454850  0.866500  0.166900  1.0  -0.397
  N  N356  1  0.454850  0.366500  0.666900  1.0  -0.397
  N  N357  1  0.295150  0.383500  0.666900  1.0  -0.3965
  N  N358  1  0.295150  0.883500  0.166900  1.0  -0.3965
  N  N359  1  0.795150  0.383500  0.166900  1.0  -0.3965
  N  N360  1  0.795150  0.883500  0.666900  1.0  -0.3965
  N  N361  1  0.295150  0.866500  0.583100  1.0  -0.3964
  N  N362  1  0.295150  0.366500  0.083100  1.0  -0.3964
  N  N363  1  0.795150  0.866500  0.083100  1.0  -0.3964
  N  N364  1  0.795150  0.366500  0.583100  1.0  -0.3964
  N  N365  1  0.954850  0.383500  0.583100  1.0  -0.3969
  N  N366  1  0.954850  0.883500  0.083100  1.0  -0.3969
  N  N367  1  0.454850  0.383500  0.083100  1.0  -0.3969
  N  N368  1  0.454850  0.883500  0.583100  1.0  -0.3969
  O  O369  1  0.926370  0.296100  0.433200  1.0  -0.7096
  O  O370  1  0.930190  0.287900  0.309800  1.0  -0.6417
  O  O371  1  0.113570  0.028120  0.341200  1.0  -0.6382
  O  O372  1  0.068400  0.963500  0.421200  1.0  -0.5108
  O  O373  1  0.926370  0.796100  0.933200  1.0  -0.7096
  O  O374  1  0.930190  0.787900  0.809800  1.0  -0.6417
  O  O375  1  0.113570  0.528120  0.841200  1.0  -0.6382
  O  O376  1  0.068400  0.463500  0.921200  1.0  -0.5108
  O  O377  1  0.426370  0.296100  0.933200  1.0  -0.7096
  O  O378  1  0.430190  0.287900  0.809800  1.0  -0.6417
  O  O379  1  0.613570  0.028120  0.841200  1.0  -0.6382
  O  O380  1  0.568400  0.963500  0.921200  1.0  -0.5108
  O  O381  1  0.426370  0.796100  0.433200  1.0  -0.7096
  O  O382  1  0.430190  0.787900  0.309800  1.0  -0.6417
  O  O383  1  0.613570  0.528120  0.341200  1.0  -0.6382
  O  O384  1  0.568400  0.463500  0.421200  1.0  -0.5108
  O  O385  1  0.823630  0.453900  0.433200  1.0  -0.7104
  O  O386  1  0.819810  0.462100  0.309800  1.0  -0.6408
  O  O387  1  0.636430  0.721880  0.341200  1.0  -0.6375
  O  O388  1  0.681600  0.786500  0.421200  1.0  -0.5113
  O  O389  1  0.823630  0.953900  0.933200  1.0  -0.7104
  O  O390  1  0.819810  0.962100  0.809800  1.0  -0.6408
  O  O391  1  0.636430  0.221880  0.841200  1.0  -0.6375
  O  O392  1  0.681600  0.286500  0.921200  1.0  -0.5113
  O  O393  1  0.323630  0.453900  0.933200  1.0  -0.7104
  O  O394  1  0.319810  0.462100  0.809800  1.0  -0.6408
  O  O395  1  0.136430  0.721880  0.841200  1.0  -0.6375
  O  O396  1  0.181600  0.786500  0.921200  1.0  -0.5113
  O  O397  1  0.323630  0.953900  0.433200  1.0  -0.7104
  O  O398  1  0.319810  0.962100  0.309800  1.0  -0.6408
  O  O399  1  0.136430  0.221880  0.341200  1.0  -0.6375
  O  O400  1  0.181600  0.286500  0.421200  1.0  -0.5113
  O  O401  1  0.823630  0.296100  0.316800  1.0  -0.7098
  O  O402  1  0.819810  0.287900  0.440200  1.0  -0.6399
  O  O403  1  0.636430  0.028120  0.408800  1.0  -0.6385
  O  O404  1  0.681600  0.963500  0.328800  1.0  -0.512
  O  O405  1  0.823630  0.796100  0.816800  1.0  -0.7098
  O  O406  1  0.819810  0.787900  0.940200  1.0  -0.6399
  O  O407  1  0.636430  0.528120  0.908800  1.0  -0.6386
  O  O408  1  0.681600  0.463500  0.828800  1.0  -0.512
  O  O409  1  0.323630  0.296100  0.816800  1.0  -0.7098
  O  O410  1  0.319810  0.287900  0.940200  1.0  -0.6399
  O  O411  1  0.136430  0.028120  0.908800  1.0  -0.6386
  O  O412  1  0.181600  0.963500  0.828800  1.0  -0.512
  O  O413  1  0.323630  0.796100  0.316800  1.0  -0.7098
  O  O414  1  0.319810  0.787900  0.440200  1.0  -0.6399
  O  O415  1  0.136430  0.528120  0.408800  1.0  -0.6385
  O  O416  1  0.181600  0.463500  0.328800  1.0  -0.512
  O  O417  1  0.926370  0.453900  0.316800  1.0  -0.709
  O  O418  1  0.930190  0.462100  0.440200  1.0  -0.6413
  O  O419  1  0.113570  0.721880  0.408800  1.0  -0.6387
  O  O420  1  0.068400  0.786500  0.328800  1.0  -0.5105
  O  O421  1  0.926370  0.953900  0.816800  1.0  -0.709
  O  O422  1  0.930190  0.962100  0.940200  1.0  -0.6413
  O  O423  1  0.113570  0.221880  0.908800  1.0  -0.6387
  O  O424  1  0.068400  0.286500  0.828800  1.0  -0.5105
  O  O425  1  0.426370  0.453900  0.816800  1.0  -0.709
  O  O426  1  0.430190  0.462100  0.940200  1.0  -0.6413
  O  O427  1  0.613570  0.721880  0.908800  1.0  -0.6387
  O  O428  1  0.568400  0.786500  0.828800  1.0  -0.5105
  O  O429  1  0.426370  0.953900  0.316800  1.0  -0.709
  O  O430  1  0.430190  0.962100  0.440200  1.0  -0.6413
  O  O431  1  0.613570  0.221880  0.408800  1.0  -0.6387
  O  O432  1  0.568400  0.286500  0.328800  1.0  -0.5105
  O  O433  1  0.073630  0.703900  0.566800  1.0  -0.7098
  O  O434  1  0.069810  0.712100  0.690200  1.0  -0.641
  O  O435  1  0.886430  0.971880  0.658800  1.0  -0.6385
  O  O436  1  0.931600  0.036500  0.578800  1.0  -0.5116
  O  O437  1  0.073630  0.203900  0.066800  1.0  -0.7098
  O  O438  1  0.069810  0.212100  0.190200  1.0  -0.641
  O  O439  1  0.886430  0.471880  0.158800  1.0  -0.6385
  O  O440  1  0.931600  0.536500  0.078800  1.0  -0.5116
  O  O441  1  0.573630  0.703900  0.066800  1.0  -0.7098
  O  O442  1  0.569810  0.712100  0.190200  1.0  -0.641
  O  O443  1  0.386430  0.971880  0.158800  1.0  -0.6385
  O  O444  1  0.431600  0.036500  0.078800  1.0  -0.5116
  O  O445  1  0.573630  0.203900  0.566800  1.0  -0.7098
  O  O446  1  0.569810  0.212100  0.690200  1.0  -0.641
  O  O447  1  0.386430  0.471880  0.658800  1.0  -0.6385
  O  O448  1  0.431600  0.536500  0.578800  1.0  -0.5116
  O  O449  1  0.176370  0.546100  0.566800  1.0  -0.7092
  O  O450  1  0.180190  0.537900  0.690200  1.0  -0.6419
  O  O451  1  0.363570  0.278120  0.658800  1.0  -0.6388
  O  O452  1  0.318400  0.213500  0.578800  1.0  -0.5111
  O  O453  1  0.176370  0.046100  0.066800  1.0  -0.7092
  O  O454  1  0.180190  0.037900  0.190200  1.0  -0.6419
  O  O455  1  0.363570  0.778120  0.158800  1.0  -0.6388
  O  O456  1  0.318400  0.713500  0.078800  1.0  -0.5111
  O  O457  1  0.676370  0.546100  0.066800  1.0  -0.7092
  O  O458  1  0.680190  0.537900  0.190200  1.0  -0.6419
  O  O459  1  0.863570  0.278120  0.158800  1.0  -0.6388
  O  O460  1  0.818400  0.213500  0.078800  1.0  -0.5111
  O  O461  1  0.676370  0.046100  0.566800  1.0  -0.7092
  O  O462  1  0.680190  0.037900  0.690200  1.0  -0.6419
  O  O463  1  0.863570  0.778120  0.658800  1.0  -0.6388
  O  O464  1  0.818400  0.713500  0.578800  1.0  -0.5111
  O  O465  1  0.176370  0.703900  0.683200  1.0  -0.7097
  O  O466  1  0.180190  0.712100  0.559800  1.0  -0.6416
  O  O467  1  0.363570  0.971880  0.591200  1.0  -0.6379
  O  O468  1  0.318400  0.036500  0.671200  1.0  -0.5108
  O  O469  1  0.176370  0.203900  0.183200  1.0  -0.7097
  O  O470  1  0.180190  0.212100  0.059800  1.0  -0.6416
  O  O471  1  0.363570  0.471880  0.091200  1.0  -0.6379
  O  O472  1  0.318400  0.536500  0.171200  1.0  -0.5108
  O  O473  1  0.676370  0.703900  0.183200  1.0  -0.7097
  O  O474  1  0.680190  0.712100  0.059800  1.0  -0.6416
  O  O475  1  0.863570  0.971880  0.091200  1.0  -0.6379
  O  O476  1  0.818400  0.036500  0.171200  1.0  -0.5108
  O  O477  1  0.676370  0.203900  0.683200  1.0  -0.7097
  O  O478  1  0.680190  0.212100  0.559800  1.0  -0.6416
  O  O479  1  0.863570  0.471880  0.591200  1.0  -0.6379
  O  O480  1  0.818400  0.536500  0.671200  1.0  -0.5108
  O  O481  1  0.073630  0.546100  0.683200  1.0  -0.71
  O  O482  1  0.069810  0.537900  0.559800  1.0  -0.6412
  O  O483  1  0.886430  0.278120  0.591200  1.0  -0.6372
  O  O484  1  0.931600  0.213500  0.671200  1.0  -0.5113
  O  O485  1  0.073630  0.046100  0.183200  1.0  -0.71
  O  O486  1  0.069810  0.037900  0.059800  1.0  -0.6412
  O  O487  1  0.886430  0.778120  0.091200  1.0  -0.6372
  O  O488  1  0.931600  0.713500  0.171200  1.0  -0.5113
  O  O489  1  0.573630  0.546100  0.183200  1.0  -0.71
  O  O490  1  0.569810  0.537900  0.059800  1.0  -0.6412
  O  O491  1  0.386430  0.278120  0.091200  1.0  -0.6372
  O  O492  1  0.431600  0.213500  0.171200  1.0  -0.5113
  O  O493  1  0.573630  0.046100  0.683200  1.0  -0.71
  O  O494  1  0.569810  0.037900  0.559800  1.0  -0.6412
  O  O495  1  0.386430  0.778120  0.591200  1.0  -0.6372
  O  O496  1  0.431600  0.713500  0.671200  1.0  -0.5113
