# generated using pymatgen
data_ErH6C14(NO4)2
_symmetry_space_group_name_H-M   'P 1'
_cell_length_a   26.44730000
_cell_length_b   17.94420000
_cell_length_c   17.38040000
_cell_angle_alpha   90.00000000
_cell_angle_beta   90.00000000
_cell_angle_gamma   90.00000000
_symmetry_Int_Tables_number   1
_chemical_formula_structural   ErH6C14(NO4)2
_chemical_formula_sum   'Er16 H96 C224 N32 O128'
_cell_volume   8248.31446493
_cell_formula_units_Z   16
loop_
 _symmetry_equiv_pos_site_id
 _symmetry_equiv_pos_as_xyz
  1  'x, y, z'
loop_
 _atom_site_type_symbol
 _atom_site_label
 _atom_site_symmetry_multiplicity
 _atom_site_fract_x
 _atom_site_fract_y
 _atom_site_fract_z
 _atom_site_occupancy
 _atom_site_charge
  Er  Er1  1  0.875000  0.375000  0.502830  1.0  1.4152
  Er  Er2  1  0.875000  0.875000  0.002830  1.0  1.4153
  Er  Er3  1  0.375000  0.375000  0.002830  1.0  1.4152
  Er  Er4  1  0.375000  0.875000  0.502830  1.0  1.4153
  Er  Er5  1  0.875000  0.375000  0.247170  1.0  1.416
  Er  Er6  1  0.875000  0.875000  0.747170  1.0  1.416
  Er  Er7  1  0.375000  0.375000  0.747170  1.0  1.416
  Er  Er8  1  0.375000  0.875000  0.247170  1.0  1.416
  Er  Er9  1  0.125000  0.625000  0.497170  1.0  1.4189
  Er  Er10  1  0.125000  0.125000  0.997170  1.0  1.419
  Er  Er11  1  0.625000  0.625000  0.997170  1.0  1.4189
  Er  Er12  1  0.625000  0.125000  0.497170  1.0  1.419
  Er  Er13  1  0.125000  0.625000  0.752830  1.0  1.4189
  Er  Er14  1  0.125000  0.125000  0.252830  1.0  1.4189
  Er  Er15  1  0.625000  0.625000  0.252830  1.0  1.4189
  Er  Er16  1  0.625000  0.125000  0.752830  1.0  1.4189
  H  H17  1  0.019300  0.229700  0.295300  1.0  0.0783
  H  H18  1  0.940500  0.151400  0.469900  1.0  0.1357
  H  H19  1  0.993300  0.049200  0.469500  1.0  0.1209
  H  H20  1  0.019300  0.729700  0.795300  1.0  0.0783
  H  H21  1  0.940500  0.651400  0.969900  1.0  0.1357
  H  H22  1  0.993300  0.549200  0.969500  1.0  0.1209
  H  H23  1  0.519300  0.229700  0.795300  1.0  0.0783
  H  H24  1  0.440500  0.151400  0.969900  1.0  0.1357
  H  H25  1  0.493300  0.049200  0.969500  1.0  0.1209
  H  H26  1  0.519300  0.729700  0.295300  1.0  0.0783
  H  H27  1  0.440500  0.651400  0.469900  1.0  0.1357
  H  H28  1  0.493300  0.549200  0.469500  1.0  0.1209
  H  H29  1  0.730700  0.520300  0.295300  1.0  0.079
  H  H30  1  0.809500  0.598600  0.469900  1.0  0.1353
  H  H31  1  0.756700  0.700800  0.469500  1.0  0.1205
  H  H32  1  0.730700  0.020300  0.795300  1.0  0.079
  H  H33  1  0.809500  0.098600  0.969900  1.0  0.1353
  H  H34  1  0.756700  0.200800  0.969500  1.0  0.1207
  H  H35  1  0.230700  0.520300  0.795300  1.0  0.079
  H  H36  1  0.309500  0.598600  0.969900  1.0  0.1353
  H  H37  1  0.256700  0.700800  0.969500  1.0  0.1205
  H  H38  1  0.230700  0.020300  0.295300  1.0  0.079
  H  H39  1  0.309500  0.098600  0.469900  1.0  0.1353
  H  H40  1  0.256700  0.200800  0.469500  1.0  0.1207
  H  H41  1  0.730700  0.229700  0.454700  1.0  0.0789
  H  H42  1  0.809500  0.151400  0.280100  1.0  0.1353
  H  H43  1  0.756700  0.049200  0.280500  1.0  0.1205
  H  H44  1  0.730700  0.729700  0.954700  1.0  0.0789
  H  H45  1  0.809500  0.651400  0.780100  1.0  0.1353
  H  H46  1  0.756700  0.549200  0.780500  1.0  0.1205
  H  H47  1  0.230700  0.229700  0.954700  1.0  0.0789
  H  H48  1  0.309500  0.151400  0.780100  1.0  0.1353
  H  H49  1  0.256700  0.049200  0.780500  1.0  0.1205
  H  H50  1  0.230700  0.729700  0.454700  1.0  0.0789
  H  H51  1  0.309500  0.651400  0.280100  1.0  0.1353
  H  H52  1  0.256700  0.549200  0.280500  1.0  0.1205
  H  H53  1  0.019300  0.520300  0.454700  1.0  0.0791
  H  H54  1  0.940500  0.598600  0.280100  1.0  0.1355
  H  H55  1  0.993300  0.700800  0.280500  1.0  0.121
  H  H56  1  0.019300  0.020300  0.954700  1.0  0.0791
  H  H57  1  0.940500  0.098600  0.780100  1.0  0.1355
  H  H58  1  0.993300  0.200800  0.780500  1.0  0.1212
  H  H59  1  0.519300  0.520300  0.954700  1.0  0.0791
  H  H60  1  0.440500  0.598600  0.780100  1.0  0.1355
  H  H61  1  0.493300  0.700800  0.780500  1.0  0.121
  H  H62  1  0.519300  0.020300  0.454700  1.0  0.0791
  H  H63  1  0.440500  0.098600  0.280100  1.0  0.1355
  H  H64  1  0.493300  0.200800  0.280500  1.0  0.1212
  H  H65  1  0.980700  0.770300  0.704700  1.0  0.0795
  H  H66  1  0.059500  0.848600  0.530100  1.0  0.1353
  H  H67  1  0.006700  0.950800  0.530500  1.0  0.1207
  H  H68  1  0.980700  0.270300  0.204700  1.0  0.0795
  H  H69  1  0.059500  0.348600  0.030100  1.0  0.1353
  H  H70  1  0.006700  0.450800  0.030500  1.0  0.1207
  H  H71  1  0.480700  0.770300  0.204700  1.0  0.0795
  H  H72  1  0.559500  0.848600  0.030100  1.0  0.1353
  H  H73  1  0.506700  0.950800  0.030500  1.0  0.1207
  H  H74  1  0.480700  0.270300  0.704700  1.0  0.0795
  H  H75  1  0.559500  0.348600  0.530100  1.0  0.1353
  H  H76  1  0.506700  0.450800  0.530500  1.0  0.1207
  H  H77  1  0.269300  0.479700  0.704700  1.0  0.0786
  H  H78  1  0.190500  0.401400  0.530100  1.0  0.1355
  H  H79  1  0.243300  0.299200  0.530500  1.0  0.1211
  H  H80  1  0.269300  0.979700  0.204700  1.0  0.0786
  H  H81  1  0.190500  0.901400  0.030100  1.0  0.1355
  H  H82  1  0.243300  0.799200  0.030500  1.0  0.1211
  H  H83  1  0.769300  0.479700  0.204700  1.0  0.0786
  H  H84  1  0.690500  0.401400  0.030100  1.0  0.1355
  H  H85  1  0.743300  0.299200  0.030500  1.0  0.1211
  H  H86  1  0.769300  0.979700  0.704700  1.0  0.0786
  H  H87  1  0.690500  0.901400  0.530100  1.0  0.1355
  H  H88  1  0.743300  0.799200  0.530500  1.0  0.1211
  H  H89  1  0.269300  0.770300  0.545300  1.0  0.0785
  H  H90  1  0.190500  0.848600  0.719900  1.0  0.1355
  H  H91  1  0.243300  0.950800  0.719500  1.0  0.1208
  H  H92  1  0.269300  0.270300  0.045300  1.0  0.0785
  H  H93  1  0.190500  0.348600  0.219900  1.0  0.1355
  H  H94  1  0.243300  0.450800  0.219500  1.0  0.1208
  H  H95  1  0.769300  0.770300  0.045300  1.0  0.0785
  H  H96  1  0.690500  0.848600  0.219900  1.0  0.1355
  H  H97  1  0.743300  0.950800  0.219500  1.0  0.1208
  H  H98  1  0.769300  0.270300  0.545300  1.0  0.0785
  H  H99  1  0.690500  0.348600  0.719900  1.0  0.1355
  H  H100  1  0.743300  0.450800  0.719500  1.0  0.1208
  H  H101  1  0.980700  0.479700  0.545300  1.0  0.0788
  H  H102  1  0.059500  0.401400  0.719900  1.0  0.1357
  H  H103  1  0.006700  0.299200  0.719500  1.0  0.1206
  H  H104  1  0.980700  0.979700  0.045300  1.0  0.0788
  H  H105  1  0.059500  0.901400  0.219900  1.0  0.1357
  H  H106  1  0.006700  0.799200  0.219500  1.0  0.1206
  H  H107  1  0.480700  0.479700  0.045300  1.0  0.0788
  H  H108  1  0.559500  0.401400  0.219900  1.0  0.1357
  H  H109  1  0.506700  0.299200  0.219500  1.0  0.1206
  H  H110  1  0.480700  0.979700  0.545300  1.0  0.0788
  H  H111  1  0.559500  0.901400  0.719900  1.0  0.1357
  H  H112  1  0.506700  0.799200  0.719500  1.0  0.1206
  C  C113  1  0.940370  0.269000  0.375000  1.0  0.7669
  C  C114  1  0.973990  0.201800  0.381200  1.0  0.0026
  C  C115  1  0.014070  0.192900  0.332100  1.0  0.2001
  C  C116  1  0.966600  0.147800  0.434300  1.0  -0.0455
  C  C117  1  0.998600  0.087600  0.434500  1.0  -0.0759
  C  C118  1  0.038300  0.083400  0.384200  1.0  0.1453
  C  C119  1  0.075800  0.019100  0.381500  1.0  0.7528
  C  C120  1  0.940370  0.769000  0.875000  1.0  0.7669
  C  C121  1  0.973990  0.701800  0.881200  1.0  0.0026
  C  C122  1  0.014070  0.692900  0.832100  1.0  0.2001
  C  C123  1  0.966600  0.647800  0.934300  1.0  -0.0455
  C  C124  1  0.998600  0.587600  0.934500  1.0  -0.0759
  C  C125  1  0.038300  0.583400  0.884200  1.0  0.1453
  C  C126  1  0.075800  0.519100  0.881500  1.0  0.7528
  C  C127  1  0.440370  0.269000  0.875000  1.0  0.7669
  C  C128  1  0.473990  0.201800  0.881200  1.0  0.0026
  C  C129  1  0.514070  0.192900  0.832100  1.0  0.2001
  C  C130  1  0.466600  0.147800  0.934300  1.0  -0.0455
  C  C131  1  0.498600  0.087600  0.934500  1.0  -0.0759
  C  C132  1  0.538300  0.083400  0.884200  1.0  0.1453
  C  C133  1  0.575800  0.019100  0.881500  1.0  0.7528
  C  C134  1  0.440370  0.769000  0.375000  1.0  0.7669
  C  C135  1  0.473990  0.701800  0.381200  1.0  0.0026
  C  C136  1  0.514070  0.692900  0.332100  1.0  0.2001
  C  C137  1  0.466600  0.647800  0.434300  1.0  -0.0455
  C  C138  1  0.498600  0.587600  0.434500  1.0  -0.0759
  C  C139  1  0.538300  0.583400  0.384200  1.0  0.1453
  C  C140  1  0.575800  0.519100  0.381500  1.0  0.7528
  C  C141  1  0.809630  0.481000  0.375000  1.0  0.7657
  C  C142  1  0.776010  0.548200  0.381200  1.0  0.0016
  C  C143  1  0.735930  0.557100  0.332100  1.0  0.2019
  C  C144  1  0.783400  0.602200  0.434300  1.0  -0.0343
  C  C145  1  0.751400  0.662400  0.434500  1.0  -0.0748
  C  C146  1  0.711700  0.666667  0.384200  1.0  0.1288
  C  C147  1  0.674200  0.730900  0.381500  1.0  0.7526
  C  C148  1  0.809630  0.981000  0.875000  1.0  0.7657
  C  C149  1  0.776010  0.048200  0.881200  1.0  0.0016
  C  C150  1  0.735930  0.057100  0.832100  1.0  0.2
  C  C151  1  0.783400  0.102200  0.934300  1.0  -0.0451
  C  C152  1  0.751400  0.162400  0.934500  1.0  -0.0745
  C  C153  1  0.711700  0.166600  0.884200  1.0  0.1447
  C  C154  1  0.674200  0.230900  0.881500  1.0  0.7514
  C  C155  1  0.309630  0.481000  0.875000  1.0  0.7657
  C  C156  1  0.276010  0.548200  0.881200  1.0  0.0016
  C  C157  1  0.235930  0.557100  0.832100  1.0  0.2019
  C  C158  1  0.283400  0.602200  0.934300  1.0  -0.0343
  C  C159  1  0.251400  0.662400  0.934500  1.0  -0.0748
  C  C160  1  0.211700  0.666667  0.884200  1.0  0.1288
  C  C161  1  0.174200  0.730900  0.881500  1.0  0.7526
  C  C162  1  0.309630  0.981000  0.375000  1.0  0.7657
  C  C163  1  0.276010  0.048200  0.381200  1.0  0.0016
  C  C164  1  0.235930  0.057100  0.332100  1.0  0.2
  C  C165  1  0.283400  0.102200  0.434300  1.0  -0.0451
  C  C166  1  0.251400  0.162400  0.434500  1.0  -0.0745
  C  C167  1  0.211700  0.166600  0.384200  1.0  0.1447
  C  C168  1  0.174200  0.230900  0.381500  1.0  0.7514
  C  C169  1  0.809630  0.269000  0.375000  1.0  0.7663
  C  C170  1  0.776010  0.201800  0.368800  1.0  0.0024
  C  C171  1  0.735930  0.192900  0.417900  1.0  0.1993
  C  C172  1  0.783400  0.147800  0.315700  1.0  -0.0444
  C  C173  1  0.751400  0.087600  0.315500  1.0  -0.0744
  C  C174  1  0.711700  0.083400  0.365800  1.0  0.1439
  C  C175  1  0.674200  0.019100  0.368500  1.0  0.7518
  C  C176  1  0.809630  0.769000  0.875000  1.0  0.7663
  C  C177  1  0.776010  0.701800  0.868800  1.0  0.0024
  C  C178  1  0.735930  0.692900  0.917900  1.0  0.1993
  C  C179  1  0.783400  0.647800  0.815700  1.0  -0.0444
  C  C180  1  0.751400  0.587600  0.815500  1.0  -0.0744
  C  C181  1  0.711700  0.583400  0.865800  1.0  0.1439
  C  C182  1  0.674200  0.519100  0.868500  1.0  0.7518
  C  C183  1  0.309630  0.269000  0.875000  1.0  0.7663
  C  C184  1  0.276010  0.201800  0.868800  1.0  0.0024
  C  C185  1  0.235930  0.192900  0.917900  1.0  0.1993
  C  C186  1  0.283400  0.147800  0.815700  1.0  -0.0444
  C  C187  1  0.251400  0.087600  0.815500  1.0  -0.0744
  C  C188  1  0.211700  0.083400  0.865800  1.0  0.1439
  C  C189  1  0.174200  0.019100  0.868500  1.0  0.7518
  C  C190  1  0.309630  0.769000  0.375000  1.0  0.7663
  C  C191  1  0.276010  0.701800  0.368800  1.0  0.0024
  C  C192  1  0.235930  0.692900  0.417900  1.0  0.1993
  C  C193  1  0.283400  0.647800  0.315700  1.0  -0.0444
  C  C194  1  0.251400  0.587600  0.315500  1.0  -0.0744
  C  C195  1  0.211700  0.583400  0.365800  1.0  0.1439
  C  C196  1  0.174200  0.519100  0.368500  1.0  0.7518
  C  C197  1  0.940370  0.481000  0.375000  1.0  0.7666
  C  C198  1  0.973990  0.548200  0.368800  1.0  0.0015
  C  C199  1  0.014070  0.557100  0.417900  1.0  0.2027
  C  C200  1  0.966600  0.602200  0.315700  1.0  -0.0348
  C  C201  1  0.998600  0.662400  0.315500  1.0  -0.0746
  C  C202  1  0.038300  0.666667  0.365800  1.0  0.1279
  C  C203  1  0.075800  0.730900  0.368500  1.0  0.7523
  C  C204  1  0.940370  0.981000  0.875000  1.0  0.7666
  C  C205  1  0.973990  0.048200  0.868800  1.0  0.0015
  C  C206  1  0.014070  0.057100  0.917900  1.0  0.2002
  C  C207  1  0.966600  0.102200  0.815700  1.0  -0.0456
  C  C208  1  0.998600  0.162400  0.815500  1.0  -0.0743
  C  C209  1  0.038300  0.166600  0.865800  1.0  0.1439
  C  C210  1  0.075800  0.230900  0.868500  1.0  0.7511
  C  C211  1  0.440370  0.481000  0.875000  1.0  0.7666
  C  C212  1  0.473990  0.548200  0.868800  1.0  0.0015
  C  C213  1  0.514070  0.557100  0.917900  1.0  0.2027
  C  C214  1  0.466600  0.602200  0.815700  1.0  -0.0348
  C  C215  1  0.498600  0.662400  0.815500  1.0  -0.0746
  C  C216  1  0.538300  0.666667  0.865800  1.0  0.1279
  C  C217  1  0.575800  0.730900  0.868500  1.0  0.7523
  C  C218  1  0.440370  0.981000  0.375000  1.0  0.7666
  C  C219  1  0.473990  0.048200  0.368800  1.0  0.0015
  C  C220  1  0.514070  0.057100  0.417900  1.0  0.2002
  C  C221  1  0.466600  0.102200  0.315700  1.0  -0.0456
  C  C222  1  0.498600  0.162400  0.315500  1.0  -0.0743
  C  C223  1  0.538300  0.166600  0.365800  1.0  0.1439
  C  C224  1  0.575800  0.230900  0.368500  1.0  0.7511
  C  C225  1  0.059630  0.731000  0.625000  1.0  0.7496
  C  C226  1  0.026010  0.798200  0.618800  1.0  0.002
  C  C227  1  0.985930  0.807100  0.667900  1.0  0.1997
  C  C228  1  0.033400  0.852200  0.565700  1.0  -0.0446
  C  C229  1  0.001400  0.912400  0.565500  1.0  -0.0739
  C  C230  1  0.961700  0.916600  0.615800  1.0  0.144
  C  C231  1  0.924200  0.980900  0.618500  1.0  0.7508
  C  C232  1  0.059630  0.231000  0.125000  1.0  0.7496
  C  C233  1  0.026010  0.298200  0.118800  1.0  0.0014
  C  C234  1  0.985930  0.307100  0.167900  1.0  0.1997
  C  C235  1  0.033400  0.352200  0.065700  1.0  -0.0446
  C  C236  1  0.001400  0.412400  0.065500  1.0  -0.0739
  C  C237  1  0.961700  0.416600  0.115800  1.0  0.144
  C  C238  1  0.924200  0.480900  0.118500  1.0  0.7508
  C  C239  1  0.559630  0.731000  0.125000  1.0  0.7496
  C  C240  1  0.526010  0.798200  0.118800  1.0  0.002
  C  C241  1  0.485930  0.807100  0.167900  1.0  0.1997
  C  C242  1  0.533400  0.852200  0.065700  1.0  -0.0446
  C  C243  1  0.501400  0.912400  0.065500  1.0  -0.0739
  C  C244  1  0.461700  0.916600  0.115800  1.0  0.144
  C  C245  1  0.424200  0.980900  0.118500  1.0  0.7508
  C  C246  1  0.559630  0.231000  0.625000  1.0  0.7496
  C  C247  1  0.526010  0.298200  0.618800  1.0  0.0014
  C  C248  1  0.485930  0.307100  0.667900  1.0  0.1997
  C  C249  1  0.533400  0.352200  0.565700  1.0  -0.0446
  C  C250  1  0.501400  0.412400  0.565500  1.0  -0.0739
  C  C251  1  0.461700  0.416600  0.615800  1.0  0.144
  C  C252  1  0.424200  0.480900  0.618500  1.0  0.7508
  C  C253  1  0.190370  0.519000  0.625000  1.0  0.7505
  C  C254  1  0.223990  0.451800  0.618800  1.0  0.0026
  C  C255  1  0.264070  0.442900  0.667900  1.0  0.1998
  C  C256  1  0.216600  0.397800  0.565700  1.0  -0.0453
  C  C257  1  0.248600  0.337600  0.565500  1.0  -0.0746
  C  C258  1  0.288300  0.333400  0.615800  1.0  0.1446
  C  C259  1  0.325800  0.269100  0.618500  1.0  0.7519
  C  C260  1  0.190370  0.019000  0.125000  1.0  0.7505
  C  C261  1  0.223990  0.951800  0.118800  1.0  0.0026
  C  C262  1  0.264070  0.942900  0.167900  1.0  0.1998
  C  C263  1  0.216600  0.897800  0.065700  1.0  -0.0453
  C  C264  1  0.248600  0.837600  0.065500  1.0  -0.0746
  C  C265  1  0.288300  0.833400  0.115800  1.0  0.1446
  C  C266  1  0.325800  0.769100  0.118500  1.0  0.7519
  C  C267  1  0.690370  0.519000  0.125000  1.0  0.7505
  C  C268  1  0.723990  0.451800  0.118800  1.0  0.0026
  C  C269  1  0.764070  0.442900  0.167900  1.0  0.1998
  C  C270  1  0.716600  0.397800  0.065700  1.0  -0.0453
  C  C271  1  0.748600  0.337600  0.065500  1.0  -0.0746
  C  C272  1  0.788300  0.333400  0.115800  1.0  0.1446
  C  C273  1  0.825800  0.269100  0.118500  1.0  0.7519
  C  C274  1  0.690370  0.019000  0.625000  1.0  0.7505
  C  C275  1  0.723990  0.951800  0.618800  1.0  0.0026
  C  C276  1  0.764070  0.942900  0.667900  1.0  0.1998
  C  C277  1  0.716600  0.897800  0.565700  1.0  -0.0453
  C  C278  1  0.748600  0.837600  0.565500  1.0  -0.0746
  C  C279  1  0.788300  0.833400  0.615800  1.0  0.1446
  C  C280  1  0.825800  0.769100  0.618500  1.0  0.7519
  C  C281  1  0.190370  0.731000  0.625000  1.0  0.7498
  C  C282  1  0.223990  0.798200  0.631200  1.0  0.0022
  C  C283  1  0.264070  0.807100  0.582100  1.0  0.2003
  C  C284  1  0.216600  0.852200  0.684300  1.0  -0.046
  C  C285  1  0.248600  0.912400  0.684500  1.0  -0.0753
  C  C286  1  0.288300  0.916600  0.634200  1.0  0.1443
  C  C287  1  0.325800  0.980900  0.631500  1.0  0.752
  C  C288  1  0.190370  0.231000  0.125000  1.0  0.7498
  C  C289  1  0.223990  0.298200  0.131200  1.0  0.0017
  C  C290  1  0.264070  0.307100  0.082100  1.0  0.2003
  C  C291  1  0.216600  0.352200  0.184300  1.0  -0.046
  C  C292  1  0.248600  0.412400  0.184500  1.0  -0.0753
  C  C293  1  0.288300  0.416600  0.134200  1.0  0.1443
  C  C294  1  0.325800  0.480900  0.131500  1.0  0.752
  C  C295  1  0.690370  0.731000  0.125000  1.0  0.7498
  C  C296  1  0.723990  0.798200  0.131200  1.0  0.0022
  C  C297  1  0.764070  0.807100  0.082100  1.0  0.2003
  C  C298  1  0.716600  0.852200  0.184300  1.0  -0.046
  C  C299  1  0.748600  0.912400  0.184500  1.0  -0.0753
  C  C300  1  0.788300  0.916600  0.134200  1.0  0.1443
  C  C301  1  0.825800  0.980900  0.131500  1.0  0.752
  C  C302  1  0.690370  0.231000  0.625000  1.0  0.7498
  C  C303  1  0.723990  0.298200  0.631200  1.0  0.0017
  C  C304  1  0.764070  0.307100  0.582100  1.0  0.2003
  C  C305  1  0.716600  0.352200  0.684300  1.0  -0.046
  C  C306  1  0.748600  0.412400  0.684500  1.0  -0.0753
  C  C307  1  0.788300  0.416600  0.634200  1.0  0.1443
  C  C308  1  0.825800  0.480900  0.631500  1.0  0.752
  C  C309  1  0.059630  0.519000  0.625000  1.0  0.7498
  C  C310  1  0.026010  0.451800  0.631200  1.0  0.0024
  C  C311  1  0.985930  0.442900  0.582100  1.0  0.1998
  C  C312  1  0.033400  0.397800  0.684300  1.0  -0.0449
  C  C313  1  0.001400  0.337600  0.684500  1.0  -0.0755
  C  C314  1  0.961700  0.333400  0.634200  1.0  0.1448
  C  C315  1  0.924200  0.269100  0.631500  1.0  0.7524
  C  C316  1  0.059630  0.019000  0.125000  1.0  0.7498
  C  C317  1  0.026010  0.951800  0.131200  1.0  0.0024
  C  C318  1  0.985930  0.942900  0.082100  1.0  0.1998
  C  C319  1  0.033400  0.897800  0.184300  1.0  -0.0449
  C  C320  1  0.001400  0.837600  0.184500  1.0  -0.0755
  C  C321  1  0.961700  0.833400  0.134200  1.0  0.1448
  C  C322  1  0.924200  0.769100  0.131500  1.0  0.7524
  C  C323  1  0.559630  0.519000  0.125000  1.0  0.7498
  C  C324  1  0.526010  0.451800  0.131200  1.0  0.0024
  C  C325  1  0.485930  0.442900  0.082100  1.0  0.1998
  C  C326  1  0.533400  0.397800  0.184300  1.0  -0.0449
  C  C327  1  0.501400  0.337600  0.184500  1.0  -0.0755
  C  C328  1  0.461700  0.333400  0.134200  1.0  0.1448
  C  C329  1  0.424200  0.269100  0.131500  1.0  0.7524
  C  C330  1  0.559630  0.019000  0.625000  1.0  0.7498
  C  C331  1  0.526010  0.951800  0.631200  1.0  0.0024
  C  C332  1  0.485930  0.942900  0.582100  1.0  0.1998
  C  C333  1  0.533400  0.897800  0.684300  1.0  -0.0449
  C  C334  1  0.501400  0.837600  0.684500  1.0  -0.0755
  C  C335  1  0.461700  0.833400  0.634200  1.0  0.1448
  C  C336  1  0.424200  0.769100  0.631500  1.0  0.7524
  N  N337  1  0.046080  0.135680  0.333080  1.0  -0.3415
  N  N338  1  0.046080  0.635680  0.833080  1.0  -0.3415
  N  N339  1  0.546080  0.135680  0.833080  1.0  -0.3415
  N  N340  1  0.546080  0.635680  0.333080  1.0  -0.3415
  N  N341  1  0.703920  0.614320  0.333080  1.0  -0.3391
  N  N342  1  0.703920  0.114320  0.833080  1.0  -0.3407
  N  N343  1  0.203920  0.614320  0.833080  1.0  -0.3391
  N  N344  1  0.203920  0.114320  0.333080  1.0  -0.3407
  N  N345  1  0.703920  0.135680  0.416920  1.0  -0.3404
  N  N346  1  0.703920  0.635680  0.916920  1.0  -0.3404
  N  N347  1  0.203920  0.135680  0.916920  1.0  -0.3404
  N  N348  1  0.203920  0.635680  0.416920  1.0  -0.3404
  N  N349  1  0.046080  0.614320  0.416920  1.0  -0.339
  N  N350  1  0.046080  0.114320  0.916920  1.0  -0.3406
  N  N351  1  0.546080  0.614320  0.916920  1.0  -0.339
  N  N352  1  0.546080  0.114320  0.416920  1.0  -0.3406
  N  N353  1  0.953920  0.864320  0.666920  1.0  -0.3405
  N  N354  1  0.953920  0.364320  0.166920  1.0  -0.3405
  N  N355  1  0.453920  0.864320  0.166920  1.0  -0.3405
  N  N356  1  0.453920  0.364320  0.666920  1.0  -0.3405
  N  N357  1  0.296080  0.385680  0.666920  1.0  -0.3406
  N  N358  1  0.296080  0.885680  0.166920  1.0  -0.3406
  N  N359  1  0.796080  0.385680  0.166920  1.0  -0.3406
  N  N360  1  0.796080  0.885680  0.666920  1.0  -0.3406
  N  N361  1  0.296080  0.864320  0.583080  1.0  -0.3411
  N  N362  1  0.296080  0.364320  0.083080  1.0  -0.3411
  N  N363  1  0.796080  0.864320  0.083080  1.0  -0.3411
  N  N364  1  0.796080  0.364320  0.583080  1.0  -0.3411
  N  N365  1  0.953920  0.385680  0.583080  1.0  -0.341
  N  N366  1  0.953920  0.885680  0.083080  1.0  -0.341
  N  N367  1  0.453920  0.385680  0.083080  1.0  -0.341
  N  N368  1  0.453920  0.885680  0.583080  1.0  -0.341
  O  O369  1  0.929770  0.302260  0.435300  1.0  -0.6539
  O  O370  1  0.925750  0.285980  0.309080  1.0  -0.6713
  O  O371  1  0.113900  0.028760  0.339440  1.0  -0.6088
  O  O372  1  0.067500  0.963100  0.419500  1.0  -0.5058
  O  O373  1  0.929770  0.802260  0.935300  1.0  -0.6539
  O  O374  1  0.925750  0.785980  0.809080  1.0  -0.6713
  O  O375  1  0.113900  0.528760  0.839440  1.0  -0.609
  O  O376  1  0.067500  0.463100  0.919500  1.0  -0.5058
  O  O377  1  0.429770  0.302260  0.935300  1.0  -0.6539
  O  O378  1  0.425750  0.285980  0.809080  1.0  -0.6713
  O  O379  1  0.613900  0.028760  0.839440  1.0  -0.6088
  O  O380  1  0.567500  0.963100  0.919500  1.0  -0.5058
  O  O381  1  0.429770  0.802260  0.435300  1.0  -0.6539
  O  O382  1  0.425750  0.785980  0.309080  1.0  -0.6713
  O  O383  1  0.613900  0.528760  0.339440  1.0  -0.609
  O  O384  1  0.567500  0.463100  0.419500  1.0  -0.5058
  O  O385  1  0.820230  0.447740  0.435300  1.0  -0.6539
  O  O386  1  0.824250  0.464020  0.309080  1.0  -0.6711
  O  O387  1  0.636100  0.721240  0.339440  1.0  -0.6085
  O  O388  1  0.682500  0.786900  0.419500  1.0  -0.5063
  O  O389  1  0.820230  0.947740  0.935300  1.0  -0.6539
  O  O390  1  0.824250  0.964020  0.809080  1.0  -0.6711
  O  O391  1  0.636100  0.221240  0.839440  1.0  -0.6085
  O  O392  1  0.682500  0.286900  0.919500  1.0  -0.5064
  O  O393  1  0.320230  0.447740  0.935300  1.0  -0.6539
  O  O394  1  0.324250  0.464020  0.809080  1.0  -0.6711
  O  O395  1  0.136100  0.721240  0.839440  1.0  -0.6085
  O  O396  1  0.182500  0.786900  0.919500  1.0  -0.5063
  O  O397  1  0.320230  0.947740  0.435300  1.0  -0.6539
  O  O398  1  0.324250  0.964020  0.309080  1.0  -0.6711
  O  O399  1  0.136100  0.221240  0.339440  1.0  -0.6085
  O  O400  1  0.182500  0.286900  0.419500  1.0  -0.5064
  O  O401  1  0.820230  0.302260  0.314700  1.0  -0.6542
  O  O402  1  0.824250  0.285980  0.440920  1.0  -0.6703
  O  O403  1  0.636100  0.028760  0.410560  1.0  -0.6076
  O  O404  1  0.682500  0.963100  0.330500  1.0  -0.5065
  O  O405  1  0.820230  0.802260  0.814700  1.0  -0.6542
  O  O406  1  0.824250  0.785980  0.940920  1.0  -0.6703
  O  O407  1  0.636100  0.528760  0.910560  1.0  -0.6077
  O  O408  1  0.682500  0.463100  0.830500  1.0  -0.5065
  O  O409  1  0.320230  0.302260  0.814700  1.0  -0.6542
  O  O410  1  0.324250  0.285980  0.940920  1.0  -0.6703
  O  O411  1  0.136100  0.028760  0.910560  1.0  -0.6076
  O  O412  1  0.182500  0.963100  0.830500  1.0  -0.5065
  O  O413  1  0.320230  0.802260  0.314700  1.0  -0.6542
  O  O414  1  0.324250  0.785980  0.440920  1.0  -0.6703
  O  O415  1  0.136100  0.528760  0.410560  1.0  -0.6077
  O  O416  1  0.182500  0.463100  0.330500  1.0  -0.5065
  O  O417  1  0.929770  0.447740  0.314700  1.0  -0.6537
  O  O418  1  0.925750  0.464020  0.440920  1.0  -0.6705
  O  O419  1  0.113900  0.721240  0.410560  1.0  -0.6084
  O  O420  1  0.067500  0.786900  0.330500  1.0  -0.5062
  O  O421  1  0.929770  0.947740  0.814700  1.0  -0.6537
  O  O422  1  0.925750  0.964020  0.940920  1.0  -0.6705
  O  O423  1  0.113900  0.221240  0.910560  1.0  -0.6084
  O  O424  1  0.067500  0.286900  0.830500  1.0  -0.5063
  O  O425  1  0.429770  0.447740  0.814700  1.0  -0.6537
  O  O426  1  0.425750  0.464020  0.940920  1.0  -0.6705
  O  O427  1  0.613900  0.721240  0.910560  1.0  -0.6084
  O  O428  1  0.567500  0.786900  0.830500  1.0  -0.5062
  O  O429  1  0.429770  0.947740  0.314700  1.0  -0.6537
  O  O430  1  0.425750  0.964020  0.440920  1.0  -0.6705
  O  O431  1  0.613900  0.221240  0.410560  1.0  -0.6084
  O  O432  1  0.567500  0.286900  0.330500  1.0  -0.5063
  O  O433  1  0.070230  0.697740  0.564700  1.0  -0.6541
  O  O434  1  0.074250  0.714020  0.690920  1.0  -0.6706
  O  O435  1  0.886100  0.971240  0.660560  1.0  -0.6083
  O  O436  1  0.932500  0.036900  0.580500  1.0  -0.5067
  O  O437  1  0.070230  0.197740  0.064700  1.0  -0.654
  O  O438  1  0.074250  0.214020  0.190920  1.0  -0.6706
  O  O439  1  0.886100  0.471240  0.160560  1.0  -0.6083
  O  O440  1  0.932500  0.536900  0.080500  1.0  -0.5067
  O  O441  1  0.570230  0.697740  0.064700  1.0  -0.6541
  O  O442  1  0.574250  0.714020  0.190920  1.0  -0.6706
  O  O443  1  0.386100  0.971240  0.160560  1.0  -0.6083
  O  O444  1  0.432500  0.036900  0.080500  1.0  -0.5067
  O  O445  1  0.570230  0.197740  0.564700  1.0  -0.654
  O  O446  1  0.574250  0.214020  0.690920  1.0  -0.6706
  O  O447  1  0.386100  0.471240  0.660560  1.0  -0.6083
  O  O448  1  0.432500  0.536900  0.580500  1.0  -0.5067
  O  O449  1  0.179770  0.552260  0.564700  1.0  -0.6538
  O  O450  1  0.175750  0.535980  0.690920  1.0  -0.6705
  O  O451  1  0.363900  0.278760  0.660560  1.0  -0.6082
  O  O452  1  0.317500  0.213100  0.580500  1.0  -0.5063
  O  O453  1  0.179770  0.052260  0.064700  1.0  -0.6538
  O  O454  1  0.175750  0.035980  0.190920  1.0  -0.6705
  O  O455  1  0.363900  0.778760  0.160560  1.0  -0.6082
  O  O456  1  0.317500  0.713100  0.080500  1.0  -0.5063
  O  O457  1  0.679770  0.552260  0.064700  1.0  -0.6538
  O  O458  1  0.675750  0.535980  0.190920  1.0  -0.6705
  O  O459  1  0.863900  0.278760  0.160560  1.0  -0.6082
  O  O460  1  0.817500  0.213100  0.080500  1.0  -0.5063
  O  O461  1  0.679770  0.052260  0.564700  1.0  -0.6538
  O  O462  1  0.675750  0.035980  0.690920  1.0  -0.6705
  O  O463  1  0.863900  0.778760  0.660560  1.0  -0.6082
  O  O464  1  0.817500  0.713100  0.580500  1.0  -0.5063
  O  O465  1  0.179770  0.697740  0.685300  1.0  -0.654
  O  O466  1  0.175750  0.714020  0.559080  1.0  -0.6712
  O  O467  1  0.363900  0.971240  0.589440  1.0  -0.6088
  O  O468  1  0.317500  0.036900  0.669500  1.0  -0.5062
  O  O469  1  0.179770  0.197740  0.185300  1.0  -0.654
  O  O470  1  0.175750  0.214020  0.059080  1.0  -0.6712
  O  O471  1  0.363900  0.471240  0.089440  1.0  -0.6088
  O  O472  1  0.317500  0.536900  0.169500  1.0  -0.5062
  O  O473  1  0.679770  0.697740  0.185300  1.0  -0.654
  O  O474  1  0.675750  0.714020  0.059080  1.0  -0.6712
  O  O475  1  0.863900  0.971240  0.089440  1.0  -0.6088
  O  O476  1  0.817500  0.036900  0.169500  1.0  -0.5062
  O  O477  1  0.679770  0.197740  0.685300  1.0  -0.654
  O  O478  1  0.675750  0.214020  0.559080  1.0  -0.6712
  O  O479  1  0.863900  0.471240  0.589440  1.0  -0.6088
  O  O480  1  0.817500  0.536900  0.669500  1.0  -0.5062
  O  O481  1  0.070230  0.552260  0.685300  1.0  -0.6539
  O  O482  1  0.074250  0.535980  0.559080  1.0  -0.671
  O  O483  1  0.886100  0.278760  0.589440  1.0  -0.6078
  O  O484  1  0.932500  0.213100  0.669500  1.0  -0.5057
  O  O485  1  0.070230  0.052260  0.185300  1.0  -0.654
  O  O486  1  0.074250  0.035980  0.059080  1.0  -0.671
  O  O487  1  0.886100  0.778760  0.089440  1.0  -0.6078
  O  O488  1  0.932500  0.713100  0.169500  1.0  -0.5057
  O  O489  1  0.570230  0.552260  0.185300  1.0  -0.6539
  O  O490  1  0.574250  0.535980  0.059080  1.0  -0.671
  O  O491  1  0.386100  0.278760  0.089440  1.0  -0.6078
  O  O492  1  0.432500  0.213100  0.169500  1.0  -0.5057
  O  O493  1  0.570230  0.052260  0.685300  1.0  -0.654
  O  O494  1  0.574250  0.035980  0.559080  1.0  -0.671
  O  O495  1  0.386100  0.778760  0.589440  1.0  -0.6078
  O  O496  1  0.432500  0.713100  0.669500  1.0  -0.5057
