# generated using pymatgen
data_U3P4H8(CO)12
_symmetry_space_group_name_H-M   'P 1'
_cell_length_a   9.79320000
_cell_length_b   10.65920000
_cell_length_c   17.56430000
_cell_angle_alpha   83.84600000
_cell_angle_beta   86.31800000
_cell_angle_gamma   65.18400000
_symmetry_Int_Tables_number   1
_chemical_formula_structural   U3P4H8(CO)12
_chemical_formula_sum   'U6 P8 H16 C24 O24'
_cell_volume   1654.22629007
_cell_formula_units_Z   2
loop_
 _symmetry_equiv_pos_site_id
 _symmetry_equiv_pos_as_xyz
  1  'x, y, z'
loop_
 _atom_site_type_symbol
 _atom_site_label
 _atom_site_symmetry_multiplicity
 _atom_site_fract_x
 _atom_site_fract_y
 _atom_site_fract_z
 _atom_site_occupancy
 _atom_site_charge
  U  U1  1  0.942800  0.185450  0.751100  1.0  1.8702
  U  U2  1  0.313030  0.288990  0.749610  1.0  2.0215
  U  U3  1  0.624900  0.739170  0.751040  1.0  1.86
  U  U4  1  0.057200  0.814550  0.248900  1.0  1.8696
  U  U5  1  0.686970  0.711010  0.250390  1.0  2.0214
  U  U6  1  0.375100  0.260830  0.248960  1.0  1.8602
  P  P7  1  0.686300  0.020600  0.812880  1.0  1.5874
  P  P8  1  0.006500  0.503800  0.680740  1.0  1.5432
  P  P9  1  0.754700  0.026600  0.171830  1.0  1.488
  P  P10  1  0.575500  0.451700  0.678350  1.0  1.5222
  P  P11  1  0.313700  0.979400  0.187120  1.0  1.5889
  P  P12  1  0.993500  0.496200  0.319260  1.0  1.5418
  P  P13  1  0.245300  0.973400  0.828170  1.0  1.4873
  P  P14  1  0.424500  0.548300  0.321650  1.0  1.517
  H  H15  1  0.493000  0.163800  0.934900  1.0  0.0897
  H  H16  1  0.926500  0.904500  0.919000  1.0  0.0964
  H  H17  1  0.880000  0.707500  0.556000  1.0  0.0943
  H  H18  1  0.123000  0.289900  0.575400  1.0  0.1112
  H  H19  1  0.943400  0.891300  0.049100  1.0  0.0765
  H  H20  1  0.519300  0.169200  0.063100  1.0  0.0917
  H  H21  1  0.310400  0.517800  0.591100  1.0  0.0815
  H  H22  1  0.747400  0.437900  0.537700  1.0  0.0919
  H  H23  1  0.507000  0.836200  0.065100  1.0  0.0905
  H  H24  1  0.073500  0.095500  0.081000  1.0  0.0972
  H  H25  1  0.120000  0.292500  0.444000  1.0  0.0929
  H  H26  1  0.877000  0.710100  0.424600  1.0  0.112
  H  H27  1  0.056600  0.108700  0.950900  1.0  0.0768
  H  H28  1  0.480700  0.830800  0.936900  1.0  0.0919
  H  H29  1  0.689600  0.482200  0.408900  1.0  0.0818
  H  H30  1  0.252600  0.562100  0.462300  1.0  0.0921
  C  C31  1  0.587900  0.109200  0.957500  1.0  -0.0947
  C  C32  1  0.705400  0.031900  0.912400  1.0  -0.1798
  C  C33  1  0.839700  0.955000  0.948500  1.0  -0.1259
  C  C34  1  0.928900  0.622400  0.533200  1.0  -0.0692
  C  C35  1  0.999300  0.499700  0.581100  1.0  -0.2696
  C  C36  1  0.072700  0.375200  0.545400  1.0  -0.147
  C  C37  1  0.850600  0.951000  0.026000  1.0  -0.0937
  C  C38  1  0.736000  0.028200  0.071400  1.0  -0.1238
  C  C39  1  0.602800  0.110300  0.034300  1.0  -0.0788
  C  C40  1  0.388000  0.510100  0.554100  1.0  -0.044
  C  C41  1  0.534900  0.471200  0.579100  1.0  -0.2254
  C  C42  1  0.647200  0.462600  0.522800  1.0  -0.0597
  C  C43  1  0.412100  0.890800  0.042500  1.0  -0.0959
  C  C44  1  0.294600  0.968100  0.087600  1.0  -0.1807
  C  C45  1  0.160300  0.045000  0.051500  1.0  -0.1257
  C  C46  1  0.071100  0.377600  0.466800  1.0  -0.069
  C  C47  1  0.000700  0.500300  0.418900  1.0  -0.274
  C  C48  1  0.927300  0.624800  0.454600  1.0  -0.1466
  C  C49  1  0.149400  0.049000  0.974000  1.0  -0.0929
  C  C50  1  0.264000  0.971800  0.928600  1.0  -0.1288
  C  C51  1  0.397200  0.889700  0.965700  1.0  -0.0778
  C  C52  1  0.612000  0.489900  0.445900  1.0  -0.045
  C  C53  1  0.465100  0.528800  0.420900  1.0  -0.2261
  C  C54  1  0.352800  0.537400  0.477200  1.0  -0.0602
  O  O55  1  0.793900  0.067600  0.765700  1.0  -0.9398
  O  O56  1  0.722100  0.869100  0.804300  1.0  -0.8907
  O  O57  1  0.523500  0.112300  0.793300  1.0  -0.949
  O  O58  1  0.035300  0.358900  0.720300  1.0  -0.95
  O  O59  1  0.145400  0.523900  0.699400  1.0  -0.8679
  O  O60  1  0.862100  0.617300  0.705000  1.0  -0.9324
  O  O61  1  0.787400  0.877900  0.209200  1.0  -0.9946
  O  O62  1  0.898300  0.042700  0.186400  1.0  -0.8646
  O  O63  1  0.612700  0.138300  0.202400  1.0  -0.9435
  O  O64  1  0.740500  0.351900  0.688400  1.0  -0.9292
  O  O65  1  0.471800  0.399000  0.724900  1.0  -0.9205
  O  O66  1  0.546700  0.598100  0.698800  1.0  -0.9255
  O  O67  1  0.206100  0.932400  0.234300  1.0  -0.9397
  O  O68  1  0.277900  0.130900  0.195700  1.0  -0.8901
  O  O69  1  0.476500  0.887700  0.206700  1.0  -0.9479
  O  O70  1  0.964700  0.641100  0.279700  1.0  -0.9502
  O  O71  1  0.854600  0.476100  0.300600  1.0  -0.8656
  O  O72  1  0.137900  0.382700  0.295000  1.0  -0.9348
  O  O73  1  0.212600  0.122100  0.790800  1.0  -0.9951
  O  O74  1  0.101700  0.957300  0.813600  1.0  -0.8622
  O  O75  1  0.387300  0.861700  0.797600  1.0  -0.9428
  O  O76  1  0.259500  0.648100  0.311600  1.0  -0.9292
  O  O77  1  0.528200  0.601000  0.275100  1.0  -0.9222
  O  O78  1  0.453300  0.401900  0.301200  1.0  -0.925
