# generated using pymatgen
data_UP3H9(CO)9
_symmetry_space_group_name_H-M   'P 1'
_cell_length_a   8.81050000
_cell_length_b   12.00840000
_cell_length_c   12.34930000
_cell_angle_alpha   63.51800000
_cell_angle_beta   89.23300000
_cell_angle_gamma   89.59000000
_symmetry_Int_Tables_number   1
_chemical_formula_structural   UP3H9(CO)9
_chemical_formula_sum   'U2 P6 H18 C18 O18'
_cell_volume   1169.35917623
_cell_formula_units_Z   2
loop_
 _symmetry_equiv_pos_site_id
 _symmetry_equiv_pos_as_xyz
  1  'x, y, z'
loop_
 _atom_site_type_symbol
 _atom_site_label
 _atom_site_symmetry_multiplicity
 _atom_site_fract_x
 _atom_site_fract_y
 _atom_site_fract_z
 _atom_site_occupancy
 _atom_site_charge
  U  U1  1  0.979510  0.550220  0.727840  1.0  1.9395
  U  U2  1  0.020490  0.449780  0.272160  1.0  1.9469
  P  P3  1  0.824000  0.865290  0.576940  1.0  1.5212
  P  P4  1  0.826400  0.627120  0.419640  1.0  1.5054
  P  P5  1  0.826300  0.627000  0.970230  1.0  1.5251
  P  P6  1  0.176000  0.134710  0.423060  1.0  1.5122
  P  P7  1  0.173600  0.372880  0.580360  1.0  1.51
  P  P8  1  0.173700  0.373000  0.029770  1.0  1.5249
  H  H9  1  0.960400  0.978500  0.609300  1.0  0.4152
  H  H10  1  0.720700  0.116300  0.459400  1.0  0.1129
  H  H11  1  0.508400  0.786300  0.600200  1.0  0.0993
  H  H12  1  0.835600  0.804500  0.394000  1.0  0.4116
  H  H13  1  0.618800  0.511000  0.326500  1.0  0.0974
  H  H14  1  0.618800  0.579100  0.616600  1.0  0.0972
  H  H15  1  0.834400  0.798400  0.832400  1.0  0.4166
  H  H16  1  0.580300  0.646300  0.811100  1.0  0.1041
  H  H17  1  0.651800  0.445200  0.167200  1.0  0.1003
  H  H18  1  0.039600  0.021500  0.390700  1.0  0.4166
  H  H19  1  0.279300  0.883700  0.540600  1.0  0.1134
  H  H20  1  0.491600  0.213700  0.399800  1.0  0.0986
  H  H21  1  0.164400  0.195500  0.606000  1.0  0.4119
  H  H22  1  0.381200  0.489000  0.673500  1.0  0.0965
  H  H23  1  0.381200  0.420900  0.383400  1.0  0.0971
  H  H24  1  0.165600  0.201600  0.167600  1.0  0.4157
  H  H25  1  0.419700  0.353700  0.188900  1.0  0.1042
  H  H26  1  0.348200  0.554800  0.832800  1.0  0.1008
  C  C27  1  0.640600  0.939400  0.536600  1.0  -0.3533
  C  C28  1  0.632400  0.069200  0.475800  1.0  -0.0755
  C  C29  1  0.505100  0.872700  0.559600  1.0  -0.0434
  C  C30  1  0.642400  0.558200  0.463700  1.0  -0.2445
  C  C31  1  0.571300  0.507600  0.395600  1.0  -0.0494
  C  C32  1  0.570900  0.548100  0.569100  1.0  -0.0481
  C  C33  1  0.642600  0.556100  0.988400  1.0  -0.3196
  C  C34  1  0.547900  0.587600  0.887100  1.0  -0.0667
  C  C35  1  0.590800  0.467600  0.099800  1.0  -0.0483
  C  C36  1  0.359400  0.060600  0.463400  1.0  -0.3514
  C  C37  1  0.367600  0.930800  0.524200  1.0  -0.0729
  C  C38  1  0.494900  0.127300  0.440400  1.0  -0.0473
  C  C39  1  0.357600  0.441800  0.536300  1.0  -0.2427
  C  C40  1  0.428700  0.492400  0.604400  1.0  -0.0464
  C  C41  1  0.429100  0.451900  0.430900  1.0  -0.0497
  C  C42  1  0.357400  0.443900  0.011600  1.0  -0.3185
  C  C43  1  0.452100  0.412400  0.112900  1.0  -0.0658
  C  C44  1  0.409200  0.532400  0.900200  1.0  -0.0491
  O  O45  1  0.804500  0.728400  0.654500  1.0  -0.8619
  O  O46  1  0.909600  0.899700  0.459700  1.0  -0.7332
  O  O47  1  0.903100  0.922600  0.653100  1.0  -0.6437
  O  O48  1  0.923100  0.598400  0.527900  1.0  -0.8894
  O  O49  1  0.796200  0.772300  0.355100  1.0  -0.6624
  O  O50  1  0.888400  0.592200  0.325300  1.0  -0.938
  O  O51  1  0.928200  0.594300  0.891000  1.0  -0.8504
  O  O52  1  0.884900  0.598300  0.094500  1.0  -0.87
  O  O53  1  0.796700  0.771200  0.900400  1.0  -0.6538
  O  O54  1  0.195500  0.271600  0.345500  1.0  -0.8617
  O  O55  1  0.090400  0.100300  0.540300  1.0  -0.7346
  O  O56  1  0.096900  0.077400  0.346900  1.0  -0.6438
  O  O57  1  0.076900  0.401600  0.472100  1.0  -0.891
  O  O58  1  0.203800  0.227700  0.644900  1.0  -0.6612
  O  O59  1  0.111600  0.407800  0.674700  1.0  -0.9393
  O  O60  1  0.071800  0.405700  0.109000  1.0  -0.8487
  O  O61  1  0.115100  0.401700  0.905500  1.0  -0.8679
  O  O62  1  0.203300  0.228800  0.099600  1.0  -0.6514
