# generated using pymatgen
data_U3P4H8(CO)12
_symmetry_space_group_name_H-M   'P 1'
_cell_length_a   9.80510000
_cell_length_b   19.56960000
_cell_length_c   17.33900000
_cell_angle_alpha   90.00000000
_cell_angle_beta   92.01500000
_cell_angle_gamma   90.00000000
_symmetry_Int_Tables_number   1
_chemical_formula_structural   U3P4H8(CO)12
_chemical_formula_sum   'U12 P16 H32 C48 O48'
_cell_volume   3324.98274844
_cell_formula_units_Z   4
loop_
 _symmetry_equiv_pos_site_id
 _symmetry_equiv_pos_as_xyz
  1  'x, y, z'
loop_
 _atom_site_type_symbol
 _atom_site_label
 _atom_site_symmetry_multiplicity
 _atom_site_fract_x
 _atom_site_fract_y
 _atom_site_fract_z
 _atom_site_occupancy
 _atom_site_charge
  U  U1  1  0.714220  0.258370  0.011970  1.0  2.0633
  U  U2  1  0.292200  0.237070  0.964060  1.0  1.9683
  U  U3  1  0.252870  0.365710  0.242350  1.0  1.8292
  U  U4  1  0.785780  0.758370  0.488030  1.0  2.0624
  U  U5  1  0.207800  0.737070  0.535940  1.0  1.9666
  U  U6  1  0.247130  0.865710  0.257650  1.0  1.8296
  U  U7  1  0.285780  0.741630  0.988030  1.0  2.0625
  U  U8  1  0.707800  0.762930  0.035940  1.0  1.9668
  U  U9  1  0.747130  0.634290  0.757650  1.0  1.8286
  U  U10  1  0.214220  0.241630  0.511970  1.0  2.0634
  U  U11  1  0.792200  0.262930  0.464060  1.0  1.9683
  U  U12  1  0.752870  0.134290  0.742350  1.0  1.8284
  P  P13  1  0.508500  0.357690  0.086870  1.0  1.4686
  P  P14  1  0.495200  0.133060  0.895350  1.0  1.4365
  P  P15  1  0.961700  0.145670  0.916340  1.0  1.4998
  P  P16  1  0.045800  0.347120  0.062970  1.0  1.548
  P  P17  1  0.991500  0.857690  0.413130  1.0  1.4659
  P  P18  1  0.004800  0.633060  0.604650  1.0  1.4365
  P  P19  1  0.538300  0.645670  0.583660  1.0  1.5008
  P  P20  1  0.454200  0.847120  0.437030  1.0  1.547
  P  P21  1  0.491500  0.642310  0.913130  1.0  1.4636
  P  P22  1  0.504800  0.866940  0.104650  1.0  1.4389
  P  P23  1  0.038300  0.854330  0.083660  1.0  1.499
  P  P24  1  0.954200  0.652880  0.937030  1.0  1.5486
  P  P25  1  0.008500  0.142310  0.586870  1.0  1.4655
  P  P26  1  0.995200  0.366940  0.395350  1.0  1.4384
  P  P27  1  0.461700  0.354330  0.416340  1.0  1.4964
  P  P28  1  0.545800  0.152880  0.562970  1.0  1.5493
  H  H29  1  0.517500  0.399000  0.928700  1.0  0.1135
  H  H30  1  0.480000  0.497000  0.132800  1.0  0.0976
  H  H31  1  0.496500  0.106900  0.060600  1.0  0.1051
  H  H32  1  0.508200  0.991100  0.865400  1.0  0.1045
  H  H33  1  0.188600  0.052800  0.947700  1.0  0.0882
  H  H34  1  0.787000  0.054300  0.993100  1.0  0.0852
  H  H35  1  0.213800  0.448800  0.998000  1.0  0.082
  H  H36  1  0.812200  0.437300  0.040300  1.0  0.0963
  H  H37  1  0.982500  0.899000  0.571300  1.0  0.1135
  H  H38  1  0.020000  0.997000  0.367200  1.0  0.0988
  H  H39  1  0.003500  0.606900  0.439400  1.0  0.1062
  H  H40  1  0.991800  0.491100  0.634600  1.0  0.1048
  H  H41  1  0.311400  0.552800  0.552300  1.0  0.0891
  H  H42  1  0.713000  0.554300  0.506900  1.0  0.085
  H  H43  1  0.286200  0.948800  0.502000  1.0  0.0823
  H  H44  1  0.687800  0.937300  0.459700  1.0  0.0958
  H  H45  1  0.482500  0.601000  0.071300  1.0  0.1133
  H  H46  1  0.520000  0.503000  0.867200  1.0  0.0987
  H  H47  1  0.503500  0.893100  0.939400  1.0  0.1061
  H  H48  1  0.491800  0.008900  0.134600  1.0  0.1044
  H  H49  1  0.811400  0.947200  0.052300  1.0  0.0891
  H  H50  1  0.213000  0.945700  0.006900  1.0  0.085
  H  H51  1  0.786200  0.551200  0.002000  1.0  0.0821
  H  H52  1  0.187800  0.562700  0.959700  1.0  0.0958
  H  H53  1  0.017500  0.101000  0.428700  1.0  0.1136
  H  H54  1  0.980000  0.003000  0.632800  1.0  0.0979
  H  H55  1  0.996500  0.393100  0.560600  1.0  0.1052
  H  H56  1  0.008200  0.508900  0.365400  1.0  0.1048
  H  H57  1  0.688600  0.447200  0.447700  1.0  0.0885
  H  H58  1  0.287000  0.445700  0.493100  1.0  0.0851
  H  H59  1  0.713800  0.051200  0.498000  1.0  0.0821
  H  H60  1  0.312200  0.062700  0.540300  1.0  0.096
  C  C61  1  0.494300  0.437400  0.037100  1.0  -0.3021
  C  C62  1  0.509500  0.440000  0.957500  1.0  -0.0751
  C  C63  1  0.505300  0.058800  0.954900  1.0  -0.319
  C  C64  1  0.487200  0.498500  0.078300  1.0  -0.0466
  C  C65  1  0.498400  0.063400  0.036400  1.0  -0.0653
  C  C66  1  0.505400  0.994500  0.919900  1.0  -0.0713
  C  C67  1  0.986600  0.066000  0.967700  1.0  -0.2089
  C  C68  1  0.111700  0.031800  0.969700  1.0  -0.0333
  C  C69  1  0.874100  0.033000  0.996400  1.0  -0.0866
  C  C70  1  0.014500  0.432300  0.025700  1.0  -0.1665
  C  C71  1  0.126600  0.469800  0.999400  1.0  -0.0472
  C  C72  1  0.889300  0.462500  0.024600  1.0  -0.0447
  C  C73  1  0.005700  0.937400  0.462900  1.0  -0.3026
  C  C74  1  0.990500  0.940000  0.542500  1.0  -0.0766
  C  C75  1  0.994700  0.558800  0.545100  1.0  -0.3198
  C  C76  1  0.012800  0.998500  0.421700  1.0  -0.0449
  C  C77  1  0.001600  0.563400  0.463600  1.0  -0.066
  C  C78  1  0.994600  0.494500  0.580100  1.0  -0.0791
  C  C79  1  0.513400  0.566000  0.532300  1.0  -0.2091
  C  C80  1  0.388300  0.531800  0.530300  1.0  -0.035
  C  C81  1  0.625900  0.533000  0.503600  1.0  -0.0862
  C  C82  1  0.485500  0.932300  0.474300  1.0  -0.1663
  C  C83  1  0.373400  0.969800  0.500600  1.0  -0.0461
  C  C84  1  0.610700  0.962500  0.475400  1.0  -0.0439
  C  C85  1  0.505700  0.562600  0.962900  1.0  -0.3034
  C  C86  1  0.490500  0.560000  0.042500  1.0  -0.0762
  C  C87  1  0.494700  0.941200  0.045100  1.0  -0.32
  C  C88  1  0.512800  0.501500  0.921700  1.0  -0.0439
  C  C89  1  0.501600  0.936600  0.963600  1.0  -0.0678
  C  C90  1  0.494600  0.005500  0.080100  1.0  -0.08
  C  C91  1  0.013400  0.934000  0.032300  1.0  -0.2086
  C  C92  1  0.888300  0.968200  0.030300  1.0  -0.0353
  C  C93  1  0.125900  0.967000  0.003600  1.0  -0.0862
  C  C94  1  0.985500  0.567700  0.974300  1.0  -0.1665
  C  C95  1  0.873400  0.530200  0.000600  1.0  -0.0479
  C  C96  1  0.110700  0.537500  0.975400  1.0  -0.0439
  C  C97  1  0.994300  0.062600  0.537100  1.0  -0.3032
  C  C98  1  0.009500  0.060000  0.457500  1.0  -0.0734
  C  C99  1  0.005300  0.441200  0.454900  1.0  -0.3198
  C  C100  1  0.987200  0.001500  0.578300  1.0  -0.0474
  C  C101  1  0.998400  0.436600  0.536400  1.0  -0.0663
  C  C102  1  0.005400  0.505500  0.419900  1.0  -0.0735
  C  C103  1  0.486600  0.434000  0.467700  1.0  -0.2083
  C  C104  1  0.611700  0.468200  0.469700  1.0  -0.0338
  C  C105  1  0.374100  0.467000  0.496400  1.0  -0.0858
  C  C106  1  0.514500  0.067700  0.525700  1.0  -0.1664
  C  C107  1  0.626600  0.030200  0.499400  1.0  -0.0484
  C  C108  1  0.389300  0.037500  0.524600  1.0  -0.045
  O  O109  1  0.660000  0.346400  0.106700  1.0  -0.8589
  O  O110  1  0.471000  0.300400  0.029100  1.0  -0.9475
  O  O111  1  0.421000  0.358400  0.156600  1.0  -0.9576
  O  O112  1  0.536000  0.194700  0.946700  1.0  -0.9562
  O  O113  1  0.344600  0.145300  0.873300  1.0  -0.8593
  O  O114  1  0.585200  0.121700  0.827000  1.0  -0.9383
  O  O115  1  0.088600  0.189500  0.920300  1.0  -0.9534
  O  O116  1  0.926300  0.124600  0.832300  1.0  -0.8526
  O  O117  1  0.841200  0.180500  0.951400  1.0  -0.9481
  O  O118  1  0.089200  0.356400  0.147800  1.0  -0.9288
  O  O119  1  0.919100  0.303800  0.055500  1.0  -0.961
  O  O120  1  0.162900  0.317500  0.019600  1.0  -0.9487
  O  O121  1  0.840000  0.846400  0.393300  1.0  -0.8564
  O  O122  1  0.029000  0.800400  0.470900  1.0  -0.9484
  O  O123  1  0.079000  0.858400  0.343400  1.0  -0.9606
  O  O124  1  0.964000  0.694700  0.553300  1.0  -0.9563
  O  O125  1  0.155400  0.645300  0.626700  1.0  -0.8593
  O  O126  1  0.914800  0.621700  0.673000  1.0  -0.9381
  O  O127  1  0.411400  0.689500  0.579700  1.0  -0.9536
  O  O128  1  0.573700  0.624600  0.667700  1.0  -0.8504
  O  O129  1  0.658800  0.680500  0.548600  1.0  -0.9476
  O  O130  1  0.410800  0.856400  0.352200  1.0  -0.9297
  O  O131  1  0.580900  0.803800  0.444500  1.0  -0.9615
  O  O132  1  0.337100  0.817500  0.480400  1.0  -0.9485
  O  O133  1  0.340000  0.653600  0.893300  1.0  -0.8573
  O  O134  1  0.529000  0.699600  0.970900  1.0  -0.9494
  O  O135  1  0.579000  0.641600  0.843400  1.0  -0.9608
  O  O136  1  0.464000  0.805300  0.053300  1.0  -0.9545
  O  O137  1  0.655400  0.854700  0.126700  1.0  -0.8598
  O  O138  1  0.414800  0.878300  0.173000  1.0  -0.9382
  O  O139  1  0.911400  0.810500  0.079700  1.0  -0.9531
  O  O140  1  0.073700  0.875400  0.167700  1.0  -0.8503
  O  O141  1  0.158800  0.819500  0.048600  1.0  -0.9458
  O  O142  1  0.910800  0.643600  0.852200  1.0  -0.9303
  O  O143  1  0.080900  0.696200  0.944500  1.0  -0.9613
  O  O144  1  0.837100  0.682500  0.980400  1.0  -0.9502
  O  O145  1  0.160000  0.153600  0.606700  1.0  -0.8591
  O  O146  1  0.971000  0.199600  0.529100  1.0  -0.9489
  O  O147  1  0.921000  0.141600  0.656600  1.0  -0.9579
  O  O148  1  0.036000  0.305300  0.446700  1.0  -0.9549
  O  O149  1  0.844600  0.354700  0.373300  1.0  -0.859
  O  O150  1  0.085200  0.378300  0.327000  1.0  -0.9383
  O  O151  1  0.588600  0.310500  0.420300  1.0  -0.9541
  O  O152  1  0.426300  0.375400  0.332300  1.0  -0.8522
  O  O153  1  0.341200  0.319500  0.451400  1.0  -0.9464
  O  O154  1  0.589200  0.143600  0.647800  1.0  -0.9296
  O  O155  1  0.419100  0.196200  0.555500  1.0  -0.9609
  O  O156  1  0.662900  0.182500  0.519600  1.0  -0.9495
