# generated using pymatgen
data_VGa2(PO4)3
_symmetry_space_group_name_H-M   'P 1'
_cell_length_a   9.09700000
_cell_length_b   16.99400000
_cell_length_c   9.64410000
_cell_angle_alpha   90.00000000
_cell_angle_beta   103.45600000
_cell_angle_gamma   90.00000000
_symmetry_Int_Tables_number   1
_chemical_formula_structural   VGa2(PO4)3
_chemical_formula_sum   'V4 Ga8 P12 O48'
_cell_volume   1449.99653227
_cell_formula_units_Z   4
loop_
 _symmetry_equiv_pos_site_id
 _symmetry_equiv_pos_as_xyz
  1  'x, y, z'
loop_
 _atom_site_type_symbol
 _atom_site_label
 _atom_site_symmetry_multiplicity
 _atom_site_fract_x
 _atom_site_fract_y
 _atom_site_fract_z
 _atom_site_occupancy
 _atom_site_charge
  V  V1  1  0.314400  0.003170  0.165340  1.0  1.266
  V  V2  1  0.685600  0.503170  0.334660  1.0  1.2662
  V  V3  1  0.685600  0.996830  0.834660  1.0  1.2663
  V  V4  1  0.314400  0.496830  0.665340  1.0  1.2661
  Ga  Ga5  1  0.797410  0.776570  0.075930  1.0  1.6687
  Ga  Ga6  1  0.215940  0.765700  0.963330  1.0  1.6136
  Ga  Ga7  1  0.202590  0.276570  0.424070  1.0  1.6676
  Ga  Ga8  1  0.784060  0.265700  0.536670  1.0  1.6144
  Ga  Ga9  1  0.202590  0.223430  0.924070  1.0  1.6674
  Ga  Ga10  1  0.784060  0.234300  0.036670  1.0  1.6142
  Ga  Ga11  1  0.797410  0.723430  0.575930  1.0  1.6688
  Ga  Ga12  1  0.215940  0.734300  0.463330  1.0  1.6136
  P  P13  1  0.499370  0.870340  0.008130  1.0  1.9042
  P  P14  1  0.892710  0.837720  0.814600  1.0  1.9276
  P  P15  1  0.109170  0.845110  0.214010  1.0  1.8895
  P  P16  1  0.500630  0.370340  0.491870  1.0  1.9043
  P  P17  1  0.107290  0.337720  0.685400  1.0  1.9283
  P  P18  1  0.890830  0.345110  0.285990  1.0  1.8882
  P  P19  1  0.500630  0.129660  0.991870  1.0  1.9039
  P  P20  1  0.107290  0.162280  0.185400  1.0  1.9282
  P  P21  1  0.890830  0.154890  0.785990  1.0  1.8885
  P  P22  1  0.499370  0.629660  0.508130  1.0  1.9038
  P  P23  1  0.892710  0.662280  0.314600  1.0  1.9281
  P  P24  1  0.109170  0.654890  0.714010  1.0  1.8901
  O  O25  1  0.439100  0.917200  0.115300  1.0  -0.862
  O  O26  1  0.373100  0.818400  0.917400  1.0  -0.8296
  O  O27  1  0.565400  0.916700  0.905600  1.0  -0.8772
  O  O28  1  0.618500  0.813800  0.097800  1.0  -0.8529
  O  O29  1  0.824500  0.774000  0.895500  1.0  -0.8639
  O  O30  1  0.851400  0.919600  0.849300  1.0  -0.835
  O  O31  1  0.832600  0.821100  0.655500  1.0  -0.8396
  O  O32  1  0.064900  0.832000  0.852500  1.0  -0.8326
  O  O33  1  0.934900  0.845600  0.180200  1.0  -0.8876
  O  O34  1  0.164300  0.777600  0.133300  1.0  -0.9203
  O  O35  1  0.168200  0.829100  0.373500  1.0  -0.8388
  O  O36  1  0.156500  0.925000  0.176000  1.0  -0.8317
  O  O37  1  0.560900  0.417200  0.384700  1.0  -0.862
  O  O38  1  0.626900  0.318400  0.582600  1.0  -0.8301
  O  O39  1  0.434600  0.416700  0.594400  1.0  -0.8765
  O  O40  1  0.381500  0.313800  0.402200  1.0  -0.8499
  O  O41  1  0.175500  0.274000  0.604500  1.0  -0.8634
  O  O42  1  0.148600  0.419600  0.650700  1.0  -0.8343
  O  O43  1  0.167400  0.321100  0.844500  1.0  -0.8396
  O  O44  1  0.935100  0.332000  0.647500  1.0  -0.8344
  O  O45  1  0.065100  0.345600  0.319800  1.0  -0.8879
  O  O46  1  0.835700  0.277600  0.366700  1.0  -0.9209
  O  O47  1  0.831800  0.329100  0.126500  1.0  -0.84
  O  O48  1  0.843500  0.425000  0.324000  1.0  -0.8324
  O  O49  1  0.560900  0.082800  0.884700  1.0  -0.8617
  O  O50  1  0.626900  0.181600  0.082600  1.0  -0.8299
  O  O51  1  0.434600  0.083300  0.094400  1.0  -0.8757
  O  O52  1  0.381500  0.186200  0.902200  1.0  -0.8502
  O  O53  1  0.175500  0.226000  0.104500  1.0  -0.8627
  O  O54  1  0.148600  0.080400  0.150700  1.0  -0.8341
  O  O55  1  0.167400  0.178900  0.344500  1.0  -0.8403
  O  O56  1  0.935100  0.168000  0.147500  1.0  -0.8338
  O  O57  1  0.065100  0.154400  0.819800  1.0  -0.8881
  O  O58  1  0.835700  0.222400  0.866700  1.0  -0.9217
  O  O59  1  0.831800  0.170900  0.626500  1.0  -0.8381
  O  O60  1  0.843500  0.075000  0.824000  1.0  -0.8302
  O  O61  1  0.439100  0.582800  0.615300  1.0  -0.8615
  O  O62  1  0.373100  0.681600  0.417400  1.0  -0.8291
  O  O63  1  0.565400  0.583300  0.405600  1.0  -0.8766
  O  O64  1  0.618500  0.686200  0.597800  1.0  -0.8525
  O  O65  1  0.824500  0.726000  0.395500  1.0  -0.8633
  O  O66  1  0.851400  0.580400  0.349300  1.0  -0.8343
  O  O67  1  0.832600  0.678900  0.155500  1.0  -0.8394
  O  O68  1  0.064900  0.668000  0.352500  1.0  -0.8326
  O  O69  1  0.934900  0.654400  0.680200  1.0  -0.8876
  O  O70  1  0.164300  0.722400  0.633300  1.0  -0.9212
  O  O71  1  0.168200  0.670900  0.873500  1.0  -0.8403
  O  O72  1  0.156500  0.575000  0.676000  1.0  -0.8304
