# generated using pymatgen
data_Zn3B2H32C40(N2O)8
_symmetry_space_group_name_H-M   'P 1'
_cell_length_a   12.48950000
_cell_length_b   12.48950000
_cell_length_c   18.25400000
_cell_angle_alpha   98.75670000
_cell_angle_beta   98.75670000
_cell_angle_gamma   116.37800000
_symmetry_Int_Tables_number   1
_chemical_formula_structural   Zn3B2H32C40(N2O)8
_chemical_formula_sum   'Zn6 B4 H64 C80 N32 O16'
_cell_volume   2442.22675540
_cell_formula_units_Z   2
loop_
 _symmetry_equiv_pos_site_id
 _symmetry_equiv_pos_as_xyz
  1  'x, y, z'
loop_
 _atom_site_type_symbol
 _atom_site_label
 _atom_site_symmetry_multiplicity
 _atom_site_fract_x
 _atom_site_fract_y
 _atom_site_fract_z
 _atom_site_occupancy
 _atom_site_charge
  Zn  Zn1  1  0.202230  0.336250  0.959480  1.0  0.884
  Zn  Zn2  1  0.663750  0.797770  0.540520  1.0  0.8839
  Zn  Zn3  1  0.797770  0.663750  0.040520  1.0  0.8829
  Zn  Zn4  1  0.336250  0.202230  0.459480  1.0  0.884
  Zn  Zn5  1  0.763760  0.236240  0.250000  1.0  0.9203
  Zn  Zn6  1  0.236240  0.763760  0.750000  1.0  0.9229
  B  B7  1  0.711500  0.034300  0.945300  1.0  0.4854
  B  B8  1  0.965700  0.288500  0.554700  1.0  0.4858
  B  B9  1  0.288500  0.965700  0.054700  1.0  0.4854
  B  B10  1  0.034300  0.711500  0.445300  1.0  0.4861
  H  H11  1  0.805000  0.977000  0.819000  1.0  0.1109
  H  H12  1  0.020000  0.108000  0.812000  1.0  0.1203
  H  H13  1  0.947000  0.233000  0.005000  1.0  0.082
  H  H14  1  0.584000  0.712000  0.064000  1.0  0.1123
  H  H15  1  0.550000  0.880000  0.026000  1.0  0.0891
  H  H16  1  0.824000  0.876000  0.954000  1.0  0.0876
  H  H17  1  0.768000  0.082000  0.103000  1.0  0.0712
  H  H18  1  0.756000  0.378000  0.098000  1.0  0.1157
  H  H19  1  0.698000  0.256000  0.963000  1.0  0.1244
  H  H20  1  0.671000  0.113000  0.820000  1.0  0.132
  H  H21  1  0.464000  0.000000  0.722000  1.0  0.1096
  H  H22  1  0.472000  0.844000  0.884000  1.0  0.0414
  H  H23  1  0.193000  0.419000  0.246000  1.0  0.0979
  H  H24  1  0.420000  0.670000  0.142000  1.0  0.098
  H  H25  1  0.271000  0.363000  0.676000  1.0  0.0907
  H  H26  1  0.497000  0.597000  0.881000  1.0  0.0898
  H  H27  1  0.023000  0.195000  0.681000  1.0  0.1155
  H  H28  1  0.892000  0.980000  0.688000  1.0  0.1209
  H  H29  1  0.767000  0.053000  0.495000  1.0  0.0822
  H  H30  1  0.288000  0.416000  0.436000  1.0  0.1109
  H  H31  1  0.120000  0.450000  0.474000  1.0  0.0879
  H  H32  1  0.124000  0.176000  0.546000  1.0  0.0883
  H  H33  1  0.918000  0.232000  0.397000  1.0  0.072
  H  H34  1  0.622000  0.244000  0.402000  1.0  0.1156
  H  H35  1  0.744000  0.302000  0.537000  1.0  0.1232
  H  H36  1  0.887000  0.329000  0.680000  1.0  0.1249
  H  H37  1  0.000000  0.536000  0.778000  1.0  0.1087
  H  H38  1  0.156000  0.528000  0.616000  1.0  0.0318
  H  H39  1  0.581000  0.807000  0.254000  1.0  0.0979
  H  H40  1  0.330000  0.580000  0.358000  1.0  0.0961
  H  H41  1  0.637000  0.729000  0.824000  1.0  0.0902
  H  H42  1  0.403000  0.503000  0.619000  1.0  0.0899
  H  H43  1  0.195000  0.023000  0.181000  1.0  0.1129
  H  H44  1  0.980000  0.892000  0.188000  1.0  0.1204
  H  H45  1  0.053000  0.767000  0.995000  1.0  0.082
  H  H46  1  0.416000  0.288000  0.936000  1.0  0.1109
  H  H47  1  0.450000  0.120000  0.974000  1.0  0.0883
  H  H48  1  0.176000  0.124000  0.046000  1.0  0.0878
  H  H49  1  0.232000  0.918000  0.897000  1.0  0.0718
  H  H50  1  0.244000  0.622000  0.902000  1.0  0.1155
  H  H51  1  0.302000  0.744000  0.037000  1.0  0.1229
  H  H52  1  0.329000  0.887000  0.180000  1.0  0.1331
  H  H53  1  0.536000  0.000000  0.278000  1.0  0.1084
  H  H54  1  0.528000  0.156000  0.116000  1.0  0.0323
  H  H55  1  0.807000  0.581000  0.754000  1.0  0.0981
  H  H56  1  0.580000  0.330000  0.858000  1.0  0.096
  H  H57  1  0.729000  0.637000  0.324000  1.0  0.0897
  H  H58  1  0.503000  0.403000  0.119000  1.0  0.0899
  H  H59  1  0.977000  0.805000  0.319000  1.0  0.1172
  H  H60  1  0.108000  0.020000  0.312000  1.0  0.1203
  H  H61  1  0.233000  0.947000  0.505000  1.0  0.0817
  H  H62  1  0.712000  0.584000  0.564000  1.0  0.1125
  H  H63  1  0.880000  0.550000  0.526000  1.0  0.0885
  H  H64  1  0.876000  0.824000  0.454000  1.0  0.0884
  H  H65  1  0.082000  0.768000  0.603000  1.0  0.0707
  H  H66  1  0.378000  0.756000  0.598000  1.0  0.1176
  H  H67  1  0.256000  0.698000  0.463000  1.0  0.1231
  H  H68  1  0.113000  0.671000  0.320000  1.0  0.1252
  H  H69  1  0.000000  0.464000  0.222000  1.0  0.1094
  H  H70  1  0.844000  0.472000  0.384000  1.0  0.0387
  H  H71  1  0.419000  0.193000  0.746000  1.0  0.0979
  H  H72  1  0.670000  0.420000  0.642000  1.0  0.0986
  H  H73  1  0.363000  0.271000  0.176000  1.0  0.0904
  H  H74  1  0.597000  0.497000  0.381000  1.0  0.0897
  C  C75  1  0.858200  0.041000  0.854100  1.0  -0.0282
  C  C76  1  0.974600  0.115000  0.854200  1.0  -0.0244
  C  C77  1  0.938100  0.188700  0.955800  1.0  0.1987
  C  C78  1  0.620500  0.770500  0.036000  1.0  0.0073
  C  C79  1  0.606000  0.863000  0.015800  1.0  -0.063
  C  C80  1  0.760300  0.860300  0.978600  1.0  0.2002
  C  C81  1  0.761000  0.143800  0.086900  1.0  0.215
  C  C82  1  0.748300  0.306100  0.081100  1.0  0.0732
  C  C83  1  0.717100  0.239700  0.009200  1.0  -0.0707
  C  C84  1  0.598300  0.051900  0.817200  1.0  -0.0514
  C  C85  1  0.489300  0.984900  0.767200  1.0  0.0355
  C  C86  1  0.493100  0.893100  0.855300  1.0  0.2727
  C  C87  1  0.217100  0.443900  0.108900  1.0  0.6687
  C  C88  1  0.272100  0.518100  0.252100  1.0  -0.1025
  C  C89  1  0.295800  0.539400  0.181300  1.0  -0.1198
  C  C90  1  0.398400  0.645000  0.181500  1.0  -0.0217
  C  C91  1  0.287700  0.388700  0.828500  1.0  0.6507
  C  C92  1  0.371200  0.471400  0.786900  1.0  -0.1134
  C  C93  1  0.346200  0.443400  0.708900  1.0  -0.0889
  C  C94  1  0.476200  0.578200  0.828400  1.0  -0.0693
  C  C95  1  0.959000  0.141800  0.645900  1.0  -0.0269
  C  C96  1  0.885000  0.025400  0.645800  1.0  -0.0239
  C  C97  1  0.811300  0.061900  0.544200  1.0  0.1954
  C  C98  1  0.229500  0.379500  0.464000  1.0  0.0063
  C  C99  1  0.137000  0.394000  0.484200  1.0  -0.0605
  C  C100  1  0.139700  0.239700  0.521400  1.0  0.1992
  C  C101  1  0.856200  0.239000  0.413100  1.0  0.2137
  C  C102  1  0.693900  0.251700  0.418900  1.0  0.0731
  C  C103  1  0.760300  0.282900  0.490800  1.0  -0.0714
  C  C104  1  0.948100  0.401700  0.682800  1.0  -0.0507
  C  C105  1  0.015100  0.510700  0.732800  1.0  0.0336
  C  C106  1  0.106900  0.506900  0.644700  1.0  0.2732
  C  C107  1  0.556100  0.782900  0.391100  1.0  0.6677
  C  C108  1  0.481900  0.727900  0.247900  1.0  -0.1202
  C  C109  1  0.460600  0.704200  0.318700  1.0  -0.1152
  C  C110  1  0.355000  0.601600  0.318500  1.0  -0.0202
  C  C111  1  0.611300  0.712300  0.671500  1.0  0.6501
  C  C112  1  0.528600  0.628800  0.713100  1.0  -0.1144
  C  C113  1  0.556600  0.653800  0.791100  1.0  -0.0891
  C  C114  1  0.421800  0.523800  0.671600  1.0  -0.0684
  C  C115  1  0.141800  0.959000  0.145900  1.0  -0.0272
  C  C116  1  0.025400  0.885000  0.145800  1.0  -0.0264
  C  C117  1  0.061900  0.811300  0.044200  1.0  0.1938
  C  C118  1  0.379500  0.229500  0.964000  1.0  0.0073
  C  C119  1  0.394000  0.137000  0.984200  1.0  -0.0613
  C  C120  1  0.239700  0.139700  0.021400  1.0  0.1995
  C  C121  1  0.239000  0.856200  0.913100  1.0  0.2145
  C  C122  1  0.251700  0.693900  0.918900  1.0  0.0726
  C  C123  1  0.282900  0.760300  0.990800  1.0  -0.0698
  C  C124  1  0.401700  0.948100  0.182800  1.0  -0.0497
  C  C125  1  0.510700  0.015100  0.232800  1.0  0.0348
  C  C126  1  0.506900  0.106900  0.144700  1.0  0.2724
  C  C127  1  0.782900  0.556100  0.891100  1.0  0.6683
  C  C128  1  0.727900  0.481900  0.747900  1.0  -0.1109
  C  C129  1  0.704200  0.460600  0.818700  1.0  -0.1174
  C  C130  1  0.601600  0.355000  0.818500  1.0  -0.0203
  C  C131  1  0.712300  0.611300  0.171500  1.0  0.6496
  C  C132  1  0.628800  0.528600  0.213100  1.0  -0.1143
  C  C133  1  0.653800  0.556600  0.291100  1.0  -0.0893
  C  C134  1  0.523800  0.421800  0.171600  1.0  -0.0699
  C  C135  1  0.041000  0.858200  0.354100  1.0  -0.0271
  C  C136  1  0.115000  0.974600  0.354200  1.0  -0.0259
  C  C137  1  0.188700  0.938100  0.455800  1.0  0.1993
  C  C138  1  0.770500  0.620500  0.536000  1.0  0.0055
  C  C139  1  0.863000  0.606000  0.515800  1.0  -0.0608
  C  C140  1  0.860300  0.760300  0.478600  1.0  0.1984
  C  C141  1  0.143800  0.761000  0.586900  1.0  0.2161
  C  C142  1  0.306100  0.748300  0.581100  1.0  0.0678
  C  C143  1  0.239700  0.717100  0.509200  1.0  -0.0717
  C  C144  1  0.051900  0.598300  0.317200  1.0  -0.0518
  C  C145  1  0.984900  0.489300  0.267200  1.0  0.0348
  C  C146  1  0.893100  0.493100  0.355300  1.0  0.2742
  C  C147  1  0.443900  0.217100  0.608900  1.0  0.6672
  C  C148  1  0.518100  0.272100  0.752100  1.0  -0.1207
  C  C149  1  0.539400  0.295800  0.681300  1.0  -0.1165
  C  C150  1  0.645000  0.398400  0.681500  1.0  -0.0218
  C  C151  1  0.388700  0.287700  0.328500  1.0  0.6507
  C  C152  1  0.471400  0.371200  0.286900  1.0  -0.1134
  C  C153  1  0.443400  0.346200  0.208900  1.0  -0.0888
  C  C154  1  0.578200  0.476200  0.328400  1.0  -0.0681
  N  N155  1  0.025700  0.211300  0.919000  1.0  -0.3982
  N  N156  1  0.833000  0.086400  0.919000  1.0  -0.2135
  N  N157  1  0.720800  0.769800  0.013200  1.0  -0.3867
  N  N158  1  0.693200  0.919800  0.977500  1.0  -0.2105
  N  N159  1  0.777300  0.244500  0.131800  1.0  -0.4275
  N  N160  1  0.723200  0.132600  0.011300  1.0  -0.2214
  N  N161  1  0.604200  0.993600  0.875500  1.0  -0.2139
  N  N162  1  0.421000  0.882000  0.791600  1.0  -0.4361
  N  N163  1  0.788700  0.974300  0.581000  1.0  -0.3981
  N  N164  1  0.913600  0.167000  0.581000  1.0  -0.2118
  N  N165  1  0.230200  0.279200  0.486800  1.0  -0.3877
  N  N166  1  0.080200  0.306800  0.522500  1.0  -0.21
  N  N167  1  0.755500  0.222700  0.368200  1.0  -0.4272
  N  N168  1  0.867400  0.276800  0.488700  1.0  -0.2199
  N  N169  1  0.006400  0.395800  0.624500  1.0  -0.212
  N  N170  1  0.118000  0.579000  0.708400  1.0  -0.4394
  N  N171  1  0.974300  0.788700  0.081000  1.0  -0.3975
  N  N172  1  0.167000  0.913600  0.081000  1.0  -0.2145
  N  N173  1  0.279200  0.230200  0.986800  1.0  -0.3884
  N  N174  1  0.306800  0.080200  0.022500  1.0  -0.2102
  N  N175  1  0.222700  0.755500  0.868200  1.0  -0.4264
  N  N176  1  0.276800  0.867400  0.988700  1.0  -0.2186
  N  N177  1  0.395800  0.006400  0.124500  1.0  -0.2123
  N  N178  1  0.579000  0.118000  0.208400  1.0  -0.4377
  N  N179  1  0.211300  0.025700  0.419000  1.0  -0.3974
  N  N180  1  0.086400  0.833000  0.419000  1.0  -0.2118
  N  N181  1  0.769800  0.720800  0.513200  1.0  -0.3882
  N  N182  1  0.919800  0.693200  0.477500  1.0  -0.2113
  N  N183  1  0.244500  0.777300  0.631800  1.0  -0.4287
  N  N184  1  0.132600  0.723200  0.511300  1.0  -0.2215
  N  N185  1  0.993600  0.604200  0.375500  1.0  -0.2138
  N  N186  1  0.882000  0.421000  0.291600  1.0  -0.4331
  O  O187  1  0.133000  0.343400  0.108800  1.0  -0.5968
  O  O188  1  0.247100  0.471100  0.047300  1.0  -0.6311
  O  O189  1  0.213100  0.278300  0.794200  1.0  -0.614
  O  O190  1  0.297300  0.434300  0.897300  1.0  -0.6047
  O  O191  1  0.656600  0.867000  0.391200  1.0  -0.5983
  O  O192  1  0.528900  0.752900  0.452700  1.0  -0.6266
  O  O193  1  0.721700  0.786900  0.705800  1.0  -0.6155
  O  O194  1  0.565700  0.702700  0.602700  1.0  -0.6032
  O  O195  1  0.867000  0.656600  0.891200  1.0  -0.5988
  O  O196  1  0.752900  0.528900  0.952700  1.0  -0.6264
  O  O197  1  0.786900  0.721700  0.205800  1.0  -0.6141
  O  O198  1  0.702700  0.565700  0.102700  1.0  -0.6044
  O  O199  1  0.343400  0.133000  0.608800  1.0  -0.5964
  O  O200  1  0.471100  0.247100  0.547300  1.0  -0.6303
  O  O201  1  0.278300  0.213100  0.294200  1.0  -0.6154
  O  O202  1  0.434300  0.297300  0.397300  1.0  -0.6022
