# generated using pymatgen
data_Zn2BH19C23(N5O2)2
_symmetry_space_group_name_H-M   'P 1'
_cell_length_a   13.05840000
_cell_length_b   13.05840000
_cell_length_c   53.73100000
_cell_angle_alpha   90.00000000
_cell_angle_beta   90.00000000
_cell_angle_gamma   90.00000000
_symmetry_Int_Tables_number   1
_chemical_formula_structural   Zn2BH19C23(N5O2)2
_chemical_formula_sum   'Zn16 B8 H152 C184 N80 O32'
_cell_volume   9162.30740320
_cell_formula_units_Z   8
loop_
 _symmetry_equiv_pos_site_id
 _symmetry_equiv_pos_as_xyz
  1  'x, y, z'
loop_
 _atom_site_type_symbol
 _atom_site_label
 _atom_site_symmetry_multiplicity
 _atom_site_fract_x
 _atom_site_fract_y
 _atom_site_fract_z
 _atom_site_occupancy
 _atom_site_charge
  Zn  Zn1  1  0.157640  0.126350  0.884620  1.0  0.8668
  Zn  Zn2  1  0.325660  0.058920  0.684850  1.0  0.7515
  Zn  Zn3  1  0.842360  0.873650  0.384620  1.0  0.8663
  Zn  Zn4  1  0.674340  0.941080  0.184850  1.0  0.7516
  Zn  Zn5  1  0.373650  0.657640  0.134620  1.0  0.8643
  Zn  Zn6  1  0.441080  0.825660  0.934850  1.0  0.7537
  Zn  Zn7  1  0.626350  0.342360  0.634620  1.0  0.8644
  Zn  Zn8  1  0.558920  0.174340  0.434850  1.0  0.7539
  Zn  Zn9  1  0.342360  0.626350  0.365380  1.0  0.8666
  Zn  Zn10  1  0.174340  0.558920  0.565150  1.0  0.7523
  Zn  Zn11  1  0.657640  0.373650  0.865380  1.0  0.867
  Zn  Zn12  1  0.825660  0.441080  0.065150  1.0  0.7519
  Zn  Zn13  1  0.126350  0.157640  0.115380  1.0  0.8649
  Zn  Zn14  1  0.058920  0.325660  0.315150  1.0  0.7541
  Zn  Zn15  1  0.873650  0.842360  0.615380  1.0  0.8646
  Zn  Zn16  1  0.941080  0.674340  0.815150  1.0  0.7545
  B  B17  1  0.262800  0.530900  0.871900  1.0  0.4731
  B  B18  1  0.737200  0.469100  0.371900  1.0  0.473
  B  B19  1  0.969100  0.762800  0.121900  1.0  0.4725
  B  B20  1  0.030900  0.237200  0.621900  1.0  0.4725
  B  B21  1  0.237200  0.030900  0.378100  1.0  0.4729
  B  B22  1  0.762800  0.969100  0.878100  1.0  0.4733
  B  B23  1  0.530900  0.262800  0.128100  1.0  0.4725
  B  B24  1  0.469100  0.737200  0.628100  1.0  0.4726
  H  H25  1  0.060400  0.544200  0.852300  1.0  0.0991
  H  H26  1  0.313800  0.702000  0.838500  1.0  0.1237
  H  H27  1  0.175000  0.771200  0.813300  1.0  0.0883
  H  H28  1  0.278400  0.315200  0.870600  1.0  0.0847
  H  H29  1  0.015400  0.320100  0.902500  1.0  0.0913
  H  H30  1  0.058600  0.493800  0.895600  1.0  0.1226
  H  H31  1  0.463800  0.478200  0.887200  1.0  0.0946
  H  H32  1  0.321600  0.456500  0.822800  1.0  0.1093
  H  H33  1  0.486800  0.382900  0.818100  1.0  0.0938
  H  H34  1  0.339000  0.964100  0.889500  1.0  0.0647
  H  H35  1  0.322400  0.003800  0.961000  1.0  0.1058
  H  H36  1  0.212500  0.125800  0.941400  1.0  0.1
  H  H37  1  0.358200  0.722500  0.884000  1.0  0.0899
  H  H38  1  0.356300  0.609200  0.951600  1.0  0.1055
  H  H39  1  0.267300  0.491800  0.924800  1.0  0.1029
  H  H40  1  0.355200  0.186900  0.803900  1.0  0.0942
  H  H41  1  0.360400  0.160900  0.761800  1.0  0.1034
  H  H42  1  0.131600  0.962200  0.766600  1.0  0.0832
  H  H43  1  0.124700  0.985000  0.810100  1.0  0.1141
  H  H44  1  0.939600  0.455800  0.352300  1.0  0.0992
  H  H45  1  0.686200  0.298000  0.338500  1.0  0.1246
  H  H46  1  0.825000  0.228800  0.313300  1.0  0.0851
  H  H47  1  0.721600  0.684800  0.370600  1.0  0.0844
  H  H48  1  0.984600  0.679900  0.402500  1.0  0.0906
  H  H49  1  0.941400  0.506200  0.395600  1.0  0.1213
  H  H50  1  0.536200  0.521800  0.387200  1.0  0.0943
  H  H51  1  0.678400  0.543500  0.322800  1.0  0.1088
  H  H52  1  0.513200  0.617100  0.318100  1.0  0.093
  H  H53  1  0.661000  0.035900  0.389500  1.0  0.065
  H  H54  1  0.677600  0.996200  0.461000  1.0  0.111
  H  H55  1  0.787500  0.874200  0.441400  1.0  0.0996
  H  H56  1  0.641800  0.277500  0.384000  1.0  0.0895
  H  H57  1  0.643700  0.390800  0.451600  1.0  0.106
  H  H58  1  0.732700  0.508200  0.424800  1.0  0.1025
  H  H59  1  0.644800  0.813100  0.303900  1.0  0.0945
  H  H60  1  0.639600  0.839100  0.261800  1.0  0.1031
  H  H61  1  0.868400  0.037800  0.266600  1.0  0.0821
  H  H62  1  0.875300  0.015000  0.310100  1.0  0.114
  H  H63  1  0.955800  0.560400  0.102300  1.0  0.0997
  H  H64  1  0.798000  0.813800  0.088500  1.0  0.1245
  H  H65  1  0.728800  0.675000  0.063300  1.0  0.0896
  H  H66  1  0.184800  0.778400  0.120600  1.0  0.0852
  H  H67  1  0.179900  0.515400  0.152500  1.0  0.091
  H  H68  1  0.006200  0.558600  0.145600  1.0  0.1225
  H  H69  1  0.021800  0.963800  0.137200  1.0  0.0936
  H  H70  1  0.043500  0.821600  0.072800  1.0  0.1089
  H  H71  1  0.117100  0.986800  0.068100  1.0  0.0937
  H  H72  1  0.535900  0.839000  0.139500  1.0  0.0653
  H  H73  1  0.496200  0.822400  0.211000  1.0  0.105
  H  H74  1  0.374200  0.712500  0.191400  1.0  0.1001
  H  H75  1  0.777500  0.858200  0.134000  1.0  0.0895
  H  H76  1  0.890800  0.856300  0.201600  1.0  0.1057
  H  H77  1  0.008200  0.767300  0.174800  1.0  0.1025
  H  H78  1  0.313100  0.855200  0.053900  1.0  0.0939
  H  H79  1  0.339100  0.860400  0.011800  1.0  0.1035
  H  H80  1  0.537800  0.631600  0.016600  1.0  0.0825
  H  H81  1  0.515000  0.624700  0.060100  1.0  0.1143
  H  H82  1  0.044200  0.439600  0.602300  1.0  0.0997
  H  H83  1  0.202000  0.186200  0.588500  1.0  0.1247
  H  H84  1  0.271200  0.325000  0.563300  1.0  0.087
  H  H85  1  0.815200  0.221600  0.620600  1.0  0.0853
  H  H86  1  0.820100  0.484600  0.652500  1.0  0.0915
  H  H87  1  0.993800  0.441400  0.645600  1.0  0.1218
  H  H88  1  0.978200  0.036200  0.637200  1.0  0.0941
  H  H89  1  0.956500  0.178400  0.572800  1.0  0.1081
  H  H90  1  0.882900  0.013200  0.568100  1.0  0.0932
  H  H91  1  0.464100  0.161000  0.639500  1.0  0.0654
  H  H92  1  0.503800  0.177600  0.711000  1.0  0.1107
  H  H93  1  0.625800  0.287500  0.691400  1.0  0.0992
  H  H94  1  0.222500  0.141800  0.634000  1.0  0.0898
  H  H95  1  0.109200  0.143700  0.701600  1.0  0.1062
  H  H96  1  0.991800  0.232700  0.674800  1.0  0.1029
  H  H97  1  0.686900  0.144800  0.553900  1.0  0.0951
  H  H98  1  0.660900  0.139600  0.511800  1.0  0.1032
  H  H99  1  0.462200  0.368400  0.516600  1.0  0.0837
  H  H100  1  0.485000  0.375300  0.560100  1.0  0.1143
  H  H101  1  0.439600  0.044200  0.397700  1.0  0.0998
  H  H102  1  0.186200  0.202000  0.411500  1.0  0.1247
  H  H103  1  0.325000  0.271200  0.436700  1.0  0.0855
  H  H104  1  0.221600  0.815200  0.379400  1.0  0.084
  H  H105  1  0.484600  0.820100  0.347500  1.0  0.0901
  H  H106  1  0.441400  0.993800  0.354400  1.0  0.1212
  H  H107  1  0.036200  0.978200  0.362800  1.0  0.0954
  H  H108  1  0.178400  0.956500  0.427200  1.0  0.1049
  H  H109  1  0.013200  0.882900  0.431900  1.0  0.0936
  H  H110  1  0.161000  0.464100  0.360500  1.0  0.0613
  H  H111  1  0.177600  0.503800  0.289000  1.0  0.1104
  H  H112  1  0.287500  0.625800  0.308600  1.0  0.1032
  H  H113  1  0.141800  0.222500  0.366000  1.0  0.0898
  H  H114  1  0.143700  0.109200  0.298400  1.0  0.1068
  H  H115  1  0.232700  0.991800  0.325200  1.0  0.1035
  H  H116  1  0.144800  0.686900  0.446100  1.0  0.0947
  H  H117  1  0.139600  0.660900  0.488200  1.0  0.1028
  H  H118  1  0.368400  0.462200  0.483400  1.0  0.0825
  H  H119  1  0.375300  0.485000  0.439900  1.0  0.1146
  H  H120  1  0.560400  0.955800  0.897700  1.0  0.0995
  H  H121  1  0.813800  0.798000  0.911500  1.0  0.1224
  H  H122  1  0.675000  0.728800  0.936700  1.0  0.088
  H  H123  1  0.778400  0.184800  0.879400  1.0  0.0843
  H  H124  1  0.515400  0.179900  0.847500  1.0  0.0903
  H  H125  1  0.558600  0.006200  0.854400  1.0  0.1214
  H  H126  1  0.963800  0.021800  0.862800  1.0  0.0955
  H  H127  1  0.821600  0.043500  0.927200  1.0  0.1081
  H  H128  1  0.986800  0.117100  0.931900  1.0  0.0933
  H  H129  1  0.839000  0.535900  0.860500  1.0  0.0617
  H  H130  1  0.822400  0.496200  0.789000  1.0  0.1049
  H  H131  1  0.712500  0.374200  0.808600  1.0  0.1029
  H  H132  1  0.858200  0.777500  0.866000  1.0  0.0899
  H  H133  1  0.856300  0.890800  0.798400  1.0  0.1062
  H  H134  1  0.767300  0.008200  0.825200  1.0  0.1035
  H  H135  1  0.855200  0.313100  0.946100  1.0  0.0942
  H  H136  1  0.860400  0.339100  0.988200  1.0  0.1028
  H  H137  1  0.631600  0.537800  0.983400  1.0  0.0828
  H  H138  1  0.624700  0.515000  0.939900  1.0  0.1142
  H  H139  1  0.544200  0.060400  0.147700  1.0  0.0999
  H  H140  1  0.702000  0.313800  0.161500  1.0  0.1239
  H  H141  1  0.771200  0.175000  0.186700  1.0  0.0897
  H  H142  1  0.315200  0.278400  0.129400  1.0  0.085
  H  H143  1  0.320100  0.015400  0.097500  1.0  0.092
  H  H144  1  0.493800  0.058600  0.104400  1.0  0.121
  H  H145  1  0.478200  0.463800  0.112800  1.0  0.0948
  H  H146  1  0.456500  0.321600  0.177200  1.0  0.1072
  H  H147  1  0.382900  0.486800  0.181900  1.0  0.0924
  H  H148  1  0.964100  0.339000  0.110500  1.0  0.0622
  H  H149  1  0.003800  0.322400  0.039000  1.0  0.1073
  H  H150  1  0.125800  0.212500  0.058600  1.0  0.1028
  H  H151  1  0.722500  0.358200  0.116000  1.0  0.0899
  H  H152  1  0.609200  0.356300  0.048400  1.0  0.1069
  H  H153  1  0.491800  0.267300  0.075200  1.0  0.1035
  H  H154  1  0.186900  0.355200  0.196100  1.0  0.0944
  H  H155  1  0.160900  0.360400  0.238200  1.0  0.1027
  H  H156  1  0.962200  0.131600  0.233400  1.0  0.0827
  H  H157  1  0.985000  0.124700  0.189900  1.0  0.1144
  H  H158  1  0.455800  0.939600  0.647700  1.0  0.0999
  H  H159  1  0.298000  0.686200  0.661500  1.0  0.1244
  H  H160  1  0.228800  0.825000  0.686700  1.0  0.0891
  H  H161  1  0.684800  0.721600  0.629400  1.0  0.085
  H  H162  1  0.679900  0.984600  0.597500  1.0  0.0908
  H  H163  1  0.506200  0.941400  0.604400  1.0  0.1218
  H  H164  1  0.521800  0.536200  0.612800  1.0  0.0946
  H  H165  1  0.543500  0.678400  0.677200  1.0  0.1077
  H  H166  1  0.617100  0.513200  0.681900  1.0  0.0924
  H  H167  1  0.035900  0.661000  0.610500  1.0  0.0611
  H  H168  1  0.996200  0.677600  0.539000  1.0  0.1054
  H  H169  1  0.874200  0.787500  0.558600  1.0  0.1029
  H  H170  1  0.277500  0.641800  0.616000  1.0  0.0897
  H  H171  1  0.390800  0.643700  0.548400  1.0  0.1064
  H  H172  1  0.508200  0.732700  0.575200  1.0  0.1035
  H  H173  1  0.813100  0.644800  0.696100  1.0  0.0945
  H  H174  1  0.839100  0.639600  0.738200  1.0  0.1027
  H  H175  1  0.037800  0.868400  0.733400  1.0  0.0827
  H  H176  1  0.015000  0.875300  0.689900  1.0  0.1145
  C  C177  1  0.106600  0.591000  0.845600  1.0  0.1687
  C  C178  1  0.246400  0.679000  0.838200  1.0  -0.1027
  C  C179  1  0.169900  0.715900  0.824100  1.0  -0.0083
  C  C180  1  0.218000  0.339400  0.877600  1.0  0.1076
  C  C181  1  0.075400  0.342400  0.894900  1.0  0.061
  C  C182  1  0.098400  0.437500  0.891200  1.0  -0.1019
  C  C183  1  0.449800  0.464900  0.870600  1.0  0.1858
  C  C184  1  0.371300  0.453000  0.835100  1.0  -0.0659
  C  C185  1  0.461400  0.412100  0.832600  1.0  0.0085
  C  C186  1  0.321200  0.988500  0.905200  1.0  0.2377
  C  C187  1  0.312600  0.010000  0.944000  1.0  -0.0328
  C  C188  1  0.251800  0.077000  0.933200  1.0  -0.0278
  C  C189  1  0.344600  0.679600  0.897400  1.0  0.1768
  C  C190  1  0.344300  0.617800  0.934700  1.0  -0.0491
  C  C191  1  0.296000  0.553700  0.919800  1.0  -0.0277
  C  C192  1  0.230200  0.110900  0.838700  1.0  0.6585
  C  C193  1  0.237100  0.093500  0.811200  1.0  -0.1547
  C  C194  1  0.309000  0.141900  0.796600  1.0  -0.0623
  C  C195  1  0.313700  0.124700  0.771500  1.0  -0.043
  C  C196  1  0.249100  0.053300  0.760400  1.0  -0.1592
  C  C197  1  0.177900  0.006200  0.774300  1.0  -0.0323
  C  C198  1  0.171200  0.021600  0.800500  1.0  -0.0718
  C  C199  1  0.256600  0.031100  0.732700  1.0  0.7114
  C  C200  1  0.893400  0.409000  0.345600  1.0  0.1688
  C  C201  1  0.753600  0.321000  0.338200  1.0  -0.103
  C  C202  1  0.830100  0.284100  0.324100  1.0  -0.0078
  C  C203  1  0.782000  0.660600  0.377600  1.0  0.1075
  C  C204  1  0.924600  0.657600  0.394900  1.0  0.0604
  C  C205  1  0.901600  0.562500  0.391200  1.0  -0.0965
  C  C206  1  0.550200  0.535100  0.370600  1.0  0.1839
  C  C207  1  0.628700  0.547000  0.335100  1.0  -0.0654
  C  C208  1  0.538600  0.587900  0.332600  1.0  0.0114
  C  C209  1  0.678800  0.011500  0.405200  1.0  0.2379
  C  C210  1  0.687400  0.990000  0.444000  1.0  -0.0319
  C  C211  1  0.748200  0.923000  0.433200  1.0  -0.0259
  C  C212  1  0.655400  0.320400  0.397400  1.0  0.1766
  C  C213  1  0.655700  0.382200  0.434700  1.0  -0.055
  C  C214  1  0.704000  0.446300  0.419800  1.0  -0.0286
  C  C215  1  0.769800  0.889100  0.338700  1.0  0.6588
  C  C216  1  0.762900  0.906500  0.311200  1.0  -0.1542
  C  C217  1  0.691000  0.858100  0.296600  1.0  -0.0591
  C  C218  1  0.686300  0.875300  0.271500  1.0  -0.0438
  C  C219  1  0.750900  0.946700  0.260400  1.0  -0.1597
  C  C220  1  0.822100  0.993800  0.274300  1.0  -0.0295
  C  C221  1  0.828800  0.978400  0.300500  1.0  -0.0724
  C  C222  1  0.743400  0.968900  0.232700  1.0  0.7113
  C  C223  1  0.909000  0.606600  0.095600  1.0  0.1677
  C  C224  1  0.821000  0.746400  0.088200  1.0  -0.1039
  C  C225  1  0.784100  0.669900  0.074100  1.0  -0.0075
  C  C226  1  0.160600  0.718000  0.127600  1.0  0.1044
  C  C227  1  0.157600  0.575400  0.144900  1.0  0.0601
  C  C228  1  0.062500  0.598400  0.141200  1.0  -0.0995
  C  C229  1  0.035100  0.949800  0.120600  1.0  0.1817
  C  C230  1  0.047000  0.871300  0.085100  1.0  -0.0662
  C  C231  1  0.087900  0.961400  0.082600  1.0  0.0099
  C  C232  1  0.511500  0.821200  0.155200  1.0  0.2369
  C  C233  1  0.490000  0.812600  0.194000  1.0  -0.0332
  C  C234  1  0.423000  0.751800  0.183200  1.0  -0.0258
  C  C235  1  0.820400  0.844600  0.147400  1.0  0.1742
  C  C236  1  0.882200  0.844300  0.184700  1.0  -0.0509
  C  C237  1  0.946300  0.796000  0.169800  1.0  -0.0267
  C  C238  1  0.389100  0.730200  0.088700  1.0  0.6587
  C  C239  1  0.406500  0.737100  0.061200  1.0  -0.1547
  C  C240  1  0.358100  0.809000  0.046600  1.0  -0.0594
  C  C241  1  0.375300  0.813700  0.021500  1.0  -0.0435
  C  C242  1  0.446700  0.749100  0.010400  1.0  -0.1568
  C  C243  1  0.493800  0.677900  0.024300  1.0  -0.0289
  C  C244  1  0.478400  0.671200  0.050500  1.0  -0.0713
  C  C245  1  0.468900  0.756600  0.982700  1.0  0.7114
  C  C246  1  0.091000  0.393400  0.595600  1.0  0.1681
  C  C247  1  0.179000  0.253600  0.588200  1.0  -0.1024
  C  C248  1  0.215900  0.330100  0.574100  1.0  -0.0075
  C  C249  1  0.839400  0.282000  0.627600  1.0  0.1036
  C  C250  1  0.842400  0.424600  0.644900  1.0  0.0585
  C  C251  1  0.937500  0.401600  0.641200  1.0  -0.0996
  C  C252  1  0.964900  0.050200  0.620600  1.0  0.1831
  C  C253  1  0.953000  0.128700  0.585100  1.0  -0.0658
  C  C254  1  0.912100  0.038600  0.582600  1.0  0.0095
  C  C255  1  0.488500  0.178800  0.655200  1.0  0.2388
  C  C256  1  0.510000  0.187400  0.694000  1.0  -0.032
  C  C257  1  0.577000  0.248200  0.683200  1.0  -0.0252
  C  C258  1  0.179600  0.155400  0.647400  1.0  0.1766
  C  C259  1  0.117800  0.155700  0.684700  1.0  -0.0502
  C  C260  1  0.053700  0.204000  0.669800  1.0  -0.03
  C  C261  1  0.610900  0.269800  0.588700  1.0  0.6591
  C  C262  1  0.593500  0.262900  0.561200  1.0  -0.1557
  C  C263  1  0.641900  0.191000  0.546600  1.0  -0.0602
  C  C264  1  0.624700  0.186300  0.521500  1.0  -0.0433
  C  C265  1  0.553300  0.250900  0.510400  1.0  -0.1582
  C  C266  1  0.506200  0.322100  0.524300  1.0  -0.0273
  C  C267  1  0.521600  0.328800  0.550500  1.0  -0.0716
  C  C268  1  0.531100  0.243400  0.482700  1.0  0.7116
  C  C269  1  0.393400  0.091000  0.404400  1.0  0.1688
  C  C270  1  0.253600  0.179000  0.411800  1.0  -0.1038
  C  C271  1  0.330100  0.215900  0.425900  1.0  -0.0083
  C  C272  1  0.282000  0.839400  0.372400  1.0  0.1069
  C  C273  1  0.424600  0.842400  0.355100  1.0  0.0602
  C  C274  1  0.401600  0.937500  0.358800  1.0  -0.0992
  C  C275  1  0.050200  0.964900  0.379400  1.0  0.1835
  C  C276  1  0.128700  0.953000  0.414900  1.0  -0.0652
  C  C277  1  0.038600  0.912100  0.417400  1.0  0.0076
  C  C278  1  0.178800  0.488500  0.344800  1.0  0.2375
  C  C279  1  0.187400  0.510000  0.306000  1.0  -0.0342
  C  C280  1  0.248200  0.577000  0.316800  1.0  -0.0291
  C  C281  1  0.155400  0.179600  0.352600  1.0  0.1762
  C  C282  1  0.155700  0.117800  0.315300  1.0  -0.0487
  C  C283  1  0.204000  0.053700  0.330200  1.0  -0.0291
  C  C284  1  0.269800  0.610900  0.411300  1.0  0.6592
  C  C285  1  0.262900  0.593500  0.438800  1.0  -0.1539
  C  C286  1  0.191000  0.641900  0.453400  1.0  -0.0634
  C  C287  1  0.186300  0.624700  0.478500  1.0  -0.0444
  C  C288  1  0.250900  0.553300  0.489600  1.0  -0.159
  C  C289  1  0.322100  0.506200  0.475700  1.0  -0.0332
  C  C290  1  0.328800  0.521600  0.449500  1.0  -0.0719
  C  C291  1  0.243400  0.531100  0.517300  1.0  0.7118
  C  C292  1  0.606600  0.909000  0.904400  1.0  0.1675
  C  C293  1  0.746400  0.821000  0.911800  1.0  -0.1025
  C  C294  1  0.669900  0.784100  0.925900  1.0  -0.0138
  C  C295  1  0.718000  0.160600  0.872400  1.0  0.1078
  C  C296  1  0.575400  0.157600  0.855100  1.0  0.0594
  C  C297  1  0.598400  0.062500  0.858800  1.0  -0.0971
  C  C298  1  0.949800  0.035100  0.879400  1.0  0.1854
  C  C299  1  0.871300  0.047000  0.914900  1.0  -0.0648
  C  C300  1  0.961400  0.087900  0.917400  1.0  0.0097
  C  C301  1  0.821200  0.511500  0.844800  1.0  0.2347
  C  C302  1  0.812600  0.490000  0.806000  1.0  -0.0335
  C  C303  1  0.751800  0.423000  0.816800  1.0  -0.0287
  C  C304  1  0.844600  0.820400  0.852600  1.0  0.1774
  C  C305  1  0.844300  0.882200  0.815300  1.0  -0.0481
  C  C306  1  0.796000  0.946300  0.830200  1.0  -0.0294
  C  C307  1  0.730200  0.389100  0.911300  1.0  0.6573
  C  C308  1  0.737100  0.406500  0.938800  1.0  -0.1543
  C  C309  1  0.809000  0.358100  0.953400  1.0  -0.0637
  C  C310  1  0.813700  0.375300  0.978500  1.0  -0.043
  C  C311  1  0.749100  0.446700  0.989600  1.0  -0.1597
  C  C312  1  0.677900  0.493800  0.975700  1.0  -0.0334
  C  C313  1  0.671200  0.478400  0.949500  1.0  -0.0725
  C  C314  1  0.756600  0.468900  0.017300  1.0  0.7134
  C  C315  1  0.591000  0.106600  0.154400  1.0  0.1676
  C  C316  1  0.679000  0.246400  0.161800  1.0  -0.1015
  C  C317  1  0.715900  0.169900  0.175900  1.0  -0.007
  C  C318  1  0.339400  0.218000  0.122400  1.0  0.1026
  C  C319  1  0.342400  0.075400  0.105100  1.0  0.0591
  C  C320  1  0.437500  0.098400  0.108800  1.0  -0.0988
  C  C321  1  0.464900  0.449800  0.129400  1.0  0.1829
  C  C322  1  0.453000  0.371300  0.164900  1.0  -0.0651
  C  C323  1  0.412100  0.461400  0.167400  1.0  0.008
  C  C324  1  0.988500  0.321200  0.094800  1.0  0.238
  C  C325  1  0.010000  0.312600  0.056000  1.0  -0.0344
  C  C326  1  0.077000  0.251800  0.066800  1.0  -0.0275
  C  C327  1  0.679600  0.344600  0.102600  1.0  0.1765
  C  C328  1  0.617800  0.344300  0.065300  1.0  -0.0488
  C  C329  1  0.553700  0.296000  0.080200  1.0  -0.0287
  C  C330  1  0.110900  0.230200  0.161300  1.0  0.6583
  C  C331  1  0.093500  0.237100  0.188800  1.0  -0.1553
  C  C332  1  0.141900  0.309000  0.203400  1.0  -0.0616
  C  C333  1  0.124700  0.313700  0.228500  1.0  -0.0435
  C  C334  1  0.053300  0.249100  0.239600  1.0  -0.1577
  C  C335  1  0.006200  0.177900  0.225700  1.0  -0.028
  C  C336  1  0.021600  0.171200  0.199500  1.0  -0.0716
  C  C337  1  0.031100  0.256600  0.267300  1.0  0.7133
  C  C338  1  0.409000  0.893400  0.654400  1.0  0.1681
  C  C339  1  0.321000  0.753600  0.661800  1.0  -0.1035
  C  C340  1  0.284100  0.830100  0.675900  1.0  -0.008
  C  C341  1  0.660600  0.782000  0.622400  1.0  0.1055
  C  C342  1  0.657600  0.924600  0.605100  1.0  0.0599
  C  C343  1  0.562500  0.901600  0.608800  1.0  -0.1
  C  C344  1  0.535100  0.550200  0.629400  1.0  0.1818
  C  C345  1  0.547000  0.628700  0.664900  1.0  -0.0664
  C  C346  1  0.587900  0.538600  0.667400  1.0  0.009
  C  C347  1  0.011500  0.678800  0.594800  1.0  0.2359
  C  C348  1  0.990000  0.687400  0.556000  1.0  -0.0327
  C  C349  1  0.923000  0.748200  0.566800  1.0  -0.0277
  C  C350  1  0.320400  0.655400  0.602600  1.0  0.1754
  C  C351  1  0.382200  0.655700  0.565300  1.0  -0.0501
  C  C352  1  0.446300  0.704000  0.580200  1.0  -0.0286
  C  C353  1  0.889100  0.769800  0.661300  1.0  0.6584
  C  C354  1  0.906500  0.762900  0.688800  1.0  -0.1545
  C  C355  1  0.858100  0.691000  0.703400  1.0  -0.0627
  C  C356  1  0.875300  0.686300  0.728500  1.0  -0.0422
  C  C357  1  0.946700  0.750900  0.739600  1.0  -0.1573
  C  C358  1  0.993800  0.822100  0.725700  1.0  -0.0305
  C  C359  1  0.978400  0.828800  0.699500  1.0  -0.0707
  C  C360  1  0.968900  0.743400  0.767300  1.0  0.7117
  N  N361  1  0.204300  0.598500  0.852180  1.0  -0.1746
  N  N362  1  0.083600  0.659900  0.828170  1.0  -0.3807
  N  N363  1  0.194000  0.440300  0.879640  1.0  -0.1758
  N  N364  1  0.147100  0.281200  0.886500  1.0  -0.3323
  N  N365  1  0.360700  0.490500  0.859190  1.0  -0.1857
  N  N366  1  0.514500  0.418900  0.855330  1.0  -0.4256
  N  N367  1  0.359700  0.950300  0.926080  1.0  -0.4187
  N  N368  1  0.255600  0.063800  0.908490  1.0  -0.4066
  N  N369  1  0.294100  0.591100  0.895550  1.0  -0.1806
  N  N370  1  0.373000  0.699200  0.920450  1.0  -0.3228
  N  N371  1  0.795700  0.401500  0.352180  1.0  -0.1755
  N  N372  1  0.916400  0.340100  0.328170  1.0  -0.3818
  N  N373  1  0.806000  0.559700  0.379640  1.0  -0.1762
  N  N374  1  0.852900  0.718800  0.386500  1.0  -0.3333
  N  N375  1  0.639300  0.509500  0.359190  1.0  -0.1851
  N  N376  1  0.485500  0.581100  0.355330  1.0  -0.4244
  N  N377  1  0.640300  0.049700  0.426080  1.0  -0.4194
  N  N378  1  0.744400  0.936200  0.408490  1.0  -0.4066
  N  N379  1  0.705900  0.408900  0.395550  1.0  -0.1805
  N  N380  1  0.627000  0.300800  0.420450  1.0  -0.3233
  N  N381  1  0.901500  0.704300  0.102180  1.0  -0.1736
  N  N382  1  0.840100  0.583600  0.078170  1.0  -0.3794
  N  N383  1  0.059700  0.694000  0.129640  1.0  -0.1773
  N  N384  1  0.218800  0.647100  0.136500  1.0  -0.334
  N  N385  1  0.009500  0.860700  0.109190  1.0  -0.1853
  N  N386  1  0.081100  0.014500  0.105330  1.0  -0.427
  N  N387  1  0.549700  0.859700  0.176080  1.0  -0.4183
  N  N388  1  0.436200  0.755600  0.158490  1.0  -0.4077
  N  N389  1  0.908900  0.794100  0.145550  1.0  -0.1806
  N  N390  1  0.800800  0.873000  0.170450  1.0  -0.3227
  N  N391  1  0.098500  0.295700  0.602180  1.0  -0.1723
  N  N392  1  0.159900  0.416400  0.578170  1.0  -0.3794
  N  N393  1  0.940300  0.306000  0.629640  1.0  -0.1778
  N  N394  1  0.781200  0.352900  0.636500  1.0  -0.3357
  N  N395  1  0.990500  0.139300  0.609190  1.0  -0.1844
  N  N396  1  0.918900  0.985500  0.605330  1.0  -0.4251
  N  N397  1  0.450300  0.140300  0.676080  1.0  -0.4211
  N  N398  1  0.563800  0.244400  0.658490  1.0  -0.4072
  N  N399  1  0.091100  0.205900  0.645550  1.0  -0.1813
  N  N400  1  0.199200  0.127000  0.670450  1.0  -0.3243
  N  N401  1  0.295700  0.098500  0.397820  1.0  -0.1755
  N  N402  1  0.416400  0.159900  0.421830  1.0  -0.3809
  N  N403  1  0.306000  0.940300  0.370360  1.0  -0.1755
  N  N404  1  0.352900  0.781200  0.363500  1.0  -0.3345
  N  N405  1  0.139300  0.990500  0.390810  1.0  -0.1851
  N  N406  1  0.985500  0.918900  0.394670  1.0  -0.4248
  N  N407  1  0.140300  0.450300  0.323920  1.0  -0.421
  N  N408  1  0.244400  0.563800  0.341510  1.0  -0.4061
  N  N409  1  0.205900  0.091100  0.354450  1.0  -0.18
  N  N410  1  0.127000  0.199200  0.329550  1.0  -0.3237
  N  N411  1  0.704300  0.901500  0.897820  1.0  -0.1755
  N  N412  1  0.583600  0.840100  0.921830  1.0  -0.3797
  N  N413  1  0.694000  0.059700  0.870360  1.0  -0.1758
  N  N414  1  0.647100  0.218800  0.863500  1.0  -0.3316
  N  N415  1  0.860700  0.009500  0.890810  1.0  -0.1854
  N  N416  1  0.014500  0.081100  0.894670  1.0  -0.4261
  N  N417  1  0.859700  0.549700  0.823920  1.0  -0.4185
  N  N418  1  0.755600  0.436200  0.841510  1.0  -0.4065
  N  N419  1  0.794100  0.908900  0.854450  1.0  -0.18
  N  N420  1  0.873000  0.800800  0.829550  1.0  -0.322
  N  N421  1  0.598500  0.204300  0.147820  1.0  -0.1731
  N  N422  1  0.659900  0.083600  0.171830  1.0  -0.3794
  N  N423  1  0.440300  0.194000  0.120360  1.0  -0.1763
  N  N424  1  0.281200  0.147100  0.113500  1.0  -0.332
  N  N425  1  0.490500  0.360700  0.140810  1.0  -0.1839
  N  N426  1  0.418900  0.514500  0.144670  1.0  -0.4258
  N  N427  1  0.950300  0.359700  0.073920  1.0  -0.4204
  N  N428  1  0.063800  0.255600  0.091510  1.0  -0.4064
  N  N429  1  0.591100  0.294100  0.104450  1.0  -0.1799
  N  N430  1  0.699200  0.373000  0.079550  1.0  -0.3247
  N  N431  1  0.401500  0.795700  0.647820  1.0  -0.1741
  N  N432  1  0.340100  0.916400  0.671830  1.0  -0.3774
  N  N433  1  0.559700  0.806000  0.620360  1.0  -0.1772
  N  N434  1  0.718800  0.852900  0.613500  1.0  -0.3366
  N  N435  1  0.509500  0.639300  0.640810  1.0  -0.1855
  N  N436  1  0.581100  0.485500  0.644670  1.0  -0.4256
  N  N437  1  0.049700  0.640300  0.573920  1.0  -0.4188
  N  N438  1  0.936200  0.744400  0.591510  1.0  -0.4069
  N  N439  1  0.408900  0.705900  0.604450  1.0  -0.1802
  N  N440  1  0.300800  0.627000  0.579550  1.0  -0.3232
  O  O441  1  0.324000  0.082200  0.720310  1.0  -0.6052
  O  O442  1  0.200300  0.970300  0.722970  1.0  -0.5169
  O  O443  1  0.152600  0.073900  0.850110  1.0  -0.607
  O  O444  1  0.302500  0.159600  0.849440  1.0  -0.6008
  O  O445  1  0.676000  0.917800  0.220310  1.0  -0.605
  O  O446  1  0.799700  0.029700  0.222970  1.0  -0.5179
  O  O447  1  0.847400  0.926100  0.350110  1.0  -0.6062
  O  O448  1  0.697500  0.840400  0.349440  1.0  -0.6003
  O  O449  1  0.417800  0.824000  0.970310  1.0  -0.6074
  O  O450  1  0.529700  0.700300  0.972970  1.0  -0.5191
  O  O451  1  0.426100  0.652600  0.100110  1.0  -0.6059
  O  O452  1  0.340400  0.802500  0.099440  1.0  -0.6018
  O  O453  1  0.582200  0.176000  0.470310  1.0  -0.6066
  O  O454  1  0.470300  0.299700  0.472970  1.0  -0.5185
  O  O455  1  0.573900  0.347400  0.600110  1.0  -0.6071
  O  O456  1  0.659600  0.197500  0.599440  1.0  -0.6015
  O  O457  1  0.176000  0.582200  0.529690  1.0  -0.6046
  O  O458  1  0.299700  0.470300  0.527030  1.0  -0.5173
  O  O459  1  0.347400  0.573900  0.399890  1.0  -0.6049
  O  O460  1  0.197500  0.659600  0.400560  1.0  -0.6009
  O  O461  1  0.824000  0.417800  0.029690  1.0  -0.6049
  O  O462  1  0.700300  0.529700  0.027030  1.0  -0.5169
  O  O463  1  0.652600  0.426100  0.899890  1.0  -0.6083
  O  O464  1  0.802500  0.340400  0.900560  1.0  -0.6014
  O  O465  1  0.082200  0.324000  0.279690  1.0  -0.6076
  O  O466  1  0.970300  0.200300  0.277030  1.0  -0.5183
  O  O467  1  0.073900  0.152600  0.149890  1.0  -0.6066
  O  O468  1  0.159600  0.302500  0.150560  1.0  -0.6011
  O  O469  1  0.917800  0.676000  0.779690  1.0  -0.606
  O  O470  1  0.029700  0.799700  0.777030  1.0  -0.5187
  O  O471  1  0.926100  0.847400  0.649890  1.0  -0.6071
  O  O472  1  0.840400  0.697500  0.650560  1.0  -0.6027
