# generated using pymatgen
data_Co3H6C18O13
_symmetry_space_group_name_H-M   'P 1'
_cell_length_a   7.17950000
_cell_length_b   11.48400000
_cell_length_c   14.79400000
_cell_angle_alpha   93.96000000
_cell_angle_beta   90.00000000
_cell_angle_gamma   90.00000000
_symmetry_Int_Tables_number   1
_chemical_formula_structural   Co3H6C18O13
_chemical_formula_sum   'Co6 H12 C36 O26'
_cell_volume   1216.84393821
_cell_formula_units_Z   2
loop_
 _symmetry_equiv_pos_site_id
 _symmetry_equiv_pos_as_xyz
  1  'x, y, z'
loop_
 _atom_site_type_symbol
 _atom_site_label
 _atom_site_symmetry_multiplicity
 _atom_site_fract_x
 _atom_site_fract_y
 _atom_site_fract_z
 _atom_site_occupancy
 _atom_site_charge
  Co  Co1  1  0.424770  0.244060  0.857670  1.0  1.2221
  Co  Co2  1  0.826360  0.822220  0.343140  1.0  1.1822
  Co  Co3  1  0.590010  0.605760  0.198180  1.0  1.1873
  Co  Co4  1  0.924770  0.755940  0.142330  1.0  1.2233
  Co  Co5  1  0.326360  0.177780  0.656860  1.0  1.1455
  Co  Co6  1  0.090010  0.394240  0.801820  1.0  1.1719
  H  H7  1  0.565900  0.899000  0.933800  1.0  0.1264
  H  H8  1  0.325900  0.793500  0.697500  1.0  0.1144
  H  H9  1  0.341600  0.601300  0.736900  1.0  0.0964
  H  H10  1  0.653800  0.350200  0.407300  1.0  0.1169
  H  H11  1  0.706800  0.643700  0.567500  1.0  0.1189
  H  H12  1  0.717500  0.534800  0.692600  1.0  0.1144
  H  H13  1  0.065900  0.101000  0.066200  1.0  0.1265
  H  H14  1  0.825900  0.206500  0.302500  1.0  0.1134
  H  H15  1  0.841600  0.398700  0.263100  1.0  0.0963
  H  H16  1  0.153800  0.649800  0.592700  1.0  0.1169
  H  H17  1  0.206800  0.356300  0.432500  1.0  0.1242
  H  H18  1  0.217500  0.465200  0.307400  1.0  0.1146
  C  C19  1  0.465700  0.633900  0.859700  1.0  -0.087
  C  C20  1  0.534900  0.725100  0.918400  1.0  -0.054
  C  C21  1  0.520800  0.838800  0.894500  1.0  -0.0297
  C  C22  1  0.440200  0.865600  0.812300  1.0  -0.1137
  C  C23  1  0.376200  0.776700  0.753000  1.0  -0.0196
  C  C24  1  0.387000  0.661000  0.776600  1.0  -0.0624
  C  C25  1  0.493800  0.508800  0.882500  1.0  0.6991
  C  C26  1  0.620500  0.707900  0.010800  1.0  0.7181
  C  C27  1  0.422900  0.991500  0.790400  1.0  0.7236
  C  C28  1  0.685000  0.375800  0.625800  1.0  -0.1043
  C  C29  1  0.662600  0.320500  0.540200  1.0  -0.0757
  C  C30  1  0.662800  0.387300  0.465000  1.0  -0.0235
  C  C31  1  0.676400  0.508000  0.474700  1.0  -0.1392
  C  C32  1  0.696800  0.562900  0.560300  1.0  -0.0176
  C  C33  1  0.702200  0.497600  0.635200  1.0  -0.0707
  C  C34  1  0.688900  0.316800  0.714000  1.0  0.7472
  C  C35  1  0.645500  0.188600  0.520500  1.0  0.6853
  C  C36  1  0.679500  0.581600  0.394500  1.0  0.7224
  C  C37  1  0.965700  0.366100  0.140300  1.0  -0.0867
  C  C38  1  0.034900  0.274900  0.081600  1.0  -0.0543
  C  C39  1  0.020800  0.161200  0.105500  1.0  -0.0287
  C  C40  1  0.940200  0.134400  0.187700  1.0  -0.1134
  C  C41  1  0.876200  0.223300  0.247000  1.0  -0.0197
  C  C42  1  0.887000  0.339000  0.223400  1.0  -0.0635
  C  C43  1  0.993800  0.491200  0.117500  1.0  0.6982
  C  C44  1  0.120500  0.292100  0.989200  1.0  0.7174
  C  C45  1  0.922900  0.008500  0.209600  1.0  0.7235
  C  C46  1  0.185000  0.624200  0.374200  1.0  -0.1021
  C  C47  1  0.162600  0.679500  0.459800  1.0  -0.0741
  C  C48  1  0.162800  0.612700  0.535000  1.0  -0.0219
  C  C49  1  0.176400  0.492000  0.525300  1.0  -0.14
  C  C50  1  0.196800  0.437100  0.439700  1.0  -0.0182
  C  C51  1  0.202200  0.502400  0.364800  1.0  -0.0757
  C  C52  1  0.188900  0.683200  0.286000  1.0  0.748
  C  C53  1  0.145500  0.811400  0.479500  1.0  0.6832
  C  C54  1  0.179500  0.418400  0.605500  1.0  0.7222
  O  O55  1  0.727700  0.685300  0.409500  1.0  -0.6076
  O  O56  1  0.633200  0.532300  0.318020  1.0  -0.6047
  O  O57  1  0.760800  0.141900  0.466000  1.0  -0.4641
  O  O58  1  0.516500  0.132600  0.555600  1.0  -0.5646
  O  O59  1  0.558200  0.246800  0.730680  1.0  -0.6605
  O  O60  1  0.814100  0.342800  0.770500  1.0  -0.6204
  O  O61  1  0.439700  0.065100  0.857900  1.0  -0.5838
  O  O62  1  0.396100  0.013700  0.710390  1.0  -0.5573
  O  O63  1  0.522400  0.663800  0.068700  1.0  -0.5569
  O  O64  1  0.783100  0.747100  0.021840  1.0  -0.5663
  O  O65  1  0.632000  0.487500  0.929900  1.0  -0.5047
  O  O66  1  0.381000  0.430200  0.849670  1.0  -0.6819
  O  O67  1  0.191900  0.230900  0.773730  1.0  -0.7869
  O  O68  1  0.227700  0.314700  0.590500  1.0  -0.6032
  O  O69  1  0.133200  0.467700  0.681980  1.0  -0.605
  O  O70  1  0.260800  0.858100  0.534000  1.0  -0.4664
  O  O71  1  0.016500  0.867400  0.444400  1.0  -0.5637
  O  O72  1  0.058200  0.753200  0.269320  1.0  -0.661
  O  O73  1  0.314100  0.657200  0.229500  1.0  -0.6085
  O  O74  1  0.939700  0.934900  0.142100  1.0  -0.5831
  O  O75  1  0.896100  0.986300  0.289610  1.0  -0.5575
  O  O76  1  0.022400  0.336200  0.931300  1.0  -0.5559
  O  O77  1  0.283100  0.252900  0.978160  1.0  -0.5676
  O  O78  1  0.132000  0.512500  0.070100  1.0  -0.5049
  O  O79  1  0.881000  0.569800  0.150330  1.0  -0.6811
  O  O80  1  0.691900  0.769100  0.226270  1.0  -0.7864
