# generated using pymatgen
data_Zn5H36C72N6(O2F3)8
_symmetry_space_group_name_H-M   'P 1'
_cell_length_a   20.89600000
_cell_length_b   7.38720000
_cell_length_c   31.83400000
_cell_angle_alpha   90.00000000
_cell_angle_beta   124.63600000
_cell_angle_gamma   90.00000000
_symmetry_Int_Tables_number   1
_chemical_formula_structural   Zn5H36C72N6(O2F3)8
_chemical_formula_sum   'Zn10 H72 C144 N12 O32 F48'
_cell_volume   4043.12947004
_cell_formula_units_Z   2
loop_
 _symmetry_equiv_pos_site_id
 _symmetry_equiv_pos_as_xyz
  1  'x, y, z'
loop_
 _atom_site_type_symbol
 _atom_site_label
 _atom_site_symmetry_multiplicity
 _atom_site_fract_x
 _atom_site_fract_y
 _atom_site_fract_z
 _atom_site_occupancy
 _atom_site_charge
  Zn  Zn1  1  0.674470  0.446510  0.656020  1.0  0.9644
  Zn  Zn2  1  0.677860  0.811210  0.590500  1.0  0.9812
  Zn  Zn3  1  0.325530  0.446510  0.843980  1.0  0.9637
  Zn  Zn4  1  0.322140  0.811210  0.909500  1.0  0.9816
  Zn  Zn5  1  0.325530  0.553490  0.343980  1.0  0.9635
  Zn  Zn6  1  0.322140  0.188790  0.409500  1.0  0.9812
  Zn  Zn7  1  0.674470  0.553490  0.156020  1.0  0.964
  Zn  Zn8  1  0.677860  0.188790  0.090500  1.0  0.9807
  Zn  Zn9  1  0.500000  0.000000  0.500000  1.0  1.0368
  Zn  Zn10  1  0.500000  0.000000  0.000000  1.0  1.0368
  H  H11  1  0.827500  0.111900  0.640000  1.0  0.1077
  H  H12  1  0.926900  0.992200  0.637100  1.0  0.1131
  H  H13  1  0.927000  0.434700  0.564800  1.0  0.1045
  H  H14  1  0.827900  0.555200  0.568300  1.0  0.1001
  H  H15  1  0.077100  0.776700  0.628800  1.0  0.0941
  H  H16  1  0.168600  0.660900  0.707800  1.0  0.104
  H  H17  1  0.165900  0.121400  0.772400  1.0  0.0976
  H  H18  1  0.073100  0.235400  0.693300  1.0  0.1084
  H  H19  1  0.477600  0.411600  0.579500  1.0  0.1114
  H  H20  1  0.402600  0.639600  0.512400  1.0  0.1171
  H  H21  1  0.556700  0.055900  0.896100  1.0  0.1099
  H  H22  1  0.762800  0.877000  0.014900  1.0  0.0839
  H  H23  1  0.779400  0.716400  0.959400  1.0  0.0959
  H  H24  1  0.577800  0.915400  0.841100  1.0  0.1147
  H  H25  1  0.599600  0.634400  0.751300  1.0  0.0974
  H  H26  1  0.579500  0.826800  0.687700  1.0  0.0891
  H  H27  1  0.720900  0.192200  0.792700  1.0  0.0964
  H  H28  1  0.737100  0.007200  0.855800  1.0  0.1051
  H  H29  1  0.172500  0.111900  0.860000  1.0  0.1073
  H  H30  1  0.073100  0.992200  0.862900  1.0  0.113
  H  H31  1  0.073000  0.434700  0.935200  1.0  0.1056
  H  H32  1  0.172100  0.555200  0.931700  1.0  0.1
  H  H33  1  0.922900  0.776700  0.871200  1.0  0.0946
  H  H34  1  0.831400  0.660900  0.792200  1.0  0.1038
  H  H35  1  0.834100  0.121400  0.727600  1.0  0.0974
  H  H36  1  0.926900  0.235400  0.806700  1.0  0.1084
  H  H37  1  0.522400  0.411600  0.920500  1.0  0.111
  H  H38  1  0.597400  0.639600  0.987600  1.0  0.1169
  H  H39  1  0.443300  0.055900  0.603900  1.0  0.1095
  H  H40  1  0.237200  0.877000  0.485100  1.0  0.0841
  H  H41  1  0.220600  0.716400  0.540600  1.0  0.0955
  H  H42  1  0.422200  0.915400  0.658900  1.0  0.1146
  H  H43  1  0.400400  0.634400  0.748700  1.0  0.0977
  H  H44  1  0.420500  0.826800  0.812300  1.0  0.0892
  H  H45  1  0.279100  0.192200  0.707300  1.0  0.0963
  H  H46  1  0.262900  0.007200  0.644200  1.0  0.1054
  H  H47  1  0.172500  0.888100  0.360000  1.0  0.1075
  H  H48  1  0.073100  0.007800  0.362900  1.0  0.1131
  H  H49  1  0.073000  0.565300  0.435200  1.0  0.1062
  H  H50  1  0.172100  0.444800  0.431700  1.0  0.1003
  H  H51  1  0.922900  0.223300  0.371200  1.0  0.095
  H  H52  1  0.831400  0.339100  0.292200  1.0  0.1038
  H  H53  1  0.834100  0.878600  0.227600  1.0  0.0973
  H  H54  1  0.926900  0.764600  0.306700  1.0  0.1091
  H  H55  1  0.522400  0.588400  0.420500  1.0  0.1113
  H  H56  1  0.597400  0.360400  0.487600  1.0  0.117
  H  H57  1  0.443300  0.944100  0.103900  1.0  0.1096
  H  H58  1  0.237200  0.123000  0.985100  1.0  0.0837
  H  H59  1  0.220600  0.283600  0.040600  1.0  0.0955
  H  H60  1  0.422200  0.084600  0.158900  1.0  0.1146
  H  H61  1  0.400400  0.365600  0.248700  1.0  0.0977
  H  H62  1  0.420500  0.173200  0.312300  1.0  0.0894
  H  H63  1  0.279100  0.807800  0.207300  1.0  0.096
  H  H64  1  0.262900  0.992800  0.144200  1.0  0.1049
  H  H65  1  0.827500  0.888100  0.140000  1.0  0.1076
  H  H66  1  0.926900  0.007800  0.137100  1.0  0.1126
  H  H67  1  0.927000  0.565300  0.064800  1.0  0.1049
  H  H68  1  0.827900  0.444800  0.068300  1.0  0.1001
  H  H69  1  0.077100  0.223300  0.128800  1.0  0.0948
  H  H70  1  0.168600  0.339100  0.207800  1.0  0.1035
  H  H71  1  0.165900  0.878600  0.272400  1.0  0.0979
  H  H72  1  0.073100  0.764600  0.193300  1.0  0.1086
  H  H73  1  0.477600  0.588400  0.079500  1.0  0.1113
  H  H74  1  0.402600  0.360400  0.012400  1.0  0.1176
  H  H75  1  0.556700  0.944100  0.396100  1.0  0.1097
  H  H76  1  0.762800  0.123000  0.514900  1.0  0.084
  H  H77  1  0.779400  0.283600  0.459400  1.0  0.0958
  H  H78  1  0.577800  0.084600  0.341100  1.0  0.1143
  H  H79  1  0.599600  0.365600  0.251300  1.0  0.0986
  H  H80  1  0.579500  0.173200  0.187700  1.0  0.0895
  H  H81  1  0.720900  0.807800  0.292700  1.0  0.0962
  H  H82  1  0.737100  0.992800  0.355800  1.0  0.105
  C  C83  1  0.756000  0.430600  0.608700  1.0  0.679
  C  C84  1  0.818600  0.346400  0.605000  1.0  -0.1458
  C  C85  1  0.847700  0.177600  0.625200  1.0  -0.0388
  C  C86  1  0.907300  0.106100  0.623200  1.0  -0.1312
  C  C87  1  0.938300  0.200200  0.601100  1.0  0.0804
  C  C88  1  0.907600  0.369500  0.580200  1.0  -0.1537
  C  C89  1  0.848000  0.441700  0.582300  1.0  -0.0165
  C  C90  1  0.004000  0.108500  0.599800  1.0  -0.3008
  C  C91  1  0.049300  0.243100  0.588500  1.0  0.707
  C  C92  1  0.964100  0.968500  0.555900  1.0  0.7062
  C  C93  1  0.064800  0.020100  0.652200  1.0  0.0983
  C  C94  1  0.094600  0.846700  0.657700  1.0  -0.1425
  C  C95  1  0.149300  0.777000  0.705000  1.0  -0.0215
  C  C96  1  0.175800  0.878300  0.748400  1.0  -0.1495
  C  C97  1  0.147600  0.050700  0.743500  1.0  -0.0314
  C  C98  1  0.092300  0.119400  0.695900  1.0  -0.146
  C  C99  1  0.234100  0.799800  0.800100  1.0  0.682
  C  C100  1  0.498200  0.508600  0.572200  1.0  -0.0095
  C  C101  1  0.456500  0.635100  0.534900  1.0  -0.0016
  C  C102  1  0.641200  0.059400  0.997900  1.0  0.6947
  C  C103  1  0.657000  0.978800  0.961600  1.0  -0.1663
  C  C104  1  0.601900  0.989100  0.909000  1.0  -0.0394
  C  C105  1  0.724300  0.880100  0.980000  1.0  -0.0401
  C  C106  1  0.734800  0.785500  0.946500  1.0  -0.1257
  C  C107  1  0.679800  0.792900  0.894500  1.0  0.092
  C  C108  1  0.613800  0.902200  0.876100  1.0  -0.1292
  C  C109  1  0.684000  0.680100  0.855400  1.0  -0.3115
  C  C110  1  0.624200  0.525400  0.838200  1.0  0.7143
  C  C111  1  0.765500  0.592600  0.878700  1.0  0.6911
  C  C112  1  0.669200  0.800000  0.810900  1.0  0.0757
  C  C113  1  0.623100  0.747800  0.759900  1.0  -0.1334
  C  C114  1  0.611800  0.862900  0.721700  1.0  -0.0144
  C  C115  1  0.647700  0.030000  0.733300  1.0  -0.1405
  C  C116  1  0.695400  0.081200  0.784100  1.0  -0.028
  C  C117  1  0.705500  0.969300  0.822000  1.0  -0.1113
  C  C118  1  0.635800  0.151500  0.692000  1.0  0.6785
  C  C119  1  0.244000  0.430600  0.891300  1.0  0.6793
  C  C120  1  0.181400  0.346400  0.895000  1.0  -0.1448
  C  C121  1  0.152300  0.177600  0.874800  1.0  -0.0381
  C  C122  1  0.092700  0.106100  0.876800  1.0  -0.1311
  C  C123  1  0.061700  0.200200  0.898900  1.0  0.0801
  C  C124  1  0.092400  0.369500  0.919800  1.0  -0.1552
  C  C125  1  0.152000  0.441700  0.917700  1.0  -0.0165
  C  C126  1  0.996000  0.108500  0.900200  1.0  -0.301
  C  C127  1  0.950700  0.243100  0.911500  1.0  0.7079
  C  C128  1  0.035900  0.968500  0.944100  1.0  0.7077
  C  C129  1  0.935200  0.020100  0.847800  1.0  0.0982
  C  C130  1  0.905400  0.846700  0.842300  1.0  -0.142
  C  C131  1  0.850700  0.777000  0.795000  1.0  -0.0216
  C  C132  1  0.824200  0.878300  0.751600  1.0  -0.151
  C  C133  1  0.852400  0.050700  0.756500  1.0  -0.0331
  C  C134  1  0.907700  0.119400  0.804100  1.0  -0.1461
  C  C135  1  0.765900  0.799800  0.699900  1.0  0.6828
  C  C136  1  0.501800  0.508600  0.927800  1.0  -0.0106
  C  C137  1  0.543500  0.635100  0.965100  1.0  -1e-04
  C  C138  1  0.358800  0.059400  0.502100  1.0  0.6956
  C  C139  1  0.343000  0.978800  0.538400  1.0  -0.166
  C  C140  1  0.398100  0.989100  0.591000  1.0  -0.0408
  C  C141  1  0.275700  0.880100  0.520000  1.0  -0.0409
  C  C142  1  0.265200  0.785500  0.553500  1.0  -0.1253
  C  C143  1  0.320200  0.792900  0.605500  1.0  0.0923
  C  C144  1  0.386200  0.902200  0.623900  1.0  -0.1299
  C  C145  1  0.316000  0.680100  0.644600  1.0  -0.3118
  C  C146  1  0.375800  0.525400  0.661800  1.0  0.7137
  C  C147  1  0.234500  0.592600  0.621300  1.0  0.6933
  C  C148  1  0.330800  0.800000  0.689100  1.0  0.0773
  C  C149  1  0.376900  0.747800  0.740100  1.0  -0.1338
  C  C150  1  0.388200  0.862900  0.778300  1.0  -0.0166
  C  C151  1  0.352300  0.030000  0.766700  1.0  -0.14
  C  C152  1  0.304600  0.081200  0.715900  1.0  -0.0278
  C  C153  1  0.294500  0.969300  0.678000  1.0  -0.1112
  C  C154  1  0.364200  0.151500  0.808000  1.0  0.6774
  C  C155  1  0.244000  0.569400  0.391300  1.0  0.6794
  C  C156  1  0.181400  0.653600  0.395000  1.0  -0.1456
  C  C157  1  0.152300  0.822400  0.374800  1.0  -0.0385
  C  C158  1  0.092700  0.893900  0.376800  1.0  -0.1309
  C  C159  1  0.061700  0.799800  0.398900  1.0  0.0803
  C  C160  1  0.092400  0.630500  0.419800  1.0  -0.1547
  C  C161  1  0.152000  0.558300  0.417700  1.0  -0.0164
  C  C162  1  0.996000  0.891500  0.400200  1.0  -0.3009
  C  C163  1  0.950700  0.756900  0.411500  1.0  0.7091
  C  C164  1  0.035900  0.031500  0.444100  1.0  0.7071
  C  C165  1  0.935200  0.979900  0.347800  1.0  0.0981
  C  C166  1  0.905400  0.153300  0.342300  1.0  -0.141
  C  C167  1  0.850700  0.223000  0.295000  1.0  -0.0217
  C  C168  1  0.824200  0.121700  0.251600  1.0  -0.1492
  C  C169  1  0.852400  0.949300  0.256500  1.0  -0.0327
  C  C170  1  0.907700  0.880600  0.304100  1.0  -0.1465
  C  C171  1  0.765900  0.200200  0.199900  1.0  0.6832
  C  C172  1  0.501800  0.491400  0.427800  1.0  -0.01
  C  C173  1  0.543500  0.364900  0.465100  1.0  -0.0004
  C  C174  1  0.358800  0.940600  0.002100  1.0  0.6949
  C  C175  1  0.343000  0.021200  0.038400  1.0  -0.1667
  C  C176  1  0.398100  0.010900  0.091000  1.0  -0.0409
  C  C177  1  0.275700  0.119900  0.020000  1.0  -0.0406
  C  C178  1  0.265200  0.214500  0.053500  1.0  -0.1248
  C  C179  1  0.320200  0.207100  0.105500  1.0  0.0923
  C  C180  1  0.386200  0.097800  0.123900  1.0  -0.13
  C  C181  1  0.316000  0.319900  0.144600  1.0  -0.3117
  C  C182  1  0.375800  0.474600  0.161800  1.0  0.7139
  C  C183  1  0.234500  0.407400  0.121300  1.0  0.6934
  C  C184  1  0.330800  0.200000  0.189100  1.0  0.0774
  C  C185  1  0.376900  0.252200  0.240100  1.0  -0.134
  C  C186  1  0.388200  0.137100  0.278300  1.0  -0.0167
  C  C187  1  0.352300  0.970000  0.266700  1.0  -0.1399
  C  C188  1  0.304600  0.918800  0.215900  1.0  -0.0275
  C  C189  1  0.294500  0.030700  0.178000  1.0  -0.1105
  C  C190  1  0.364200  0.848500  0.308000  1.0  0.6777
  C  C191  1  0.756000  0.569400  0.108700  1.0  0.6797
  C  C192  1  0.818600  0.653600  0.105000  1.0  -0.1466
  C  C193  1  0.847700  0.822400  0.125200  1.0  -0.0385
  C  C194  1  0.907300  0.893900  0.123200  1.0  -0.1313
  C  C195  1  0.938300  0.799800  0.101100  1.0  0.0808
  C  C196  1  0.907600  0.630500  0.080200  1.0  -0.1545
  C  C197  1  0.848000  0.558300  0.082300  1.0  -0.0164
  C  C198  1  0.004000  0.891500  0.099800  1.0  -0.3007
  C  C199  1  0.049300  0.756900  0.088500  1.0  0.7076
  C  C200  1  0.964100  0.031500  0.055900  1.0  0.7071
  C  C201  1  0.064800  0.979900  0.152200  1.0  0.0985
  C  C202  1  0.094600  0.153300  0.157700  1.0  -0.1409
  C  C203  1  0.149300  0.223000  0.205000  1.0  -0.0216
  C  C204  1  0.175800  0.121700  0.248400  1.0  -0.1495
  C  C205  1  0.147600  0.949300  0.243500  1.0  -0.0314
  C  C206  1  0.092300  0.880600  0.195900  1.0  -0.1453
  C  C207  1  0.234100  0.200200  0.300100  1.0  0.6819
  C  C208  1  0.498200  0.491400  0.072200  1.0  -0.0096
  C  C209  1  0.456500  0.364900  0.034900  1.0  -0.0013
  C  C210  1  0.641200  0.940600  0.497900  1.0  0.6951
  C  C211  1  0.657000  0.021200  0.461600  1.0  -0.1667
  C  C212  1  0.601900  0.010900  0.409000  1.0  -0.0388
  C  C213  1  0.724300  0.119900  0.480000  1.0  -0.04
  C  C214  1  0.734800  0.214500  0.446500  1.0  -0.1254
  C  C215  1  0.679800  0.207100  0.394500  1.0  0.0917
  C  C216  1  0.613800  0.097800  0.376100  1.0  -0.1293
  C  C217  1  0.684000  0.319900  0.355400  1.0  -0.3115
  C  C218  1  0.624200  0.474600  0.338200  1.0  0.7143
  C  C219  1  0.765500  0.407400  0.378700  1.0  0.6906
  C  C220  1  0.669200  0.200000  0.310900  1.0  0.0757
  C  C221  1  0.623100  0.252200  0.259900  1.0  -0.134
  C  C222  1  0.611800  0.137100  0.221700  1.0  -0.0146
  C  C223  1  0.647700  0.970000  0.233300  1.0  -0.1405
  C  C224  1  0.695400  0.918800  0.284100  1.0  -0.0282
  C  C225  1  0.705500  0.030700  0.322000  1.0  -0.1103
  C  C226  1  0.635800  0.848500  0.192000  1.0  0.6778
  N  N227  1  0.573800  0.548300  0.596400  1.0  -0.2322
  N  N228  1  0.577900  0.695700  0.574000  1.0  -0.0336
  N  N229  1  0.507100  0.751800  0.536800  1.0  -0.1787
  N  N230  1  0.426200  0.548300  0.903600  1.0  -0.2332
  N  N231  1  0.422100  0.695700  0.926000  1.0  -0.0309
  N  N232  1  0.492900  0.751800  0.963200  1.0  -0.1792
  N  N233  1  0.426200  0.451700  0.403600  1.0  -0.233
  N  N234  1  0.422100  0.304300  0.426000  1.0  -0.0311
  N  N235  1  0.492900  0.248200  0.463200  1.0  -0.18
  N  N236  1  0.573800  0.451700  0.096400  1.0  -0.2327
  N  N237  1  0.577900  0.304300  0.074000  1.0  -0.0327
  N  N238  1  0.507100  0.248200  0.036800  1.0  -0.18
  O  O239  1  0.736900  0.590300  0.593400  1.0  -0.6374
  O  O240  1  0.726100  0.333600  0.626000  1.0  -0.593
  O  O241  1  0.259100  0.644000  0.801000  1.0  -0.6445
  O  O242  1  0.254100  0.892300  0.839000  1.0  -0.5933
  O  O243  1  0.572500  0.108900  0.980940  1.0  -0.6121
  O  O244  1  0.697600  0.067900  0.044410  1.0  -0.5825
  O  O245  1  0.585600  0.113500  0.646800  1.0  -0.5806
  O  O246  1  0.679000  0.289300  0.706100  1.0  -0.5916
  O  O247  1  0.263100  0.590300  0.906600  1.0  -0.6373
  O  O248  1  0.273900  0.333600  0.874000  1.0  -0.5925
  O  O249  1  0.740900  0.644000  0.699000  1.0  -0.6447
  O  O250  1  0.745900  0.892300  0.661000  1.0  -0.5937
  O  O251  1  0.427500  0.108900  0.519060  1.0  -0.612
  O  O252  1  0.302400  0.067900  0.455590  1.0  -0.5822
  O  O253  1  0.414400  0.113500  0.853200  1.0  -0.5797
  O  O254  1  0.321000  0.289300  0.793900  1.0  -0.5914
  O  O255  1  0.263100  0.409700  0.406600  1.0  -0.6353
  O  O256  1  0.273900  0.666400  0.374000  1.0  -0.5924
  O  O257  1  0.740900  0.356000  0.199000  1.0  -0.6435
  O  O258  1  0.745900  0.107700  0.161000  1.0  -0.5936
  O  O259  1  0.427500  0.891100  0.019060  1.0  -0.6116
  O  O260  1  0.302400  0.932100  0.955590  1.0  -0.5823
  O  O261  1  0.414400  0.886500  0.353200  1.0  -0.5789
  O  O262  1  0.321000  0.710700  0.293900  1.0  -0.5909
  O  O263  1  0.736900  0.409700  0.093400  1.0  -0.6371
  O  O264  1  0.726100  0.666400  0.126000  1.0  -0.5927
  O  O265  1  0.259100  0.356000  0.301000  1.0  -0.6431
  O  O266  1  0.254100  0.107700  0.339000  1.0  -0.594
  O  O267  1  0.572500  0.891100  0.480940  1.0  -0.612
  O  O268  1  0.697600  0.932100  0.544410  1.0  -0.5825
  O  O269  1  0.585600  0.886500  0.146800  1.0  -0.5809
  O  O270  1  0.679000  0.710700  0.206100  1.0  -0.5909
  F  F271  1  0.007100  0.307900  0.541300  1.0  -0.2029
  F  F272  1  0.073400  0.385800  0.620100  1.0  -0.1919
  F  F273  1  0.111700  0.166600  0.595300  1.0  -0.1916
  F  F274  1  0.904600  0.042000  0.512530  1.0  -0.2109
  F  F275  1  0.933700  0.831500  0.566820  1.0  -0.1962
  F  F276  1  0.011900  0.895800  0.545560  1.0  -0.1977
  F  F277  1  0.630000  0.397500  0.811500  1.0  -0.2077
  F  F278  1  0.551800  0.587900  0.809410  1.0  -0.2019
  F  F279  1  0.631400  0.445000  0.878200  1.0  -0.2131
  F  F280  1  0.770300  0.517300  0.842300  1.0  -0.1997
  F  F281  1  0.822300  0.713900  0.902360  1.0  -0.1875
  F  F282  1  0.781500  0.462300  0.912600  1.0  -0.2094
  F  F283  1  0.992900  0.307900  0.958700  1.0  -0.2036
  F  F284  1  0.926600  0.385800  0.879900  1.0  -0.1918
  F  F285  1  0.888300  0.166600  0.904700  1.0  -0.1912
  F  F286  1  0.095400  0.042000  0.987470  1.0  -0.2125
  F  F287  1  0.066300  0.831500  0.933180  1.0  -0.1965
  F  F288  1  0.988100  0.895800  0.954440  1.0  -0.1984
  F  F289  1  0.370000  0.397500  0.688500  1.0  -0.2079
  F  F290  1  0.448200  0.587900  0.690590  1.0  -0.202
  F  F291  1  0.368600  0.445000  0.621800  1.0  -0.213
  F  F292  1  0.229700  0.517300  0.657700  1.0  -0.1998
  F  F293  1  0.177700  0.713900  0.597640  1.0  -0.1859
  F  F294  1  0.218500  0.462300  0.587400  1.0  -0.2086
  F  F295  1  0.992900  0.692100  0.458700  1.0  -0.203
  F  F296  1  0.926600  0.614200  0.379900  1.0  -0.1913
  F  F297  1  0.888300  0.833400  0.404700  1.0  -0.1908
  F  F298  1  0.095400  0.958000  0.487470  1.0  -0.2124
  F  F299  1  0.066300  0.168500  0.433180  1.0  -0.1971
  F  F300  1  0.988100  0.104200  0.454440  1.0  -0.1987
  F  F301  1  0.370000  0.602500  0.188500  1.0  -0.2084
  F  F302  1  0.448200  0.412100  0.190590  1.0  -0.2011
  F  F303  1  0.368600  0.555000  0.121800  1.0  -0.2124
  F  F304  1  0.229700  0.482700  0.157700  1.0  -0.1998
  F  F305  1  0.177700  0.286100  0.097640  1.0  -0.1863
  F  F306  1  0.218500  0.537700  0.087400  1.0  -0.2086
  F  F307  1  0.007100  0.692100  0.041300  1.0  -0.2031
  F  F308  1  0.073400  0.614200  0.120100  1.0  -0.1917
  F  F309  1  0.111700  0.833400  0.095300  1.0  -0.1916
  F  F310  1  0.904600  0.958000  0.012530  1.0  -0.2108
  F  F311  1  0.933700  0.168500  0.066820  1.0  -0.197
  F  F312  1  0.011900  0.104200  0.045560  1.0  -0.1977
  F  F313  1  0.630000  0.602500  0.311500  1.0  -0.2085
  F  F314  1  0.551800  0.412100  0.309410  1.0  -0.2008
  F  F315  1  0.631400  0.555000  0.378200  1.0  -0.2131
  F  F316  1  0.770300  0.482700  0.342300  1.0  -0.1988
  F  F317  1  0.822300  0.286100  0.402360  1.0  -0.1871
  F  F318  1  0.781500  0.537700  0.412600  1.0  -0.2093
