# generated using pymatgen
data_CoH8(C3N)4
_symmetry_space_group_name_H-M   'P 1'
_cell_length_a   13.29090000
_cell_length_b   13.29090000
_cell_length_c   14.35600000
_cell_angle_alpha   90.00000000
_cell_angle_beta   90.00000000
_cell_angle_gamma   90.00000000
_symmetry_Int_Tables_number   1
_chemical_formula_structural   CoH8(C3N)4
_chemical_formula_sum   'Co4 H32 C48 N16'
_cell_volume   2535.95901546
_cell_formula_units_Z   4
loop_
 _symmetry_equiv_pos_site_id
 _symmetry_equiv_pos_as_xyz
  1  'x, y, z'
loop_
 _atom_site_type_symbol
 _atom_site_label
 _atom_site_symmetry_multiplicity
 _atom_site_fract_x
 _atom_site_fract_y
 _atom_site_fract_z
 _atom_site_occupancy
 _atom_site_charge
  Co  Co1  1  0.989120  0.989120  0.125000  1.0  0.6314
  Co  Co2  1  0.010880  0.010880  0.625000  1.0  0.6316
  Co  Co3  1  0.010880  0.989120  0.875000  1.0  0.6314
  Co  Co4  1  0.989120  0.010880  0.375000  1.0  0.6316
  H  H5  1  0.228600  0.980600  0.114100  1.0  0.0947
  H  H6  1  0.402000  0.040200  0.383700  1.0  0.1055
  H  H7  1  0.575900  0.036100  0.384600  1.0  0.106
  H  H8  1  0.750800  0.044900  0.380600  1.0  0.0906
  H  H9  1  0.771400  0.019400  0.614100  1.0  0.0951
  H  H10  1  0.598000  0.959800  0.883700  1.0  0.1057
  H  H11  1  0.424100  0.963900  0.884600  1.0  0.1059
  H  H12  1  0.249200  0.955100  0.880600  1.0  0.0909
  H  H13  1  0.019400  0.228600  0.864100  1.0  0.0942
  H  H14  1  0.959800  0.402000  0.133700  1.0  0.1048
  H  H15  1  0.963900  0.575900  0.134600  1.0  0.105
  H  H16  1  0.955100  0.750800  0.130600  1.0  0.0911
  H  H17  1  0.980600  0.771400  0.364100  1.0  0.0944
  H  H18  1  0.040200  0.598000  0.633700  1.0  0.1053
  H  H19  1  0.036100  0.424100  0.634600  1.0  0.1058
  H  H20  1  0.044900  0.249200  0.630600  1.0  0.0913
  H  H21  1  0.771400  0.980600  0.885900  1.0  0.0953
  H  H22  1  0.598000  0.040200  0.616300  1.0  0.1057
  H  H23  1  0.424100  0.036100  0.615400  1.0  0.1062
  H  H24  1  0.249200  0.044900  0.619400  1.0  0.0908
  H  H25  1  0.228600  0.019400  0.385900  1.0  0.095
  H  H26  1  0.402000  0.959800  0.116300  1.0  0.1057
  H  H27  1  0.575900  0.963900  0.115400  1.0  0.1063
  H  H28  1  0.750800  0.955100  0.119400  1.0  0.0906
  H  H29  1  0.980600  0.228600  0.135900  1.0  0.0948
  H  H30  1  0.040200  0.402000  0.866300  1.0  0.1053
  H  H31  1  0.036100  0.575900  0.865400  1.0  0.1056
  H  H32  1  0.044900  0.750800  0.869400  1.0  0.0909
  H  H33  1  0.019400  0.771400  0.635900  1.0  0.0944
  H  H34  1  0.959800  0.598000  0.366300  1.0  0.1049
  H  H35  1  0.963900  0.424100  0.365400  1.0  0.1053
  H  H36  1  0.955100  0.249200  0.369400  1.0  0.0913
  C  C37  1  0.207930  0.989200  0.175500  1.0  0.0463
  C  C38  1  0.436480  0.023300  0.329530  1.0  -0.1115
  C  C39  1  0.541700  0.021900  0.329610  1.0  -0.1237
  C  C40  1  0.771380  0.024500  0.321600  1.0  0.034
  C  C41  1  0.792070  0.010800  0.675500  1.0  0.0473
  C  C42  1  0.563520  0.976700  0.829530  1.0  -0.1111
  C  C43  1  0.458300  0.978100  0.829610  1.0  -0.1238
  C  C44  1  0.228620  0.975500  0.821600  1.0  0.0347
  C  C45  1  0.010800  0.207930  0.925500  1.0  0.0465
  C  C46  1  0.976700  0.436480  0.079530  1.0  -0.1124
  C  C47  1  0.978100  0.541700  0.079610  1.0  -0.1252
  C  C48  1  0.975500  0.771380  0.071600  1.0  0.0341
  C  C49  1  0.989200  0.792070  0.425500  1.0  0.0466
  C  C50  1  0.023300  0.563520  0.579530  1.0  -0.111
  C  C51  1  0.021900  0.458300  0.579610  1.0  -0.1237
  C  C52  1  0.024500  0.228620  0.571600  1.0  0.0343
  C  C53  1  0.792070  0.989200  0.824500  1.0  0.0449
  C  C54  1  0.563520  0.023300  0.670470  1.0  -0.1152
  C  C55  1  0.458300  0.021900  0.670390  1.0  -0.1245
  C  C56  1  0.228620  0.024500  0.678400  1.0  0.0342
  C  C57  1  0.207930  0.010800  0.324500  1.0  0.0459
  C  C58  1  0.436480  0.976700  0.170470  1.0  -0.1141
  C  C59  1  0.541700  0.978100  0.170390  1.0  -0.1248
  C  C60  1  0.771380  0.975500  0.178400  1.0  0.0349
  C  C61  1  0.989200  0.207930  0.074500  1.0  0.0448
  C  C62  1  0.023300  0.436480  0.920470  1.0  -0.1159
  C  C63  1  0.021900  0.541700  0.920390  1.0  -0.125
  C  C64  1  0.024500  0.771380  0.928400  1.0  0.0341
  C  C65  1  0.010800  0.792070  0.574500  1.0  0.0453
  C  C66  1  0.976700  0.563520  0.420470  1.0  -0.1149
  C  C67  1  0.978100  0.458300  0.420390  1.0  -0.126
  C  C68  1  0.975500  0.228620  0.428400  1.0  0.0345
  C  C69  1  0.272400  0.000000  0.250000  1.0  -0.1498
  C  C70  1  0.383500  0.000000  0.250000  1.0  0.0266
  C  C71  1  0.596100  0.000000  0.250000  1.0  0.0477
  C  C72  1  0.707100  0.000000  0.250000  1.0  -0.1375
  C  C73  1  0.727600  0.000000  0.750000  1.0  -0.1511
  C  C74  1  0.616500  0.000000  0.750000  1.0  0.0265
  C  C75  1  0.403900  0.000000  0.750000  1.0  0.0477
  C  C76  1  0.292900  0.000000  0.750000  1.0  -0.136
  C  C77  1  0.000000  0.272400  0.000000  1.0  -0.1501
  C  C78  1  0.000000  0.383500  0.000000  1.0  0.027
  C  C79  1  0.000000  0.596100  0.000000  1.0  0.0485
  C  C80  1  0.000000  0.707100  0.000000  1.0  -0.1361
  C  C81  1  0.000000  0.727600  0.500000  1.0  -0.1506
  C  C82  1  0.000000  0.616500  0.500000  1.0  0.0273
  C  C83  1  0.000000  0.403900  0.500000  1.0  0.0486
  C  C84  1  0.000000  0.292900  0.500000  1.0  -0.1349
  N  N85  1  0.111160  0.992820  0.203130  1.0  -0.2378
  N  N86  1  0.867510  0.015150  0.295060  1.0  -0.2146
  N  N87  1  0.888840  0.007180  0.703130  1.0  -0.2341
  N  N88  1  0.132490  0.984850  0.795060  1.0  -0.2155
  N  N89  1  0.007180  0.111160  0.953130  1.0  -0.2343
  N  N90  1  0.984850  0.867510  0.045060  1.0  -0.2134
  N  N91  1  0.992820  0.888840  0.453130  1.0  -0.2337
  N  N92  1  0.015150  0.132490  0.545060  1.0  -0.2135
  N  N93  1  0.888840  0.992820  0.796870  1.0  -0.2352
  N  N94  1  0.132490  0.015150  0.704940  1.0  -0.2144
  N  N95  1  0.111160  0.007180  0.296870  1.0  -0.2384
  N  N96  1  0.867510  0.984850  0.204940  1.0  -0.214
  N  N97  1  0.992820  0.111160  0.046870  1.0  -0.2352
  N  N98  1  0.015150  0.867510  0.954940  1.0  -0.2125
  N  N99  1  0.007180  0.888840  0.546870  1.0  -0.2341
  N  N100  1  0.984850  0.132490  0.454940  1.0  -0.213
