# generated using pymatgen
data_FeH2PtC8(N3F)2
_symmetry_space_group_name_H-M   'P 1'
_cell_length_a   7.27820000
_cell_length_b   7.56130000
_cell_length_c   7.48200000
_cell_angle_alpha   90.00000000
_cell_angle_beta   101.49400000
_cell_angle_gamma   90.00000000
_symmetry_Int_Tables_number   1
_chemical_formula_structural   FeH2PtC8(N3F)2
_chemical_formula_sum   'Fe1 H2 Pt1 C8 N6 F2'
_cell_volume   403.49681949
_cell_formula_units_Z   1
loop_
 _symmetry_equiv_pos_site_id
 _symmetry_equiv_pos_as_xyz
  1  'x, y, z'
loop_
 _atom_site_type_symbol
 _atom_site_label
 _atom_site_symmetry_multiplicity
 _atom_site_fract_x
 _atom_site_fract_y
 _atom_site_fract_z
 _atom_site_occupancy
 _atom_site_charge
  Fe  Fe1  1  0.500000  0.500000  0.000000  1.0  0.6898
  H  H2  1  0.226600  0.500000  0.298900  1.0  0.1332
  H  H3  1  0.773400  0.500000  0.701100  1.0  0.1317
  Pt  Pt4  1  0.000000  0.000000  0.000000  1.0  0.1108
  C  C5  1  0.184700  0.187600  0.981000  1.0  0.1572
  C  C6  1  0.815300  0.187600  0.019000  1.0  0.1542
  C  C7  1  0.815300  0.812400  0.019000  1.0  0.1543
  C  C8  1  0.184700  0.812400  0.981000  1.0  0.1581
  C  C9  1  0.343000  0.500000  0.377000  1.0  0.1843
  C  C10  1  0.658000  0.500000  0.442000  1.0  0.335
  C  C11  1  0.657000  0.500000  0.623000  1.0  0.1854
  C  C12  1  0.342000  0.500000  0.558000  1.0  0.3337
  N  N13  1  0.290300  0.299400  0.971900  1.0  -0.371
  N  N14  1  0.709700  0.299400  0.028100  1.0  -0.3722
  N  N15  1  0.709700  0.700600  0.028100  1.0  -0.3735
  N  N16  1  0.290300  0.700600  0.971900  1.0  -0.3725
  N  N17  1  0.504600  0.500000  0.291500  1.0  -0.3573
  N  N18  1  0.495400  0.500000  0.708500  1.0  -0.3573
  F  F19  1  0.848000  0.500000  0.403000  1.0  -0.263
  F  F20  1  0.152000  0.500000  0.597000  1.0  -0.2609
