# generated using pymatgen
data_Zn7H84(C13N4)12
_symmetry_space_group_name_H-M   'P 1'
_cell_length_a   23.53030000
_cell_length_b   23.53030000
_cell_length_c   23.53030000
_cell_angle_alpha   109.47100000
_cell_angle_beta   109.47100000
_cell_angle_gamma   109.47100000
_symmetry_Int_Tables_number   1
_chemical_formula_structural   Zn7H84(C13N4)12
_chemical_formula_sum   'Zn14 H168 C312 N96'
_cell_volume   10029.14821675
_cell_formula_units_Z   2
loop_
 _symmetry_equiv_pos_site_id
 _symmetry_equiv_pos_as_xyz
  1  'x, y, z'
loop_
 _atom_site_type_symbol
 _atom_site_label
 _atom_site_symmetry_multiplicity
 _atom_site_fract_x
 _atom_site_fract_y
 _atom_site_fract_z
 _atom_site_occupancy
 _atom_site_charge
  Zn  Zn1  1  0.274140  0.000000  0.000000  1.0  0.7763
  Zn  Zn2  1  0.500000  0.274140  0.500000  1.0  0.777
  Zn  Zn3  1  0.000000  0.500000  0.774140  1.0  0.7756
  Zn  Zn4  1  0.225860  0.225860  0.725860  1.0  0.7763
  Zn  Zn5  1  0.774140  0.000000  0.000000  1.0  0.7761
  Zn  Zn6  1  0.500000  0.774140  0.500000  1.0  0.777
  Zn  Zn7  1  0.725860  0.725860  0.225860  1.0  0.7763
  Zn  Zn8  1  0.000000  0.500000  0.274140  1.0  0.7752
  Zn  Zn9  1  0.625000  0.375000  0.250000  1.0  0.789
  Zn  Zn10  1  0.875000  0.125000  0.750000  1.0  0.7891
  Zn  Zn11  1  0.250000  0.875000  0.625000  1.0  0.7887
  Zn  Zn12  1  0.750000  0.625000  0.875000  1.0  0.7899
  Zn  Zn13  1  0.375000  0.750000  0.125000  1.0  0.7887
  Zn  Zn14  1  0.125000  0.250000  0.375000  1.0  0.7897
  H  H15  1  0.427000  0.026700  0.094300  1.0  0.0747
  H  H16  1  0.540500  0.118700  0.161400  1.0  0.1042
  H  H17  1  0.562800  0.229800  0.189000  1.0  0.1093
  H  H18  1  0.167900  0.057700  0.971200  1.0  0.0846
  H  H19  1  0.172000  0.164300  0.002500  1.0  0.1155
  H  H20  1  0.281000  0.267900  0.072900  1.0  0.1202
  H  H21  1  0.524300  0.427000  0.207100  1.0  0.0952
  H  H22  1  0.432400  0.332700  0.405700  1.0  0.0716
  H  H23  1  0.457300  0.379100  0.338600  1.0  0.104
  H  H24  1  0.540800  0.373800  0.311000  1.0  0.1101
  H  H25  1  0.586500  0.196700  0.528800  1.0  0.0818
  H  H26  1  0.661800  0.169500  0.497500  1.0  0.1149
  H  H27  1  0.695000  0.208100  0.427100  1.0  0.1188
  H  H28  1  0.719900  0.317200  0.292900  1.0  0.0926
  H  H29  1  0.067600  0.473300  0.900300  1.0  0.0749
  H  H30  1  0.042700  0.381300  0.921800  1.0  0.1026
  H  H31  1  0.959200  0.270200  0.833000  1.0  0.1086
  H  H32  1  0.913500  0.442300  0.610200  1.0  0.0857
  H  H33  1  0.838200  0.335700  0.507700  1.0  0.115
  H  H34  1  0.805000  0.232100  0.513100  1.0  0.12
  H  H35  1  0.780100  0.073000  0.597300  1.0  0.0962
  H  H36  1  0.073000  0.167300  0.599700  1.0  0.0755
  H  H37  1  0.959500  0.120900  0.578200  1.0  0.1039
  H  H38  1  0.937200  0.126200  0.667000  1.0  0.1103
  H  H39  1  0.332100  0.303300  0.889800  1.0  0.0831
  H  H40  1  0.328000  0.330500  0.992300  1.0  0.1143
  H  H41  1  0.219000  0.291900  0.986900  1.0  0.1205
  H  H42  1  0.975700  0.182800  0.902700  1.0  0.0936
  H  H43  1  0.400300  0.067600  0.973300  1.0  0.0756
  H  H44  1  0.421800  0.042700  0.881300  1.0  0.1037
  H  H45  1  0.333000  0.959200  0.770200  1.0  0.1098
  H  H46  1  0.110200  0.913500  0.942300  1.0  0.0865
  H  H47  1  0.007700  0.838200  0.835700  1.0  0.1141
  H  H48  1  0.013100  0.805000  0.732100  1.0  0.1197
  H  H49  1  0.097300  0.780100  0.573000  1.0  0.0924
  H  H50  1  0.099700  0.073000  0.667300  1.0  0.0726
  H  H51  1  0.078200  0.959500  0.620900  1.0  0.1044
  H  H52  1  0.167000  0.937200  0.626200  1.0  0.1091
  H  H53  1  0.389800  0.332100  0.803300  1.0  0.0828
  H  H54  1  0.492300  0.328000  0.830500  1.0  0.1161
  H  H55  1  0.486900  0.219000  0.791900  1.0  0.12
  H  H56  1  0.402700  0.975700  0.682800  1.0  0.0923
  H  H57  1  0.594300  0.427000  0.526700  1.0  0.0772
  H  H58  1  0.661400  0.540500  0.618700  1.0  0.1068
  H  H59  1  0.689000  0.562800  0.729800  1.0  0.1097
  H  H60  1  0.471200  0.167900  0.557700  1.0  0.086
  H  H61  1  0.502500  0.172000  0.664300  1.0  0.1146
  H  H62  1  0.572900  0.281000  0.767900  1.0  0.1199
  H  H63  1  0.707100  0.524300  0.927000  1.0  0.0943
  H  H64  1  0.905700  0.432400  0.832700  1.0  0.0734
  H  H65  1  0.838600  0.457300  0.879100  1.0  0.1041
  H  H66  1  0.811000  0.540800  0.873800  1.0  0.1074
  H  H67  1  0.028800  0.586500  0.696700  1.0  0.0821
  H  H68  1  0.997500  0.661800  0.669500  1.0  0.1149
  H  H69  1  0.927100  0.695000  0.708100  1.0  0.1199
  H  H70  1  0.792900  0.719900  0.817200  1.0  0.0942
  H  H71  1  0.332700  0.905700  0.932400  1.0  0.074
  H  H72  1  0.379100  0.838600  0.957300  1.0  0.104
  H  H73  1  0.373800  0.811000  0.040800  1.0  0.1104
  H  H74  1  0.196700  0.028800  0.086500  1.0  0.0823
  H  H75  1  0.169500  0.997500  0.161800  1.0  0.1137
  H  H76  1  0.208100  0.927100  0.195000  1.0  0.1208
  H  H77  1  0.317200  0.792900  0.219900  1.0  0.0944
  H  H78  1  0.026700  0.594300  0.927000  1.0  0.0745
  H  H79  1  0.118700  0.661400  0.040500  1.0  0.1042
  H  H80  1  0.229800  0.689000  0.062800  1.0  0.1088
  H  H81  1  0.057700  0.471200  0.667900  1.0  0.0854
  H  H82  1  0.164300  0.502500  0.672000  1.0  0.1143
  H  H83  1  0.267900  0.572900  0.781000  1.0  0.1193
  H  H84  1  0.427000  0.707100  0.024300  1.0  0.095
  H  H85  1  0.167300  0.099700  0.573000  1.0  0.0754
  H  H86  1  0.120900  0.078200  0.459500  1.0  0.106
  H  H87  1  0.126200  0.167000  0.437200  1.0  0.1098
  H  H88  1  0.303300  0.389800  0.832100  1.0  0.0836
  H  H89  1  0.330500  0.492300  0.828000  1.0  0.1139
  H  H90  1  0.291900  0.486900  0.719000  1.0  0.1196
  H  H91  1  0.182800  0.402700  0.475700  1.0  0.0951
  H  H92  1  0.473300  0.400300  0.567600  1.0  0.0755
  H  H93  1  0.381300  0.421800  0.542700  1.0  0.1058
  H  H94  1  0.270200  0.333000  0.459200  1.0  0.1089
  H  H95  1  0.442300  0.110200  0.413500  1.0  0.0856
  H  H96  1  0.335700  0.007700  0.338200  1.0  0.1157
  H  H97  1  0.232100  0.013100  0.305000  1.0  0.1203
  H  H98  1  0.073000  0.097300  0.280100  1.0  0.0943
  H  H99  1  0.832700  0.932400  0.905700  1.0  0.0729
  H  H100  1  0.879100  0.957300  0.838600  1.0  0.1042
  H  H101  1  0.873800  0.040800  0.811000  1.0  0.1098
  H  H102  1  0.696700  0.086500  0.028800  1.0  0.0838
  H  H103  1  0.669500  0.161800  0.997500  1.0  0.1141
  H  H104  1  0.708100  0.195000  0.927100  1.0  0.1196
  H  H105  1  0.817200  0.219900  0.792900  1.0  0.0927
  H  H106  1  0.526700  0.927000  0.594300  1.0  0.0743
  H  H107  1  0.618700  0.040500  0.661400  1.0  0.1055
  H  H108  1  0.729800  0.062800  0.689000  1.0  0.1094
  H  H109  1  0.557700  0.667900  0.471200  1.0  0.0859
  H  H110  1  0.664300  0.672000  0.502500  1.0  0.116
  H  H111  1  0.767900  0.781000  0.572900  1.0  0.1201
  H  H112  1  0.927000  0.024300  0.707100  1.0  0.0927
  H  H113  1  0.667300  0.573000  0.099700  1.0  0.0765
  H  H114  1  0.620900  0.459500  0.078200  1.0  0.1054
  H  H115  1  0.626200  0.437200  0.167000  1.0  0.1097
  H  H116  1  0.803300  0.832100  0.389800  1.0  0.0834
  H  H117  1  0.830500  0.828000  0.492300  1.0  0.1146
  H  H118  1  0.791900  0.719000  0.486900  1.0  0.1197
  H  H119  1  0.682800  0.475700  0.402700  1.0  0.0941
  H  H120  1  0.973300  0.567600  0.400300  1.0  0.0759
  H  H121  1  0.881300  0.542700  0.421800  1.0  0.103
  H  H122  1  0.770200  0.459200  0.333000  1.0  0.1072
  H  H123  1  0.942300  0.413500  0.110200  1.0  0.0861
  H  H124  1  0.835700  0.338200  0.007700  1.0  0.1146
  H  H125  1  0.732100  0.305000  0.013100  1.0  0.12
  H  H126  1  0.573000  0.280100  0.097300  1.0  0.0939
  H  H127  1  0.927000  0.094300  0.026700  1.0  0.0763
  H  H128  1  0.040500  0.161400  0.118700  1.0  0.1045
  H  H129  1  0.062800  0.189000  0.229800  1.0  0.1102
  H  H130  1  0.667900  0.971200  0.057700  1.0  0.0846
  H  H131  1  0.672000  0.002500  0.164300  1.0  0.1137
  H  H132  1  0.781000  0.072900  0.267900  1.0  0.1208
  H  H133  1  0.024300  0.207100  0.427000  1.0  0.0942
  H  H134  1  0.932400  0.405700  0.332700  1.0  0.0714
  H  H135  1  0.957300  0.338600  0.379100  1.0  0.1038
  H  H136  1  0.040800  0.311000  0.373800  1.0  0.1092
  H  H137  1  0.086500  0.528800  0.196700  1.0  0.0827
  H  H138  1  0.161800  0.497500  0.169500  1.0  0.1144
  H  H139  1  0.195000  0.427100  0.208100  1.0  0.1191
  H  H140  1  0.219900  0.292900  0.317200  1.0  0.0951
  H  H141  1  0.567600  0.900300  0.473300  1.0  0.0767
  H  H142  1  0.542700  0.921800  0.381300  1.0  0.1053
  H  H143  1  0.459200  0.833000  0.270200  1.0  0.1097
  H  H144  1  0.413500  0.610200  0.442300  1.0  0.0866
  H  H145  1  0.338200  0.507700  0.335700  1.0  0.1144
  H  H146  1  0.305000  0.513100  0.232100  1.0  0.1193
  H  H147  1  0.280100  0.597300  0.073000  1.0  0.0946
  H  H148  1  0.573000  0.599700  0.167300  1.0  0.0747
  H  H149  1  0.459500  0.578200  0.120900  1.0  0.1066
  H  H150  1  0.437200  0.667000  0.126200  1.0  0.1089
  H  H151  1  0.832100  0.889800  0.303300  1.0  0.0816
  H  H152  1  0.828000  0.992300  0.330500  1.0  0.1151
  H  H153  1  0.719000  0.986900  0.291900  1.0  0.1205
  H  H154  1  0.475700  0.902700  0.182800  1.0  0.0948
  H  H155  1  0.900300  0.973300  0.067600  1.0  0.0746
  H  H156  1  0.921800  0.881300  0.042700  1.0  0.1026
  H  H157  1  0.833000  0.770200  0.959200  1.0  0.1096
  H  H158  1  0.610200  0.942300  0.913500  1.0  0.0853
  H  H159  1  0.507700  0.835700  0.838200  1.0  0.1156
  H  H160  1  0.513100  0.732100  0.805000  1.0  0.1202
  H  H161  1  0.597300  0.573000  0.780100  1.0  0.0947
  H  H162  1  0.599700  0.667300  0.073000  1.0  0.0728
  H  H163  1  0.578200  0.620900  0.959500  1.0  0.1033
  H  H164  1  0.667000  0.626200  0.937200  1.0  0.1103
  H  H165  1  0.889800  0.803300  0.332100  1.0  0.0821
  H  H166  1  0.992300  0.830500  0.328000  1.0  0.1146
  H  H167  1  0.986900  0.791900  0.219000  1.0  0.1186
  H  H168  1  0.902700  0.682800  0.975700  1.0  0.0927
  H  H169  1  0.094300  0.526700  0.427000  1.0  0.0747
  H  H170  1  0.161400  0.618700  0.540500  1.0  0.1043
  H  H171  1  0.189000  0.729800  0.562800  1.0  0.1084
  H  H172  1  0.971200  0.557700  0.167900  1.0  0.0851
  H  H173  1  0.002500  0.664300  0.172000  1.0  0.115
  H  H174  1  0.072900  0.767900  0.281000  1.0  0.1204
  H  H175  1  0.207100  0.927000  0.524300  1.0  0.0957
  H  H176  1  0.405700  0.832700  0.432400  1.0  0.0736
  H  H177  1  0.338600  0.879100  0.457300  1.0  0.1048
  H  H178  1  0.311000  0.873800  0.540800  1.0  0.1102
  H  H179  1  0.528800  0.696700  0.586500  1.0  0.0828
  H  H180  1  0.497500  0.669500  0.661800  1.0  0.1144
  H  H181  1  0.427100  0.708100  0.695000  1.0  0.1209
  H  H182  1  0.292900  0.817200  0.719900  1.0  0.0936
  C  C183  1  0.435000  0.072100  0.104500  1.0  0.1701
  C  C184  1  0.503100  0.127100  0.145200  1.0  -0.1449
  C  C185  1  0.516200  0.192300  0.161700  1.0  -0.086
  C  C186  1  0.460300  0.205300  0.138200  1.0  -0.0418
  C  C187  1  0.391500  0.144600  0.095300  1.0  0.1434
  C  C188  1  0.211900  0.099100  0.002000  1.0  0.1453
  C  C189  1  0.213800  0.162800  0.019200  1.0  -0.1662
  C  C190  1  0.277900  0.223800  0.061100  1.0  -0.0846
  C  C191  1  0.338400  0.218510  0.085910  1.0  -0.0633
  C  C192  1  0.331970  0.152890  0.068860  1.0  0.1343
  C  C193  1  0.496000  0.378000  0.185600  1.0  0.2472
  C  C194  1  0.407400  0.277700  0.128700  1.0  0.0996
  C  C195  1  0.465200  0.270300  0.151500  1.0  0.103
  C  C196  1  0.467600  0.330500  0.395500  1.0  0.1714
  C  C197  1  0.481900  0.357900  0.354800  1.0  -0.146
  C  C198  1  0.530600  0.354500  0.338300  1.0  -0.0849
  C  C199  1  0.567100  0.322100  0.361800  1.0  -0.042
  C  C200  1  0.549300  0.296200  0.404700  1.0  0.1436
  C  C201  1  0.597100  0.209900  0.498000  1.0  0.1415
  C  C202  1  0.643600  0.194600  0.480800  1.0  -0.1645
  C  C203  1  0.662700  0.216800  0.438900  1.0  -0.0839
  C  C204  1  0.632600  0.252490  0.414090  1.0  -0.0626
  C  C205  1  0.584030  0.263110  0.431140  1.0  0.1334
  C  C206  1  0.692400  0.310400  0.314400  1.0  0.2521
  C  C207  1  0.649000  0.278700  0.371300  1.0  0.0998
  C  C208  1  0.618800  0.313700  0.348500  1.0  0.1028
  C  C209  1  0.032400  0.427900  0.862900  1.0  0.1686
  C  C210  1  0.018100  0.372900  0.876000  1.0  -0.1458
  C  C211  1  0.969400  0.307700  0.823900  1.0  -0.0851
  C  C212  1  0.932900  0.294700  0.755000  1.0  -0.042
  C  C213  1  0.950700  0.355400  0.746900  1.0  0.1442
  C  C214  1  0.902900  0.400900  0.612800  1.0  0.1411
  C  C215  1  0.856400  0.337200  0.551000  1.0  -0.1647
  C  C216  1  0.837300  0.276200  0.554100  1.0  -0.0869
  C  C217  1  0.867400  0.281490  0.619890  1.0  -0.0624
  C  C218  1  0.915970  0.347110  0.679080  1.0  0.1334
  C  C219  1  0.807600  0.122000  0.618000  1.0  0.2486
  C  C220  1  0.851000  0.222300  0.629700  1.0  0.1012
  C  C221  1  0.881200  0.229700  0.694900  1.0  0.1024
  C  C222  1  0.065000  0.169500  0.637100  1.0  0.1709
  C  C223  1  0.996900  0.142100  0.624000  1.0  -0.1447
  C  C224  1  0.983800  0.145500  0.676100  1.0  -0.0822
  C  C225  1  0.039700  0.177900  0.745000  1.0  -0.0417
  C  C226  1  0.108500  0.203800  0.753100  1.0  0.143
  C  C227  1  0.288100  0.290100  0.887200  1.0  0.145
  C  C228  1  0.286200  0.305400  0.949000  1.0  -0.1634
  C  C229  1  0.222100  0.283200  0.945900  1.0  -0.0853
  C  C230  1  0.161600  0.247510  0.880110  1.0  -0.061
  C  C231  1  0.168030  0.236890  0.820920  1.0  0.1343
  C  C232  1  0.004000  0.189600  0.882000  1.0  0.2537
  C  C233  1  0.092600  0.221300  0.870300  1.0  0.0999
  C  C234  1  0.034800  0.186300  0.805100  1.0  0.1035
  C  C235  1  0.362900  0.032400  0.927900  1.0  0.1693
  C  C236  1  0.376000  0.018100  0.872900  1.0  -0.145
  C  C237  1  0.323900  0.969400  0.807700  1.0  -0.0862
  C  C238  1  0.255000  0.932900  0.794700  1.0  -0.0421
  C  C239  1  0.246900  0.950700  0.855400  1.0  0.1435
  C  C240  1  0.112800  0.902900  0.900900  1.0  0.1427
  C  C241  1  0.051000  0.856400  0.837200  1.0  -0.1668
  C  C242  1  0.054100  0.837300  0.776200  1.0  -0.0839
  C  C243  1  0.119890  0.867400  0.781490  1.0  -0.0616
  C  C244  1  0.179080  0.915970  0.847110  1.0  0.1347
  C  C245  1  0.118000  0.807600  0.622000  1.0  0.2479
  C  C246  1  0.129700  0.851000  0.722300  1.0  0.0985
  C  C247  1  0.194900  0.881200  0.729700  1.0  0.1031
  C  C248  1  0.137100  0.065000  0.669500  1.0  0.1685
  C  C249  1  0.124000  0.996900  0.642100  1.0  -0.1466
  C  C250  1  0.176100  0.983800  0.645500  1.0  -0.0844
  C  C251  1  0.245000  0.039700  0.677900  1.0  -0.0417
  C  C252  1  0.253100  0.108500  0.703800  1.0  0.1434
  C  C253  1  0.387200  0.288100  0.790100  1.0  0.14
  C  C254  1  0.449000  0.286200  0.805400  1.0  -0.1651
  C  C255  1  0.445900  0.222100  0.783200  1.0  -0.0849
  C  C256  1  0.380110  0.161600  0.747510  1.0  -0.0609
  C  C257  1  0.320920  0.168030  0.736890  1.0  0.1345
  C  C258  1  0.382000  0.004000  0.689600  1.0  0.2523
  C  C259  1  0.370300  0.092600  0.721300  1.0  0.0988
  C  C260  1  0.305100  0.034800  0.686300  1.0  0.1021
  C  C261  1  0.604500  0.435000  0.572100  1.0  0.1674
  C  C262  1  0.645200  0.503100  0.627100  1.0  -0.1453
  C  C263  1  0.661700  0.516200  0.692300  1.0  -0.0825
  C  C264  1  0.638200  0.460300  0.705300  1.0  -0.0419
  C  C265  1  0.595300  0.391500  0.644600  1.0  0.1426
  C  C266  1  0.502000  0.211900  0.599100  1.0  0.1405
  C  C267  1  0.519200  0.213800  0.662800  1.0  -0.1632
  C  C268  1  0.561100  0.277900  0.723800  1.0  -0.0867
  C  C269  1  0.585910  0.338400  0.718510  1.0  -0.0601
  C  C270  1  0.568860  0.331970  0.652890  1.0  0.1346
  C  C271  1  0.685600  0.496000  0.878000  1.0  0.2554
  C  C272  1  0.628700  0.407400  0.777700  1.0  0.0998
  C  C273  1  0.651500  0.465200  0.770300  1.0  0.1036
  C  C274  1  0.895500  0.467600  0.830500  1.0  0.1656
  C  C275  1  0.854800  0.481900  0.857900  1.0  -0.1475
  C  C276  1  0.838300  0.530600  0.854500  1.0  -0.0848
  C  C277  1  0.861800  0.567100  0.822100  1.0  -0.042
  C  C278  1  0.904700  0.549300  0.796200  1.0  0.144
  C  C279  1  0.998000  0.597100  0.709900  1.0  0.1414
  C  C280  1  0.980800  0.643600  0.694600  1.0  -0.165
  C  C281  1  0.938900  0.662700  0.716800  1.0  -0.087
  C  C282  1  0.914090  0.632600  0.752490  1.0  -0.0614
  C  C283  1  0.931140  0.584030  0.763110  1.0  0.1349
  C  C284  1  0.814400  0.692400  0.810400  1.0  0.2493
  C  C285  1  0.871300  0.649000  0.778700  1.0  0.101
  C  C286  1  0.848500  0.618800  0.813700  1.0  0.1021
  C  C287  1  0.330500  0.895500  0.967600  1.0  0.1674
  C  C288  1  0.357900  0.854800  0.981900  1.0  -0.144
  C  C289  1  0.354500  0.838300  0.030600  1.0  -0.0825
  C  C290  1  0.322100  0.861800  0.067100  1.0  -0.0414
  C  C291  1  0.296200  0.904700  0.049300  1.0  0.1434
  C  C292  1  0.209900  0.998000  0.097100  1.0  0.1461
  C  C293  1  0.194600  0.980800  0.143600  1.0  -0.1662
  C  C294  1  0.216800  0.938900  0.162700  1.0  -0.0853
  C  C295  1  0.252490  0.914090  0.132600  1.0  -0.0608
  C  C296  1  0.263110  0.931140  0.084030  1.0  0.1352
  C  C297  1  0.310400  0.814400  0.192400  1.0  0.2552
  C  C298  1  0.278700  0.871300  0.149000  1.0  0.0987
  C  C299  1  0.313700  0.848500  0.118800  1.0  0.1034
  C  C300  1  0.072100  0.604500  0.935000  1.0  0.1684
  C  C301  1  0.127100  0.645200  0.003100  1.0  -0.1465
  C  C302  1  0.192300  0.661700  0.016200  1.0  -0.0844
  C  C303  1  0.205300  0.638200  0.960300  1.0  -0.0419
  C  C304  1  0.144600  0.595300  0.891500  1.0  0.1434
  C  C305  1  0.099100  0.502000  0.711900  1.0  0.1405
  C  C306  1  0.162800  0.519200  0.713800  1.0  -0.164
  C  C307  1  0.223800  0.561100  0.777900  1.0  -0.0856
  C  C308  1  0.218510  0.585910  0.838400  1.0  -0.0613
  C  C309  1  0.152890  0.568860  0.831970  1.0  0.1344
  C  C310  1  0.378000  0.685600  0.996000  1.0  0.2508
  C  C311  1  0.277700  0.628700  0.907400  1.0  0.1023
  C  C312  1  0.270300  0.651500  0.965200  1.0  0.1016
  C  C313  1  0.169500  0.137100  0.565000  1.0  0.1694
  C  C314  1  0.142100  0.124000  0.496900  1.0  -0.1465
  C  C315  1  0.145500  0.176100  0.483800  1.0  -0.0872
  C  C316  1  0.177900  0.245000  0.539700  1.0  -0.042
  C  C317  1  0.203800  0.253100  0.608500  1.0  0.1436
  C  C318  1  0.290100  0.387200  0.788100  1.0  0.14
  C  C319  1  0.305400  0.449000  0.786200  1.0  -0.1638
  C  C320  1  0.283200  0.445900  0.722100  1.0  -0.0869
  C  C321  1  0.247510  0.380110  0.661600  1.0  -0.062
  C  C322  1  0.236890  0.320920  0.668030  1.0  0.1335
  C  C323  1  0.189600  0.382000  0.504000  1.0  0.2487
  C  C324  1  0.221300  0.370300  0.592600  1.0  0.0989
  C  C325  1  0.186300  0.305100  0.534800  1.0  0.103
  C  C326  1  0.427900  0.362900  0.532400  1.0  0.1669
  C  C327  1  0.372900  0.376000  0.518100  1.0  -0.1469
  C  C328  1  0.307700  0.323900  0.469400  1.0  -0.0855
  C  C329  1  0.294700  0.255000  0.432900  1.0  -0.042
  C  C330  1  0.355400  0.246900  0.450700  1.0  0.1437
  C  C331  1  0.400900  0.112800  0.402900  1.0  0.1423
  C  C332  1  0.337200  0.051000  0.356400  1.0  -0.1644
  C  C333  1  0.276200  0.054100  0.337300  1.0  -0.0866
  C  C334  1  0.281490  0.119890  0.367400  1.0  -0.0638
  C  C335  1  0.347110  0.179080  0.415970  1.0  0.1332
  C  C336  1  0.122000  0.118000  0.307600  1.0  0.2508
  C  C337  1  0.222300  0.129700  0.351000  1.0  0.0982
  C  C338  1  0.229700  0.194900  0.381200  1.0  0.1021
  C  C339  1  0.830500  0.967600  0.895500  1.0  0.1686
  C  C340  1  0.857900  0.981900  0.854800  1.0  -0.1468
  C  C341  1  0.854500  0.030600  0.838300  1.0  -0.0863
  C  C342  1  0.822100  0.067100  0.861800  1.0  -0.0421
  C  C343  1  0.796200  0.049300  0.904700  1.0  0.1432
  C  C344  1  0.709900  0.097100  0.998000  1.0  0.1429
  C  C345  1  0.694600  0.143600  0.980800  1.0  -0.167
  C  C346  1  0.716800  0.162700  0.938900  1.0  -0.0846
  C  C347  1  0.752490  0.132600  0.914090  1.0  -0.0616
  C  C348  1  0.763110  0.084030  0.931140  1.0  0.1345
  C  C349  1  0.810400  0.192400  0.814400  1.0  0.2474
  C  C350  1  0.778700  0.149000  0.871300  1.0  0.099
  C  C351  1  0.813700  0.118800  0.848500  1.0  0.1032
  C  C352  1  0.572100  0.935000  0.604500  1.0  0.1676
  C  C353  1  0.627100  0.003100  0.645200  1.0  -0.1471
  C  C354  1  0.692300  0.016200  0.661700  1.0  -0.0845
  C  C355  1  0.705300  0.960300  0.638200  1.0  -0.042
  C  C356  1  0.644600  0.891500  0.595300  1.0  0.1433
  C  C357  1  0.599100  0.711900  0.502000  1.0  0.139
  C  C358  1  0.662800  0.713800  0.519200  1.0  -0.1655
  C  C359  1  0.723800  0.777900  0.561100  1.0  -0.0845
  C  C360  1  0.718510  0.838400  0.585910  1.0  -0.0611
  C  C361  1  0.652890  0.831970  0.568860  1.0  0.1343
  C  C362  1  0.878000  0.996000  0.685600  1.0  0.2516
  C  C363  1  0.777700  0.907400  0.628700  1.0  0.0996
  C  C364  1  0.770300  0.965200  0.651500  1.0  0.1019
  C  C365  1  0.669500  0.565000  0.137100  1.0  0.1677
  C  C366  1  0.642100  0.496900  0.124000  1.0  -0.1457
  C  C367  1  0.645500  0.483800  0.176100  1.0  -0.0825
  C  C368  1  0.677900  0.539700  0.245000  1.0  -0.0415
  C  C369  1  0.703800  0.608500  0.253100  1.0  0.1426
  C  C370  1  0.790100  0.788100  0.387200  1.0  0.1416
  C  C371  1  0.805400  0.786200  0.449000  1.0  -0.1632
  C  C372  1  0.783200  0.722100  0.445900  1.0  -0.0864
  C  C373  1  0.747510  0.661600  0.380110  1.0  -0.0597
  C  C374  1  0.736890  0.668030  0.320920  1.0  0.1348
  C  C375  1  0.689600  0.504000  0.382000  1.0  0.2552
  C  C376  1  0.721300  0.592600  0.370300  1.0  0.099
  C  C377  1  0.686300  0.534800  0.305100  1.0  0.1036
  C  C378  1  0.927900  0.532400  0.362900  1.0  0.1664
  C  C379  1  0.872900  0.518100  0.376000  1.0  -0.147
  C  C380  1  0.807700  0.469400  0.323900  1.0  -0.0852
  C  C381  1  0.794700  0.432900  0.255000  1.0  -0.042
  C  C382  1  0.855400  0.450700  0.246900  1.0  0.1442
  C  C383  1  0.900900  0.402900  0.112800  1.0  0.1413
  C  C384  1  0.837200  0.356400  0.051000  1.0  -0.1647
  C  C385  1  0.776200  0.337300  0.054100  1.0  -0.0864
  C  C386  1  0.781490  0.367400  0.119890  1.0  -0.0613
  C  C387  1  0.847110  0.415970  0.179080  1.0  0.1348
  C  C388  1  0.622000  0.307600  0.118000  1.0  0.2496
  C  C389  1  0.722300  0.351000  0.129700  1.0  0.1006
  C  C390  1  0.729700  0.381200  0.194900  1.0  0.1019
  C  C391  1  0.935000  0.104500  0.072100  1.0  0.1685
  C  C392  1  0.003100  0.145200  0.127100  1.0  -0.1437
  C  C393  1  0.016200  0.161700  0.192300  1.0  -0.082
  C  C394  1  0.960300  0.138200  0.205300  1.0  -0.0415
  C  C395  1  0.891500  0.095300  0.144600  1.0  0.1431
  C  C396  1  0.711900  0.002000  0.099100  1.0  0.1467
  C  C397  1  0.713800  0.019200  0.162800  1.0  -0.1658
  C  C398  1  0.777900  0.061100  0.223800  1.0  -0.0853
  C  C399  1  0.838400  0.085910  0.218510  1.0  -0.0605
  C  C400  1  0.831970  0.068860  0.152890  1.0  0.1353
  C  C401  1  0.996000  0.185600  0.378000  1.0  0.2556
  C  C402  1  0.907400  0.128700  0.277700  1.0  0.0992
  C  C403  1  0.965200  0.151500  0.270300  1.0  0.1031
  C  C404  1  0.967600  0.395500  0.330500  1.0  0.1686
  C  C405  1  0.981900  0.354800  0.357900  1.0  -0.1455
  C  C406  1  0.030600  0.338300  0.354500  1.0  -0.0848
  C  C407  1  0.067100  0.361800  0.322100  1.0  -0.0419
  C  C408  1  0.049300  0.404700  0.296200  1.0  0.1436
  C  C409  1  0.097100  0.498000  0.209900  1.0  0.1398
  C  C410  1  0.143600  0.480800  0.194600  1.0  -0.1644
  C  C411  1  0.162700  0.438900  0.216800  1.0  -0.0865
  C  C412  1  0.132600  0.414090  0.252490  1.0  -0.0612
  C  C413  1  0.084030  0.431140  0.263110  1.0  0.1342
  C  C414  1  0.192400  0.314400  0.310400  1.0  0.2504
  C  C415  1  0.149000  0.371300  0.278700  1.0  0.1024
  C  C416  1  0.118800  0.348500  0.313700  1.0  0.1018
  C  C417  1  0.532400  0.862900  0.427900  1.0  0.1699
  C  C418  1  0.518100  0.876000  0.372900  1.0  -0.146
  C  C419  1  0.469400  0.823900  0.307700  1.0  -0.0864
  C  C420  1  0.432900  0.755000  0.294700  1.0  -0.0419
  C  C421  1  0.450700  0.746900  0.355400  1.0  0.1434
  C  C422  1  0.402900  0.612800  0.400900  1.0  0.1402
  C  C423  1  0.356400  0.551000  0.337200  1.0  -0.1642
  C  C424  1  0.337300  0.554100  0.276200  1.0  -0.0878
  C  C425  1  0.367400  0.619890  0.281490  1.0  -0.0631
  C  C426  1  0.415970  0.679080  0.347110  1.0  0.134
  C  C427  1  0.307600  0.618000  0.122000  1.0  0.2516
  C  C428  1  0.351000  0.629700  0.222300  1.0  0.0988
  C  C429  1  0.381200  0.694900  0.229700  1.0  0.103
  C  C430  1  0.565000  0.637100  0.169500  1.0  0.1669
  C  C431  1  0.496900  0.624000  0.142100  1.0  -0.1474
  C  C432  1  0.483800  0.676100  0.145500  1.0  -0.0865
  C  C433  1  0.539700  0.745000  0.177900  1.0  -0.0422
  C  C434  1  0.608500  0.753100  0.203800  1.0  0.1438
  C  C435  1  0.788100  0.887200  0.290100  1.0  0.1421
  C  C436  1  0.786200  0.949000  0.305400  1.0  -0.1639
  C  C437  1  0.722100  0.945900  0.283200  1.0  -0.0862
  C  C438  1  0.661600  0.880110  0.247510  1.0  -0.0626
  C  C439  1  0.668030  0.820920  0.236890  1.0  0.1328
  C  C440  1  0.504000  0.882000  0.189600  1.0  0.2487
  C  C441  1  0.592600  0.870300  0.221300  1.0  0.0988
  C  C442  1  0.534800  0.805100  0.186300  1.0  0.1021
  C  C443  1  0.862900  0.927900  0.032400  1.0  0.1704
  C  C444  1  0.876000  0.872900  0.018100  1.0  -0.1444
  C  C445  1  0.823900  0.807700  0.969400  1.0  -0.0855
  C  C446  1  0.755000  0.794700  0.932900  1.0  -0.0418
  C  C447  1  0.746900  0.855400  0.950700  1.0  0.1439
  C  C448  1  0.612800  0.900900  0.902900  1.0  0.145
  C  C449  1  0.551000  0.837200  0.856400  1.0  -0.1663
  C  C450  1  0.554100  0.776200  0.837300  1.0  -0.0849
  C  C451  1  0.619890  0.781490  0.867400  1.0  -0.0637
  C  C452  1  0.679080  0.847110  0.915970  1.0  0.134
  C  C453  1  0.618000  0.622000  0.807600  1.0  0.2463
  C  C454  1  0.629700  0.722300  0.851000  1.0  0.0995
  C  C455  1  0.694900  0.729700  0.881200  1.0  0.1031
  C  C456  1  0.637100  0.669500  0.065000  1.0  0.1713
  C  C457  1  0.624000  0.642100  0.996900  1.0  -0.1457
  C  C458  1  0.676100  0.645500  0.983800  1.0  -0.0853
  C  C459  1  0.745000  0.677900  0.039700  1.0  -0.0419
  C  C460  1  0.753100  0.703800  0.108500  1.0  0.1432
  C  C461  1  0.887200  0.790100  0.288100  1.0  0.1402
  C  C462  1  0.949000  0.805400  0.286200  1.0  -0.1644
  C  C463  1  0.945900  0.783200  0.222100  1.0  -0.0843
  C  C464  1  0.880110  0.747510  0.161600  1.0  -0.0623
  C  C465  1  0.820920  0.736890  0.168030  1.0  0.1339
  C  C466  1  0.882000  0.689600  0.004000  1.0  0.2519
  C  C467  1  0.870300  0.721300  0.092600  1.0  0.099
  C  C468  1  0.805100  0.686300  0.034800  1.0  0.1028
  C  C469  1  0.104500  0.572100  0.435000  1.0  0.1688
  C  C470  1  0.145200  0.627100  0.503100  1.0  -0.1455
  C  C471  1  0.161700  0.692300  0.516200  1.0  -0.0851
  C  C472  1  0.138200  0.705300  0.460300  1.0  -0.042
  C  C473  1  0.095300  0.644600  0.391500  1.0  0.144
  C  C474  1  0.002000  0.599100  0.211900  1.0  0.1413
  C  C475  1  0.019200  0.662800  0.213800  1.0  -0.1647
  C  C476  1  0.061100  0.723800  0.277900  1.0  -0.0849
  C  C477  1  0.085910  0.718510  0.338400  1.0  -0.0621
  C  C478  1  0.068860  0.652890  0.331970  1.0  0.1339
  C  C479  1  0.185600  0.878000  0.496000  1.0  0.2493
  C  C480  1  0.128700  0.777700  0.407400  1.0  0.1009
  C  C481  1  0.151500  0.770300  0.465200  1.0  0.1025
  C  C482  1  0.395500  0.830500  0.467600  1.0  0.1707
  C  C483  1  0.354800  0.857900  0.481900  1.0  -0.1446
  C  C484  1  0.338300  0.854500  0.530600  1.0  -0.0821
  C  C485  1  0.361800  0.822100  0.567100  1.0  -0.0418
  C  C486  1  0.404700  0.796200  0.549300  1.0  0.1434
  C  C487  1  0.498000  0.709900  0.597100  1.0  0.1454
  C  C488  1  0.480800  0.694600  0.643600  1.0  -0.1631
  C  C489  1  0.438900  0.716800  0.662700  1.0  -0.0855
  C  C490  1  0.414090  0.752490  0.632600  1.0  -0.0614
  C  C491  1  0.431140  0.763110  0.584030  1.0  0.1338
  C  C492  1  0.314400  0.810400  0.692400  1.0  0.2546
  C  C493  1  0.371300  0.778700  0.649000  1.0  0.1009
  C  C494  1  0.348500  0.813700  0.618800  1.0  0.1034
  N  N495  1  0.380820  0.080410  0.079250  1.0  -0.3364
  N  N496  1  0.268840  0.093350  0.026570  1.0  -0.3476
  N  N497  1  0.524290  0.336490  0.190200  1.0  -0.4405
  N  N498  1  0.427000  0.346400  0.149800  1.0  -0.4885
  N  N499  1  0.501160  0.301570  0.420750  1.0  -0.3218
  N  N500  1  0.566780  0.242270  0.473430  1.0  -0.35
  N  N501  1  0.646290  0.334090  0.309800  1.0  -0.4437
  N  N502  1  0.696600  0.277200  0.350200  1.0  -0.4894
  N  N503  1  0.998840  0.419590  0.800410  1.0  -0.3349
  N  N504  1  0.933220  0.406650  0.675490  1.0  -0.348
  N  N505  1  0.853710  0.163510  0.687800  1.0  -0.4427
  N  N506  1  0.803400  0.153600  0.580600  1.0  -0.4967
  N  N507  1  0.119180  0.198430  0.699590  1.0  -0.3341
  N  N508  1  0.231160  0.257730  0.824510  1.0  -0.3503
  N  N509  1  0.975710  0.165910  0.812200  1.0  -0.4417
  N  N510  1  0.073000  0.222800  0.919400  1.0  -0.4908
  N  N511  1  0.300410  0.998840  0.919590  1.0  -0.3382
  N  N512  1  0.175490  0.933220  0.906650  1.0  -0.3476
  N  N513  1  0.187800  0.853710  0.663510  1.0  -0.4419
  N  N514  1  0.080600  0.803400  0.653600  1.0  -0.4914
  N  N515  1  0.199590  0.119180  0.698430  1.0  -0.3359
  N  N516  1  0.324510  0.231160  0.757730  1.0  -0.3499
  N  N517  1  0.312200  0.975710  0.665910  1.0  -0.4417
  N  N518  1  0.419400  0.073000  0.722800  1.0  -0.4886
  N  N519  1  0.579250  0.380820  0.580410  1.0  -0.337
  N  N520  1  0.526570  0.268840  0.593350  1.0  -0.35
  N  N521  1  0.690200  0.524290  0.836490  1.0  -0.4415
  N  N522  1  0.649800  0.427000  0.846400  1.0  -0.4912
  N  N523  1  0.920750  0.501160  0.801570  1.0  -0.3193
  N  N524  1  0.973430  0.566780  0.742270  1.0  -0.3485
  N  N525  1  0.809800  0.646290  0.834090  1.0  -0.4429
  N  N526  1  0.850200  0.696600  0.777200  1.0  -0.4963
  N  N527  1  0.301570  0.920750  0.001160  1.0  -0.321
  N  N528  1  0.242270  0.973430  0.066780  1.0  -0.3516
  N  N529  1  0.334090  0.809800  0.146290  1.0  -0.4401
  N  N530  1  0.277200  0.850200  0.196600  1.0  -0.4931
  N  N531  1  0.080410  0.579250  0.880820  1.0  -0.3412
  N  N532  1  0.093350  0.526570  0.768840  1.0  -0.351
  N  N533  1  0.336490  0.690200  0.024290  1.0  -0.4427
  N  N534  1  0.346400  0.649800  0.927000  1.0  -0.4937
  N  N535  1  0.198430  0.199590  0.619180  1.0  -0.3353
  N  N536  1  0.257730  0.324510  0.731160  1.0  -0.3498
  N  N537  1  0.165910  0.312200  0.475710  1.0  -0.4422
  N  N538  1  0.222800  0.419400  0.573000  1.0  -0.4892
  N  N539  1  0.419590  0.300410  0.498840  1.0  -0.3311
  N  N540  1  0.406650  0.175490  0.433220  1.0  -0.3483
  N  N541  1  0.163510  0.187800  0.353710  1.0  -0.4426
  N  N542  1  0.153600  0.080600  0.303400  1.0  -0.4881
  N  N543  1  0.801570  0.001160  0.920750  1.0  -0.3228
  N  N544  1  0.742270  0.066780  0.973430  1.0  -0.3478
  N  N545  1  0.834090  0.146290  0.809800  1.0  -0.4415
  N  N546  1  0.777200  0.196600  0.850200  1.0  -0.4883
  N  N547  1  0.580410  0.880820  0.579250  1.0  -0.3382
  N  N548  1  0.593350  0.768840  0.526570  1.0  -0.3498
  N  N549  1  0.836490  0.024290  0.690200  1.0  -0.4427
  N  N550  1  0.846400  0.927000  0.649800  1.0  -0.4882
  N  N551  1  0.698430  0.619180  0.199590  1.0  -0.3351
  N  N552  1  0.757730  0.731160  0.324510  1.0  -0.3503
  N  N553  1  0.665910  0.475710  0.312200  1.0  -0.4411
  N  N554  1  0.722800  0.573000  0.419400  1.0  -0.4908
  N  N555  1  0.919590  0.498840  0.300410  1.0  -0.3353
  N  N556  1  0.906650  0.433220  0.175490  1.0  -0.3468
  N  N557  1  0.663510  0.353710  0.187800  1.0  -0.4432
  N  N558  1  0.653600  0.303400  0.080600  1.0  -0.4954
  N  N559  1  0.880820  0.079250  0.080410  1.0  -0.3391
  N  N560  1  0.768840  0.026570  0.093350  1.0  -0.3516
  N  N561  1  0.024290  0.190200  0.336490  1.0  -0.4404
  N  N562  1  0.927000  0.149800  0.346400  1.0  -0.4928
  N  N563  1  0.001160  0.420750  0.301570  1.0  -0.3224
  N  N564  1  0.066780  0.473430  0.242270  1.0  -0.351
  N  N565  1  0.146290  0.309800  0.334090  1.0  -0.4421
  N  N566  1  0.196600  0.350200  0.277200  1.0  -0.4934
  N  N567  1  0.498840  0.800410  0.419590  1.0  -0.3354
  N  N568  1  0.433220  0.675490  0.406650  1.0  -0.349
  N  N569  1  0.353710  0.687800  0.163510  1.0  -0.4431
  N  N570  1  0.303400  0.580600  0.153600  1.0  -0.49
  N  N571  1  0.619180  0.699590  0.198430  1.0  -0.3316
  N  N572  1  0.731160  0.824510  0.257730  1.0  -0.3492
  N  N573  1  0.475710  0.812200  0.165910  1.0  -0.4414
  N  N574  1  0.573000  0.919400  0.222800  1.0  -0.4882
  N  N575  1  0.800410  0.919590  0.998840  1.0  -0.3337
  N  N576  1  0.675490  0.906650  0.933220  1.0  -0.3469
  N  N577  1  0.687800  0.663510  0.853710  1.0  -0.4409
  N  N578  1  0.580600  0.653600  0.803400  1.0  -0.4899
  N  N579  1  0.699590  0.698430  0.119180  1.0  -0.337
  N  N580  1  0.824510  0.757730  0.231160  1.0  -0.3506
  N  N581  1  0.812200  0.665910  0.975710  1.0  -0.4438
  N  N582  1  0.919400  0.722800  0.073000  1.0  -0.4912
  N  N583  1  0.079250  0.580410  0.380820  1.0  -0.3369
  N  N584  1  0.026570  0.593350  0.268840  1.0  -0.3494
  N  N585  1  0.190200  0.836490  0.524290  1.0  -0.4423
  N  N586  1  0.149800  0.846400  0.427000  1.0  -0.4964
  N  N587  1  0.420750  0.801570  0.501160  1.0  -0.3183
  N  N588  1  0.473430  0.742270  0.566780  1.0  -0.3499
  N  N589  1  0.309800  0.834090  0.646290  1.0  -0.4418
  N  N590  1  0.350200  0.777200  0.696600  1.0  -0.4899
