# generated using pymatgen
data_U2Co(CO)12
_symmetry_space_group_name_H-M   'P 1'
_cell_length_a   6.88500000
_cell_length_b   8.52290000
_cell_length_c   11.38400000
_cell_angle_alpha   95.41100000
_cell_angle_beta   90.80000000
_cell_angle_gamma   108.87000000
_symmetry_Int_Tables_number   1
_chemical_formula_structural   U2Co(CO)12
_chemical_formula_sum   'U2 Co1 C12 O12'
_cell_volume   628.59440130
_cell_formula_units_Z   1
loop_
 _symmetry_equiv_pos_site_id
 _symmetry_equiv_pos_as_xyz
  1  'x, y, z'
loop_
 _atom_site_type_symbol
 _atom_site_label
 _atom_site_symmetry_multiplicity
 _atom_site_fract_x
 _atom_site_fract_y
 _atom_site_fract_z
 _atom_site_occupancy
 _atom_site_charge
  U  U1  1  0.342970  0.169880  0.329210  1.0  1.4751
  U  U2  1  0.657030  0.830120  0.670790  1.0  1.4793
  Co  Co3  1  0.000000  0.500000  0.000000  1.0  0.8256
  C  C4  1  0.883600  0.368400  0.560900  1.0  -0.0949
  C  C5  1  0.952900  0.531500  0.616100  1.0  -0.0522
  C  C6  1  0.759600  0.229100  0.628800  1.0  0.634
  C  C7  1  0.847500  0.166200  0.376400  1.0  0.7279
  C  C8  1  0.916200  0.568800  0.745200  1.0  0.7266
  C  C9  1  0.930600  0.337600  0.444200  1.0  -0.0275
  C  C10  1  0.116400  0.631600  0.439100  1.0  -0.0957
  C  C11  1  0.047100  0.468500  0.383900  1.0  -0.053
  C  C12  1  0.240400  0.770900  0.371200  1.0  0.6363
  C  C13  1  0.152500  0.833800  0.623600  1.0  0.7265
  C  C14  1  0.083800  0.431200  0.254800  1.0  0.7288
  C  C15  1  0.069400  0.662400  0.555800  1.0  -0.0266
  O  O16  1  0.971800  0.090400  0.346700  1.0  -0.6513
  O  O17  1  0.759100  0.083600  0.589500  1.0  -0.6832
  O  O18  1  0.661200  0.112400  0.343400  1.0  -0.7514
  O  O19  1  0.791500  0.645100  0.770350  1.0  -0.6502
  O  O20  1  0.024700  0.531300  0.819410  1.0  -0.5896
  O  O21  1  0.670800  0.263400  0.715810  1.0  -0.4783
  O  O22  1  0.028200  0.909600  0.653300  1.0  -0.6479
  O  O23  1  0.240900  0.916400  0.410500  1.0  -0.6835
  O  O24  1  0.338800  0.887600  0.656600  1.0  -0.7513
  O  O25  1  0.208500  0.354900  0.229650  1.0  -0.6505
  O  O26  1  0.975300  0.468700  0.180590  1.0  -0.5927
  O  O27  1  0.329200  0.736600  0.284190  1.0  -0.4802
