# generated using pymatgen
data_U2Co(C6O7)2
_symmetry_space_group_name_H-M   'P 1'
_cell_length_a   6.80610000
_cell_length_b   8.24680000
_cell_length_c   9.09560000
_cell_angle_alpha   103.82400000
_cell_angle_beta   94.82300000
_cell_angle_gamma   102.71900000
_symmetry_Int_Tables_number   1
_chemical_formula_structural   U2Co(C6O7)2
_chemical_formula_sum   'U2 Co1 C12 O14'
_cell_volume   478.50927866
_cell_formula_units_Z   1
loop_
 _symmetry_equiv_pos_site_id
 _symmetry_equiv_pos_as_xyz
  1  'x, y, z'
loop_
 _atom_site_type_symbol
 _atom_site_label
 _atom_site_symmetry_multiplicity
 _atom_site_fract_x
 _atom_site_fract_y
 _atom_site_fract_z
 _atom_site_occupancy
 _atom_site_charge
  U  U1  1  0.112870  0.748190  0.274960  1.0  1.7456
  U  U2  1  0.887130  0.251810  0.725040  1.0  1.7478
  Co  Co3  1  0.000000  0.000000  0.000000  1.0  0.9874
  C  C4  1  0.778900  0.822000  0.675000  1.0  0.7349
  C  C5  1  0.619900  0.770700  0.347500  1.0  0.7388
  C  C6  1  0.634600  0.656800  0.584100  1.0  -0.0833
  C  C7  1  0.564200  0.631800  0.429100  1.0  -0.0073
  C  C8  1  0.432200  0.475000  0.345200  1.0  -0.0193
  C  C9  1  0.373500  0.448600  0.175500  1.0  0.7179
  C  C10  1  0.221100  0.178000  0.325000  1.0  0.7359
  C  C11  1  0.380100  0.229300  0.652500  1.0  0.7409
  C  C12  1  0.365400  0.343200  0.415900  1.0  -0.0827
  C  C13  1  0.435800  0.368200  0.570900  1.0  -0.0078
  C  C14  1  0.567800  0.525000  0.654800  1.0  -0.019
  C  C15  1  0.626500  0.551400  0.824500  1.0  0.7164
  O  O16  1  0.076000  0.796400  0.093700  1.0  -0.7004
  O  O17  1  0.244400  0.526900  0.137700  1.0  -0.603
  O  O18  1  0.796600  0.806800  0.309900  1.0  -0.6984
  O  O19  1  0.785700  0.953000  0.624000  1.0  -0.6489
  O  O20  1  0.484500  0.839100  0.308200  1.0  -0.6094
  O  O21  1  0.882600  0.819900  0.794400  1.0  -0.5761
  O  O22  1  0.460200  0.360800  0.086300  1.0  -0.4873
  O  O23  1  0.924000  0.203600  0.906300  1.0  -0.7004
  O  O24  1  0.755600  0.473100  0.862300  1.0  -0.603
  O  O25  1  0.203400  0.193200  0.690100  1.0  -0.6979
  O  O26  1  0.214300  0.047000  0.376000  1.0  -0.6499
  O  O27  1  0.515500  0.160900  0.691800  1.0  -0.6082
  O  O28  1  0.117400  0.180100  0.205600  1.0  -0.5762
  O  O29  1  0.539800  0.639200  0.913700  1.0  -0.4871
