# generated using pymatgen
data_UCoC6O7
_symmetry_space_group_name_H-M   'P 1'
_cell_length_a   8.29650000
_cell_length_b   8.58330000
_cell_length_c   9.87600000
_cell_angle_alpha   96.56400000
_cell_angle_beta   102.93800000
_cell_angle_gamma   94.19900000
_symmetry_Int_Tables_number   1
_chemical_formula_structural   UCoC6O7
_chemical_formula_sum   'U2 Co2 C12 O14'
_cell_volume   677.38028728
_cell_formula_units_Z   2
loop_
 _symmetry_equiv_pos_site_id
 _symmetry_equiv_pos_as_xyz
  1  'x, y, z'
loop_
 _atom_site_type_symbol
 _atom_site_label
 _atom_site_symmetry_multiplicity
 _atom_site_fract_x
 _atom_site_fract_y
 _atom_site_fract_z
 _atom_site_occupancy
 _atom_site_charge
  U  U1  1  0.420660  0.543450  0.165830  1.0  1.9186
  U  U2  1  0.579340  0.456550  0.834170  1.0  1.9181
  Co  Co3  1  0.000000  0.500000  0.500000  1.0  0.7896
  Co  Co4  1  0.000000  0.000000  0.000000  1.0  0.7706
  C  C5  1  0.399400  0.856000  0.474500  1.0  -0.0948
  C  C6  1  0.288700  0.702800  0.451400  1.0  0.7063
  C  C7  1  0.395900  0.950300  0.368000  1.0  -0.0753
  C  C8  1  0.275700  0.906500  0.226600  1.0  0.7125
  C  C9  1  0.502700  0.907700  0.607500  1.0  -0.0939
  C  C10  1  0.504200  0.810200  0.726100  1.0  0.6762
  C  C11  1  0.600600  0.144000  0.525500  1.0  -0.0952
  C  C12  1  0.711300  0.297200  0.548600  1.0  0.7044
  C  C13  1  0.604100  0.049700  0.632000  1.0  -0.0747
  C  C14  1  0.724300  0.093500  0.773400  1.0  0.7123
  C  C15  1  0.497300  0.092300  0.392500  1.0  -0.0954
  C  C16  1  0.495800  0.189800  0.273900  1.0  0.6776
  O  O17  1  0.177200  0.695400  0.517700  1.0  -0.5967
  O  O18  1  0.313200  0.591200  0.368100  1.0  -0.7008
  O  O19  1  0.282800  0.778200  0.153600  1.0  -0.7409
  O  O20  1  0.173300  0.001600  0.191700  1.0  -0.5898
  O  O21  1  0.527900  0.667800  0.700400  1.0  -0.7151
  O  O22  1  0.485600  0.875800  0.837500  1.0  -0.4918
  O  O23  1  0.431400  0.621000  0.952500  1.0  -0.6965
  O  O24  1  0.822800  0.304600  0.482300  1.0  -0.5996
  O  O25  1  0.686800  0.408800  0.631900  1.0  -0.6981
  O  O26  1  0.717200  0.221800  0.846400  1.0  -0.7395
  O  O27  1  0.826700  0.998400  0.808300  1.0  -0.5886
  O  O28  1  0.472100  0.332200  0.299600  1.0  -0.715
  O  O29  1  0.514400  0.124200  0.162500  1.0  -0.4877
  O  O30  1  0.568600  0.379000  0.047500  1.0  -0.697
