# generated using pymatgen
data_GaP2HO8
_symmetry_space_group_name_H-M   'P 1'
_cell_length_a   9.10900000
_cell_length_b   11.02100000
_cell_length_c   11.98700000
_cell_angle_alpha   90.00000000
_cell_angle_beta   90.00000000
_cell_angle_gamma   90.00000000
_symmetry_Int_Tables_number   1
_chemical_formula_structural   GaP2HO8
_chemical_formula_sum   'Ga4 P8 H4 O32'
_cell_volume   1203.37839424
_cell_formula_units_Z   4
loop_
 _symmetry_equiv_pos_site_id
 _symmetry_equiv_pos_as_xyz
  1  'x, y, z'
loop_
 _atom_site_type_symbol
 _atom_site_label
 _atom_site_symmetry_multiplicity
 _atom_site_fract_x
 _atom_site_fract_y
 _atom_site_fract_z
 _atom_site_occupancy
 _atom_site_charge
  Ga  Ga1  1  0.703500  0.750000  0.750000  1.0  1.6584
  Ga  Ga2  1  0.796500  0.250000  0.250000  1.0  1.6584
  Ga  Ga3  1  0.296500  0.250000  0.250000  1.0  1.6583
  Ga  Ga4  1  0.203500  0.750000  0.750000  1.0  1.6584
  P  P5  1  0.541600  0.313500  0.406200  1.0  1.8179
  P  P6  1  0.541600  0.186500  0.093800  1.0  1.8036
  P  P7  1  0.958400  0.686500  0.906200  1.0  1.8026
  P  P8  1  0.958400  0.813500  0.593800  1.0  1.8041
  P  P9  1  0.458400  0.686500  0.593800  1.0  1.8037
  P  P10  1  0.458400  0.813500  0.906200  1.0  1.8038
  P  P11  1  0.041600  0.313500  0.093800  1.0  1.811
  P  P12  1  0.041600  0.186500  0.406200  1.0  1.8027
  H  H13  1  0.500000  0.500000  0.500000  1.0  0.3718
  H  H14  1  0.500000  0.000000  0.000000  1.0  0.3718
  H  H15  1  0.000000  0.500000  0.000000  1.0  0.3718
  H  H16  1  0.000000  0.000000  0.500000  1.0  0.3718
  O  O17  1  0.543200  0.396100  0.509500  1.0  -0.5518
  O  O18  1  0.535300  0.181600  0.436800  1.0  -0.5652
  O  O19  1  0.407900  0.352700  0.334100  1.0  -0.834
  O  O20  1  0.316800  0.655600  0.659900  1.0  -0.8691
  O  O21  1  0.543200  0.103900  0.990500  1.0  -0.552
  O  O22  1  0.535300  0.318400  0.063200  1.0  -0.5684
  O  O23  1  0.407900  0.147300  0.165900  1.0  -0.8353
  O  O24  1  0.316800  0.844400  0.840100  1.0  -0.869
  O  O25  1  0.956800  0.603900  0.009500  1.0  -0.5512
  O  O26  1  0.964700  0.818400  0.936800  1.0  -0.5671
  O  O27  1  0.092100  0.647300  0.834100  1.0  -0.8341
  O  O28  1  0.183200  0.344400  0.159900  1.0  -0.869
  O  O29  1  0.956800  0.896100  0.490500  1.0  -0.5512
  O  O30  1  0.964700  0.681600  0.563200  1.0  -0.565
  O  O31  1  0.092100  0.852700  0.665900  1.0  -0.8338
  O  O32  1  0.183200  0.155600  0.340100  1.0  -0.8688
  O  O33  1  0.456800  0.603900  0.490500  1.0  -0.5507
  O  O34  1  0.464700  0.818400  0.563200  1.0  -0.5684
  O  O35  1  0.592100  0.647300  0.665900  1.0  -0.8351
  O  O36  1  0.683200  0.344400  0.340100  1.0  -0.8687
  O  O37  1  0.456800  0.896100  0.009500  1.0  -0.5503
  O  O38  1  0.464700  0.681600  0.936800  1.0  -0.5653
  O  O39  1  0.592100  0.852700  0.834100  1.0  -0.8335
  O  O40  1  0.683200  0.155600  0.159900  1.0  -0.8691
  O  O41  1  0.043200  0.396100  0.990500  1.0  -0.5532
  O  O42  1  0.035300  0.181600  0.063200  1.0  -0.565
  O  O43  1  0.907900  0.352700  0.165900  1.0  -0.8342
  O  O44  1  0.816800  0.655600  0.840100  1.0  -0.8686
  O  O45  1  0.043200  0.103900  0.509500  1.0  -0.5517
  O  O46  1  0.035300  0.318400  0.436800  1.0  -0.5671
  O  O47  1  0.907900  0.147300  0.334100  1.0  -0.8344
  O  O48  1  0.816800  0.844400  0.659900  1.0  -0.8696
