# generated using pymatgen
data_Zn2H6C14NO7
_symmetry_space_group_name_H-M   'P 1'
_cell_length_a   10.99700000
_cell_length_b   14.91400000
_cell_length_c   14.36800000
_cell_angle_alpha   90.00000000
_cell_angle_beta   109.31000000
_cell_angle_gamma   90.00000000
_symmetry_Int_Tables_number   1
_chemical_formula_structural   Zn2H6C14NO7
_chemical_formula_sum   'Zn8 H24 C56 N4 O28'
_cell_volume   2223.91683404
_cell_formula_units_Z   4
loop_
 _symmetry_equiv_pos_site_id
 _symmetry_equiv_pos_as_xyz
  1  'x, y, z'
loop_
 _atom_site_type_symbol
 _atom_site_label
 _atom_site_symmetry_multiplicity
 _atom_site_fract_x
 _atom_site_fract_y
 _atom_site_fract_z
 _atom_site_occupancy
 _atom_site_charge
  Zn  Zn1  1  0.620340  0.029990  0.966340  1.0  1.0662
  Zn  Zn2  1  0.072370  0.150070  0.161010  1.0  0.9882
  Zn  Zn3  1  0.379660  0.529990  0.533660  1.0  1.0668
  Zn  Zn4  1  0.927630  0.650070  0.338990  1.0  0.9858
  Zn  Zn5  1  0.379660  0.970010  0.033660  1.0  1.0667
  Zn  Zn6  1  0.927630  0.849930  0.838990  1.0  0.9817
  Zn  Zn7  1  0.620340  0.470010  0.466340  1.0  1.0662
  Zn  Zn8  1  0.072370  0.349930  0.661010  1.0  0.983
  H  H9  1  0.798400  0.247500  0.261400  1.0  0.0942
  H  H10  1  0.433400  0.256500  0.252300  1.0  0.1106
  H  H11  1  0.991100  0.246500  0.962400  1.0  0.0781
  H  H12  1  0.027700  0.486700  0.159300  1.0  0.1164
  H  H13  1  0.039500  0.344100  0.220300  1.0  0.0891
  H  H14  1  0.964800  0.386100  0.892500  1.0  0.1216
  H  H15  1  0.201600  0.747500  0.238600  1.0  0.0944
  H  H16  1  0.566600  0.756500  0.247700  1.0  0.1101
  H  H17  1  0.008900  0.746500  0.537600  1.0  0.0784
  H  H18  1  0.972300  0.986700  0.340700  1.0  0.1173
  H  H19  1  0.960500  0.844100  0.279700  1.0  0.0895
  H  H20  1  0.035200  0.886100  0.607500  1.0  0.122
  H  H21  1  0.201600  0.752500  0.738600  1.0  0.0946
  H  H22  1  0.566600  0.743500  0.747700  1.0  0.1103
  H  H23  1  0.008900  0.753500  0.037600  1.0  0.0781
  H  H24  1  0.972300  0.513300  0.840700  1.0  0.117
  H  H25  1  0.960500  0.655900  0.779700  1.0  0.0894
  H  H26  1  0.035200  0.613900  0.107500  1.0  0.122
  H  H27  1  0.798400  0.252500  0.761400  1.0  0.0942
  H  H28  1  0.433400  0.243500  0.752300  1.0  0.111
  H  H29  1  0.991100  0.253500  0.462400  1.0  0.0783
  H  H30  1  0.027700  0.013300  0.659300  1.0  0.1163
  H  H31  1  0.039500  0.155900  0.720300  1.0  0.0889
  H  H32  1  0.964800  0.113900  0.392500  1.0  0.1215
  C  C33  1  0.465000  0.161500  0.164300  1.0  -0.1862
  C  C34  1  0.621700  0.264400  0.269600  1.0  -0.1825
  C  C35  1  0.560000  0.122300  0.131400  1.0  0.2873
  C  C36  1  0.326900  0.133600  0.128800  1.0  0.7214
  C  C37  1  0.714600  0.225500  0.237400  1.0  -0.0518
  C  C38  1  0.497500  0.231100  0.231700  1.0  -0.0738
  C  C39  1  0.688400  0.155600  0.171300  1.0  -0.1487
  C  C40  1  0.797800  0.118700  0.143700  1.0  0.7253
  C  C41  1  0.655300  0.342100  0.338600  1.0  0.7144
  C  C42  1  0.003400  0.454100  0.019700  1.0  0.078
  C  C43  1  0.998600  0.296100  0.003100  1.0  0.1714
  C  C44  1  0.020900  0.438300  0.117000  1.0  -0.1582
  C  C45  1  0.028700  0.352400  0.153900  1.0  0.126
  C  C46  1  0.985500  0.380000  0.960400  1.0  -0.2229
  C  C47  1  0.535000  0.661500  0.335700  1.0  -0.1851
  C  C48  1  0.378300  0.764400  0.230400  1.0  -0.1822
  C  C49  1  0.440000  0.622300  0.368600  1.0  0.2875
  C  C50  1  0.673100  0.633600  0.371200  1.0  0.7205
  C  C51  1  0.285400  0.725500  0.262600  1.0  -0.0521
  C  C52  1  0.502500  0.731100  0.268300  1.0  -0.074
  C  C53  1  0.311600  0.655600  0.328700  1.0  -0.149
  C  C54  1  0.202200  0.618700  0.356300  1.0  0.7248
  C  C55  1  0.344700  0.842100  0.161400  1.0  0.714
  C  C56  1  0.996600  0.954100  0.480300  1.0  0.0775
  C  C57  1  0.001400  0.796100  0.496900  1.0  0.1726
  C  C58  1  0.979100  0.938300  0.383000  1.0  -0.1591
  C  C59  1  0.971300  0.852400  0.346100  1.0  0.1261
  C  C60  1  0.014500  0.880000  0.539600  1.0  -0.2213
  C  C61  1  0.535000  0.838500  0.835700  1.0  -0.1853
  C  C62  1  0.378300  0.735600  0.730400  1.0  -0.1826
  C  C63  1  0.440000  0.877700  0.868600  1.0  0.2877
  C  C64  1  0.673100  0.866400  0.871200  1.0  0.7206
  C  C65  1  0.285400  0.774500  0.762600  1.0  -0.0509
  C  C66  1  0.502500  0.768900  0.768300  1.0  -0.0738
  C  C67  1  0.311600  0.844400  0.828700  1.0  -0.1494
  C  C68  1  0.202200  0.881300  0.856300  1.0  0.7239
  C  C69  1  0.344700  0.657900  0.661400  1.0  0.7142
  C  C70  1  0.996600  0.545900  0.980300  1.0  0.0772
  C  C71  1  0.001400  0.703900  0.996900  1.0  0.1724
  C  C72  1  0.979100  0.561700  0.883000  1.0  -0.1579
  C  C73  1  0.971300  0.647600  0.846100  1.0  0.1264
  C  C74  1  0.014500  0.620000  0.039600  1.0  -0.2233
  C  C75  1  0.465000  0.338500  0.664300  1.0  -0.1859
  C  C76  1  0.621700  0.235600  0.769600  1.0  -0.1825
  C  C77  1  0.560000  0.377700  0.631400  1.0  0.2872
  C  C78  1  0.326900  0.366400  0.628800  1.0  0.7215
  C  C79  1  0.714600  0.274500  0.737400  1.0  -0.051
  C  C80  1  0.497500  0.268900  0.731700  1.0  -0.0733
  C  C81  1  0.688400  0.344400  0.671300  1.0  -0.1488
  C  C82  1  0.797800  0.381300  0.643700  1.0  0.7255
  C  C83  1  0.655300  0.157900  0.838600  1.0  0.7152
  C  C84  1  0.003400  0.045900  0.519700  1.0  0.0777
  C  C85  1  0.998600  0.203900  0.503100  1.0  0.1722
  C  C86  1  0.020900  0.061700  0.617000  1.0  -0.1577
  C  C87  1  0.028700  0.147600  0.653900  1.0  0.126
  C  C88  1  0.985500  0.120000  0.460400  1.0  -0.2253
  N  N89  1  0.021200  0.281800  0.097300  1.0  -0.3143
  N  N90  1  0.978800  0.781800  0.402700  1.0  -0.3149
  N  N91  1  0.978800  0.718200  0.902700  1.0  -0.315
  N  N92  1  0.021200  0.218200  0.597300  1.0  -0.3154
  O  O93  1  0.908200  0.141900  0.196300  1.0  -0.5973
  O  O94  1  0.566300  0.372200  0.369800  1.0  -0.5842
  O  O95  1  0.532600  0.056200  0.068900  1.0  -0.6788
  O  O96  1  0.252200  0.179100  0.157600  1.0  -0.5861
  O  O97  1  0.780400  0.066000  0.073100  1.0  -0.5884
  O  O98  1  0.764200  0.373900  0.362700  1.0  -0.5326
  O  O99  1  0.287800  0.069200  0.071800  1.0  -0.5781
  O  O100  1  0.091800  0.641900  0.303700  1.0  -0.5969
  O  O101  1  0.433700  0.872200  0.130200  1.0  -0.5838
  O  O102  1  0.467400  0.556200  0.431100  1.0  -0.6793
  O  O103  1  0.747800  0.679100  0.342400  1.0  -0.587
  O  O104  1  0.219600  0.566000  0.426900  1.0  -0.5881
  O  O105  1  0.235800  0.873900  0.137300  1.0  -0.5344
  O  O106  1  0.712200  0.569200  0.428200  1.0  -0.5796
  O  O107  1  0.091800  0.858100  0.803700  1.0  -0.5972
  O  O108  1  0.433700  0.627800  0.630200  1.0  -0.5842
  O  O109  1  0.467400  0.943800  0.931100  1.0  -0.6786
  O  O110  1  0.747800  0.820900  0.842400  1.0  -0.5872
  O  O111  1  0.219600  0.934000  0.926900  1.0  -0.5883
  O  O112  1  0.235800  0.626100  0.637300  1.0  -0.5339
  O  O113  1  0.712200  0.930800  0.928200  1.0  -0.5791
  O  O114  1  0.908200  0.358100  0.696300  1.0  -0.5977
  O  O115  1  0.566300  0.127800  0.869800  1.0  -0.5837
  O  O116  1  0.532600  0.443800  0.568900  1.0  -0.6783
  O  O117  1  0.252200  0.320900  0.657600  1.0  -0.5864
  O  O118  1  0.780400  0.434000  0.573100  1.0  -0.5883
  O  O119  1  0.764200  0.126100  0.862700  1.0  -0.5328
  O  O120  1  0.287800  0.430800  0.571800  1.0  -0.5778
