# generated using pymatgen
data_Ni2H6(C5N2)3
_symmetry_space_group_name_H-M   'P 1'
_cell_length_a   18.73180000
_cell_length_b   18.73180000
_cell_length_c   18.73180000
_cell_angle_alpha   60.00000000
_cell_angle_beta   60.00000000
_cell_angle_gamma   60.00000000
_symmetry_Int_Tables_number   1
_chemical_formula_structural   Ni2H6(C5N2)3
_chemical_formula_sum   'Ni8 H24 C60 N24'
_cell_volume   4647.54430561
_cell_formula_units_Z   4
loop_
 _symmetry_equiv_pos_site_id
 _symmetry_equiv_pos_as_xyz
  1  'x, y, z'
loop_
 _atom_site_type_symbol
 _atom_site_label
 _atom_site_symmetry_multiplicity
 _atom_site_fract_x
 _atom_site_fract_y
 _atom_site_fract_z
 _atom_site_occupancy
 _atom_site_charge
  Ni  Ni1  1  0.840040  0.053320  0.053320  1.0  0.2209
  Ni  Ni2  1  0.053320  0.840040  0.053320  1.0  0.2169
  Ni  Ni3  1  0.053320  0.053320  0.840040  1.0  0.2232
  Ni  Ni4  1  0.053320  0.053320  0.053320  1.0  0.2227
  Ni  Ni5  1  0.946680  0.159960  0.946680  1.0  0.2224
  Ni  Ni6  1  0.159960  0.946680  0.946680  1.0  0.2206
  Ni  Ni7  1  0.946680  0.946680  0.159960  1.0  0.2227
  Ni  Ni8  1  0.946680  0.946680  0.946680  1.0  0.2236
  H  H9  1  0.629400  0.075640  0.075640  1.0  0.1038
  H  H10  1  0.075640  0.629400  0.219320  1.0  0.1062
  H  H11  1  0.075640  0.219320  0.629400  1.0  0.1031
  H  H12  1  0.219320  0.075640  0.075640  1.0  0.1025
  H  H13  1  0.629400  0.075640  0.219320  1.0  0.1039
  H  H14  1  0.075640  0.219320  0.075640  1.0  0.1032
  H  H15  1  0.075640  0.629400  0.075640  1.0  0.1061
  H  H16  1  0.219320  0.075640  0.629400  1.0  0.103
  H  H17  1  0.629400  0.219320  0.075640  1.0  0.1045
  H  H18  1  0.075640  0.075640  0.629400  1.0  0.1028
  H  H19  1  0.075640  0.075640  0.219320  1.0  0.1033
  H  H20  1  0.219320  0.629400  0.075640  1.0  0.1067
  H  H21  1  0.924360  0.370600  0.924360  1.0  0.1074
  H  H22  1  0.370600  0.924360  0.780680  1.0  0.1058
  H  H23  1  0.780680  0.924360  0.370600  1.0  0.1042
  H  H24  1  0.924360  0.780680  0.924360  1.0  0.1043
  H  H25  1  0.924360  0.370600  0.780680  1.0  0.1073
  H  H26  1  0.780680  0.924360  0.924360  1.0  0.1035
  H  H27  1  0.370600  0.924360  0.924360  1.0  0.1056
  H  H28  1  0.924360  0.780680  0.370600  1.0  0.1046
  H  H29  1  0.780680  0.370600  0.924360  1.0  0.1075
  H  H30  1  0.924360  0.924360  0.370600  1.0  0.105
  H  H31  1  0.924360  0.924360  0.780680  1.0  0.1046
  H  H32  1  0.370600  0.780680  0.924360  1.0  0.1068
  C  C33  1  0.537100  0.000000  0.000000  1.0  -0.0521
  C  C34  1  0.603840  0.000000  0.000000  1.0  -0.0104
  C  C35  1  0.678040  0.000000  0.000000  1.0  0.0106
  C  C36  1  0.000000  0.537100  0.462900  1.0  -0.053
  C  C37  1  0.000000  0.603840  0.396160  1.0  -0.0084
  C  C38  1  0.000000  0.678040  0.321960  1.0  0.0092
  C  C39  1  0.000000  0.462900  0.537100  1.0  -0.0525
  C  C40  1  0.000000  0.396160  0.603840  1.0  -0.0128
  C  C41  1  0.000000  0.321960  0.678040  1.0  0.0088
  C  C42  1  0.462900  0.000000  0.000000  1.0  -0.052
  C  C43  1  0.396160  0.000000  0.000000  1.0  -0.0103
  C  C44  1  0.321960  0.000000  0.000000  1.0  0.0106
  C  C45  1  0.537100  0.000000  0.462900  1.0  -0.0517
  C  C46  1  0.603840  0.000000  0.396160  1.0  -0.0089
  C  C47  1  0.678040  0.000000  0.321960  1.0  0.0108
  C  C48  1  0.000000  0.462900  0.000000  1.0  -0.0522
  C  C49  1  0.000000  0.396160  0.000000  1.0  -0.0117
  C  C50  1  0.000000  0.321960  0.000000  1.0  0.0089
  C  C51  1  0.000000  0.537100  0.000000  1.0  -0.0534
  C  C52  1  0.000000  0.603840  0.000000  1.0  -0.01
  C  C53  1  0.000000  0.678040  0.000000  1.0  0.0079
  C  C54  1  0.462900  0.000000  0.537100  1.0  -0.0525
  C  C55  1  0.396160  0.000000  0.603840  1.0  -0.0121
  C  C56  1  0.321960  0.000000  0.678040  1.0  0.0099
  C  C57  1  0.537100  0.462900  0.000000  1.0  -0.0524
  C  C58  1  0.603840  0.396160  0.000000  1.0  -0.0105
  C  C59  1  0.678040  0.321960  0.000000  1.0  0.0105
  C  C60  1  0.000000  0.000000  0.537100  1.0  -0.0543
  C  C61  1  0.000000  0.000000  0.603840  1.0  -0.0097
  C  C62  1  0.000000  0.000000  0.678040  1.0  0.012
  C  C63  1  0.000000  0.000000  0.462900  1.0  -0.054
  C  C64  1  0.000000  0.000000  0.396160  1.0  -0.0096
  C  C65  1  0.000000  0.000000  0.321960  1.0  0.013
  C  C66  1  0.462900  0.537100  0.000000  1.0  -0.053
  C  C67  1  0.396160  0.603840  0.000000  1.0  -0.0089
  C  C68  1  0.321960  0.678040  0.000000  1.0  0.0125
  C  C69  1  0.679190  0.041530  0.041530  1.0  -0.0181
  C  C70  1  0.041530  0.679190  0.237750  1.0  -0.0188
  C  C71  1  0.041530  0.237750  0.679190  1.0  -0.0187
  C  C72  1  0.237750  0.041530  0.041530  1.0  -0.0185
  C  C73  1  0.679190  0.041530  0.237750  1.0  -0.0183
  C  C74  1  0.041530  0.237750  0.041530  1.0  -0.0187
  C  C75  1  0.041530  0.679190  0.041530  1.0  -0.0188
  C  C76  1  0.237750  0.041530  0.679190  1.0  -0.018
  C  C77  1  0.679190  0.237750  0.041530  1.0  -0.0192
  C  C78  1  0.041530  0.041530  0.679190  1.0  -0.0183
  C  C79  1  0.041530  0.041530  0.237750  1.0  -0.0179
  C  C80  1  0.237750  0.679190  0.041530  1.0  -0.0201
  C  C81  1  0.958470  0.320810  0.958470  1.0  -0.021
  C  C82  1  0.320810  0.958470  0.762250  1.0  -0.0173
  C  C83  1  0.762250  0.958470  0.320810  1.0  -0.0181
  C  C84  1  0.958470  0.762250  0.958470  1.0  -0.0193
  C  C85  1  0.958470  0.320810  0.762250  1.0  -0.0211
  C  C86  1  0.762250  0.958470  0.958470  1.0  -0.0181
  C  C87  1  0.320810  0.958470  0.958470  1.0  -0.0175
  C  C88  1  0.958470  0.762250  0.320810  1.0  -0.0197
  C  C89  1  0.762250  0.320810  0.958470  1.0  -0.0193
  C  C90  1  0.958470  0.958470  0.320810  1.0  -0.0192
  C  C91  1  0.958470  0.958470  0.762250  1.0  -0.0193
  C  C92  1  0.320810  0.762250  0.958470  1.0  -0.0181
  N  N93  1  0.764090  0.025670  0.025670  1.0  -0.1313
  N  N94  1  0.025670  0.764090  0.184570  1.0  -0.1328
  N  N95  1  0.025670  0.184570  0.764090  1.0  -0.1363
  N  N96  1  0.184570  0.025670  0.025670  1.0  -0.1311
  N  N97  1  0.764090  0.025670  0.184570  1.0  -0.1317
  N  N98  1  0.025670  0.184570  0.025670  1.0  -0.1369
  N  N99  1  0.025670  0.764090  0.025670  1.0  -0.1322
  N  N100  1  0.184570  0.025670  0.764090  1.0  -0.1307
  N  N101  1  0.764090  0.184570  0.025670  1.0  -0.1363
  N  N102  1  0.025670  0.025670  0.764090  1.0  -0.1325
  N  N103  1  0.025670  0.025670  0.184570  1.0  -0.1326
  N  N104  1  0.184570  0.764090  0.025670  1.0  -0.1334
  N  N105  1  0.974330  0.235910  0.974330  1.0  -0.1332
  N  N106  1  0.235910  0.974330  0.815430  1.0  -0.1314
  N  N107  1  0.815430  0.974330  0.235910  1.0  -0.1334
  N  N108  1  0.974330  0.815430  0.974330  1.0  -0.1372
  N  N109  1  0.974330  0.235910  0.815430  1.0  -0.1328
  N  N110  1  0.815430  0.974330  0.974330  1.0  -0.1329
  N  N111  1  0.235910  0.974330  0.974330  1.0  -0.1318
  N  N112  1  0.974330  0.815430  0.235910  1.0  -0.1376
  N  N113  1  0.815430  0.235910  0.974330  1.0  -0.1341
  N  N114  1  0.974330  0.974330  0.235910  1.0  -0.1331
  N  N115  1  0.974330  0.974330  0.815430  1.0  -0.1327
  N  N116  1  0.235910  0.815430  0.974330  1.0  -0.1371
