# generated using pymatgen
data_Ca3P2H24C42O13
_symmetry_space_group_name_H-M   'P 1'
_cell_length_a   9.50540000
_cell_length_b   23.47600000
_cell_length_c   27.62900000
_cell_angle_alpha   90.00000000
_cell_angle_beta   90.00000000
_cell_angle_gamma   90.00000000
_symmetry_Int_Tables_number   1
_chemical_formula_structural   Ca3P2H24C42O13
_chemical_formula_sum   'Ca12 P8 H96 C168 O52'
_cell_volume   6165.37737738
_cell_formula_units_Z   4
loop_
 _symmetry_equiv_pos_site_id
 _symmetry_equiv_pos_as_xyz
  1  'x, y, z'
loop_
 _atom_site_type_symbol
 _atom_site_label
 _atom_site_symmetry_multiplicity
 _atom_site_fract_x
 _atom_site_fract_y
 _atom_site_fract_z
 _atom_site_occupancy
 _atom_site_charge
  Ca  Ca1  1  0.349280  0.701440  0.872080  1.0  1.5294
  Ca  Ca2  1  0.650720  0.798560  0.872080  1.0  1.5302
  Ca  Ca3  1  0.349280  0.298560  0.627920  1.0  1.5303
  Ca  Ca4  1  0.650720  0.201440  0.627920  1.0  1.5295
  Ca  Ca5  1  0.650720  0.298560  0.127920  1.0  1.5303
  Ca  Ca6  1  0.349280  0.201440  0.127920  1.0  1.5297
  Ca  Ca7  1  0.650720  0.701440  0.372080  1.0  1.5293
  Ca  Ca8  1  0.349280  0.798560  0.372080  1.0  1.53
  Ca  Ca9  1  0.000000  0.750000  0.893300  1.0  1.5072
  Ca  Ca10  1  0.000000  0.250000  0.606700  1.0  1.5071
  Ca  Ca11  1  0.000000  0.250000  0.106700  1.0  1.5079
  Ca  Ca12  1  0.000000  0.750000  0.393300  1.0  1.5066
  P  P13  1  0.311600  0.083720  0.838900  1.0  0.1106
  P  P14  1  0.688400  0.416280  0.838900  1.0  0.1159
  P  P15  1  0.311600  0.916280  0.661100  1.0  0.1077
  P  P16  1  0.688400  0.583720  0.661100  1.0  0.1132
  P  P17  1  0.688400  0.916280  0.161100  1.0  0.1129
  P  P18  1  0.311600  0.583720  0.161100  1.0  0.1081
  P  P19  1  0.688400  0.083720  0.338900  1.0  0.1159
  P  P20  1  0.311600  0.416280  0.338900  1.0  0.1102
  H  H21  1  0.447900  0.993900  0.794000  1.0  0.1003
  H  H22  1  0.453700  0.894300  0.799400  1.0  0.1092
  H  H23  1  0.145300  0.899600  0.898500  1.0  0.1042
  H  H24  1  0.149200  0.997400  0.897600  1.0  0.1016
  H  H25  1  0.432900  0.129600  0.922500  1.0  0.1083
  H  H26  1  0.359400  0.163500  0.997200  1.0  0.1044
  H  H27  1  0.953400  0.133100  0.959500  1.0  0.1173
  H  H28  1  0.031700  0.098800  0.885100  1.0  0.0976
  H  H29  1  0.259000  0.177600  0.779200  1.0  0.1083
  H  H30  1  0.090600  0.206800  0.723900  1.0  0.1042
  H  H31  1  0.876600  0.060200  0.743800  1.0  0.1153
  H  H32  1  0.054500  0.029200  0.798400  1.0  0.0892
  H  H33  1  0.552100  0.506100  0.794000  1.0  0.0999
  H  H34  1  0.546300  0.605700  0.799400  1.0  0.1093
  H  H35  1  0.854700  0.600400  0.898500  1.0  0.1043
  H  H36  1  0.850800  0.502600  0.897600  1.0  0.1018
  H  H37  1  0.567100  0.370400  0.922500  1.0  0.1089
  H  H38  1  0.640600  0.336500  0.997200  1.0  0.1051
  H  H39  1  0.046600  0.366900  0.959500  1.0  0.1172
  H  H40  1  0.968300  0.401200  0.885100  1.0  0.0983
  H  H41  1  0.741000  0.322400  0.779200  1.0  0.1081
  H  H42  1  0.909400  0.293200  0.723900  1.0  0.1046
  H  H43  1  0.123400  0.439800  0.743800  1.0  0.1156
  H  H44  1  0.945500  0.470800  0.798400  1.0  0.0885
  H  H45  1  0.447900  0.006100  0.706000  1.0  0.1004
  H  H46  1  0.453700  0.105700  0.700600  1.0  0.1094
  H  H47  1  0.145300  0.100400  0.601500  1.0  0.1038
  H  H48  1  0.149200  0.002600  0.602400  1.0  0.1017
  H  H49  1  0.432900  0.870400  0.577500  1.0  0.1082
  H  H50  1  0.359400  0.836500  0.502800  1.0  0.1048
  H  H51  1  0.953400  0.866900  0.540500  1.0  0.1172
  H  H52  1  0.031700  0.901200  0.614900  1.0  0.0974
  H  H53  1  0.259000  0.822400  0.720800  1.0  0.1083
  H  H54  1  0.090600  0.793200  0.776100  1.0  0.1044
  H  H55  1  0.876600  0.939800  0.756200  1.0  0.1153
  H  H56  1  0.054500  0.970800  0.701600  1.0  0.0891
  H  H57  1  0.552100  0.493900  0.706000  1.0  0.0999
  H  H58  1  0.546300  0.394300  0.700600  1.0  0.1093
  H  H59  1  0.854700  0.399600  0.601500  1.0  0.1041
  H  H60  1  0.850800  0.497400  0.602400  1.0  0.1015
  H  H61  1  0.567100  0.629600  0.577500  1.0  0.1086
  H  H62  1  0.640600  0.663500  0.502800  1.0  0.105
  H  H63  1  0.046600  0.633100  0.540500  1.0  0.1175
  H  H64  1  0.968300  0.598800  0.614900  1.0  0.098
  H  H65  1  0.741000  0.677600  0.720800  1.0  0.109
  H  H66  1  0.909400  0.706800  0.776100  1.0  0.1044
  H  H67  1  0.123400  0.560200  0.756200  1.0  0.1154
  H  H68  1  0.945500  0.529200  0.701600  1.0  0.0889
  H  H69  1  0.552100  0.006100  0.206000  1.0  0.1001
  H  H70  1  0.546300  0.105700  0.200600  1.0  0.1094
  H  H71  1  0.854700  0.100400  0.101500  1.0  0.1039
  H  H72  1  0.850800  0.002600  0.102400  1.0  0.1015
  H  H73  1  0.567100  0.870400  0.077500  1.0  0.1086
  H  H74  1  0.640600  0.836500  0.002800  1.0  0.1049
  H  H75  1  0.046600  0.866900  0.040500  1.0  0.1176
  H  H76  1  0.968300  0.901200  0.114900  1.0  0.0981
  H  H77  1  0.741000  0.822400  0.220800  1.0  0.1081
  H  H78  1  0.909400  0.793200  0.276100  1.0  0.1045
  H  H79  1  0.123400  0.939800  0.256200  1.0  0.1156
  H  H80  1  0.945500  0.970800  0.201600  1.0  0.0892
  H  H81  1  0.447900  0.493900  0.206000  1.0  0.1001
  H  H82  1  0.453700  0.394300  0.200600  1.0  0.1094
  H  H83  1  0.145300  0.399600  0.101500  1.0  0.104
  H  H84  1  0.149200  0.497400  0.102400  1.0  0.1017
  H  H85  1  0.432900  0.629600  0.077500  1.0  0.108
  H  H86  1  0.359400  0.663500  0.002800  1.0  0.1049
  H  H87  1  0.953400  0.633100  0.040500  1.0  0.1172
  H  H88  1  0.031700  0.598800  0.114900  1.0  0.0972
  H  H89  1  0.259000  0.677600  0.220800  1.0  0.1087
  H  H90  1  0.090600  0.706800  0.276100  1.0  0.1043
  H  H91  1  0.876600  0.560200  0.256200  1.0  0.1153
  H  H92  1  0.054500  0.529200  0.201600  1.0  0.0887
  H  H93  1  0.552100  0.993900  0.294000  1.0  0.1
  H  H94  1  0.546300  0.894300  0.299400  1.0  0.1087
  H  H95  1  0.854700  0.899600  0.398500  1.0  0.1044
  H  H96  1  0.850800  0.997400  0.397600  1.0  0.1014
  H  H97  1  0.567100  0.129600  0.422500  1.0  0.1089
  H  H98  1  0.640600  0.163500  0.497200  1.0  0.1049
  H  H99  1  0.046600  0.133100  0.459500  1.0  0.1171
  H  H100  1  0.968300  0.098800  0.385100  1.0  0.0983
  H  H101  1  0.741000  0.177600  0.279200  1.0  0.1089
  H  H102  1  0.909400  0.206800  0.223900  1.0  0.1045
  H  H103  1  0.123400  0.060200  0.243800  1.0  0.1155
  H  H104  1  0.945500  0.029200  0.298400  1.0  0.0888
  H  H105  1  0.447900  0.506100  0.294000  1.0  0.1001
  H  H106  1  0.453700  0.605700  0.299400  1.0  0.1096
  H  H107  1  0.145300  0.600400  0.398500  1.0  0.104
  H  H108  1  0.149200  0.502600  0.397600  1.0  0.102
  H  H109  1  0.432900  0.370400  0.422500  1.0  0.1084
  H  H110  1  0.359400  0.336500  0.497200  1.0  0.1046
  H  H111  1  0.953400  0.366900  0.459500  1.0  0.1173
  H  H112  1  0.031700  0.401200  0.385100  1.0  0.0977
  H  H113  1  0.259000  0.322400  0.279200  1.0  0.1082
  H  H114  1  0.090600  0.293200  0.223900  1.0  0.1044
  H  H115  1  0.876600  0.439800  0.243800  1.0  0.1153
  H  H116  1  0.054500  0.470800  0.298400  1.0  0.089
  C  C117  1  0.299100  0.006300  0.844580  1.0  -0.0478
  C  C118  1  0.387300  0.974900  0.816120  1.0  -0.0726
  C  C119  1  0.389900  0.915300  0.818890  1.0  -0.0591
  C  C120  1  0.299600  0.887300  0.850080  1.0  -0.1371
  C  C121  1  0.209700  0.918700  0.877800  1.0  -0.0174
  C  C122  1  0.209800  0.976700  0.876600  1.0  -0.0803
  C  C123  1  0.310800  0.824400  0.854900  1.0  0.7062
  C  C124  1  0.238600  0.110000  0.896690  1.0  -0.047
  C  C125  1  0.335400  0.130100  0.930100  1.0  -0.0911
  C  C126  1  0.291700  0.150900  0.974300  1.0  -0.044
  C  C127  1  0.148000  0.153600  0.985710  1.0  -0.12
  C  C128  1  0.051000  0.133000  0.952200  1.0  -0.0537
  C  C129  1  0.098500  0.112100  0.908100  1.0  -0.0843
  C  C130  1  0.099400  0.179500  0.031300  1.0  0.6902
  C  C131  1  0.170900  0.100800  0.795340  1.0  -0.0568
  C  C132  1  0.181500  0.153400  0.772200  1.0  -0.0755
  C  C133  1  0.081300  0.170800  0.739350  1.0  -0.0423
  C  C134  1  0.968200  0.136700  0.728680  1.0  -0.1124
  C  C135  1  0.954900  0.083900  0.750700  1.0  -0.0549
  C  C136  1  0.060700  0.065900  0.784000  1.0  -0.0766
  C  C137  1  0.857600  0.157400  0.694590  1.0  0.7226
  C  C138  1  0.700900  0.493700  0.844580  1.0  -0.0478
  C  C139  1  0.612700  0.525100  0.816120  1.0  -0.0737
  C  C140  1  0.610100  0.584700  0.818890  1.0  -0.0569
  C  C141  1  0.700400  0.612700  0.850080  1.0  -0.1367
  C  C142  1  0.790300  0.581300  0.877800  1.0  -0.0176
  C  C143  1  0.790200  0.523300  0.876600  1.0  -0.0766
  C  C144  1  0.689200  0.675600  0.854900  1.0  0.7069
  C  C145  1  0.761400  0.390000  0.896690  1.0  -0.0462
  C  C146  1  0.664600  0.369900  0.930100  1.0  -0.0902
  C  C147  1  0.708300  0.349100  0.974300  1.0  -0.0459
  C  C148  1  0.852000  0.346400  0.985710  1.0  -0.1202
  C  C149  1  0.949000  0.367000  0.952200  1.0  -0.0519
  C  C150  1  0.901500  0.387900  0.908100  1.0  -0.0834
  C  C151  1  0.900600  0.320500  0.031300  1.0  0.6896
  C  C152  1  0.829100  0.399200  0.795340  1.0  -0.0554
  C  C153  1  0.818500  0.346600  0.772200  1.0  -0.0764
  C  C154  1  0.918700  0.329200  0.739350  1.0  -0.042
  C  C155  1  0.031800  0.363300  0.728680  1.0  -0.1121
  C  C156  1  0.045100  0.416100  0.750700  1.0  -0.0548
  C  C157  1  0.939300  0.434100  0.784000  1.0  -0.0758
  C  C158  1  0.142400  0.342600  0.694590  1.0  0.7212
  C  C159  1  0.299100  0.993700  0.655420  1.0  -0.0473
  C  C160  1  0.387300  0.025100  0.683880  1.0  -0.0735
  C  C161  1  0.389900  0.084700  0.681110  1.0  -0.0572
  C  C162  1  0.299600  0.112700  0.649920  1.0  -0.1367
  C  C163  1  0.209700  0.081300  0.622200  1.0  -0.0178
  C  C164  1  0.209800  0.023300  0.623400  1.0  -0.0798
  C  C165  1  0.310800  0.175600  0.645100  1.0  0.7076
  C  C166  1  0.238600  0.890000  0.603310  1.0  -0.0474
  C  C167  1  0.335400  0.869900  0.569900  1.0  -0.0912
  C  C168  1  0.291700  0.849100  0.525700  1.0  -0.0451
  C  C169  1  0.148000  0.846400  0.514290  1.0  -0.1201
  C  C170  1  0.051000  0.867000  0.547800  1.0  -0.0531
  C  C171  1  0.098500  0.887900  0.591900  1.0  -0.0841
  C  C172  1  0.099400  0.820500  0.468700  1.0  0.6905
  C  C173  1  0.170900  0.899200  0.704660  1.0  -0.0577
  C  C174  1  0.181500  0.846600  0.727800  1.0  -0.0775
  C  C175  1  0.081300  0.829200  0.760650  1.0  -0.0419
  C  C176  1  0.968200  0.863300  0.771320  1.0  -0.1128
  C  C177  1  0.954900  0.916100  0.749300  1.0  -0.055
  C  C178  1  0.060700  0.934100  0.716000  1.0  -0.0764
  C  C179  1  0.857600  0.842600  0.805410  1.0  0.7225
  C  C180  1  0.700900  0.506300  0.655420  1.0  -0.0474
  C  C181  1  0.612700  0.474900  0.683880  1.0  -0.0729
  C  C182  1  0.610100  0.415300  0.681110  1.0  -0.0568
  C  C183  1  0.700400  0.387300  0.649920  1.0  -0.1376
  C  C184  1  0.790300  0.418700  0.622200  1.0  -0.0187
  C  C185  1  0.790200  0.476700  0.623400  1.0  -0.0775
  C  C186  1  0.689200  0.324400  0.645100  1.0  0.7062
  C  C187  1  0.761400  0.610000  0.603310  1.0  -0.045
  C  C188  1  0.664600  0.630100  0.569900  1.0  -0.0905
  C  C189  1  0.708300  0.650900  0.525700  1.0  -0.0455
  C  C190  1  0.852000  0.653600  0.514290  1.0  -0.1197
  C  C191  1  0.949000  0.633000  0.547800  1.0  -0.0518
  C  C192  1  0.901500  0.612100  0.591900  1.0  -0.0823
  C  C193  1  0.900600  0.679500  0.468700  1.0  0.6899
  C  C194  1  0.829100  0.600800  0.704660  1.0  -0.0563
  C  C195  1  0.818500  0.653400  0.727800  1.0  -0.0781
  C  C196  1  0.918700  0.670800  0.760650  1.0  -0.0423
  C  C197  1  0.031800  0.636700  0.771320  1.0  -0.1125
  C  C198  1  0.045100  0.583900  0.749300  1.0  -0.0549
  C  C199  1  0.939300  0.565900  0.716000  1.0  -0.0769
  C  C200  1  0.142400  0.657400  0.805410  1.0  0.7218
  C  C201  1  0.700900  0.993700  0.155420  1.0  -0.0475
  C  C202  1  0.612700  0.025100  0.183880  1.0  -0.0735
  C  C203  1  0.610100  0.084700  0.181110  1.0  -0.0567
  C  C204  1  0.700400  0.112700  0.149920  1.0  -0.1358
  C  C205  1  0.790300  0.081300  0.122200  1.0  -0.0185
  C  C206  1  0.790200  0.023300  0.123400  1.0  -0.0776
  C  C207  1  0.689200  0.175600  0.145100  1.0  0.708
  C  C208  1  0.761400  0.890000  0.103310  1.0  -0.0459
  C  C209  1  0.664600  0.869900  0.069900  1.0  -0.0907
  C  C210  1  0.708300  0.849100  0.025700  1.0  -0.046
  C  C211  1  0.852000  0.846400  0.014290  1.0  -0.1201
  C  C212  1  0.949000  0.867000  0.047800  1.0  -0.052
  C  C213  1  0.901500  0.887900  0.091900  1.0  -0.0828
  C  C214  1  0.900600  0.820500  0.968700  1.0  0.6899
  C  C215  1  0.829100  0.899200  0.204660  1.0  -0.0565
  C  C216  1  0.818500  0.846600  0.227800  1.0  -0.0776
  C  C217  1  0.918700  0.829200  0.260650  1.0  -0.0418
  C  C218  1  0.031800  0.863300  0.271320  1.0  -0.1126
  C  C219  1  0.045100  0.916100  0.249300  1.0  -0.0542
  C  C220  1  0.939300  0.934100  0.216000  1.0  -0.0768
  C  C221  1  0.142400  0.842600  0.305410  1.0  0.7219
  C  C222  1  0.299100  0.506300  0.155420  1.0  -0.0476
  C  C223  1  0.387300  0.474900  0.183880  1.0  -0.0729
  C  C224  1  0.389900  0.415300  0.181110  1.0  -0.0579
  C  C225  1  0.299600  0.387300  0.149920  1.0  -0.1377
  C  C226  1  0.209700  0.418700  0.122200  1.0  -0.018
  C  C227  1  0.209800  0.476700  0.123400  1.0  -0.0798
  C  C228  1  0.310800  0.324400  0.145100  1.0  0.7064
  C  C229  1  0.238600  0.610000  0.103310  1.0  -0.0473
  C  C230  1  0.335400  0.630100  0.069900  1.0  -0.0911
  C  C231  1  0.291700  0.650900  0.025700  1.0  -0.0447
  C  C232  1  0.148000  0.653600  0.014290  1.0  -0.1197
  C  C233  1  0.051000  0.633000  0.047800  1.0  -0.0533
  C  C234  1  0.098500  0.612100  0.091900  1.0  -0.0835
  C  C235  1  0.099400  0.679500  0.968700  1.0  0.6904
  C  C236  1  0.170900  0.600800  0.204660  1.0  -0.0577
  C  C237  1  0.181500  0.653400  0.227800  1.0  -0.077
  C  C238  1  0.081300  0.670800  0.260650  1.0  -0.0425
  C  C239  1  0.968200  0.636700  0.271320  1.0  -0.1125
  C  C240  1  0.954900  0.583900  0.249300  1.0  -0.0549
  C  C241  1  0.060700  0.565900  0.216000  1.0  -0.077
  C  C242  1  0.857600  0.657400  0.305410  1.0  0.7224
  C  C243  1  0.700900  0.006300  0.344580  1.0  -0.047
  C  C244  1  0.612700  0.974900  0.316120  1.0  -0.0728
  C  C245  1  0.610100  0.915300  0.318890  1.0  -0.0572
  C  C246  1  0.700400  0.887300  0.350080  1.0  -0.1371
  C  C247  1  0.790300  0.918700  0.377800  1.0  -0.0181
  C  C248  1  0.790200  0.976700  0.376600  1.0  -0.0772
  C  C249  1  0.689200  0.824400  0.354900  1.0  0.7059
  C  C250  1  0.761400  0.110000  0.396690  1.0  -0.0451
  C  C251  1  0.664600  0.130100  0.430100  1.0  -0.0899
  C  C252  1  0.708300  0.150900  0.474300  1.0  -0.0454
  C  C253  1  0.852000  0.153600  0.485710  1.0  -0.1201
  C  C254  1  0.949000  0.133000  0.452200  1.0  -0.0518
  C  C255  1  0.901500  0.112100  0.408100  1.0  -0.083
  C  C256  1  0.900600  0.179500  0.531300  1.0  0.6902
  C  C257  1  0.829100  0.100800  0.295340  1.0  -0.0547
  C  C258  1  0.818500  0.153400  0.272200  1.0  -0.077
  C  C259  1  0.918700  0.170800  0.239350  1.0  -0.0423
  C  C260  1  0.031800  0.136700  0.228680  1.0  -0.112
  C  C261  1  0.045100  0.083900  0.250700  1.0  -0.0555
  C  C262  1  0.939300  0.065900  0.284000  1.0  -0.0764
  C  C263  1  0.142400  0.157400  0.194590  1.0  0.7213
  C  C264  1  0.299100  0.493700  0.344580  1.0  -0.0478
  C  C265  1  0.387300  0.525100  0.316120  1.0  -0.0733
  C  C266  1  0.389900  0.584700  0.318890  1.0  -0.058
  C  C267  1  0.299600  0.612700  0.350080  1.0  -0.1373
  C  C268  1  0.209700  0.581300  0.377800  1.0  -0.0172
  C  C269  1  0.209800  0.523300  0.376600  1.0  -0.0795
  C  C270  1  0.310800  0.675600  0.354900  1.0  0.7067
  C  C271  1  0.238600  0.390000  0.396690  1.0  -0.0477
  C  C272  1  0.335400  0.369900  0.430100  1.0  -0.0912
  C  C273  1  0.291700  0.349100  0.474300  1.0  -0.0442
  C  C274  1  0.148000  0.346400  0.485710  1.0  -0.1201
  C  C275  1  0.051000  0.367000  0.452200  1.0  -0.0537
  C  C276  1  0.098500  0.387900  0.408100  1.0  -0.0847
  C  C277  1  0.099400  0.320500  0.531300  1.0  0.6898
  C  C278  1  0.170900  0.399200  0.295340  1.0  -0.0568
  C  C279  1  0.181500  0.346600  0.272200  1.0  -0.0763
  C  C280  1  0.081300  0.329200  0.239350  1.0  -0.042
  C  C281  1  0.968200  0.363300  0.228680  1.0  -0.1127
  C  C282  1  0.954900  0.416100  0.250700  1.0  -0.0549
  C  C283  1  0.060700  0.434100  0.284000  1.0  -0.0755
  C  C284  1  0.857600  0.342600  0.194590  1.0  0.7225
  O  O285  1  0.214000  0.797790  0.876280  1.0  -0.6961
  O  O286  1  0.418100  0.799050  0.838770  1.0  -0.7358
  O  O287  1  0.969100  0.183600  0.039070  1.0  -0.6012
  O  O288  1  0.188800  0.197510  0.062190  1.0  -0.7718
  O  O289  1  0.887700  0.196550  0.665830  1.0  -0.7628
  O  O290  1  0.736500  0.136000  0.695050  1.0  -0.6796
  O  O291  1  0.786000  0.702210  0.876280  1.0  -0.6957
  O  O292  1  0.581900  0.700950  0.838770  1.0  -0.7361
  O  O293  1  0.030900  0.316400  0.039070  1.0  -0.6028
  O  O294  1  0.811200  0.302490  0.062190  1.0  -0.7714
  O  O295  1  0.112300  0.303450  0.665830  1.0  -0.7623
  O  O296  1  0.263500  0.364000  0.695050  1.0  -0.6804
  O  O297  1  0.214000  0.202210  0.623720  1.0  -0.6954
  O  O298  1  0.418100  0.200950  0.661230  1.0  -0.7357
  O  O299  1  0.969100  0.816400  0.460930  1.0  -0.6017
  O  O300  1  0.188800  0.802490  0.437810  1.0  -0.772
  O  O301  1  0.887700  0.803450  0.834170  1.0  -0.7624
  O  O302  1  0.736500  0.864000  0.804950  1.0  -0.6804
  O  O303  1  0.786000  0.297790  0.623720  1.0  -0.6967
  O  O304  1  0.581900  0.299050  0.661230  1.0  -0.736
  O  O305  1  0.030900  0.683600  0.460930  1.0  -0.6031
  O  O306  1  0.811200  0.697510  0.437810  1.0  -0.7712
  O  O307  1  0.112300  0.696550  0.834170  1.0  -0.7611
  O  O308  1  0.263500  0.636000  0.804950  1.0  -0.6802
  O  O309  1  0.786000  0.202210  0.123720  1.0  -0.6956
  O  O310  1  0.581900  0.200950  0.161230  1.0  -0.7366
  O  O311  1  0.030900  0.816400  0.960930  1.0  -0.603
  O  O312  1  0.811200  0.802490  0.937810  1.0  -0.7714
  O  O313  1  0.112300  0.803450  0.334170  1.0  -0.7618
  O  O314  1  0.263500  0.864000  0.304950  1.0  -0.6806
  O  O315  1  0.214000  0.297790  0.123720  1.0  -0.6965
  O  O316  1  0.418100  0.299050  0.161230  1.0  -0.7352
  O  O317  1  0.969100  0.683600  0.960930  1.0  -0.6016
  O  O318  1  0.188800  0.697510  0.937810  1.0  -0.7719
  O  O319  1  0.887700  0.696550  0.334170  1.0  -0.7618
  O  O320  1  0.736500  0.636000  0.304950  1.0  -0.68
  O  O321  1  0.786000  0.797790  0.376280  1.0  -0.697
  O  O322  1  0.581900  0.799050  0.338770  1.0  -0.7365
  O  O323  1  0.030900  0.183600  0.539070  1.0  -0.6029
  O  O324  1  0.811200  0.197510  0.562190  1.0  -0.771
  O  O325  1  0.112300  0.196550  0.165830  1.0  -0.7619
  O  O326  1  0.263500  0.136000  0.195050  1.0  -0.68
  O  O327  1  0.214000  0.702210  0.376280  1.0  -0.695
  O  O328  1  0.418100  0.700950  0.338770  1.0  -0.7352
  O  O329  1  0.969100  0.316400  0.539070  1.0  -0.6013
  O  O330  1  0.188800  0.302490  0.562190  1.0  -0.7725
  O  O331  1  0.887700  0.303450  0.165830  1.0  -0.7631
  O  O332  1  0.736500  0.364000  0.195050  1.0  -0.6802
  O  O333  1  0.500000  0.750000  0.933040  1.0  -0.5143
  O  O334  1  0.500000  0.250000  0.566960  1.0  -0.515
  O  O335  1  0.500000  0.250000  0.066960  1.0  -0.515
  O  O336  1  0.500000  0.750000  0.433040  1.0  -0.5143
