# generated using pymatgen
data_MgH5C8O5
_symmetry_space_group_name_H-M   'P 1'
_cell_length_a   15.29270000
_cell_length_b   15.29270000
_cell_length_c   12.30100000
_cell_angle_alpha   90.00000000
_cell_angle_beta   90.00000000
_cell_angle_gamma   90.00000000
_symmetry_Int_Tables_number   1
_chemical_formula_structural   MgH5C8O5
_chemical_formula_sum   'Mg8 H40 C64 O40'
_cell_volume   2876.79394814
_cell_formula_units_Z   8
loop_
 _symmetry_equiv_pos_site_id
 _symmetry_equiv_pos_as_xyz
  1  'x, y, z'
loop_
 _atom_site_type_symbol
 _atom_site_label
 _atom_site_symmetry_multiplicity
 _atom_site_fract_x
 _atom_site_fract_y
 _atom_site_fract_z
 _atom_site_occupancy
 _atom_site_charge
  Mg  Mg1  1  0.184800  0.184800  0.500000  1.0  1.4784
  Mg  Mg2  1  0.315200  0.315200  0.000000  1.0  1.4736
  Mg  Mg3  1  0.815200  0.684800  0.750000  1.0  1.4781
  Mg  Mg4  1  0.684800  0.815200  0.250000  1.0  1.4742
  Mg  Mg5  1  0.315200  0.184800  0.250000  1.0  1.4781
  Mg  Mg6  1  0.184800  0.315200  0.750000  1.0  1.4742
  Mg  Mg7  1  0.684800  0.684800  0.000000  1.0  1.4784
  Mg  Mg8  1  0.815200  0.815200  0.500000  1.0  1.4736
  H  H9  1  0.617000  0.559200  0.581600  1.0  0.0882
  H  H10  1  0.297320  0.288390  0.409030  1.0  0.2656
  H  H11  1  0.117000  0.059200  0.081600  1.0  0.0882
  H  H12  1  0.797320  0.788390  0.909030  1.0  0.2656
  H  H13  1  0.883000  0.940800  0.081600  1.0  0.088
  H  H14  1  0.202680  0.211610  0.909030  1.0  0.2664
  H  H15  1  0.383000  0.440800  0.581600  1.0  0.088
  H  H16  1  0.702680  0.711610  0.409030  1.0  0.2664
  H  H17  1  0.440800  0.117000  0.831600  1.0  0.0882
  H  H18  1  0.711610  0.797320  0.659030  1.0  0.2672
  H  H19  1  0.940800  0.617000  0.331600  1.0  0.0882
  H  H20  1  0.211610  0.297320  0.159030  1.0  0.2672
  H  H21  1  0.059200  0.383000  0.331600  1.0  0.0878
  H  H22  1  0.788390  0.702680  0.159030  1.0  0.265
  H  H23  1  0.559200  0.883000  0.831600  1.0  0.0878
  H  H24  1  0.288390  0.202680  0.659030  1.0  0.265
  H  H25  1  0.883000  0.559200  0.168400  1.0  0.0877
  H  H26  1  0.202680  0.288390  0.340970  1.0  0.2673
  H  H27  1  0.383000  0.059200  0.668400  1.0  0.0877
  H  H28  1  0.702680  0.788390  0.840970  1.0  0.2673
  H  H29  1  0.617000  0.940800  0.668400  1.0  0.0879
  H  H30  1  0.297320  0.211610  0.840970  1.0  0.2647
  H  H31  1  0.117000  0.440800  0.168400  1.0  0.0879
  H  H32  1  0.797320  0.711610  0.340970  1.0  0.2647
  H  H33  1  0.059200  0.117000  0.918400  1.0  0.0875
  H  H34  1  0.788390  0.797320  0.090970  1.0  0.2656
  H  H35  1  0.559200  0.617000  0.418400  1.0  0.0875
  H  H36  1  0.288390  0.297320  0.590970  1.0  0.2656
  H  H37  1  0.440800  0.383000  0.418400  1.0  0.0878
  H  H38  1  0.711610  0.702680  0.590970  1.0  0.2669
  H  H39  1  0.940800  0.883000  0.918400  1.0  0.0878
  H  H40  1  0.211610  0.202680  0.090970  1.0  0.267
  H  H41  1  0.000000  0.000000  0.363900  1.0  0.0998
  H  H42  1  0.500000  0.500000  0.863900  1.0  0.0998
  H  H43  1  0.000000  0.500000  0.613900  1.0  0.0998
  H  H44  1  0.500000  0.000000  0.113900  1.0  0.0998
  H  H45  1  0.500000  0.000000  0.386100  1.0  0.1005
  H  H46  1  0.000000  0.500000  0.886100  1.0  0.1005
  H  H47  1  0.500000  0.500000  0.136100  1.0  0.1005
  H  H48  1  0.000000  0.000000  0.636100  1.0  0.1005
  C  C49  1  0.569200  0.536700  0.619200  1.0  -0.0649
  C  C50  1  0.568400  0.540400  0.732200  1.0  -0.1597
  C  C51  1  0.639800  0.587700  0.791800  1.0  0.7069
  C  C52  1  0.069200  0.036700  0.119200  1.0  -0.0649
  C  C53  1  0.068400  0.040400  0.232200  1.0  -0.1597
  C  C54  1  0.139800  0.087700  0.291800  1.0  0.7069
  C  C55  1  0.930800  0.963300  0.119200  1.0  -0.0647
  C  C56  1  0.931600  0.959600  0.232200  1.0  -0.1594
  C  C57  1  0.860200  0.912300  0.291800  1.0  0.706
  C  C58  1  0.430800  0.463300  0.619200  1.0  -0.0647
  C  C59  1  0.431600  0.459600  0.732200  1.0  -0.1594
  C  C60  1  0.360200  0.412300  0.791800  1.0  0.706
  C  C61  1  0.463300  0.069200  0.869200  1.0  -0.0651
  C  C62  1  0.459600  0.068400  0.982200  1.0  -0.1606
  C  C63  1  0.412300  0.139800  0.041800  1.0  0.7089
  C  C64  1  0.963300  0.569200  0.369200  1.0  -0.0651
  C  C65  1  0.959600  0.568400  0.482200  1.0  -0.1606
  C  C66  1  0.912300  0.639800  0.541800  1.0  0.7089
  C  C67  1  0.036700  0.430800  0.369200  1.0  -0.0647
  C  C68  1  0.040400  0.431600  0.482200  1.0  -0.1614
  C  C69  1  0.087700  0.360200  0.541800  1.0  0.7086
  C  C70  1  0.536700  0.930800  0.869200  1.0  -0.0647
  C  C71  1  0.540400  0.931600  0.982200  1.0  -0.1614
  C  C72  1  0.587700  0.860200  0.041800  1.0  0.7086
  C  C73  1  0.930800  0.536700  0.130800  1.0  -0.065
  C  C74  1  0.931600  0.540400  0.017800  1.0  -0.1583
  C  C75  1  0.860200  0.587700  0.958200  1.0  0.7065
  C  C76  1  0.430800  0.036700  0.630800  1.0  -0.065
  C  C77  1  0.431600  0.040400  0.517800  1.0  -0.1583
  C  C78  1  0.360200  0.087700  0.458200  1.0  0.7065
  C  C79  1  0.569200  0.963300  0.630800  1.0  -0.0645
  C  C80  1  0.568400  0.959600  0.517800  1.0  -0.1587
  C  C81  1  0.639800  0.912300  0.458200  1.0  0.7072
  C  C82  1  0.069200  0.463300  0.130800  1.0  -0.0645
  C  C83  1  0.068400  0.459600  0.017800  1.0  -0.1587
  C  C84  1  0.139800  0.412300  0.958200  1.0  0.7072
  C  C85  1  0.036700  0.069200  0.880800  1.0  -0.0653
  C  C86  1  0.040400  0.068400  0.767800  1.0  -0.16
  C  C87  1  0.087700  0.139800  0.708200  1.0  0.7095
  C  C88  1  0.536700  0.569200  0.380800  1.0  -0.0653
  C  C89  1  0.540400  0.568400  0.267800  1.0  -0.16
  C  C90  1  0.587700  0.639800  0.208200  1.0  0.7095
  C  C91  1  0.463300  0.430800  0.380800  1.0  -0.0649
  C  C92  1  0.459600  0.431600  0.267800  1.0  -0.1599
  C  C93  1  0.412300  0.360200  0.208200  1.0  0.7086
  C  C94  1  0.963300  0.930800  0.880800  1.0  -0.0649
  C  C95  1  0.959600  0.931600  0.767800  1.0  -0.1599
  C  C96  1  0.912300  0.860200  0.708200  1.0  0.7086
  C  C97  1  0.000000  0.000000  0.061000  1.0  0.017
  C  C98  1  0.000000  0.000000  0.288300  1.0  0.0091
  C  C99  1  0.500000  0.500000  0.561000  1.0  0.017
  C  C100  1  0.500000  0.500000  0.788300  1.0  0.0091
  C  C101  1  0.000000  0.500000  0.311000  1.0  0.017
  C  C102  1  0.000000  0.500000  0.538300  1.0  0.0091
  C  C103  1  0.500000  0.000000  0.811000  1.0  0.017
  C  C104  1  0.500000  0.000000  0.038300  1.0  0.0091
  C  C105  1  0.500000  0.000000  0.689000  1.0  0.0161
  C  C106  1  0.500000  0.000000  0.461700  1.0  0.0098
  C  C107  1  0.000000  0.500000  0.189000  1.0  0.0161
  C  C108  1  0.000000  0.500000  0.961700  1.0  0.0098
  C  C109  1  0.500000  0.500000  0.439000  1.0  0.0161
  C  C110  1  0.500000  0.500000  0.211700  1.0  0.0098
  C  C111  1  0.000000  0.000000  0.939000  1.0  0.0161
  C  C112  1  0.000000  0.000000  0.711700  1.0  0.0098
  O  O113  1  0.620300  0.615500  0.885400  1.0  -0.6269
  O  O114  1  0.711170  0.596940  0.745600  1.0  -0.6337
  O  O115  1  0.120300  0.115500  0.385400  1.0  -0.6269
  O  O116  1  0.211170  0.096940  0.245600  1.0  -0.6337
  O  O117  1  0.879700  0.884500  0.385400  1.0  -0.626
  O  O118  1  0.788830  0.903060  0.245600  1.0  -0.6354
  O  O119  1  0.379700  0.384500  0.885400  1.0  -0.626
  O  O120  1  0.288830  0.403060  0.745600  1.0  -0.6354
  O  O121  1  0.384500  0.120300  0.135400  1.0  -0.6269
  O  O122  1  0.403060  0.211170  0.995600  1.0  -0.6321
  O  O123  1  0.884500  0.620300  0.635400  1.0  -0.6269
  O  O124  1  0.903060  0.711170  0.495600  1.0  -0.6321
  O  O125  1  0.115500  0.379700  0.635400  1.0  -0.6279
  O  O126  1  0.096940  0.288830  0.495600  1.0  -0.6362
  O  O127  1  0.615500  0.879700  0.135400  1.0  -0.6279
  O  O128  1  0.596940  0.788830  0.995600  1.0  -0.6362
  O  O129  1  0.879700  0.615500  0.864600  1.0  -0.625
  O  O130  1  0.788830  0.596940  0.004400  1.0  -0.6338
  O  O131  1  0.379700  0.115500  0.364600  1.0  -0.625
  O  O132  1  0.288830  0.096940  0.504400  1.0  -0.6338
  O  O133  1  0.620300  0.884500  0.364600  1.0  -0.6255
  O  O134  1  0.711170  0.903060  0.504400  1.0  -0.6342
  O  O135  1  0.120300  0.384500  0.864600  1.0  -0.6255
  O  O136  1  0.211170  0.403060  0.004400  1.0  -0.6342
  O  O137  1  0.115500  0.120300  0.614600  1.0  -0.6267
  O  O138  1  0.096940  0.211170  0.754400  1.0  -0.6351
  O  O139  1  0.615500  0.620300  0.114600  1.0  -0.6267
  O  O140  1  0.596940  0.711170  0.254400  1.0  -0.6351
  O  O141  1  0.384500  0.379700  0.114600  1.0  -0.6256
  O  O142  1  0.403060  0.288830  0.254400  1.0  -0.6332
  O  O143  1  0.884500  0.879700  0.614600  1.0  -0.6256
  O  O144  1  0.903060  0.788830  0.754400  1.0  -0.6332
  O  O145  1  0.755400  0.750000  0.125000  1.0  -0.756
  O  O146  1  0.255400  0.250000  0.625000  1.0  -0.756
  O  O147  1  0.744600  0.750000  0.625000  1.0  -0.7556
  O  O148  1  0.244600  0.250000  0.125000  1.0  -0.7556
  O  O149  1  0.250000  0.255400  0.375000  1.0  -0.7544
  O  O150  1  0.750000  0.755400  0.875000  1.0  -0.7544
  O  O151  1  0.250000  0.244600  0.875000  1.0  -0.7552
  O  O152  1  0.750000  0.744600  0.375000  1.0  -0.7552
