# generated using pymatgen
data_Cu3H2C10(NO2)4
_symmetry_space_group_name_H-M   'P 1'
_cell_length_a   17.16370000
_cell_length_b   17.16370000
_cell_length_c   34.06650000
_cell_angle_alpha   90.00000000
_cell_angle_beta   90.00000000
_cell_angle_gamma   90.00000000
_symmetry_Int_Tables_number   1
_chemical_formula_structural   Cu3H2C10(NO2)4
_chemical_formula_sum   'Cu48 H32 C160 N64 O128'
_cell_volume   10035.73872921
_cell_formula_units_Z   16
loop_
 _symmetry_equiv_pos_site_id
 _symmetry_equiv_pos_as_xyz
  1  'x, y, z'
loop_
 _atom_site_type_symbol
 _atom_site_label
 _atom_site_symmetry_multiplicity
 _atom_site_fract_x
 _atom_site_fract_y
 _atom_site_fract_z
 _atom_site_occupancy
 _atom_site_charge
  Cu  Cu1  1  0.370190  0.119860  0.136480  1.0  0.7154
  Cu  Cu2  1  0.870190  0.619860  0.636480  1.0  0.7154
  Cu  Cu3  1  0.129810  0.880140  0.636480  1.0  0.7158
  Cu  Cu4  1  0.629810  0.380140  0.136480  1.0  0.7158
  Cu  Cu5  1  0.129810  0.119860  0.863520  1.0  0.7179
  Cu  Cu6  1  0.629810  0.619860  0.363520  1.0  0.7179
  Cu  Cu7  1  0.370190  0.880140  0.363520  1.0  0.7148
  Cu  Cu8  1  0.870190  0.380140  0.863520  1.0  0.7148
  Cu  Cu9  1  0.869860  0.879810  0.613520  1.0  0.7127
  Cu  Cu10  1  0.369860  0.379810  0.113520  1.0  0.7127
  Cu  Cu11  1  0.630140  0.120190  0.113520  1.0  0.715
  Cu  Cu12  1  0.130140  0.620190  0.613520  1.0  0.715
  Cu  Cu13  1  0.630140  0.879810  0.386480  1.0  0.7132
  Cu  Cu14  1  0.130140  0.379810  0.886480  1.0  0.7132
  Cu  Cu15  1  0.869860  0.120190  0.886480  1.0  0.7132
  Cu  Cu16  1  0.369860  0.620190  0.386480  1.0  0.7132
  Cu  Cu17  1  0.348150  0.000000  0.250000  1.0  0.8375
  Cu  Cu18  1  0.848150  0.500000  0.750000  1.0  0.8375
  Cu  Cu19  1  0.151850  0.000000  0.750000  1.0  0.8368
  Cu  Cu20  1  0.651850  0.500000  0.250000  1.0  0.8368
  Cu  Cu21  1  0.750000  0.901850  0.500000  1.0  0.8377
  Cu  Cu22  1  0.250000  0.401850  0.000000  1.0  0.8377
  Cu  Cu23  1  0.750000  0.098150  0.000000  1.0  0.8379
  Cu  Cu24  1  0.250000  0.598150  0.500000  1.0  0.8379
  Cu  Cu25  1  0.130140  0.120190  0.386480  1.0  0.7146
  Cu  Cu26  1  0.630140  0.620190  0.886480  1.0  0.7146
  Cu  Cu27  1  0.369860  0.879810  0.886480  1.0  0.7132
  Cu  Cu28  1  0.869860  0.379810  0.386480  1.0  0.7132
  Cu  Cu29  1  0.369860  0.120190  0.613520  1.0  0.7136
  Cu  Cu30  1  0.869860  0.620190  0.113520  1.0  0.7136
  Cu  Cu31  1  0.130140  0.879810  0.113520  1.0  0.7141
  Cu  Cu32  1  0.630140  0.379810  0.613520  1.0  0.7141
  Cu  Cu33  1  0.629810  0.880140  0.863520  1.0  0.7155
  Cu  Cu34  1  0.129810  0.380140  0.363520  1.0  0.7155
  Cu  Cu35  1  0.870190  0.119860  0.363520  1.0  0.7157
  Cu  Cu36  1  0.370190  0.619860  0.863520  1.0  0.7157
  Cu  Cu37  1  0.870190  0.880140  0.136480  1.0  0.7137
  Cu  Cu38  1  0.370190  0.380140  0.636480  1.0  0.7137
  Cu  Cu39  1  0.629810  0.119860  0.636480  1.0  0.7172
  Cu  Cu40  1  0.129810  0.619860  0.136480  1.0  0.7172
  Cu  Cu41  1  0.250000  0.098150  0.500000  1.0  0.8379
  Cu  Cu42  1  0.750000  0.598150  0.000000  1.0  0.8379
  Cu  Cu43  1  0.250000  0.901850  0.000000  1.0  0.8377
  Cu  Cu44  1  0.750000  0.401850  0.500000  1.0  0.8377
  Cu  Cu45  1  0.651850  0.000000  0.750000  1.0  0.8368
  Cu  Cu46  1  0.151850  0.500000  0.250000  1.0  0.8368
  Cu  Cu47  1  0.848150  0.000000  0.250000  1.0  0.8375
  Cu  Cu48  1  0.348150  0.500000  0.750000  1.0  0.8375
  H  H49  1  0.346100  0.281500  0.252800  1.0  0.1396
  H  H50  1  0.846100  0.781500  0.752800  1.0  0.1396
  H  H51  1  0.153900  0.718500  0.752800  1.0  0.1406
  H  H52  1  0.653900  0.218500  0.252800  1.0  0.1406
  H  H53  1  0.153900  0.281500  0.747200  1.0  0.1398
  H  H54  1  0.653900  0.781500  0.247200  1.0  0.1398
  H  H55  1  0.346100  0.718500  0.247200  1.0  0.14
  H  H56  1  0.846100  0.218500  0.747200  1.0  0.14
  H  H57  1  0.031500  0.903900  0.497200  1.0  0.1374
  H  H58  1  0.531500  0.403900  0.997200  1.0  0.1374
  H  H59  1  0.468500  0.096100  0.997200  1.0  0.1382
  H  H60  1  0.968500  0.596100  0.497200  1.0  0.1382
  H  H61  1  0.468500  0.903900  0.502800  1.0  0.1382
  H  H62  1  0.968500  0.403900  0.002800  1.0  0.1382
  H  H63  1  0.031500  0.096100  0.002800  1.0  0.1372
  H  H64  1  0.531500  0.596100  0.502800  1.0  0.1372
  H  H65  1  0.968500  0.096100  0.502800  1.0  0.138
  H  H66  1  0.468500  0.596100  0.002800  1.0  0.138
  H  H67  1  0.531500  0.903900  0.002800  1.0  0.1373
  H  H68  1  0.031500  0.403900  0.502800  1.0  0.1373
  H  H69  1  0.531500  0.096100  0.497200  1.0  0.1373
  H  H70  1  0.031500  0.596100  0.997200  1.0  0.1373
  H  H71  1  0.968500  0.903900  0.997200  1.0  0.1385
  H  H72  1  0.468500  0.403900  0.497200  1.0  0.1385
  H  H73  1  0.653900  0.718500  0.747200  1.0  0.1403
  H  H74  1  0.153900  0.218500  0.247200  1.0  0.1403
  H  H75  1  0.846100  0.281500  0.247200  1.0  0.1398
  H  H76  1  0.346100  0.781500  0.747200  1.0  0.1398
  H  H77  1  0.846100  0.718500  0.252800  1.0  0.1402
  H  H78  1  0.346100  0.218500  0.752800  1.0  0.1402
  H  H79  1  0.653900  0.281500  0.752800  1.0  0.1395
  H  H80  1  0.153900  0.781500  0.252800  1.0  0.1395
  C  C81  1  0.365800  0.269300  0.165390  1.0  0.7079
  C  C82  1  0.357000  0.218300  0.200160  1.0  0.0835
  C  C83  1  0.347200  0.233600  0.240120  1.0  -0.1203
  C  C84  1  0.339700  0.160800  0.255960  1.0  0.04
  C  C85  1  0.330300  0.129400  0.296700  1.0  0.7044
  C  C86  1  0.865800  0.769300  0.665390  1.0  0.7079
  C  C87  1  0.857000  0.718300  0.700160  1.0  0.0835
  C  C88  1  0.847200  0.733600  0.740120  1.0  -0.1203
  C  C89  1  0.839700  0.660800  0.755960  1.0  0.04
  C  C90  1  0.830300  0.629400  0.796700  1.0  0.7044
  C  C91  1  0.134200  0.730700  0.665390  1.0  0.7093
  C  C92  1  0.143000  0.781700  0.700160  1.0  0.0838
  C  C93  1  0.152800  0.766400  0.740120  1.0  -0.1201
  C  C94  1  0.160300  0.839200  0.755960  1.0  0.0397
  C  C95  1  0.169700  0.870600  0.796700  1.0  0.7034
  C  C96  1  0.634200  0.230700  0.165390  1.0  0.7093
  C  C97  1  0.643000  0.281700  0.200160  1.0  0.0838
  C  C98  1  0.652800  0.266400  0.240120  1.0  -0.1201
  C  C99  1  0.660300  0.339200  0.255960  1.0  0.0397
  C  C100  1  0.669700  0.370600  0.296700  1.0  0.7034
  C  C101  1  0.134200  0.269300  0.834610  1.0  0.7092
  C  C102  1  0.143000  0.218300  0.799840  1.0  0.0831
  C  C103  1  0.152800  0.233600  0.759880  1.0  -0.1197
  C  C104  1  0.160300  0.160800  0.744040  1.0  0.0397
  C  C105  1  0.169700  0.129400  0.703300  1.0  0.7033
  C  C106  1  0.634200  0.769300  0.334610  1.0  0.7092
  C  C107  1  0.643000  0.718300  0.299840  1.0  0.0831
  C  C108  1  0.652800  0.733600  0.259880  1.0  -0.1197
  C  C109  1  0.660300  0.660800  0.244040  1.0  0.0397
  C  C110  1  0.669700  0.629400  0.203300  1.0  0.7033
  C  C111  1  0.365800  0.730700  0.334610  1.0  0.7086
  C  C112  1  0.357000  0.781700  0.299840  1.0  0.0839
  C  C113  1  0.347200  0.766400  0.259880  1.0  -0.1212
  C  C114  1  0.339700  0.839200  0.244040  1.0  0.0386
  C  C115  1  0.330300  0.870600  0.203300  1.0  0.7045
  C  C116  1  0.865800  0.230700  0.834610  1.0  0.7086
  C  C117  1  0.857000  0.281700  0.799840  1.0  0.0839
  C  C118  1  0.847200  0.266400  0.759880  1.0  -0.1212
  C  C119  1  0.839700  0.339200  0.744040  1.0  0.0386
  C  C120  1  0.830300  0.370600  0.703300  1.0  0.7045
  C  C121  1  0.019300  0.884200  0.584610  1.0  0.7078
  C  C122  1  0.968300  0.893000  0.549840  1.0  0.0831
  C  C123  1  0.983600  0.902800  0.509880  1.0  -0.1207
  C  C124  1  0.910800  0.910300  0.494040  1.0  0.0395
  C  C125  1  0.879400  0.919700  0.453300  1.0  0.7034
  C  C126  1  0.519300  0.384200  0.084610  1.0  0.7078
  C  C127  1  0.468300  0.393000  0.049840  1.0  0.0831
  C  C128  1  0.483600  0.402800  0.009880  1.0  -0.1207
  C  C129  1  0.410800  0.410300  0.994040  1.0  0.0395
  C  C130  1  0.379400  0.419700  0.953300  1.0  0.7034
  C  C131  1  0.480700  0.115800  0.084610  1.0  0.707
  C  C132  1  0.531700  0.107000  0.049840  1.0  0.081
  C  C133  1  0.516400  0.097200  0.009880  1.0  -0.1221
  C  C134  1  0.589200  0.089700  0.994040  1.0  0.0389
  C  C135  1  0.620600  0.080300  0.953300  1.0  0.7027
  C  C136  1  0.980700  0.615800  0.584610  1.0  0.707
  C  C137  1  0.031700  0.607000  0.549840  1.0  0.081
  C  C138  1  0.016400  0.597200  0.509880  1.0  -0.1221
  C  C139  1  0.089200  0.589700  0.494040  1.0  0.0389
  C  C140  1  0.120600  0.580300  0.453300  1.0  0.7027
  C  C141  1  0.480700  0.884200  0.415390  1.0  0.7063
  C  C142  1  0.531700  0.893000  0.450160  1.0  0.0814
  C  C143  1  0.516400  0.902800  0.490120  1.0  -0.1213
  C  C144  1  0.589200  0.910300  0.505960  1.0  0.0397
  C  C145  1  0.620600  0.919700  0.546700  1.0  0.7034
  C  C146  1  0.980700  0.384200  0.915390  1.0  0.7063
  C  C147  1  0.031700  0.393000  0.950160  1.0  0.0814
  C  C148  1  0.016400  0.402800  0.990120  1.0  -0.1213
  C  C149  1  0.089200  0.410300  0.005960  1.0  0.0397
  C  C150  1  0.120600  0.419700  0.046700  1.0  0.7034
  C  C151  1  0.019300  0.115800  0.915390  1.0  0.7076
  C  C152  1  0.968300  0.107000  0.950160  1.0  0.0832
  C  C153  1  0.983600  0.097200  0.990120  1.0  -0.1207
  C  C154  1  0.910800  0.089700  0.005960  1.0  0.0398
  C  C155  1  0.879400  0.080300  0.046700  1.0  0.7028
  C  C156  1  0.519300  0.615800  0.415390  1.0  0.7076
  C  C157  1  0.468300  0.607000  0.450160  1.0  0.0832
  C  C158  1  0.483600  0.597200  0.490120  1.0  -0.1207
  C  C159  1  0.410800  0.589700  0.505960  1.0  0.0398
  C  C160  1  0.379400  0.580300  0.546700  1.0  0.7028
  C  C161  1  0.980700  0.115800  0.415390  1.0  0.7067
  C  C162  1  0.031700  0.107000  0.450160  1.0  0.0813
  C  C163  1  0.016400  0.097200  0.490120  1.0  -0.1227
  C  C164  1  0.089200  0.089700  0.505960  1.0  0.0393
  C  C165  1  0.120600  0.080300  0.546700  1.0  0.7033
  C  C166  1  0.480700  0.615800  0.915390  1.0  0.7067
  C  C167  1  0.531700  0.607000  0.950160  1.0  0.0813
  C  C168  1  0.516400  0.597200  0.990120  1.0  -0.1227
  C  C169  1  0.589200  0.589700  0.005960  1.0  0.0393
  C  C170  1  0.620600  0.580300  0.046700  1.0  0.7033
  C  C171  1  0.519300  0.884200  0.915390  1.0  0.7071
  C  C172  1  0.468300  0.893000  0.950160  1.0  0.0835
  C  C173  1  0.483600  0.902800  0.990120  1.0  -0.1203
  C  C174  1  0.410800  0.910300  0.005960  1.0  0.0402
  C  C175  1  0.379400  0.919700  0.046700  1.0  0.7034
  C  C176  1  0.019300  0.384200  0.415390  1.0  0.7071
  C  C177  1  0.968300  0.393000  0.450160  1.0  0.0835
  C  C178  1  0.983600  0.402800  0.490120  1.0  -0.1203
  C  C179  1  0.910800  0.410300  0.505960  1.0  0.0402
  C  C180  1  0.879400  0.419700  0.546700  1.0  0.7034
  C  C181  1  0.519300  0.115800  0.584610  1.0  0.7083
  C  C182  1  0.468300  0.107000  0.549840  1.0  0.0828
  C  C183  1  0.483600  0.097200  0.509880  1.0  -0.1204
  C  C184  1  0.410800  0.089700  0.494040  1.0  0.039
  C  C185  1  0.379400  0.080300  0.453300  1.0  0.7038
  C  C186  1  0.019300  0.615800  0.084610  1.0  0.7083
  C  C187  1  0.968300  0.607000  0.049840  1.0  0.0828
  C  C188  1  0.983600  0.597200  0.009880  1.0  -0.1204
  C  C189  1  0.910800  0.589700  0.994040  1.0  0.039
  C  C190  1  0.879400  0.580300  0.953300  1.0  0.7038
  C  C191  1  0.980700  0.884200  0.084610  1.0  0.7066
  C  C192  1  0.031700  0.893000  0.049840  1.0  0.0812
  C  C193  1  0.016400  0.902800  0.009880  1.0  -0.1215
  C  C194  1  0.089200  0.910300  0.994040  1.0  0.0394
  C  C195  1  0.120600  0.919700  0.953300  1.0  0.7023
  C  C196  1  0.480700  0.384200  0.584610  1.0  0.7066
  C  C197  1  0.531700  0.393000  0.549840  1.0  0.0812
  C  C198  1  0.516400  0.402800  0.509880  1.0  -0.1215
  C  C199  1  0.589200  0.410300  0.494040  1.0  0.0394
  C  C200  1  0.620600  0.419700  0.453300  1.0  0.7023
  C  C201  1  0.634200  0.730700  0.834610  1.0  0.7099
  C  C202  1  0.643000  0.781700  0.799840  1.0  0.0836
  C  C203  1  0.652800  0.766400  0.759880  1.0  -0.1207
  C  C204  1  0.660300  0.839200  0.744040  1.0  0.0391
  C  C205  1  0.669700  0.870600  0.703300  1.0  0.7034
  C  C206  1  0.134200  0.230700  0.334610  1.0  0.7099
  C  C207  1  0.143000  0.281700  0.299840  1.0  0.0836
  C  C208  1  0.152800  0.266400  0.259880  1.0  -0.1207
  C  C209  1  0.160300  0.339200  0.244040  1.0  0.0391
  C  C210  1  0.169700  0.370600  0.203300  1.0  0.7034
  C  C211  1  0.865800  0.269300  0.334610  1.0  0.7078
  C  C212  1  0.857000  0.218300  0.299840  1.0  0.0833
  C  C213  1  0.847200  0.233600  0.259880  1.0  -0.1203
  C  C214  1  0.839700  0.160800  0.244040  1.0  0.0393
  C  C215  1  0.830300  0.129400  0.203300  1.0  0.7046
  C  C216  1  0.365800  0.769300  0.834610  1.0  0.7078
  C  C217  1  0.357000  0.718300  0.799840  1.0  0.0833
  C  C218  1  0.347200  0.733600  0.759880  1.0  -0.1203
  C  C219  1  0.339700  0.660800  0.744040  1.0  0.0393
  C  C220  1  0.330300  0.629400  0.703300  1.0  0.7046
  C  C221  1  0.865800  0.730700  0.165390  1.0  0.7082
  C  C222  1  0.857000  0.781700  0.200160  1.0  0.0839
  C  C223  1  0.847200  0.766400  0.240120  1.0  -0.1205
  C  C224  1  0.839700  0.839200  0.255960  1.0  0.0391
  C  C225  1  0.830300  0.870600  0.296700  1.0  0.7048
  C  C226  1  0.365800  0.230700  0.665390  1.0  0.7082
  C  C227  1  0.357000  0.281700  0.700160  1.0  0.0839
  C  C228  1  0.347200  0.266400  0.740120  1.0  -0.1205
  C  C229  1  0.339700  0.339200  0.755960  1.0  0.0391
  C  C230  1  0.330300  0.370600  0.796700  1.0  0.7048
  C  C231  1  0.634200  0.269300  0.665390  1.0  0.7092
  C  C232  1  0.643000  0.218300  0.700160  1.0  0.0835
  C  C233  1  0.652800  0.233600  0.740120  1.0  -0.12
  C  C234  1  0.660300  0.160800  0.755960  1.0  0.0407
  C  C235  1  0.669700  0.129400  0.796700  1.0  0.7028
  C  C236  1  0.134200  0.769300  0.165390  1.0  0.7092
  C  C237  1  0.143000  0.718300  0.200160  1.0  0.0835
  C  C238  1  0.152800  0.733600  0.240120  1.0  -0.12
  C  C239  1  0.160300  0.660800  0.255960  1.0  0.0407
  C  C240  1  0.169700  0.629400  0.296700  1.0  0.7028
  N  N241  1  0.355800  0.142200  0.193350  1.0  -0.2216
  N  N242  1  0.345500  0.105400  0.227630  1.0  -0.2741
  N  N243  1  0.855800  0.642200  0.693350  1.0  -0.2216
  N  N244  1  0.845500  0.605400  0.727630  1.0  -0.2741
  N  N245  1  0.144200  0.857800  0.693350  1.0  -0.2255
  N  N246  1  0.154500  0.894600  0.727630  1.0  -0.2749
  N  N247  1  0.644200  0.357800  0.193350  1.0  -0.2255
  N  N248  1  0.654500  0.394600  0.227630  1.0  -0.2749
  N  N249  1  0.144200  0.142200  0.806650  1.0  -0.2231
  N  N250  1  0.154500  0.105400  0.772370  1.0  -0.2741
  N  N251  1  0.644200  0.642200  0.306650  1.0  -0.2231
  N  N252  1  0.654500  0.605400  0.272370  1.0  -0.2741
  N  N253  1  0.355800  0.857800  0.306650  1.0  -0.2218
  N  N254  1  0.345500  0.894600  0.272370  1.0  -0.2754
  N  N255  1  0.855800  0.357800  0.806650  1.0  -0.2218
  N  N256  1  0.845500  0.394600  0.772370  1.0  -0.2754
  N  N257  1  0.892200  0.894200  0.556650  1.0  -0.2216
  N  N258  1  0.855400  0.904500  0.522370  1.0  -0.2727
  N  N259  1  0.392200  0.394200  0.056650  1.0  -0.2216
  N  N260  1  0.355400  0.404500  0.022370  1.0  -0.2727
  N  N261  1  0.607800  0.105800  0.056650  1.0  -0.2244
  N  N262  1  0.644600  0.095500  0.022370  1.0  -0.2763
  N  N263  1  0.107800  0.605800  0.556650  1.0  -0.2244
  N  N264  1  0.144600  0.595500  0.522370  1.0  -0.2763
  N  N265  1  0.607800  0.894200  0.443350  1.0  -0.2251
  N  N266  1  0.644600  0.904500  0.477630  1.0  -0.2756
  N  N267  1  0.107800  0.394200  0.943350  1.0  -0.2251
  N  N268  1  0.144600  0.404500  0.977630  1.0  -0.2756
  N  N269  1  0.892200  0.105800  0.943350  1.0  -0.222
  N  N270  1  0.855400  0.095500  0.977630  1.0  -0.272
  N  N271  1  0.392200  0.605800  0.443350  1.0  -0.222
  N  N272  1  0.355400  0.595500  0.477630  1.0  -0.272
  N  N273  1  0.107800  0.105800  0.443350  1.0  -0.225
  N  N274  1  0.144600  0.095500  0.477630  1.0  -0.2756
  N  N275  1  0.607800  0.605800  0.943350  1.0  -0.225
  N  N276  1  0.644600  0.595500  0.977630  1.0  -0.2756
  N  N277  1  0.392200  0.894200  0.943350  1.0  -0.222
  N  N278  1  0.355400  0.904500  0.977630  1.0  -0.2718
  N  N279  1  0.892200  0.394200  0.443350  1.0  -0.222
  N  N280  1  0.855400  0.404500  0.477630  1.0  -0.2718
  N  N281  1  0.392200  0.105800  0.556650  1.0  -0.2217
  N  N282  1  0.355400  0.095500  0.522370  1.0  -0.273
  N  N283  1  0.892200  0.605800  0.056650  1.0  -0.2217
  N  N284  1  0.855400  0.595500  0.022370  1.0  -0.273
  N  N285  1  0.107800  0.894200  0.056650  1.0  -0.2243
  N  N286  1  0.144600  0.904500  0.022370  1.0  -0.2763
  N  N287  1  0.607800  0.394200  0.556650  1.0  -0.2243
  N  N288  1  0.644600  0.404500  0.522370  1.0  -0.2763
  N  N289  1  0.644200  0.857800  0.806650  1.0  -0.2233
  N  N290  1  0.654500  0.894600  0.772370  1.0  -0.2756
  N  N291  1  0.144200  0.357800  0.306650  1.0  -0.2233
  N  N292  1  0.154500  0.394600  0.272370  1.0  -0.2756
  N  N293  1  0.855800  0.142200  0.306650  1.0  -0.2213
  N  N294  1  0.845500  0.105400  0.272370  1.0  -0.2742
  N  N295  1  0.355800  0.642200  0.806650  1.0  -0.2213
  N  N296  1  0.345500  0.605400  0.772370  1.0  -0.2742
  N  N297  1  0.855800  0.857800  0.193350  1.0  -0.2236
  N  N298  1  0.845500  0.894600  0.227630  1.0  -0.2746
  N  N299  1  0.355800  0.357800  0.693350  1.0  -0.2236
  N  N300  1  0.345500  0.394600  0.727630  1.0  -0.2746
  N  N301  1  0.644200  0.142200  0.693350  1.0  -0.2238
  N  N302  1  0.654500  0.105400  0.727630  1.0  -0.2741
  N  N303  1  0.144200  0.642200  0.193350  1.0  -0.2238
  N  N304  1  0.154500  0.605400  0.227630  1.0  -0.2741
  O  O305  1  0.370600  0.234200  0.132610  1.0  -0.622
  O  O306  1  0.364700  0.340800  0.168250  1.0  -0.5398
  O  O307  1  0.329800  0.056600  0.298960  1.0  -0.5457
  O  O308  1  0.320800  0.175300  0.324940  1.0  -0.4781
  O  O309  1  0.870600  0.734200  0.632610  1.0  -0.622
  O  O310  1  0.864700  0.840800  0.668250  1.0  -0.5398
  O  O311  1  0.829800  0.556600  0.798960  1.0  -0.5457
  O  O312  1  0.820800  0.675300  0.824940  1.0  -0.4781
  O  O313  1  0.129400  0.765800  0.632610  1.0  -0.6215
  O  O314  1  0.135300  0.659200  0.668250  1.0  -0.541
  O  O315  1  0.170200  0.943400  0.798960  1.0  -0.5438
  O  O316  1  0.179200  0.824700  0.824940  1.0  -0.4774
  O  O317  1  0.629400  0.265800  0.132610  1.0  -0.6215
  O  O318  1  0.635300  0.159200  0.168250  1.0  -0.541
  O  O319  1  0.670200  0.443400  0.298960  1.0  -0.5438
  O  O320  1  0.679200  0.324700  0.324940  1.0  -0.4774
  O  O321  1  0.129400  0.234200  0.867390  1.0  -0.6258
  O  O322  1  0.135300  0.340800  0.831750  1.0  -0.5401
  O  O323  1  0.170200  0.056600  0.701040  1.0  -0.5447
  O  O324  1  0.179200  0.175300  0.675060  1.0  -0.4784
  O  O325  1  0.629400  0.734200  0.367390  1.0  -0.6258
  O  O326  1  0.635300  0.840800  0.331750  1.0  -0.5401
  O  O327  1  0.670200  0.556600  0.201040  1.0  -0.5447
  O  O328  1  0.679200  0.675300  0.175060  1.0  -0.4784
  O  O329  1  0.370600  0.765800  0.367390  1.0  -0.6263
  O  O330  1  0.364700  0.659200  0.331750  1.0  -0.5397
  O  O331  1  0.329800  0.943400  0.201040  1.0  -0.544
  O  O332  1  0.320800  0.824700  0.175060  1.0  -0.4773
  O  O333  1  0.870600  0.265800  0.867390  1.0  -0.6263
  O  O334  1  0.864700  0.159200  0.831750  1.0  -0.5397
  O  O335  1  0.829800  0.443400  0.701040  1.0  -0.544
  O  O336  1  0.820800  0.324700  0.675060  1.0  -0.4773
  O  O337  1  0.984200  0.879400  0.617390  1.0  -0.626
  O  O338  1  0.090800  0.885300  0.581750  1.0  -0.5431
  O  O339  1  0.806600  0.920200  0.451040  1.0  -0.5456
  O  O340  1  0.925300  0.929200  0.425060  1.0  -0.4765
  O  O341  1  0.484200  0.379400  0.117390  1.0  -0.626
  O  O342  1  0.590800  0.385300  0.081750  1.0  -0.5431
  O  O343  1  0.306600  0.420200  0.951040  1.0  -0.5456
  O  O344  1  0.425300  0.429200  0.925060  1.0  -0.4765
  O  O345  1  0.515800  0.120600  0.117390  1.0  -0.6251
  O  O346  1  0.409200  0.114700  0.081750  1.0  -0.5424
  O  O347  1  0.693400  0.079800  0.951040  1.0  -0.5477
  O  O348  1  0.574700  0.070800  0.925060  1.0  -0.4778
  O  O349  1  0.015800  0.620600  0.617390  1.0  -0.6251
  O  O350  1  0.909200  0.614700  0.581750  1.0  -0.5424
  O  O351  1  0.193400  0.579800  0.451040  1.0  -0.5477
  O  O352  1  0.074700  0.570800  0.425060  1.0  -0.4778
  O  O353  1  0.515800  0.879400  0.382610  1.0  -0.622
  O  O354  1  0.409200  0.885300  0.418250  1.0  -0.5431
  O  O355  1  0.693400  0.920200  0.548960  1.0  -0.5478
  O  O356  1  0.574700  0.929200  0.574940  1.0  -0.4757
  O  O357  1  0.015800  0.379400  0.882610  1.0  -0.622
  O  O358  1  0.909200  0.385300  0.918250  1.0  -0.5431
  O  O359  1  0.193400  0.420200  0.048960  1.0  -0.5478
  O  O360  1  0.074700  0.429200  0.074940  1.0  -0.4757
  O  O361  1  0.984200  0.120600  0.882610  1.0  -0.6202
  O  O362  1  0.090800  0.114700  0.918250  1.0  -0.5436
  O  O363  1  0.806600  0.079800  0.048960  1.0  -0.5455
  O  O364  1  0.925300  0.070800  0.074940  1.0  -0.4786
  O  O365  1  0.484200  0.620600  0.382610  1.0  -0.6202
  O  O366  1  0.590800  0.614700  0.418250  1.0  -0.5436
  O  O367  1  0.306600  0.579800  0.548960  1.0  -0.5455
  O  O368  1  0.425300  0.570800  0.574940  1.0  -0.4786
  O  O369  1  0.015800  0.120600  0.382610  1.0  -0.6209
  O  O370  1  0.909200  0.114700  0.418250  1.0  -0.5433
  O  O371  1  0.193400  0.079800  0.548960  1.0  -0.5475
  O  O372  1  0.074700  0.070800  0.574940  1.0  -0.476
  O  O373  1  0.515800  0.620600  0.882610  1.0  -0.6209
  O  O374  1  0.409200  0.614700  0.918250  1.0  -0.5433
  O  O375  1  0.693400  0.579800  0.048960  1.0  -0.5475
  O  O376  1  0.574700  0.570800  0.074940  1.0  -0.476
  O  O377  1  0.484200  0.879400  0.882610  1.0  -0.6215
  O  O378  1  0.590800  0.885300  0.918250  1.0  -0.5438
  O  O379  1  0.306600  0.920200  0.048960  1.0  -0.5457
  O  O380  1  0.425300  0.929200  0.074940  1.0  -0.4769
  O  O381  1  0.984200  0.379400  0.382610  1.0  -0.6215
  O  O382  1  0.090800  0.385300  0.418250  1.0  -0.5438
  O  O383  1  0.806600  0.420200  0.548960  1.0  -0.5457
  O  O384  1  0.925300  0.429200  0.574940  1.0  -0.4769
  O  O385  1  0.484200  0.120600  0.617390  1.0  -0.6247
  O  O386  1  0.590800  0.114700  0.581750  1.0  -0.5435
  O  O387  1  0.306600  0.079800  0.451040  1.0  -0.5458
  O  O388  1  0.425300  0.070800  0.425060  1.0  -0.4768
  O  O389  1  0.984200  0.620600  0.117390  1.0  -0.6247
  O  O390  1  0.090800  0.614700  0.081750  1.0  -0.5435
  O  O391  1  0.806600  0.579800  0.951040  1.0  -0.5458
  O  O392  1  0.925300  0.570800  0.925060  1.0  -0.4768
  O  O393  1  0.015800  0.879400  0.117390  1.0  -0.626
  O  O394  1  0.909200  0.885300  0.081750  1.0  -0.543
  O  O395  1  0.193400  0.920200  0.951040  1.0  -0.5476
  O  O396  1  0.074700  0.929200  0.925060  1.0  -0.4758
  O  O397  1  0.515800  0.379400  0.617390  1.0  -0.626
  O  O398  1  0.409200  0.385300  0.581750  1.0  -0.543
  O  O399  1  0.693400  0.420200  0.451040  1.0  -0.5476
  O  O400  1  0.574700  0.429200  0.425060  1.0  -0.4758
  O  O401  1  0.629400  0.765800  0.867390  1.0  -0.6255
  O  O402  1  0.635300  0.659200  0.831750  1.0  -0.5401
  O  O403  1  0.670200  0.943400  0.701040  1.0  -0.5441
  O  O404  1  0.679200  0.824700  0.675060  1.0  -0.4778
  O  O405  1  0.129400  0.265800  0.367390  1.0  -0.6255
  O  O406  1  0.135300  0.159200  0.331750  1.0  -0.5401
  O  O407  1  0.170200  0.443400  0.201040  1.0  -0.5441
  O  O408  1  0.179200  0.324700  0.175060  1.0  -0.4778
  O  O409  1  0.870600  0.234200  0.367390  1.0  -0.6265
  O  O410  1  0.864700  0.340800  0.331750  1.0  -0.5392
  O  O411  1  0.829800  0.056600  0.201040  1.0  -0.5447
  O  O412  1  0.820800  0.175300  0.175060  1.0  -0.4765
  O  O413  1  0.370600  0.734200  0.867390  1.0  -0.6265
  O  O414  1  0.364700  0.840800  0.831750  1.0  -0.5392
  O  O415  1  0.329800  0.556600  0.701040  1.0  -0.5447
  O  O416  1  0.320800  0.675300  0.675060  1.0  -0.4765
  O  O417  1  0.870600  0.765800  0.132610  1.0  -0.6215
  O  O418  1  0.864700  0.659200  0.168250  1.0  -0.5398
  O  O419  1  0.829800  0.943400  0.298960  1.0  -0.5436
  O  O420  1  0.820800  0.824700  0.324940  1.0  -0.4768
  O  O421  1  0.370600  0.265800  0.632610  1.0  -0.6215
  O  O422  1  0.364700  0.159200  0.668250  1.0  -0.5398
  O  O423  1  0.329800  0.443400  0.798960  1.0  -0.5436
  O  O424  1  0.320800  0.324700  0.824940  1.0  -0.4768
  O  O425  1  0.629400  0.234200  0.632610  1.0  -0.622
  O  O426  1  0.635300  0.340800  0.668250  1.0  -0.5404
  O  O427  1  0.670200  0.056600  0.798960  1.0  -0.5457
  O  O428  1  0.679200  0.175300  0.824940  1.0  -0.4767
  O  O429  1  0.129400  0.734200  0.132610  1.0  -0.622
  O  O430  1  0.135300  0.840800  0.168250  1.0  -0.5404
  O  O431  1  0.170200  0.556600  0.298960  1.0  -0.5457
  O  O432  1  0.179200  0.675300  0.324940  1.0  -0.4767
