# generated using pymatgen
data_ZnH22C20(NO4)2
_symmetry_space_group_name_H-M   'P 1'
_cell_length_a   21.80040000
_cell_length_b   21.80040000
_cell_length_c   21.80040000
_cell_angle_alpha   93.55970000
_cell_angle_beta   117.96700000
_cell_angle_gamma   117.96700000
_symmetry_Int_Tables_number   1
_chemical_formula_structural   ZnH22C20(NO4)2
_chemical_formula_sum   'Zn8 H176 C160 N16 O64'
_cell_volume   7535.53579207
_cell_formula_units_Z   8
loop_
 _symmetry_equiv_pos_site_id
 _symmetry_equiv_pos_as_xyz
  1  'x, y, z'
loop_
 _atom_site_type_symbol
 _atom_site_label
 _atom_site_symmetry_multiplicity
 _atom_site_fract_x
 _atom_site_fract_y
 _atom_site_fract_z
 _atom_site_occupancy
 _atom_site_charge
  Zn  Zn1  1  0.079640  0.766260  0.305520  1.0  1.0566
  Zn  Zn2  1  0.920360  0.225880  0.686620  1.0  1.056
  Zn  Zn3  1  0.460740  0.694480  0.774120  1.0  1.0552
  Zn  Zn4  1  0.539260  0.313380  0.233740  1.0  1.0517
  Zn  Zn5  1  0.960740  0.524120  0.944480  1.0  1.0512
  Zn  Zn6  1  0.039260  0.983740  0.563380  1.0  1.0551
  Zn  Zn7  1  0.420360  0.436620  0.475880  1.0  1.0535
  Zn  Zn8  1  0.579640  0.055520  0.016260  1.0  1.0573
  H  H9  1  0.280000  0.934100  0.220700  1.0  0.1092
  H  H10  1  0.316500  0.027800  0.170100  1.0  0.1016
  H  H11  1  0.274700  0.711600  0.515300  1.0  0.1093
  H  H12  1  0.346200  0.816200  0.717000  1.0  0.0981
  H  H13  1  0.225700  0.861700  0.545800  1.0  0.1005
  H  H14  1  0.720000  0.940700  0.654100  1.0  0.1087
  H  H15  1  0.683500  0.853600  0.711300  1.0  0.1005
  H  H16  1  0.725300  0.240600  0.436900  1.0  0.1088
  H  H17  1  0.653800  0.370800  0.470000  1.0  0.0896
  H  H18  1  0.774300  0.320100  0.636000  1.0  0.1026
  H  H19  1  0.713400  0.779300  0.059300  1.0  0.108
  H  H20  1  0.857700  0.829900  0.146400  1.0  0.1015
  H  H21  1  0.196300  0.484700  0.759400  1.0  0.1079
  H  H22  1  0.099200  0.283000  0.629200  1.0  0.0889
  H  H23  1  0.315900  0.454200  0.679900  1.0  0.102
  H  H24  1  0.286600  0.345900  0.065900  1.0  0.1099
  H  H25  1  0.142300  0.288700  0.972200  1.0  0.1007
  H  H26  1  0.803700  0.563100  0.288400  1.0  0.1097
  H  H27  1  0.900800  0.530000  0.183800  1.0  0.0894
  H  H28  1  0.684100  0.364000  0.138300  1.0  0.1025
  H  H29  1  0.213400  0.809300  0.029300  1.0  0.1098
  H  H30  1  0.357700  0.896400  0.079900  1.0  0.1006
  H  H31  1  0.696300  0.509400  0.734700  1.0  0.1096
  H  H32  1  0.599200  0.379200  0.533000  1.0  0.0903
  H  H33  1  0.815900  0.429900  0.704200  1.0  0.1025
  H  H34  1  0.786600  0.815900  0.595900  1.0  0.1092
  H  H35  1  0.642300  0.722200  0.538700  1.0  0.102
  H  H36  1  0.303700  0.038400  0.813100  1.0  0.1086
  H  H37  1  0.400800  0.933800  0.780000  1.0  0.091
  H  H38  1  0.184100  0.888300  0.614000  1.0  0.1015
  H  H39  1  0.220000  0.404100  0.190700  1.0  0.1083
  H  H40  1  0.183500  0.461300  0.103600  1.0  0.1007
  H  H41  1  0.225300  0.186900  0.490600  1.0  0.1084
  H  H42  1  0.153800  0.220000  0.620800  1.0  0.0916
  H  H43  1  0.274300  0.386000  0.570100  1.0  0.1023
  H  H44  1  0.780000  0.970700  0.184100  1.0  0.1088
  H  H45  1  0.816500  0.920100  0.277800  1.0  0.1018
  H  H46  1  0.774700  0.265300  0.961600  1.0  0.1084
  H  H47  1  0.846200  0.467000  0.066200  1.0  0.0905
  H  H48  1  0.725700  0.295800  0.111700  1.0  0.1025
  H  H49  1  0.092600  0.717600  0.125000  1.0  0.1235
  H  H50  1  0.490400  0.115400  0.125000  1.0  0.1158
  H  H51  1  0.907400  0.032400  0.625000  1.0  0.1234
  H  H52  1  0.509600  0.634600  0.625000  1.0  0.1158
  H  H53  1  0.592600  0.875000  0.967600  1.0  0.1231
  H  H54  1  0.990400  0.875000  0.365400  1.0  0.116
  H  H55  1  0.407400  0.375000  0.282400  1.0  0.1233
  H  H56  1  0.009600  0.375000  0.884600  1.0  0.116
  H  H57  1  0.184100  0.941500  0.424800  1.0  0.1744
  H  H58  1  0.194300  0.931600  0.364300  1.0  0.2578
  H  H59  1  0.118300  0.983500  0.338400  1.0  0.108
  H  H60  1  0.204900  0.040600  0.350900  1.0  0.1095
  H  H61  1  0.191900  0.049600  0.414900  1.0  0.1139
  H  H62  1  0.318900  0.976600  0.474500  1.0  0.1098
  H  H63  1  0.319200  0.045600  0.500000  1.0  0.1136
  H  H64  1  0.330100  0.034800  0.434900  1.0  0.1136
  H  H65  1  0.389600  0.823400  0.484000  1.0  0.2015
  H  H66  1  0.465400  0.868600  0.485200  1.0  0.2272
  H  H67  1  0.487500  0.930400  0.592100  1.0  0.1124
  H  H68  1  0.406900  0.929700  0.541600  1.0  0.1143
  H  H69  1  0.487500  0.978700  0.541800  1.0  0.1408
  H  H70  1  0.349600  0.831700  0.365900  1.0  0.1108
  H  H71  1  0.403100  0.918500  0.403800  1.0  0.1174
  H  H72  1  0.321400  0.868400  0.401600  1.0  0.1138
  H  H73  1  0.815900  0.240700  0.757400  1.0  0.1794
  H  H74  1  0.805700  0.170000  0.737300  1.0  0.2549
  H  H75  1  0.881700  0.220100  0.865200  1.0  0.1058
  H  H76  1  0.795100  0.146000  0.835700  1.0  0.1106
  H  H77  1  0.808100  0.223000  0.857700  1.0  0.1131
  H  H78  1  0.681100  0.155600  0.657700  1.0  0.1147
  H  H79  1  0.680800  0.180800  0.726400  1.0  0.1139
  H  H80  1  0.669900  0.104800  0.704700  1.0  0.1135
  H  H81  1  0.610400  0.094400  0.433800  1.0  0.2074
  H  H82  1  0.534600  0.019800  0.403200  1.0  0.2258
  H  H83  1  0.512500  0.104600  0.442900  1.0  0.1159
  H  H84  1  0.593100  0.134700  0.522800  1.0  0.1158
  H  H85  1  0.512500  0.054300  0.491200  1.0  0.1395
  H  H86  1  0.650400  0.016300  0.482100  1.0  0.1087
  H  H87  1  0.596900  0.000700  0.515400  1.0  0.1159
  H  H88  1  0.678600  0.080200  0.547000  1.0  0.1139
  H  H89  1  0.516700  0.575200  0.759300  1.0  0.1801
  H  H90  1  0.567300  0.635700  0.830000  1.0  0.2567
  H  H91  1  0.645100  0.661600  0.779900  1.0  0.1114
  H  H92  1  0.689700  0.649100  0.854000  1.0  0.1105
  H  H93  1  0.634700  0.585100  0.777000  1.0  0.1161
  H  H94  1  0.502100  0.525500  0.844400  1.0  0.1115
  H  H95  1  0.545600  0.500000  0.819200  1.0  0.1127
  H  H96  1  0.599900  0.565100  0.895200  1.0  0.1131
  H  H97  1  0.339400  0.516000  0.905600  1.0  0.2114
  H  H98  1  0.383400  0.514800  0.980200  1.0  0.2276
  H  H99  1  0.338300  0.407900  0.895400  1.0  0.114
  H  H100  1  0.388100  0.458400  0.865300  1.0  0.1162
  H  H101  1  0.436900  0.458200  0.945700  1.0  0.1457
  H  H102  1  0.465800  0.634100  0.983700  1.0  0.1085
  H  H103  1  0.514700  0.596200  0.999300  1.0  0.1139
  H  H104  1  0.466800  0.598400  0.919800  1.0  0.115
  H  H105  1  0.483300  0.242600  0.058500  1.0  0.1605
  H  H106  1  0.432700  0.262700  0.068400  1.0  0.2576
  H  H107  1  0.354900  0.134800  0.016500  1.0  0.1123
  H  H108  1  0.310300  0.164300  0.959400  1.0  0.1092
  H  H109  1  0.365300  0.142300  0.950400  1.0  0.1151
  H  H110  1  0.497900  0.342300  0.023400  1.0  0.1134
  H  H111  1  0.454400  0.273600  0.954400  1.0  0.1145
  H  H112  1  0.400100  0.295300  0.965200  1.0  0.112
  H  H113  1  0.660600  0.566200  0.176600  1.0  0.2046
  H  H114  1  0.616600  0.596800  0.131400  1.0  0.2282
  H  H115  1  0.661700  0.557100  0.069600  1.0  0.1149
  H  H116  1  0.611900  0.477200  0.070300  1.0  0.1175
  H  H117  1  0.563100  0.508800  0.021300  1.0  0.1409
  H  H118  1  0.534200  0.517900  0.168300  1.0  0.1101
  H  H119  1  0.485300  0.484600  0.081500  1.0  0.1171
  H  H120  1  0.533200  0.453000  0.131600  1.0  0.1128
  H  H121  1  0.016700  0.509300  0.825200  1.0  0.1798
  H  H122  1  0.067300  0.580000  0.885700  1.0  0.2567
  H  H123  1  0.145100  0.529900  0.911600  1.0  0.1113
  H  H124  1  0.189700  0.604000  0.899100  1.0  0.1099
  H  H125  1  0.134700  0.527000  0.835100  1.0  0.1148
  H  H126  1  0.002100  0.594400  0.775500  1.0  0.113
  H  H127  1  0.045600  0.569200  0.750000  1.0  0.1152
  H  H128  1  0.099900  0.645200  0.815100  1.0  0.1129
  H  H129  1  0.839400  0.655600  0.766000  1.0  0.21
  H  H130  1  0.883400  0.730200  0.764800  1.0  0.228
  H  H131  1  0.838300  0.645400  0.657900  1.0  0.1126
  H  H132  1  0.888100  0.615300  0.708400  1.0  0.1136
  H  H133  1  0.936900  0.695700  0.708200  1.0  0.1412
  H  H134  1  0.965800  0.733700  0.884100  1.0  0.1097
  H  H135  1  0.014700  0.749300  0.846200  1.0  0.1138
  H  H136  1  0.966800  0.669800  0.848400  1.0  0.1132
  H  H137  1  0.983300  0.808500  0.492600  1.0  0.1753
  H  H138  1  0.932700  0.818400  0.512700  1.0  0.2549
  H  H139  1  0.854900  0.766500  0.384800  1.0  0.1109
  H  H140  1  0.810300  0.709400  0.414300  1.0  0.1088
  H  H141  1  0.865300  0.700400  0.392300  1.0  0.1147
  H  H142  1  0.997900  0.773400  0.592300  1.0  0.1112
  H  H143  1  0.954400  0.704400  0.523600  1.0  0.1135
  H  H144  1  0.900100  0.715200  0.545300  1.0  0.1119
  H  H145  1  0.160600  0.926600  0.816200  1.0  0.2047
  H  H146  1  0.116600  0.881400  0.846800  1.0  0.2245
  H  H147  1  0.161700  0.819600  0.807100  1.0  0.1188
  H  H148  1  0.111900  0.820300  0.727200  1.0  0.1192
  H  H149  1  0.063100  0.771300  0.758800  1.0  0.1412
  H  H150  1  0.034200  0.918300  0.767900  1.0  0.1091
  H  H151  1  0.985300  0.831500  0.734600  1.0  0.1163
  H  H152  1  0.033200  0.881600  0.703000  1.0  0.1153
  H  H153  1  0.315900  0.507400  0.490700  1.0  0.1746
  H  H154  1  0.305700  0.487300  0.420000  1.0  0.2569
  H  H155  1  0.381700  0.615200  0.470100  1.0  0.1089
  H  H156  1  0.295100  0.585700  0.396000  1.0  0.1104
  H  H157  1  0.308100  0.607700  0.473000  1.0  0.1151
  H  H158  1  0.181100  0.407700  0.405600  1.0  0.1147
  H  H159  1  0.180800  0.476400  0.430800  1.0  0.1149
  H  H160  1  0.169900  0.454700  0.354800  1.0  0.1125
  H  H161  1  0.110400  0.183800  0.344400  1.0  0.1858
  H  H162  1  0.034600  0.153200  0.269800  1.0  0.2263
  H  H163  1  0.012500  0.192900  0.354600  1.0  0.1152
  H  H164  1  0.093100  0.272800  0.384700  1.0  0.1153
  H  H165  1  0.012500  0.241200  0.304300  1.0  0.14
  H  H166  1  0.150400  0.232100  0.266300  1.0  0.1106
  H  H167  1  0.096900  0.265400  0.250700  1.0  0.1159
  H  H168  1  0.178600  0.297000  0.330200  1.0  0.1174
  H  H169  1  0.684100  0.174800  0.191500  1.0  0.1608
  H  H170  1  0.694300  0.114300  0.181600  1.0  0.2574
  H  H171  1  0.618300  0.088400  0.233500  1.0  0.1115
  H  H172  1  0.704900  0.100900  0.290600  1.0  0.1082
  H  H173  1  0.691900  0.164900  0.299600  1.0  0.1137
  H  H174  1  0.818900  0.224500  0.226600  1.0  0.1133
  H  H175  1  0.819200  0.250000  0.295600  1.0  0.1125
  H  H176  1  0.830100  0.184900  0.284800  1.0  0.1158
  H  H177  1  0.889600  0.234000  0.073400  1.0  0.2085
  H  H178  1  0.965400  0.235200  0.118600  1.0  0.2128
  H  H179  1  0.987500  0.342100  0.180400  1.0  0.1149
  H  H180  1  0.906900  0.291600  0.179700  1.0  0.1136
  H  H181  1  0.987500  0.291800  0.228700  1.0  0.1368
  H  H182  1  0.849600  0.115900  0.081700  1.0  0.1095
  H  H183  1  0.903100  0.153800  0.168500  1.0  0.1141
  H  H184  1  0.821400  0.151600  0.118400  1.0  0.1116
  C  C185  1  0.170200  0.834200  0.242600  1.0  0.6798
  C  C186  1  0.183600  0.828700  0.180500  1.0  -0.1513
  C  C187  1  0.245500  0.888700  0.181600  1.0  -0.0773
  C  C188  1  0.345700  0.021500  0.152800  1.0  -0.0716
  C  C189  1  0.407800  0.082100  0.154900  1.0  -0.1598
  C  C190  1  0.431000  0.159200  0.186200  1.0  0.7079
  C  C191  1  0.246200  0.786500  0.517100  1.0  -0.1488
  C  C192  1  0.279500  0.747100  0.546400  1.0  -0.0049
  C  C193  1  0.319700  0.759600  0.621300  1.0  -0.185
  C  C194  1  0.321000  0.809200  0.666667  1.0  -0.0764
  C  C195  1  0.286900  0.846800  0.639500  1.0  0.0161
  C  C196  1  0.249500  0.835800  0.565100  1.0  -0.0822
  C  C197  1  0.197700  0.771600  0.434300  1.0  0.6821
  C  C198  1  0.356700  0.717700  0.652400  1.0  0.6762
  C  C199  1  0.829800  0.072400  0.664000  1.0  0.6834
  C  C200  1  0.816400  0.996900  0.645100  1.0  -0.1514
  C  C201  1  0.754500  0.936100  0.643200  1.0  -0.0786
  C  C202  1  0.654300  0.807100  0.675800  1.0  -0.0704
  C  C203  1  0.592200  0.747100  0.674300  1.0  -0.1598
  C  C204  1  0.569000  0.755200  0.728200  1.0  0.7113
  C  C205  1  0.753800  0.270900  0.540300  1.0  -0.1511
  C  C206  1  0.720500  0.266900  0.467600  1.0  -0.0046
  C  C207  1  0.680300  0.301600  0.439900  1.0  -0.1819
  C  C208  1  0.679000  0.345600  0.488200  1.0  -0.0831
  C  C209  1  0.713100  0.352600  0.559900  1.0  0.0116
  C  C210  1  0.750500  0.315600  0.586300  1.0  -0.0825
  C  C211  1  0.802300  0.236600  0.573900  1.0  0.6759
  C  C212  1  0.643300  0.295700  0.361000  1.0  0.6914
  C  C213  1  0.591600  0.757400  0.927600  1.0  0.6825
  C  C214  1  0.648200  0.819500  0.003100  1.0  -0.1494
  C  C215  1  0.707100  0.818400  0.063900  1.0  -0.0775
  C  C216  1  0.868700  0.847200  0.192900  1.0  -0.0703
  C  C217  1  0.927200  0.845100  0.252900  1.0  -0.1571
  C  C218  1  0.973000  0.813800  0.244800  1.0  0.7089
  C  C219  1  0.269400  0.482900  0.729100  1.0  -0.1481
  C  C220  1  0.200700  0.453600  0.733100  1.0  -0.0019
  C  C221  1  0.138300  0.378700  0.698400  1.0  -0.1882
  C  C222  1  0.142600  0.333400  0.654400  1.0  -0.0815
  C  C223  1  0.207300  0.360500  0.647400  1.0  0.0124
  C  C224  1  0.270700  0.434900  0.684400  1.0  -0.0829
  C  C225  1  0.337300  0.565700  0.763400  1.0  0.6817
  C  C226  1  0.065300  0.347600  0.704300  1.0  0.6797
  C  C227  1  0.408400  0.336000  0.165800  1.0  0.6793
  C  C228  1  0.351800  0.354900  0.171300  1.0  -0.1505
  C  C229  1  0.292900  0.356800  0.111300  1.0  -0.075
  C  C230  1  0.131300  0.324200  0.978500  1.0  -0.0713
  C  C231  1  0.072800  0.325700  0.917900  1.0  -0.1628
  C  C232  1  0.027000  0.271800  0.840800  1.0  0.7125
  C  C233  1  0.730600  0.459700  0.213500  1.0  -0.1497
  C  C234  1  0.799300  0.532400  0.252900  1.0  -0.0009
  C  C235  1  0.861700  0.560100  0.240400  1.0  -0.1842
  C  C236  1  0.857400  0.511800  0.190800  1.0  -0.0832
  C  C237  1  0.792700  0.440100  0.153200  1.0  0.0125
  C  C238  1  0.729300  0.413700  0.164200  1.0  -0.0843
  C  C239  1  0.662700  0.426100  0.228400  1.0  0.6829
  C  C240  1  0.934700  0.639000  0.282300  1.0  0.6817
  C  C241  1  0.091600  0.677600  0.007400  1.0  0.6816
  C  C242  1  0.148200  0.753100  0.069500  1.0  -0.1509
  C  C243  1  0.207100  0.813900  0.068400  1.0  -0.0761
  C  C244  1  0.368700  0.942900  0.097200  1.0  -0.0704
  C  C245  1  0.427200  0.002900  0.095100  1.0  -0.1606
  C  C246  1  0.473000  0.994800  0.063800  1.0  0.7095
  C  C247  1  0.769400  0.479100  0.732900  1.0  -0.1502
  C  C248  1  0.700700  0.483100  0.703600  1.0  -0.0043
  C  C249  1  0.638300  0.448400  0.628700  1.0  -0.1885
  C  C250  1  0.642600  0.404400  0.583400  1.0  -0.0828
  C  C251  1  0.707300  0.397400  0.610500  1.0  0.0117
  C  C252  1  0.770700  0.434400  0.684900  1.0  -0.0841
  C  C253  1  0.837300  0.513400  0.815700  1.0  0.682
  C  C254  1  0.565300  0.454300  0.597600  1.0  0.677
  C  C255  1  0.908400  0.915800  0.586000  1.0  0.6826
  C  C256  1  0.851800  0.921300  0.604900  1.0  -0.1512
  C  C257  1  0.792900  0.861300  0.606800  1.0  -0.0773
  C  C258  1  0.631300  0.728500  0.574200  1.0  -0.0712
  C  C259  1  0.572800  0.667900  0.575700  1.0  -0.1603
  C  C260  1  0.527000  0.590800  0.521800  1.0  0.7103
  C  C261  1  0.230600  0.963500  0.709700  1.0  -0.1489
  C  C262  1  0.299300  0.002900  0.782400  1.0  -0.0054
  C  C263  1  0.361700  0.990400  0.810100  1.0  -0.1849
  C  C264  1  0.357400  0.940800  0.761800  1.0  -0.0831
  C  C265  1  0.292700  0.903200  0.690100  1.0  0.0129
  C  C266  1  0.229300  0.914200  0.663700  1.0  -0.082
  C  C267  1  0.162700  0.978400  0.676100  1.0  0.6818
  C  C268  1  0.434700  0.032300  0.889000  1.0  0.679
  C  C269  1  0.329800  0.414000  0.322400  1.0  0.6812
  C  C270  1  0.316400  0.395100  0.246900  1.0  -0.1526
  C  C271  1  0.254500  0.393200  0.186100  1.0  -0.0775
  C  C272  1  0.154300  0.425800  0.057100  1.0  -0.0719
  C  C273  1  0.092200  0.424300  0.997100  1.0  -0.1603
  C  C274  1  0.069000  0.478200  0.005200  1.0  0.7049
  C  C275  1  0.253800  0.290300  0.520900  1.0  -0.1508
  C  C276  1  0.220500  0.217600  0.516900  1.0  0.0004
  C  C277  1  0.180300  0.189900  0.551600  1.0  -0.1844
  C  C278  1  0.179000  0.238200  0.595600  1.0  -0.0885
  C  C279  1  0.213100  0.309900  0.602600  1.0  0.015
  C  C280  1  0.250500  0.336300  0.565600  1.0  -0.0837
  C  C281  1  0.302300  0.323900  0.486600  1.0  0.6738
  C  C282  1  0.143300  0.111000  0.545700  1.0  0.6803
  C  C283  1  0.670200  0.992600  0.084200  1.0  0.6802
  C  C284  1  0.683600  0.930500  0.078700  1.0  -0.1524
  C  C285  1  0.745500  0.931600  0.138700  1.0  -0.0779
  C  C286  1  0.845700  0.902800  0.271500  1.0  -0.0715
  C  C287  1  0.907800  0.904900  0.332100  1.0  -0.161
  C  C288  1  0.931000  0.936200  0.409200  1.0  0.7109
  C  C289  1  0.746200  0.267100  0.036500  1.0  -0.1488
  C  C290  1  0.779500  0.296400  0.997100  1.0  -0.0031
  C  C291  1  0.819700  0.371300  0.009600  1.0  -0.1871
  C  C292  1  0.821000  0.416600  0.059200  1.0  -0.0854
  C  C293  1  0.786900  0.389500  0.096800  1.0  0.0119
  C  C294  1  0.749500  0.315100  0.085800  1.0  -0.0848
  C  C295  1  0.697700  0.184300  0.021600  1.0  0.6785
  C  C296  1  0.856700  0.402400  0.967700  1.0  0.6923
  C  C297  1  0.258200  0.883200  0.125000  1.0  0.0596
  C  C298  1  0.323800  0.948800  0.125000  1.0  0.0715
  C  C299  1  0.134000  0.759000  0.125000  1.0  0.0186
  C  C300  1  0.449000  0.074000  0.125000  1.0  -0.0043
  C  C301  1  0.741800  0.866800  0.625000  1.0  0.0593
  C  C302  1  0.676200  0.801200  0.625000  1.0  0.0724
  C  C303  1  0.866000  0.991000  0.625000  1.0  0.0186
  C  C304  1  0.551000  0.676000  0.625000  1.0  -0.0055
  C  C305  1  0.758200  0.875000  0.133200  1.0  0.0592
  C  C306  1  0.823800  0.875000  0.198800  1.0  0.0693
  C  C307  1  0.634000  0.875000  0.009000  1.0  0.0157
  C  C308  1  0.949000  0.875000  0.324000  1.0  -0.006
  C  C309  1  0.241800  0.375000  0.116800  1.0  0.0592
  C  C310  1  0.176200  0.375000  0.051200  1.0  0.0697
  C  C311  1  0.366000  0.375000  0.241000  1.0  0.0165
  C  C312  1  0.051000  0.375000  0.926000  1.0  -0.0053
  C  C313  1  0.178300  0.014400  0.374100  1.0  -0.2495
  C  C314  1  0.302800  0.009700  0.458100  1.0  -0.1874
  C  C315  1  0.453900  0.932600  0.545300  1.0  -0.2639
  C  C316  1  0.368900  0.871800  0.405900  1.0  -0.2827
  C  C317  1  0.821700  0.195800  0.836100  1.0  -0.2504
  C  C318  1  0.697200  0.155300  0.706900  1.0  -0.1865
  C  C319  1  0.546100  0.091400  0.478700  1.0  -0.2645
  C  C320  1  0.631100  0.037000  0.502900  1.0  -0.2785
  C  C321  1  0.640300  0.625900  0.804200  1.0  -0.2482
  C  C322  1  0.551600  0.541900  0.844700  1.0  -0.1892
  C  C323  1  0.387300  0.454700  0.908600  1.0  -0.2645
  C  C324  1  0.465900  0.594100  0.963000  1.0  -0.2819
  C  C325  1  0.359700  0.163900  0.985600  1.0  -0.2472
  C  C326  1  0.448400  0.293100  0.990300  1.0  -0.1915
  C  C327  1  0.612700  0.521300  0.067400  1.0  -0.2662
  C  C328  1  0.534100  0.497100  0.128200  1.0  -0.28
  C  C329  1  0.140300  0.554200  0.875900  1.0  -0.2447
  C  C330  1  0.051600  0.594700  0.791900  1.0  -0.1927
  C  C331  1  0.887300  0.658600  0.704700  1.0  -0.2663
  C  C332  1  0.965900  0.713000  0.844100  1.0  -0.2802
  C  C333  1  0.859700  0.735600  0.413900  1.0  -0.2496
  C  C334  1  0.948400  0.740300  0.543100  1.0  -0.1879
  C  C335  1  0.112700  0.817400  0.771300  1.0  -0.2642
  C  C336  1  0.034100  0.878200  0.747100  1.0  -0.2809
  C  C337  1  0.321700  0.586100  0.445800  1.0  -0.2499
  C  C338  1  0.197200  0.456900  0.405300  1.0  -0.1881
  C  C339  1  0.046100  0.228700  0.341400  1.0  -0.2633
  C  C340  1  0.131100  0.252900  0.287000  1.0  -0.2794
  C  C341  1  0.678300  0.124100  0.264400  1.0  -0.2512
  C  C342  1  0.802800  0.208100  0.259700  1.0  -0.1895
  C  C343  1  0.953900  0.295300  0.182600  1.0  -0.2633
  C  C344  1  0.868900  0.155900  0.121800  1.0  -0.2797
  N  N345  1  0.209400  0.965900  0.403100  1.0  -0.0563
  N  N346  1  0.421500  0.866800  0.481300  1.0  -0.1642
  N  N347  1  0.790600  0.193700  0.756500  1.0  -0.054
  N  N348  1  0.578500  0.059800  0.445300  1.0  -0.1666
  N  N349  1  0.562800  0.596900  0.806300  1.0  -0.0541
  N  N350  1  0.385500  0.518700  0.940200  1.0  -0.1651
  N  N351  1  0.437200  0.243500  0.034100  1.0  -0.0547
  N  N352  1  0.614500  0.554700  0.133200  1.0  -0.1681
  N  N353  1  0.062800  0.556300  0.846900  1.0  -0.054
  N  N354  1  0.885500  0.690200  0.768700  1.0  -0.1601
  N  N355  1  0.937200  0.784100  0.493500  1.0  -0.0558
  N  N356  1  0.114500  0.883200  0.804700  1.0  -0.1702
  N  N357  1  0.290600  0.506500  0.443700  1.0  -0.0527
  N  N358  1  0.078500  0.195300  0.309800  1.0  -0.163
  N  N359  1  0.709400  0.153100  0.215900  1.0  -0.0555
  N  N360  1  0.921500  0.231300  0.116800  1.0  -0.1664
  O  O361  1  0.119600  0.771600  0.242000  1.0  -0.6054
  O  O362  1  0.205600  0.896700  0.287100  1.0  -0.6027
  O  O363  1  0.410400  0.170000  0.228000  1.0  -0.5425
  O  O364  1  0.473200  0.209000  0.170400  1.0  -0.5797
  O  O365  1  0.167300  0.809200  0.412300  1.0  -0.5981
  O  O366  1  0.186900  0.721400  0.391500  1.0  -0.5323
  O  O367  1  0.394000  0.733300  0.721500  1.0  -0.5868
  O  O368  1  0.354800  0.673400  0.610200  1.0  -0.5535
  O  O369  1  0.880400  0.122400  0.652000  1.0  -0.5971
  O  O370  1  0.794400  0.081500  0.691100  1.0  -0.6016
  O  O371  1  0.589600  0.817600  0.759600  1.0  -0.5391
  O  O372  1  0.526800  0.697200  0.735800  1.0  -0.5796
  O  O373  1  0.832700  0.245000  0.641900  1.0  -0.6004
  O  O374  1  0.813100  0.204600  0.534500  1.0  -0.539
  O  O375  1  0.606000  0.327500  0.339300  1.0  -0.5843
  O  O376  1  0.645200  0.255400  0.318600  1.0  -0.5577
  O  O377  1  0.529600  0.758000  0.877600  1.0  -0.5956
  O  O378  1  0.609600  0.712900  0.918500  1.0  -0.6026
  O  O379  1  0.942000  0.772000  0.182400  1.0  -0.542
  O  O380  1  0.038600  0.829600  0.302800  1.0  -0.5788
  O  O381  1  0.396900  0.587700  0.755000  1.0  -0.5986
  O  O382  1  0.329900  0.608500  0.795400  1.0  -0.5326
  O  O383  1  0.011800  0.278500  0.672500  1.0  -0.5839
  O  O384  1  0.063200  0.389800  0.744600  1.0  -0.555
  O  O385  1  0.470400  0.348000  0.228400  1.0  -0.6054
  O  O386  1  0.390400  0.308900  0.103300  1.0  -0.6015
  O  O387  1  0.058000  0.240400  0.830000  1.0  -0.5436
  O  O388  1  0.961400  0.264200  0.791000  1.0  -0.5777
  O  O389  1  0.603100  0.358100  0.190800  1.0  -0.601
  O  O390  1  0.670100  0.465500  0.278600  1.0  -0.5387
  O  O391  1  0.988200  0.660700  0.266700  1.0  -0.5848
  O  O392  1  0.936800  0.681400  0.326600  1.0  -0.5579
  O  O393  1  0.029600  0.627600  0.008000  1.0  -0.5961
  O  O394  1  0.109600  0.668500  0.962900  1.0  -0.6022
  O  O395  1  0.442000  0.932400  0.022000  1.0  -0.5409
  O  O396  1  0.538600  0.052800  0.079600  1.0  -0.5791
  O  O397  1  0.896900  0.505000  0.837700  1.0  -0.5983
  O  O398  1  0.829900  0.545400  0.858500  1.0  -0.5399
  O  O399  1  0.511800  0.422500  0.528500  1.0  -0.5848
  O  O400  1  0.563200  0.494600  0.639800  1.0  -0.5531
  O  O401  1  0.970400  0.978400  0.598000  1.0  -0.6066
  O  O402  1  0.890400  0.853300  0.558900  1.0  -0.6029
  O  O403  1  0.558000  0.580000  0.490400  1.0  -0.5428
  O  O404  1  0.461400  0.541000  0.514200  1.0  -0.5793
  O  O405  1  0.103100  0.940800  0.608100  1.0  -0.5992
  O  O406  1  0.170100  0.028600  0.715500  1.0  -0.5349
  O  O407  1  0.488200  0.016700  0.910700  1.0  -0.5856
  O  O408  1  0.436800  0.076600  0.931400  1.0  -0.5556
  O  O409  1  0.380400  0.402000  0.372400  1.0  -0.5937
  O  O410  1  0.294400  0.441100  0.331500  1.0  -0.6001
  O  O411  1  0.089600  0.509600  0.067600  1.0  -0.5405
  O  O412  1  0.026800  0.485800  0.947200  1.0  -0.5774
  O  O413  1  0.332700  0.391900  0.495000  1.0  -0.6003
  O  O414  1  0.313100  0.284500  0.454600  1.0  -0.5377
  O  O415  1  0.106000  0.089300  0.577500  1.0  -0.5839
  O  O416  1  0.145200  0.068600  0.505400  1.0  -0.5537
  O  O417  1  0.619600  0.992000  0.021600  1.0  -0.6074
  O  O418  1  0.705600  0.037100  0.146700  1.0  -0.6012
  O  O419  1  0.910400  0.978000  0.420000  1.0  -0.5429
  O  O420  1  0.973200  0.920400  0.459000  1.0  -0.5781
  O  O421  1  0.667300  0.162300  0.059200  1.0  -0.6
  O  O422  1  0.686900  0.141500  0.971400  1.0  -0.535
  O  O423  1  0.894000  0.471500  0.983300  1.0  -0.5862
  O  O424  1  0.854800  0.360200  0.923400  1.0  -0.5595
