# generated using pymatgen
data_NaCo2H34C44(NO4)4
_symmetry_space_group_name_H-M   'P 1'
_cell_length_a   11.80620000
_cell_length_b   12.26940000
_cell_length_c   19.41140000
_cell_angle_alpha   94.02370000
_cell_angle_beta   90.00000000
_cell_angle_gamma   118.75900000
_symmetry_Int_Tables_number   1
_chemical_formula_structural   NaCo2H34C44(NO4)4
_chemical_formula_sum   'Na2 Co4 H68 C88 N8 O32'
_cell_volume   2457.09225216
_cell_formula_units_Z   2
loop_
 _symmetry_equiv_pos_site_id
 _symmetry_equiv_pos_as_xyz
  1  'x, y, z'
loop_
 _atom_site_type_symbol
 _atom_site_label
 _atom_site_symmetry_multiplicity
 _atom_site_fract_x
 _atom_site_fract_y
 _atom_site_fract_z
 _atom_site_occupancy
 _atom_site_charge
  Na  Na1  1  0.402690  0.000000  0.750000  1.0  0.9622
  Na  Na2  1  0.597310  0.000000  0.250000  1.0  0.9609
  Co  Co3  1  0.374920  0.752480  0.838310  1.0  1.0283
  Co  Co4  1  0.622440  0.247520  0.661690  1.0  1.0289
  Co  Co5  1  0.625080  0.247520  0.161690  1.0  1.0289
  Co  Co6  1  0.377560  0.752480  0.338310  1.0  1.0286
  H  H7  1  0.371200  0.036000  0.979800  1.0  0.1054
  H  H8  1  0.260600  0.775000  0.114900  1.0  0.1061
  H  H9  1  0.116900  0.628600  0.032500  1.0  0.1081
  H  H10  1  0.982700  0.384800  0.811900  1.0  0.121
  H  H11  1  0.791700  0.579200  0.828800  1.0  0.1079
  H  H12  1  0.953500  0.727200  0.902400  1.0  0.1089
  H  H13  1  0.335200  0.964000  0.520200  1.0  0.1047
  H  H14  1  0.485600  0.225000  0.385100  1.0  0.1064
  H  H15  1  0.488300  0.371400  0.467500  1.0  0.108
  H  H16  1  0.597900  0.615200  0.688100  1.0  0.1205
  H  H17  1  0.212500  0.420800  0.671200  1.0  0.1073
  H  H18  1  0.226300  0.272800  0.597600  1.0  0.1087
  H  H19  1  0.628800  0.964000  0.020200  1.0  0.1047
  H  H20  1  0.739400  0.225000  0.885100  1.0  0.1068
  H  H21  1  0.883100  0.371400  0.967500  1.0  0.1076
  H  H22  1  0.017300  0.615200  0.188100  1.0  0.1208
  H  H23  1  0.208300  0.420800  0.171200  1.0  0.1079
  H  H24  1  0.046500  0.272800  0.097600  1.0  0.1086
  H  H25  1  0.664800  0.036000  0.479800  1.0  0.1055
  H  H26  1  0.514400  0.775000  0.614900  1.0  0.1058
  H  H27  1  0.511700  0.628600  0.532500  1.0  0.1078
  H  H28  1  0.402100  0.384800  0.311900  1.0  0.1209
  H  H29  1  0.787500  0.579200  0.328800  1.0  0.1074
  H  H30  1  0.773700  0.727200  0.402400  1.0  0.1087
  H  H31  1  0.303400  0.374000  0.938100  1.0  0.1209
  H  H32  1  0.558500  0.275600  0.870100  1.0  0.1191
  H  H33  1  0.563900  0.279800  0.995700  1.0  0.1274
  H  H34  1  0.319100  0.365800  0.810300  1.0  0.1283
  H  H35  1  0.460900  0.404600  0.789300  1.0  0.1191
  H  H36  1  0.355000  0.263600  0.782400  1.0  0.1385
  H  H37  1  0.465400  0.365200  0.093700  1.0  0.0973
  H  H38  1  0.371100  0.413400  0.070400  1.0  0.0812
  H  H39  1  0.261200  0.239800  0.131200  1.0  0.124
  H  H40  1  0.205000  0.210000  0.054900  1.0  0.1164
  H  H41  1  0.299200  0.161800  0.078000  1.0  0.1268
  H  H42  1  0.929400  0.626000  0.561900  1.0  0.1208
  H  H43  1  0.282900  0.724400  0.629900  1.0  0.1198
  H  H44  1  0.284100  0.720200  0.504300  1.0  0.1271
  H  H45  1  0.953300  0.634200  0.689700  1.0  0.1282
  H  H46  1  0.056300  0.595400  0.710700  1.0  0.1188
  H  H47  1  0.091400  0.736400  0.717600  1.0  0.1408
  H  H48  1  0.100200  0.634800  0.406300  1.0  0.0977
  H  H49  1  0.957700  0.586600  0.429600  1.0  0.0812
  H  H50  1  0.021400  0.760200  0.368800  1.0  0.1211
  H  H51  1  0.995000  0.790000  0.445100  1.0  0.1157
  H  H52  1  0.137400  0.838200  0.422000  1.0  0.1264
  H  H53  1  0.696600  0.626000  0.061900  1.0  0.1207
  H  H54  1  0.441500  0.724400  0.129900  1.0  0.1198
  H  H55  1  0.436100  0.720200  0.004300  1.0  0.1273
  H  H56  1  0.680900  0.634200  0.189700  1.0  0.1272
  H  H57  1  0.539100  0.595400  0.210700  1.0  0.1194
  H  H58  1  0.645000  0.736400  0.217600  1.0  0.1402
  H  H59  1  0.534600  0.634800  0.906300  1.0  0.0975
  H  H60  1  0.628900  0.586600  0.929600  1.0  0.0823
  H  H61  1  0.738800  0.760200  0.868800  1.0  0.1219
  H  H62  1  0.795000  0.790000  0.945100  1.0  0.1166
  H  H63  1  0.700800  0.838200  0.922000  1.0  0.1278
  H  H64  1  0.070600  0.374000  0.438100  1.0  0.1209
  H  H65  1  0.717100  0.275600  0.370100  1.0  0.1191
  H  H66  1  0.715900  0.279800  0.495700  1.0  0.1277
  H  H67  1  0.046700  0.365800  0.310300  1.0  0.1278
  H  H68  1  0.943700  0.404600  0.289300  1.0  0.1199
  H  H69  1  0.908600  0.263600  0.282400  1.0  0.1397
  H  H70  1  0.899800  0.365200  0.593700  1.0  0.0968
  H  H71  1  0.042300  0.413400  0.570400  1.0  0.0808
  H  H72  1  0.978600  0.239800  0.631200  1.0  0.123
  H  H73  1  0.005000  0.210000  0.554900  1.0  0.116
  H  H74  1  0.862600  0.161800  0.578000  1.0  0.1276
  C  C75  1  0.162810  0.741220  0.954880  1.0  0.0238
  C  C76  1  0.239950  0.864500  0.938830  1.0  -0.0915
  C  C77  1  0.322330  0.953260  0.989900  1.0  -0.0177
  C  C78  1  0.332270  0.919940  0.055420  1.0  -0.1566
  C  C79  1  0.255230  0.798060  0.070910  1.0  -0.0175
  C  C80  1  0.169890  0.709780  0.021130  1.0  -0.0782
  C  C81  1  0.065990  0.645580  0.903510  1.0  0.0186
  C  C82  1  0.074540  0.541080  0.876490  1.0  -0.1614
  C  C83  1  0.976810  0.453620  0.830760  1.0  -0.0458
  C  C84  1  0.871140  0.467280  0.812970  1.0  -0.1703
  C  C85  1  0.862700  0.569600  0.840300  1.0  -0.0456
  C  C86  1  0.959620  0.657840  0.884700  1.0  -0.0725
  C  C87  1  0.247440  0.901880  0.865910  1.0  0.6851
  C  C88  1  0.429190  0.012980  0.109630  1.0  0.6826
  C  C89  1  0.184850  0.518500  0.895290  1.0  0.6906
  C  C90  1  0.767480  0.376560  0.761880  1.0  0.6489
  C  C91  1  0.421590  0.258780  0.545120  1.0  0.0258
  C  C92  1  0.375450  0.135500  0.561170  1.0  -0.0906
  C  C93  1  0.369070  0.046740  0.510100  1.0  -0.0181
  C  C94  1  0.412330  0.080060  0.444580  1.0  -0.1577
  C  C95  1  0.457170  0.201940  0.429090  1.0  -0.0184
  C  C96  1  0.460110  0.290220  0.478870  1.0  -0.078
  C  C97  1  0.420410  0.354420  0.596490  1.0  0.0193
  C  C98  1  0.533460  0.458920  0.623510  1.0  -0.1604
  C  C99  1  0.523190  0.546380  0.669240  1.0  -0.0482
  C  C100  1  0.403860  0.532720  0.687030  1.0  -0.1691
  C  C101  1  0.293100  0.430400  0.659700  1.0  -0.0457
  C  C102  1  0.301780  0.342160  0.615300  1.0  -0.0733
  C  C103  1  0.345560  0.098120  0.634090  1.0  0.6836
  C  C104  1  0.416210  0.987020  0.390370  1.0  0.6821
  C  C105  1  0.666350  0.481500  0.604710  1.0  0.6906
  C  C106  1  0.390920  0.623440  0.738120  1.0  0.6483
  C  C107  1  0.837190  0.258780  0.045120  1.0  0.0266
  C  C108  1  0.760050  0.135500  0.061170  1.0  -0.0898
  C  C109  1  0.677670  0.046740  0.010100  1.0  -0.018
  C  C110  1  0.667730  0.080060  0.944580  1.0  -0.1587
  C  C111  1  0.744770  0.201940  0.929090  1.0  -0.0152
  C  C112  1  0.830110  0.290220  0.978870  1.0  -0.0799
  C  C113  1  0.934010  0.354420  0.096490  1.0  0.0195
  C  C114  1  0.925460  0.458920  0.123510  1.0  -0.1605
  C  C115  1  0.023190  0.546380  0.169240  1.0  -0.0451
  C  C116  1  0.128860  0.532720  0.187030  1.0  -0.1697
  C  C117  1  0.137300  0.430400  0.159700  1.0  -0.047
  C  C118  1  0.040380  0.342160  0.115300  1.0  -0.0735
  C  C119  1  0.752560  0.098120  0.134090  1.0  0.6844
  C  C120  1  0.570810  0.987020  0.890370  1.0  0.6821
  C  C121  1  0.815150  0.481500  0.104710  1.0  0.69
  C  C122  1  0.232520  0.623440  0.238120  1.0  0.6476
  C  C123  1  0.578410  0.741220  0.454880  1.0  0.025
  C  C124  1  0.624550  0.864500  0.438830  1.0  -0.0888
  C  C125  1  0.630930  0.953260  0.489900  1.0  -0.0174
  C  C126  1  0.587670  0.919940  0.555420  1.0  -0.1596
  C  C127  1  0.542830  0.798060  0.570910  1.0  -0.0151
  C  C128  1  0.539890  0.709780  0.521130  1.0  -0.0798
  C  C129  1  0.579590  0.645580  0.403510  1.0  0.0185
  C  C130  1  0.466540  0.541080  0.376490  1.0  -0.1615
  C  C131  1  0.476810  0.453620  0.330760  1.0  -0.0427
  C  C132  1  0.596140  0.467280  0.312970  1.0  -0.1709
  C  C133  1  0.706900  0.569600  0.340300  1.0  -0.0474
  C  C134  1  0.698220  0.657840  0.384700  1.0  -0.0728
  C  C135  1  0.654440  0.901880  0.365910  1.0  0.6848
  C  C136  1  0.583790  0.012980  0.609630  1.0  0.6838
  C  C137  1  0.333650  0.518500  0.395290  1.0  0.6905
  C  C138  1  0.609080  0.376560  0.261880  1.0  0.648
  C  C139  1  0.367600  0.350600  0.936870  1.0  0.0668
  C  C140  1  0.508310  0.296020  0.899710  1.0  -0.0629
  C  C141  1  0.511700  0.298400  0.968450  1.0  -0.103
  C  C142  1  0.385500  0.341800  0.809400  1.0  -0.1976
  C  C143  1  0.390980  0.345360  0.063870  1.0  0.0196
  C  C144  1  0.279300  0.229000  0.083700  1.0  -0.3372
  C  C145  1  0.017000  0.649400  0.563130  1.0  0.0674
  C  C146  1  0.212290  0.703980  0.600290  1.0  -0.062
  C  C147  1  0.213300  0.701600  0.531550  1.0  -0.1027
  C  C148  1  0.043700  0.658200  0.690600  1.0  -0.1973
  C  C149  1  0.045620  0.654640  0.436130  1.0  0.0193
  C  C150  1  0.050300  0.771000  0.416300  1.0  -0.3365
  C  C151  1  0.632400  0.649400  0.063130  1.0  0.0694
  C  C152  1  0.491690  0.703980  0.100290  1.0  -0.0633
  C  C153  1  0.488300  0.701600  0.031550  1.0  -0.1027
  C  C154  1  0.614500  0.658200  0.190600  1.0  -0.1968
  C  C155  1  0.609020  0.654640  0.936130  1.0  0.0198
  C  C156  1  0.720700  0.771000  0.916300  1.0  -0.3368
  C  C157  1  0.983000  0.350600  0.436870  1.0  0.0687
  C  C158  1  0.787710  0.296020  0.399710  1.0  -0.0636
  C  C159  1  0.786700  0.298400  0.468450  1.0  -0.1031
  C  C160  1  0.956300  0.341800  0.309400  1.0  -0.1985
  C  C161  1  0.954380  0.345360  0.563870  1.0  0.0204
  C  C162  1  0.949700  0.229000  0.583700  1.0  -0.3369
  N  N163  1  0.418380  0.328760  0.880390  1.0  0.052
  N  N164  1  0.423200  0.333800  0.991290  1.0  0.0518
  N  N165  1  0.089620  0.671240  0.619610  1.0  0.0528
  N  N166  1  0.089400  0.666200  0.508710  1.0  0.0515
  N  N167  1  0.581620  0.671240  0.119610  1.0  0.0531
  N  N168  1  0.576800  0.666200  0.008710  1.0  0.0516
  N  N169  1  0.910380  0.328760  0.380390  1.0  0.0528
  N  N170  1  0.910600  0.333800  0.491290  1.0  0.0518
  O  O171  1  0.237380  0.993360  0.853160  1.0  -0.6196
  O  O172  1  0.269380  0.835260  0.819330  1.0  -0.688
  O  O173  1  0.488980  0.125560  0.094420  1.0  -0.5868
  O  O174  1  0.445900  0.976000  0.163910  1.0  -0.6731
  O  O175  1  0.299660  0.608840  0.896260  1.0  -0.5999
  O  O176  1  0.157890  0.413180  0.909230  1.0  -0.5553
  O  O177  1  0.665190  0.380580  0.755170  1.0  -0.5663
  O  O178  1  0.788370  0.300740  0.725830  1.0  -0.5638
  O  O179  1  0.244020  0.006640  0.646840  1.0  -0.6179
  O  O180  1  0.434120  0.164740  0.680670  1.0  -0.6871
  O  O181  1  0.363420  0.874440  0.405580  1.0  -0.5864
  O  O182  1  0.469900  0.024000  0.336090  1.0  -0.6709
  O  O183  1  0.690820  0.391160  0.603740  1.0  -0.5994
  O  O184  1  0.744710  0.586820  0.590770  1.0  -0.555
  O  O185  1  0.284610  0.619420  0.744830  1.0  -0.5663
  O  O186  1  0.487630  0.699260  0.774170  1.0  -0.563
  O  O187  1  0.762620  0.006640  0.146840  1.0  -0.6191
  O  O188  1  0.730620  0.164740  0.180670  1.0  -0.6861
  O  O189  1  0.511020  0.874440  0.905580  1.0  -0.586
  O  O190  1  0.554100  0.024000  0.836090  1.0  -0.6717
  O  O191  1  0.700340  0.391160  0.103740  1.0  -0.5983
  O  O192  1  0.842110  0.586820  0.090770  1.0  -0.5562
  O  O193  1  0.334810  0.619420  0.244830  1.0  -0.5671
  O  O194  1  0.211630  0.699260  0.274170  1.0  -0.5629
  O  O195  1  0.755980  0.993360  0.353160  1.0  -0.6192
  O  O196  1  0.565880  0.835260  0.319330  1.0  -0.687
  O  O197  1  0.636580  0.125560  0.594420  1.0  -0.5865
  O  O198  1  0.530100  0.976000  0.663910  1.0  -0.6732
  O  O199  1  0.309180  0.608840  0.396260  1.0  -0.5987
  O  O200  1  0.255290  0.413180  0.409230  1.0  -0.5564
  O  O201  1  0.715390  0.380580  0.255170  1.0  -0.5671
  O  O202  1  0.512370  0.300740  0.225830  1.0  -0.5633
