# generated using pymatgen
data_NaCo2H34C44(NO4)4
_symmetry_space_group_name_H-M   'P 1'
_cell_length_a   11.73700000
_cell_length_b   12.25540000
_cell_length_c   19.30100000
_cell_angle_alpha   93.63380000
_cell_angle_beta   90.00000000
_cell_angle_gamma   118.61000000
_symmetry_Int_Tables_number   1
_chemical_formula_structural   NaCo2H34C44(NO4)4
_chemical_formula_sum   'Na2 Co4 H68 C88 N8 O32'
_cell_volume   2430.94108127
_cell_formula_units_Z   2
loop_
 _symmetry_equiv_pos_site_id
 _symmetry_equiv_pos_as_xyz
  1  'x, y, z'
loop_
 _atom_site_type_symbol
 _atom_site_label
 _atom_site_symmetry_multiplicity
 _atom_site_fract_x
 _atom_site_fract_y
 _atom_site_fract_z
 _atom_site_occupancy
 _atom_site_charge
  Na  Na1  1  0.401160  0.000000  0.250000  1.0  0.9364
  Na  Na2  1  0.598840  0.000000  0.750000  1.0  0.9361
  Co  Co3  1  0.371710  0.751620  0.337780  1.0  1.151
  Co  Co4  1  0.620090  0.248380  0.162220  1.0  1.1515
  Co  Co5  1  0.628290  0.248380  0.662220  1.0  1.1522
  Co  Co6  1  0.379910  0.751620  0.837780  1.0  1.152
  H  H7  1  0.372200  0.037600  0.479400  1.0  0.0929
  H  H8  1  0.260300  0.774400  0.615900  1.0  0.1021
  H  H9  1  0.115200  0.629200  0.533000  1.0  0.1034
  H  H10  1  0.974600  0.385000  0.313800  1.0  0.1138
  H  H11  1  0.790000  0.588400  0.327400  1.0  0.1047
  H  H12  1  0.954700  0.735200  0.400500  1.0  0.1058
  H  H13  1  0.334600  0.962400  0.020600  1.0  0.0922
  H  H14  1  0.485900  0.225600  0.884100  1.0  0.1022
  H  H15  1  0.486000  0.370800  0.967000  1.0  0.1034
  H  H16  1  0.589600  0.615000  0.186200  1.0  0.1133
  H  H17  1  0.201600  0.411600  0.172600  1.0  0.1041
  H  H18  1  0.219500  0.264800  0.099500  1.0  0.1045
  H  H19  1  0.627800  0.962400  0.520600  1.0  0.0923
  H  H20  1  0.739700  0.225600  0.384100  1.0  0.1028
  H  H21  1  0.884800  0.370800  0.467000  1.0  0.103
  H  H22  1  0.025400  0.615000  0.686200  1.0  0.1136
  H  H23  1  0.210000  0.411600  0.672600  1.0  0.1051
  H  H24  1  0.045300  0.264800  0.599500  1.0  0.1043
  H  H25  1  0.665400  0.037600  0.979400  1.0  0.093
  H  H26  1  0.514100  0.774400  0.115900  1.0  0.1023
  H  H27  1  0.514000  0.629200  0.033000  1.0  0.1033
  H  H28  1  0.410400  0.385000  0.813800  1.0  0.1137
  H  H29  1  0.798400  0.588400  0.827400  1.0  0.1048
  H  H30  1  0.780500  0.735200  0.900500  1.0  0.1055
  H  H31  1  0.073500  0.374600  0.941400  1.0  0.1234
  H  H32  1  0.717000  0.270600  0.869500  1.0  0.1276
  H  H33  1  0.714700  0.281400  0.996100  1.0  0.1324
  H  H34  1  0.050300  0.360800  0.811200  1.0  0.1243
  H  H35  1  0.912900  0.255200  0.784800  1.0  0.1416
  H  H36  1  0.944400  0.395000  0.787200  1.0  0.1191
  H  H37  1  0.041900  0.414400  0.072600  1.0  0.0689
  H  H38  1  0.899000  0.369400  0.095500  1.0  0.0844
  H  H39  1  0.975000  0.242000  0.136300  1.0  0.1233
  H  H40  1  0.858200  0.164000  0.083300  1.0  0.1259
  H  H41  1  0.000900  0.208800  0.060200  1.0  0.111
  H  H42  1  0.698900  0.625400  0.558600  1.0  0.1234
  H  H43  1  0.446400  0.729400  0.630500  1.0  0.1286
  H  H44  1  0.433300  0.718600  0.503900  1.0  0.1322
  H  H45  1  0.689500  0.639200  0.688800  1.0  0.124
  H  H46  1  0.657700  0.744800  0.715200  1.0  0.1412
  H  H47  1  0.549400  0.605000  0.712800  1.0  0.1195
  H  H48  1  0.627500  0.585600  0.427400  1.0  0.0697
  H  H49  1  0.529600  0.630600  0.404500  1.0  0.0856
  H  H50  1  0.733000  0.758000  0.363700  1.0  0.1223
  H  H51  1  0.694200  0.836000  0.416700  1.0  0.1262
  H  H52  1  0.792100  0.791200  0.439800  1.0  0.1116
  H  H53  1  0.926500  0.625400  0.058600  1.0  0.1248
  H  H54  1  0.283000  0.729400  0.130500  1.0  0.1285
  H  H55  1  0.285300  0.718600  0.003900  1.0  0.1317
  H  H56  1  0.949700  0.639200  0.188800  1.0  0.125
  H  H57  1  0.087100  0.744800  0.215200  1.0  0.1412
  H  H58  1  0.055600  0.605000  0.212800  1.0  0.1196
  H  H59  1  0.958100  0.585600  0.927400  1.0  0.069
  H  H60  1  0.101000  0.630600  0.904500  1.0  0.0853
  H  H61  1  0.025000  0.758000  0.863700  1.0  0.1215
  H  H62  1  0.141800  0.836000  0.916700  1.0  0.1248
  H  H63  1  0.999100  0.791200  0.939800  1.0  0.1109
  H  H64  1  0.301100  0.374600  0.441400  1.0  0.1245
  H  H65  1  0.553600  0.270600  0.369500  1.0  0.128
  H  H66  1  0.566700  0.281400  0.496100  1.0  0.1322
  H  H67  1  0.310500  0.360800  0.311200  1.0  0.1251
  H  H68  1  0.342300  0.255200  0.284800  1.0  0.1403
  H  H69  1  0.450600  0.395000  0.287200  1.0  0.1187
  H  H70  1  0.372500  0.414400  0.572600  1.0  0.0692
  H  H71  1  0.470400  0.369400  0.595500  1.0  0.0845
  H  H72  1  0.267000  0.242000  0.636300  1.0  0.1244
  H  H73  1  0.305800  0.164000  0.583300  1.0  0.125
  H  H74  1  0.207900  0.208800  0.560200  1.0  0.1116
  C  C75  1  0.161770  0.743540  0.454650  1.0  0.05
  C  C76  1  0.239800  0.867600  0.438400  1.0  -0.1665
  C  C77  1  0.322730  0.954860  0.489580  1.0  0.0102
  C  C78  1  0.332970  0.920940  0.555540  1.0  -0.1577
  C  C79  1  0.254900  0.798000  0.571710  1.0  -0.0209
  C  C80  1  0.168710  0.710620  0.521610  1.0  -0.1065
  C  C81  1  0.064380  0.648560  0.402890  1.0  0.0794
  C  C82  1  0.070650  0.542900  0.376930  1.0  -0.1833
  C  C83  1  0.970620  0.455240  0.331670  1.0  -0.0065
  C  C84  1  0.866030  0.471460  0.313220  1.0  -0.16
  C  C85  1  0.860080  0.576960  0.339470  1.0  -0.0516
  C  C86  1  0.958600  0.664400  0.383470  1.0  -0.1144
  C  C87  1  0.247390  0.904780  0.365030  1.0  0.6895
  C  C88  1  0.569010  0.987420  0.390300  1.0  0.6909
  C  C89  1  0.180610  0.518420  0.395400  1.0  0.6946
  C  C90  1  0.760660  0.381120  0.262770  1.0  0.6232
  C  C91  1  0.418230  0.256460  0.045350  1.0  0.0514
  C  C92  1  0.372200  0.132400  0.061600  1.0  -0.1684
  C  C93  1  0.367870  0.045140  0.010420  1.0  0.0099
  C  C94  1  0.412030  0.079060  0.944460  1.0  -0.1589
  C  C95  1  0.456900  0.202000  0.928290  1.0  -0.0246
  C  C96  1  0.458090  0.289380  0.978390  1.0  -0.1044
  C  C97  1  0.415820  0.351440  0.097110  1.0  0.0804
  C  C98  1  0.527750  0.457100  0.123070  1.0  -0.1826
  C  C99  1  0.515380  0.544760  0.168330  1.0  -0.012
  C  C100  1  0.394570  0.528540  0.186780  1.0  -0.1596
  C  C101  1  0.283120  0.423040  0.160530  1.0  -0.0511
  C  C102  1  0.294200  0.335600  0.116530  1.0  -0.1145
  C  C103  1  0.342610  0.095220  0.134970  1.0  0.6863
  C  C104  1  0.581590  0.012580  0.109700  1.0  0.6913
  C  C105  1  0.662190  0.481580  0.104600  1.0  0.695
  C  C106  1  0.379540  0.618880  0.237230  1.0  0.625
  C  C107  1  0.838230  0.256460  0.545350  1.0  0.0527
  C  C108  1  0.760200  0.132400  0.561600  1.0  -0.1698
  C  C109  1  0.677270  0.045140  0.510420  1.0  0.008
  C  C110  1  0.667030  0.079060  0.444460  1.0  -0.1578
  C  C111  1  0.745100  0.202000  0.428290  1.0  -0.0187
  C  C112  1  0.831290  0.289380  0.478390  1.0  -0.1087
  C  C113  1  0.935620  0.351440  0.597110  1.0  0.0806
  C  C114  1  0.929350  0.457100  0.623070  1.0  -0.1836
  C  C115  1  0.029380  0.544760  0.668330  1.0  -0.0068
  C  C116  1  0.133970  0.528540  0.686780  1.0  -0.1595
  C  C117  1  0.139920  0.423040  0.660530  1.0  -0.0534
  C  C118  1  0.041400  0.335600  0.616530  1.0  -0.1123
  C  C119  1  0.752610  0.095220  0.634970  1.0  0.6876
  C  C120  1  0.430990  0.012580  0.609700  1.0  0.6893
  C  C121  1  0.819390  0.481580  0.604600  1.0  0.694
  C  C122  1  0.239340  0.618880  0.737230  1.0  0.6249
  C  C123  1  0.581770  0.743540  0.954650  1.0  0.0511
  C  C124  1  0.627800  0.867600  0.938400  1.0  -0.1665
  C  C125  1  0.632130  0.954860  0.989580  1.0  0.0076
  C  C126  1  0.587970  0.920940  0.055540  1.0  -0.159
  C  C127  1  0.543100  0.798000  0.071710  1.0  -0.0168
  C  C128  1  0.541910  0.710620  0.021610  1.0  -0.1122
  C  C129  1  0.584180  0.648560  0.902890  1.0  0.0798
  C  C130  1  0.472250  0.542900  0.876930  1.0  -0.1839
  C  C131  1  0.484620  0.455240  0.831670  1.0  -0.0036
  C  C132  1  0.605430  0.471460  0.813220  1.0  -0.16
  C  C133  1  0.716880  0.576960  0.839470  1.0  -0.0534
  C  C134  1  0.705800  0.664400  0.883470  1.0  -0.1116
  C  C135  1  0.657390  0.904780  0.865030  1.0  0.6896
  C  C136  1  0.418410  0.987420  0.890300  1.0  0.691
  C  C137  1  0.337810  0.518420  0.895400  1.0  0.6939
  C  C138  1  0.620460  0.381120  0.762770  1.0  0.6236
  C  C139  1  0.985470  0.350940  0.939190  1.0  0.0524
  C  C140  1  0.787580  0.293160  0.899780  1.0  -0.0966
  C  C141  1  0.786290  0.298980  0.969060  1.0  -0.0773
  C  C142  1  0.959200  0.335200  0.809900  1.0  -0.2076
  C  C143  1  0.953160  0.347520  0.066240  1.0  0.0238
  C  C144  1  0.946200  0.230000  0.088500  1.0  -0.3314
  C  C145  1  0.634530  0.649060  0.560810  1.0  0.0538
  C  C146  1  0.494420  0.706840  0.600220  1.0  -0.0969
  C  C147  1  0.487310  0.701020  0.530940  1.0  -0.0759
  C  C148  1  0.624000  0.664800  0.690100  1.0  -0.206
  C  C149  1  0.605640  0.652480  0.433760  1.0  0.0219
  C  C150  1  0.716200  0.770000  0.411500  1.0  -0.3309
  C  C151  1  0.014530  0.649060  0.060810  1.0  0.0529
  C  C152  1  0.212420  0.706840  0.100220  1.0  -0.0954
  C  C153  1  0.213710  0.701020  0.030940  1.0  -0.0767
  C  C154  1  0.040800  0.664800  0.190100  1.0  -0.2025
  C  C155  1  0.046840  0.652480  0.933760  1.0  0.0229
  C  C156  1  0.053800  0.770000  0.911500  1.0  -0.3309
  C  C157  1  0.365470  0.350940  0.439190  1.0  0.0515
  C  C158  1  0.505580  0.293160  0.399780  1.0  -0.0957
  C  C159  1  0.512690  0.298980  0.469060  1.0  -0.0788
  C  C160  1  0.376000  0.335200  0.309900  1.0  -0.2031
  C  C161  1  0.394360  0.347520  0.566240  1.0  0.0239
  C  C162  1  0.283800  0.230000  0.588500  1.0  -0.3317
  N  N163  1  0.912720  0.326640  0.881600  1.0  0.0907
  N  N164  1  0.910330  0.335660  0.992840  1.0  0.0511
  N  N165  1  0.586080  0.673360  0.618400  1.0  0.0912
  N  N166  1  0.574670  0.664340  0.507160  1.0  0.051
  N  N167  1  0.087280  0.673360  0.118400  1.0  0.0908
  N  N168  1  0.089670  0.664340  0.007160  1.0  0.0509
  N  N169  1  0.413920  0.326640  0.381600  1.0  0.09
  N  N170  1  0.425330  0.335660  0.492840  1.0  0.0512
  O  O171  1  0.241360  0.998920  0.351750  1.0  -0.5931
  O  O172  1  0.267280  0.836580  0.318160  1.0  -0.7187
  O  O173  1  0.508810  0.874240  0.405270  1.0  -0.6071
  O  O174  1  0.551920  0.026840  0.335780  1.0  -0.6737
  O  O175  1  0.296420  0.608480  0.397280  1.0  -0.6251
  O  O176  1  0.152040  0.411280  0.409090  1.0  -0.5518
  O  O177  1  0.660240  0.390680  0.253920  1.0  -0.5732
  O  O178  1  0.777980  0.298960  0.228690  1.0  -0.5597
  O  O179  1  0.242440  0.001080  0.148250  1.0  -0.5909
  O  O180  1  0.430700  0.163420  0.181840  1.0  -0.7198
  O  O181  1  0.634570  0.125760  0.094730  1.0  -0.6078
  O  O182  1  0.525080  0.973160  0.164220  1.0  -0.674
  O  O183  1  0.687940  0.391520  0.102720  1.0  -0.6236
  O  O184  1  0.740760  0.588720  0.090910  1.0  -0.5521
  O  O185  1  0.269560  0.609320  0.246080  1.0  -0.5738
  O  O186  1  0.479020  0.701040  0.271310  1.0  -0.5596
  O  O187  1  0.758640  0.001080  0.648250  1.0  -0.5918
  O  O188  1  0.732720  0.163420  0.681840  1.0  -0.7176
  O  O189  1  0.491190  0.125760  0.594730  1.0  -0.6064
  O  O190  1  0.448080  0.973160  0.664220  1.0  -0.675
  O  O191  1  0.703580  0.391520  0.602720  1.0  -0.6228
  O  O192  1  0.847960  0.588720  0.590910  1.0  -0.5518
  O  O193  1  0.339760  0.609320  0.746080  1.0  -0.5741
  O  O194  1  0.222020  0.701040  0.771310  1.0  -0.5594
  O  O195  1  0.757560  0.998920  0.851750  1.0  -0.5923
  O  O196  1  0.569300  0.836580  0.818160  1.0  -0.7167
  O  O197  1  0.365430  0.874240  0.905270  1.0  -0.6051
  O  O198  1  0.474920  0.026840  0.835780  1.0  -0.6736
  O  O199  1  0.312060  0.608480  0.897280  1.0  -0.6242
  O  O200  1  0.259240  0.411280  0.909090  1.0  -0.552
  O  O201  1  0.730440  0.390680  0.753920  1.0  -0.5736
  O  O202  1  0.520980  0.298960  0.728690  1.0  -0.5595
