# generated using pymatgen
data_NiH10C17N3O4
_symmetry_space_group_name_H-M   'P 1'
_cell_length_a   19.75000000
_cell_length_b   22.19470000
_cell_length_c   11.63340000
_cell_angle_alpha   90.00000000
_cell_angle_beta   116.79700000
_cell_angle_gamma   90.00000000
_symmetry_Int_Tables_number   1
_chemical_formula_structural   NiH10C17N3O4
_chemical_formula_sum   'Ni8 H80 C136 N24 O32'
_cell_volume   4551.81401224
_cell_formula_units_Z   8
loop_
 _symmetry_equiv_pos_site_id
 _symmetry_equiv_pos_as_xyz
  1  'x, y, z'
loop_
 _atom_site_type_symbol
 _atom_site_label
 _atom_site_symmetry_multiplicity
 _atom_site_fract_x
 _atom_site_fract_y
 _atom_site_fract_z
 _atom_site_occupancy
 _atom_site_charge
  Ni  Ni1  1  0.187300  0.120670  0.883510  1.0  0.8796
  Ni  Ni2  1  0.687300  0.620670  0.883510  1.0  0.8796
  Ni  Ni3  1  0.187300  0.879330  0.883510  1.0  0.8787
  Ni  Ni4  1  0.687300  0.379330  0.883510  1.0  0.8787
  Ni  Ni5  1  0.812700  0.120670  0.116490  1.0  0.8797
  Ni  Ni6  1  0.312700  0.620670  0.116490  1.0  0.8797
  Ni  Ni7  1  0.812700  0.879330  0.116490  1.0  0.8783
  Ni  Ni8  1  0.312700  0.379330  0.116490  1.0  0.8783
  H  H9  1  0.123900  0.113700  0.078300  1.0  0.0808
  H  H10  1  0.160600  0.134300  0.291400  1.0  0.1175
  H  H11  1  0.360700  0.190400  0.321400  1.0  0.1221
  H  H12  1  0.318200  0.167000  0.108500  1.0  0.0799
  H  H13  1  0.209300  0.138200  0.500200  1.0  0.1232
  H  H14  1  0.373900  0.214200  0.815500  1.0  0.1144
  H  H15  1  0.514400  0.210800  0.880000  1.0  0.1246
  H  H16  1  0.624400  0.265100  0.956700  1.0  0.071
  H  H17  1  0.546000  0.364900  0.647500  1.0  0.087
  H  H18  1  0.435500  0.310300  0.557100  1.0  0.1168
  H  H19  1  0.623900  0.613700  0.078300  1.0  0.0808
  H  H20  1  0.660600  0.634300  0.291400  1.0  0.1175
  H  H21  1  0.860700  0.690400  0.321400  1.0  0.1221
  H  H22  1  0.818200  0.667000  0.108500  1.0  0.0799
  H  H23  1  0.709300  0.638200  0.500200  1.0  0.1232
  H  H24  1  0.873900  0.714200  0.815500  1.0  0.1144
  H  H25  1  0.014400  0.710800  0.880000  1.0  0.1246
  H  H26  1  0.124400  0.765100  0.956700  1.0  0.071
  H  H27  1  0.046000  0.864900  0.647500  1.0  0.0879
  H  H28  1  0.935500  0.810300  0.557100  1.0  0.1168
  H  H29  1  0.123900  0.886300  0.078300  1.0  0.0803
  H  H30  1  0.160600  0.865700  0.291400  1.0  0.1173
  H  H31  1  0.360700  0.809600  0.321400  1.0  0.1221
  H  H32  1  0.318200  0.833000  0.108500  1.0  0.0796
  H  H33  1  0.209300  0.861800  0.500200  1.0  0.1231
  H  H34  1  0.373900  0.785800  0.815500  1.0  0.1145
  H  H35  1  0.514400  0.789200  0.880000  1.0  0.1246
  H  H36  1  0.624400  0.734900  0.956700  1.0  0.0708
  H  H37  1  0.546000  0.635100  0.647500  1.0  0.0872
  H  H38  1  0.435500  0.689700  0.557100  1.0  0.1165
  H  H39  1  0.623900  0.386300  0.078300  1.0  0.0803
  H  H40  1  0.660600  0.365700  0.291400  1.0  0.1173
  H  H41  1  0.860700  0.309600  0.321400  1.0  0.1221
  H  H42  1  0.818200  0.333000  0.108500  1.0  0.0796
  H  H43  1  0.709300  0.361800  0.500200  1.0  0.1231
  H  H44  1  0.873900  0.285800  0.815500  1.0  0.1145
  H  H45  1  0.014400  0.289200  0.880000  1.0  0.1246
  H  H46  1  0.124400  0.234900  0.956700  1.0  0.0708
  H  H47  1  0.046000  0.135100  0.647500  1.0  0.088
  H  H48  1  0.935500  0.189700  0.557100  1.0  0.1165
  H  H49  1  0.876100  0.113700  0.921700  1.0  0.0801
  H  H50  1  0.839400  0.134300  0.708600  1.0  0.1171
  H  H51  1  0.639300  0.190400  0.678600  1.0  0.1227
  H  H52  1  0.681800  0.167000  0.891500  1.0  0.0805
  H  H53  1  0.790700  0.138200  0.499800  1.0  0.1235
  H  H54  1  0.626100  0.214200  0.184500  1.0  0.1146
  H  H55  1  0.485600  0.210800  0.120000  1.0  0.1246
  H  H56  1  0.375600  0.265100  0.043300  1.0  0.0701
  H  H57  1  0.454000  0.364900  0.352500  1.0  0.0869
  H  H58  1  0.564500  0.310300  0.442900  1.0  0.116
  H  H59  1  0.376100  0.613700  0.921700  1.0  0.0801
  H  H60  1  0.339400  0.634300  0.708600  1.0  0.1171
  H  H61  1  0.139300  0.690400  0.678600  1.0  0.1227
  H  H62  1  0.181800  0.667000  0.891500  1.0  0.0805
  H  H63  1  0.290700  0.638200  0.499800  1.0  0.1235
  H  H64  1  0.126100  0.714200  0.184500  1.0  0.1146
  H  H65  1  0.985600  0.710800  0.120000  1.0  0.1246
  H  H66  1  0.875600  0.765100  0.043300  1.0  0.0701
  H  H67  1  0.954000  0.864900  0.352500  1.0  0.0878
  H  H68  1  0.064500  0.810300  0.442900  1.0  0.116
  H  H69  1  0.876100  0.886300  0.921700  1.0  0.0798
  H  H70  1  0.839400  0.865700  0.708600  1.0  0.1177
  H  H71  1  0.639300  0.809600  0.678600  1.0  0.1219
  H  H72  1  0.681800  0.833000  0.891500  1.0  0.0797
  H  H73  1  0.790700  0.861800  0.499800  1.0  0.1228
  H  H74  1  0.626100  0.785800  0.184500  1.0  0.1139
  H  H75  1  0.485600  0.789200  0.120000  1.0  0.1252
  H  H76  1  0.375600  0.734900  0.043300  1.0  0.0705
  H  H77  1  0.454000  0.635100  0.352500  1.0  0.0875
  H  H78  1  0.564500  0.689700  0.442900  1.0  0.1164
  H  H79  1  0.376100  0.386300  0.921700  1.0  0.0798
  H  H80  1  0.339400  0.365700  0.708600  1.0  0.1177
  H  H81  1  0.139300  0.309600  0.678600  1.0  0.1219
  H  H82  1  0.181800  0.333000  0.891500  1.0  0.0797
  H  H83  1  0.290700  0.361800  0.499800  1.0  0.1228
  H  H84  1  0.126100  0.285800  0.184500  1.0  0.1139
  H  H85  1  0.985600  0.289200  0.120000  1.0  0.1252
  H  H86  1  0.875600  0.234900  0.043300  1.0  0.0705
  H  H87  1  0.954000  0.135100  0.352500  1.0  0.0884
  H  H88  1  0.064500  0.189700  0.442900  1.0  0.1164
  C  C89  1  0.172200  0.129000  0.128200  1.0  0.1778
  C  C90  1  0.194000  0.141200  0.256700  1.0  -0.1786
  C  C91  1  0.266600  0.164100  0.334300  1.0  0.037
  C  C92  1  0.312400  0.174300  0.274900  1.0  -0.1439
  C  C93  1  0.286100  0.160400  0.146100  1.0  0.179
  C  C94  1  0.293800  0.178000  0.472500  1.0  0.2303
  C  C95  1  0.254500  0.159600  0.540800  1.0  -0.0801
  C  C96  1  0.284300  0.174100  0.670200  1.0  -0.1278
  C  C97  1  0.352500  0.204700  0.728400  1.0  -0.1232
  C  C98  1  0.388900  0.221100  0.654100  1.0  0.1873
  C  C99  1  0.461200  0.254300  0.709500  1.0  0.0313
  C  C100  1  0.519700  0.241700  0.830400  1.0  -0.2044
  C  C101  1  0.585400  0.275000  0.876500  1.0  0.1763
  C  C102  1  0.539600  0.333333  0.694100  1.0  0.1847
  C  C103  1  0.472600  0.301000  0.639500  1.0  -0.1435
  C  C104  1  0.243600  0.155930  0.747700  1.0  0.6318
  C  C105  1  0.672200  0.629000  0.128200  1.0  0.1778
  C  C106  1  0.694000  0.641200  0.256700  1.0  -0.1786
  C  C107  1  0.766600  0.664100  0.334300  1.0  0.037
  C  C108  1  0.812400  0.674300  0.274900  1.0  -0.1439
  C  C109  1  0.786100  0.660400  0.146100  1.0  0.179
  C  C110  1  0.793800  0.678000  0.472500  1.0  0.2303
  C  C111  1  0.754500  0.659600  0.540800  1.0  -0.0801
  C  C112  1  0.784300  0.674100  0.670200  1.0  -0.1278
  C  C113  1  0.852500  0.704700  0.728400  1.0  -0.1232
  C  C114  1  0.888900  0.721100  0.654100  1.0  0.1873
  C  C115  1  0.961200  0.754300  0.709500  1.0  0.0313
  C  C116  1  0.019700  0.741700  0.830400  1.0  -0.2045
  C  C117  1  0.085400  0.775000  0.876500  1.0  0.1762
  C  C118  1  0.039600  0.833300  0.694100  1.0  0.1791
  C  C119  1  0.972600  0.801000  0.639500  1.0  -0.1436
  C  C120  1  0.743600  0.655930  0.747700  1.0  0.6318
  C  C121  1  0.172200  0.871000  0.128200  1.0  0.1759
  C  C122  1  0.194000  0.858800  0.256700  1.0  -0.18
  C  C123  1  0.266600  0.835900  0.334300  1.0  0.039
  C  C124  1  0.312400  0.825700  0.274900  1.0  -0.1463
  C  C125  1  0.286100  0.839600  0.146100  1.0  0.1788
  C  C126  1  0.293800  0.822000  0.472500  1.0  0.2291
  C  C127  1  0.254500  0.840400  0.540800  1.0  -0.0809
  C  C128  1  0.284300  0.825900  0.670200  1.0  -0.1274
  C  C129  1  0.352500  0.795300  0.728400  1.0  -0.1241
  C  C130  1  0.388900  0.778900  0.654100  1.0  0.1865
  C  C131  1  0.461200  0.745700  0.709500  1.0  0.0322
  C  C132  1  0.519700  0.758300  0.830400  1.0  -0.2039
  C  C133  1  0.585400  0.725000  0.876500  1.0  0.1763
  C  C134  1  0.539600  0.666667  0.694100  1.0  0.1853
  C  C135  1  0.472600  0.699000  0.639500  1.0  -0.1434
  C  C136  1  0.243600  0.844070  0.747700  1.0  0.6309
  C  C137  1  0.672200  0.371000  0.128200  1.0  0.1759
  C  C138  1  0.694000  0.358800  0.256700  1.0  -0.18
  C  C139  1  0.766600  0.335900  0.334300  1.0  0.039
  C  C140  1  0.812400  0.325700  0.274900  1.0  -0.1463
  C  C141  1  0.786100  0.339600  0.146100  1.0  0.1788
  C  C142  1  0.793800  0.322000  0.472500  1.0  0.2291
  C  C143  1  0.754500  0.340400  0.540800  1.0  -0.0808
  C  C144  1  0.784300  0.325900  0.670200  1.0  -0.1274
  C  C145  1  0.852500  0.295300  0.728400  1.0  -0.1241
  C  C146  1  0.888900  0.278900  0.654100  1.0  0.1865
  C  C147  1  0.961200  0.245700  0.709500  1.0  0.0322
  C  C148  1  0.019700  0.258300  0.830400  1.0  -0.204
  C  C149  1  0.085400  0.225000  0.876500  1.0  0.1762
  C  C150  1  0.039600  0.166700  0.694100  1.0  0.1795
  C  C151  1  0.972600  0.199000  0.639500  1.0  -0.1436
  C  C152  1  0.743600  0.344070  0.747700  1.0  0.6309
  C  C153  1  0.146100  0.000000  0.875800  1.0  0.5979
  C  C154  1  0.233200  0.000000  0.919500  1.0  0.6105
  C  C155  1  0.646100  0.500000  0.875800  1.0  0.5979
  C  C156  1  0.733200  0.500000  0.919500  1.0  0.6105
  C  C157  1  0.827800  0.129000  0.871800  1.0  0.1771
  C  C158  1  0.806000  0.141200  0.743300  1.0  -0.1804
  C  C159  1  0.733400  0.164100  0.665700  1.0  0.0383
  C  C160  1  0.687600  0.174300  0.725100  1.0  -0.145
  C  C161  1  0.713900  0.160400  0.853900  1.0  0.1782
  C  C162  1  0.706200  0.178000  0.527500  1.0  0.2299
  C  C163  1  0.745500  0.159600  0.459200  1.0  -0.0809
  C  C164  1  0.715700  0.174100  0.329800  1.0  -0.1268
  C  C165  1  0.647500  0.204700  0.271600  1.0  -0.1258
  C  C166  1  0.611100  0.221100  0.345900  1.0  0.1875
  C  C167  1  0.538800  0.254300  0.290500  1.0  0.031
  C  C168  1  0.480300  0.241700  0.169600  1.0  -0.2044
  C  C169  1  0.414600  0.275000  0.123500  1.0  0.1765
  C  C170  1  0.460400  0.333333  0.305900  1.0  0.1839
  C  C171  1  0.527400  0.301000  0.360500  1.0  -0.1447
  C  C172  1  0.756400  0.155930  0.252300  1.0  0.6299
  C  C173  1  0.327800  0.629000  0.871800  1.0  0.1771
  C  C174  1  0.306000  0.641200  0.743300  1.0  -0.1804
  C  C175  1  0.233400  0.664100  0.665700  1.0  0.0383
  C  C176  1  0.187600  0.674300  0.725100  1.0  -0.145
  C  C177  1  0.213900  0.660400  0.853900  1.0  0.1782
  C  C178  1  0.206200  0.678000  0.527500  1.0  0.2299
  C  C179  1  0.245500  0.659600  0.459200  1.0  -0.0809
  C  C180  1  0.215700  0.674100  0.329800  1.0  -0.1268
  C  C181  1  0.147500  0.704700  0.271600  1.0  -0.1258
  C  C182  1  0.111100  0.721100  0.345900  1.0  0.1875
  C  C183  1  0.038800  0.754300  0.290500  1.0  0.031
  C  C184  1  0.980300  0.741700  0.169600  1.0  -0.2045
  C  C185  1  0.914600  0.775000  0.123500  1.0  0.1764
  C  C186  1  0.960400  0.833300  0.305900  1.0  0.1782
  C  C187  1  0.027400  0.801000  0.360500  1.0  -0.1449
  C  C188  1  0.256400  0.655930  0.252300  1.0  0.6299
  C  C189  1  0.827800  0.871000  0.871800  1.0  0.1772
  C  C190  1  0.806000  0.858800  0.743300  1.0  -0.1796
  C  C191  1  0.733400  0.835900  0.665700  1.0  0.0396
  C  C192  1  0.687600  0.825700  0.725100  1.0  -0.1468
  C  C193  1  0.713900  0.839600  0.853900  1.0  0.1774
  C  C194  1  0.706200  0.822000  0.527500  1.0  0.2283
  C  C195  1  0.745500  0.840400  0.459200  1.0  -0.0789
  C  C196  1  0.715700  0.825900  0.329800  1.0  -0.1266
  C  C197  1  0.647500  0.795300  0.271600  1.0  -0.1274
  C  C198  1  0.611100  0.778900  0.345900  1.0  0.1866
  C  C199  1  0.538800  0.745700  0.290500  1.0  0.0316
  C  C200  1  0.480300  0.758300  0.169600  1.0  -0.204
  C  C201  1  0.414600  0.725000  0.123500  1.0  0.1762
  C  C202  1  0.460400  0.666667  0.305900  1.0  0.1848
  C  C203  1  0.527400  0.699000  0.360500  1.0  -0.1444
  C  C204  1  0.756400  0.844070  0.252300  1.0  0.6297
  C  C205  1  0.327800  0.371000  0.871800  1.0  0.1772
  C  C206  1  0.306000  0.358800  0.743300  1.0  -0.1796
  C  C207  1  0.233400  0.335900  0.665700  1.0  0.0396
  C  C208  1  0.187600  0.325700  0.725100  1.0  -0.1468
  C  C209  1  0.213900  0.339600  0.853900  1.0  0.1774
  C  C210  1  0.206200  0.322000  0.527500  1.0  0.2283
  C  C211  1  0.245500  0.340400  0.459200  1.0  -0.0789
  C  C212  1  0.215700  0.325900  0.329800  1.0  -0.1266
  C  C213  1  0.147500  0.295300  0.271600  1.0  -0.1274
  C  C214  1  0.111100  0.278900  0.345900  1.0  0.1866
  C  C215  1  0.038800  0.245700  0.290500  1.0  0.0316
  C  C216  1  0.980300  0.258300  0.169600  1.0  -0.2041
  C  C217  1  0.914600  0.225000  0.123500  1.0  0.1761
  C  C218  1  0.960400  0.166700  0.305900  1.0  0.179
  C  C219  1  0.027400  0.199000  0.360500  1.0  -0.1447
  C  C220  1  0.256400  0.344070  0.252300  1.0  0.6297
  C  C221  1  0.853900  0.000000  0.124200  1.0  0.599
  C  C222  1  0.766800  0.000000  0.080500  1.0  0.6078
  C  C223  1  0.353900  0.500000  0.124200  1.0  0.599
  C  C224  1  0.266800  0.500000  0.080500  1.0  0.6078
  N  N225  1  0.217530  0.138190  0.072800  1.0  -0.3258
  N  N226  1  0.359100  0.208580  0.527700  1.0  -0.4364
  N  N227  1  0.596120  0.320940  0.811900  1.0  -0.313
  N  N228  1  0.717530  0.638190  0.072800  1.0  -0.3258
  N  N229  1  0.859100  0.708580  0.527700  1.0  -0.4364
  N  N230  1  0.096120  0.820940  0.811900  1.0  -0.3128
  N  N231  1  0.217530  0.861810  0.072800  1.0  -0.3239
  N  N232  1  0.359100  0.791420  0.527700  1.0  -0.4364
  N  N233  1  0.596120  0.679060  0.811900  1.0  -0.3128
  N  N234  1  0.717530  0.361810  0.072800  1.0  -0.3239
  N  N235  1  0.859100  0.291420  0.527700  1.0  -0.4364
  N  N236  1  0.096120  0.179060  0.811900  1.0  -0.3126
  N  N237  1  0.782470  0.138190  0.927200  1.0  -0.325
  N  N238  1  0.640900  0.208580  0.472300  1.0  -0.4391
  N  N239  1  0.403880  0.320940  0.188100  1.0  -0.3135
  N  N240  1  0.282470  0.638190  0.927200  1.0  -0.325
  N  N241  1  0.140900  0.708580  0.472300  1.0  -0.4391
  N  N242  1  0.903880  0.820940  0.188100  1.0  -0.3136
  N  N243  1  0.782470  0.861810  0.927200  1.0  -0.3235
  N  N244  1  0.640900  0.791420  0.472300  1.0  -0.437
  N  N245  1  0.403880  0.679060  0.188100  1.0  -0.3136
  N  N246  1  0.282470  0.361810  0.927200  1.0  -0.3235
  N  N247  1  0.140900  0.291420  0.472300  1.0  -0.437
  N  N248  1  0.903880  0.179060  0.188100  1.0  -0.3136
  O  O249  1  0.188290  0.120790  0.699000  1.0  -0.5649
  O  O250  1  0.266290  0.177000  0.860200  1.0  -0.5601
  O  O251  1  0.264180  0.050310  0.935000  1.0  -0.57
  O  O252  1  0.114170  0.050050  0.859700  1.0  -0.573
  O  O253  1  0.688290  0.620790  0.699000  1.0  -0.5649
  O  O254  1  0.766290  0.677000  0.860200  1.0  -0.5601
  O  O255  1  0.764180  0.550310  0.935000  1.0  -0.57
  O  O256  1  0.614170  0.550050  0.859700  1.0  -0.573
  O  O257  1  0.188290  0.879210  0.699000  1.0  -0.5647
  O  O258  1  0.266290  0.823000  0.860200  1.0  -0.5602
  O  O259  1  0.264180  0.949690  0.935000  1.0  -0.5699
  O  O260  1  0.114170  0.949950  0.859700  1.0  -0.5741
  O  O261  1  0.688290  0.379210  0.699000  1.0  -0.5647
  O  O262  1  0.766290  0.323000  0.860200  1.0  -0.5602
  O  O263  1  0.764180  0.449690  0.935000  1.0  -0.5699
  O  O264  1  0.614170  0.449950  0.859700  1.0  -0.5741
  O  O265  1  0.811710  0.120790  0.301000  1.0  -0.5645
  O  O266  1  0.733710  0.177000  0.139800  1.0  -0.5596
  O  O267  1  0.735820  0.050310  0.065000  1.0  -0.5714
  O  O268  1  0.885830  0.050050  0.140300  1.0  -0.5745
  O  O269  1  0.311710  0.620790  0.301000  1.0  -0.5645
  O  O270  1  0.233710  0.677000  0.139800  1.0  -0.5596
  O  O271  1  0.235820  0.550310  0.065000  1.0  -0.5714
  O  O272  1  0.385830  0.550050  0.140300  1.0  -0.5745
  O  O273  1  0.811710  0.879210  0.301000  1.0  -0.5634
  O  O274  1  0.733710  0.823000  0.139800  1.0  -0.5592
  O  O275  1  0.735820  0.949690  0.065000  1.0  -0.5711
  O  O276  1  0.885830  0.949950  0.140300  1.0  -0.5753
  O  O277  1  0.311710  0.379210  0.301000  1.0  -0.5634
  O  O278  1  0.233710  0.323000  0.139800  1.0  -0.5592
  O  O279  1  0.235820  0.449690  0.065000  1.0  -0.5711
  O  O280  1  0.385830  0.449950  0.140300  1.0  -0.5753
