# generated using pymatgen
data_Ag4H30(C14N3)3
_symmetry_space_group_name_H-M   'P 1'
_cell_length_a   21.59900000
_cell_length_b   21.59900000
_cell_length_c   12.19600000
_cell_angle_alpha   90.00000000
_cell_angle_beta   90.00000000
_cell_angle_gamma   120.00000000
_symmetry_Int_Tables_number   1
_chemical_formula_structural   Ag4H30(C14N3)3
_chemical_formula_sum   'Ag16 H120 C168 N36'
_cell_volume   4927.37183009
_cell_formula_units_Z   4
loop_
 _symmetry_equiv_pos_site_id
 _symmetry_equiv_pos_as_xyz
  1  'x, y, z'
loop_
 _atom_site_type_symbol
 _atom_site_label
 _atom_site_symmetry_multiplicity
 _atom_site_fract_x
 _atom_site_fract_y
 _atom_site_fract_z
 _atom_site_occupancy
 _atom_site_charge
  Ag  Ag1  1  0.333333  0.666667  0.601300  1.0  0.2825
  Ag  Ag2  1  0.666667  0.333333  0.101300  1.0  0.2825
  Ag  Ag3  1  0.666667  0.333333  0.398700  1.0  0.2823
  Ag  Ag4  1  0.333333  0.666667  0.898700  1.0  0.2823
  Ag  Ag5  1  0.259810  0.519620  0.750000  1.0  0.304
  Ag  Ag6  1  0.480380  0.740190  0.750000  1.0  0.3031
  Ag  Ag7  1  0.259810  0.740190  0.750000  1.0  0.3039
  Ag  Ag8  1  0.740190  0.480380  0.250000  1.0  0.3031
  Ag  Ag9  1  0.519620  0.259810  0.250000  1.0  0.3041
  Ag  Ag10  1  0.740190  0.259810  0.250000  1.0  0.3034
  Ag  Ag11  1  0.501210  0.501210  0.000000  1.0  0.3264
  Ag  Ag12  1  0.498790  0.000000  0.000000  1.0  0.3258
  Ag  Ag13  1  0.000000  0.498790  0.000000  1.0  0.3266
  Ag  Ag14  1  0.498790  0.498790  0.500000  1.0  0.3268
  Ag  Ag15  1  0.501210  0.000000  0.500000  1.0  0.3259
  Ag  Ag16  1  0.000000  0.501210  0.500000  1.0  0.3267
  H  H17  1  0.984500  0.434800  0.712700  1.0  0.1106
  H  H18  1  0.914700  0.320700  0.776200  1.0  0.1067
  H  H19  1  0.948900  0.240000  0.752200  1.0  0.0775
  H  H20  1  0.063600  0.272100  0.708300  1.0  0.1284
  H  H21  1  0.136500  0.389000  0.634500  1.0  0.0984
  H  H22  1  0.069200  0.653600  0.581900  1.0  0.097
  H  H23  1  0.080600  0.760300  0.519600  1.0  0.1164
  H  H24  1  0.182500  0.836800  0.403900  1.0  0.1043
  H  H25  1  0.264300  0.805300  0.365800  1.0  0.0908
  H  H26  1  0.255900  0.702200  0.435800  1.0  0.109
  H  H27  1  0.565200  0.549700  0.712700  1.0  0.1099
  H  H28  1  0.679300  0.594000  0.776200  1.0  0.1059
  H  H29  1  0.760000  0.708900  0.752200  1.0  0.0782
  H  H30  1  0.727900  0.791500  0.708300  1.0  0.1277
  H  H31  1  0.611000  0.747500  0.634500  1.0  0.0977
  H  H32  1  0.346400  0.415600  0.581900  1.0  0.0966
  H  H33  1  0.239700  0.320300  0.519600  1.0  0.1161
  H  H34  1  0.163200  0.345700  0.403900  1.0  0.1045
  H  H35  1  0.194700  0.459000  0.365800  1.0  0.0915
  H  H36  1  0.297800  0.553700  0.435800  1.0  0.1075
  H  H37  1  0.450300  0.015500  0.712700  1.0  0.1106
  H  H38  1  0.406000  0.085300  0.776200  1.0  0.1065
  H  H39  1  0.291100  0.051100  0.752200  1.0  0.0753
  H  H40  1  0.208500  0.936400  0.708300  1.0  0.1311
  H  H41  1  0.252500  0.863500  0.634500  1.0  0.099
  H  H42  1  0.584400  0.930800  0.581900  1.0  0.0967
  H  H43  1  0.679700  0.919400  0.519600  1.0  0.1151
  H  H44  1  0.654300  0.817500  0.403900  1.0  0.1044
  H  H45  1  0.541000  0.735700  0.365800  1.0  0.0913
  H  H46  1  0.446300  0.744100  0.435800  1.0  0.1066
  H  H47  1  0.015500  0.565200  0.212700  1.0  0.1107
  H  H48  1  0.085300  0.679300  0.276200  1.0  0.1072
  H  H49  1  0.051100  0.760000  0.252200  1.0  0.0764
  H  H50  1  0.936400  0.727900  0.208300  1.0  0.1296
  H  H51  1  0.863500  0.611000  0.134500  1.0  0.0983
  H  H52  1  0.930800  0.346400  0.081900  1.0  0.0969
  H  H53  1  0.919400  0.239700  0.019600  1.0  0.1163
  H  H54  1  0.817500  0.163200  0.903900  1.0  0.1038
  H  H55  1  0.735700  0.194700  0.865800  1.0  0.0914
  H  H56  1  0.744100  0.297800  0.935800  1.0  0.1105
  H  H57  1  0.434800  0.450300  0.212700  1.0  0.1101
  H  H58  1  0.320700  0.406000  0.276200  1.0  0.1067
  H  H59  1  0.240000  0.291100  0.252200  1.0  0.0766
  H  H60  1  0.272100  0.208500  0.208300  1.0  0.1285
  H  H61  1  0.389000  0.252500  0.134500  1.0  0.0977
  H  H62  1  0.653600  0.584400  0.081900  1.0  0.0968
  H  H63  1  0.760300  0.679700  0.019600  1.0  0.1154
  H  H64  1  0.836800  0.654300  0.903900  1.0  0.1036
  H  H65  1  0.805300  0.541000  0.865800  1.0  0.091
  H  H66  1  0.702200  0.446300  0.935800  1.0  0.1082
  H  H67  1  0.549700  0.984500  0.212700  1.0  0.1106
  H  H68  1  0.594000  0.914700  0.276200  1.0  0.1063
  H  H69  1  0.708900  0.948900  0.252200  1.0  0.0768
  H  H70  1  0.791500  0.063600  0.208300  1.0  0.1294
  H  H71  1  0.747500  0.136500  0.134500  1.0  0.0988
  H  H72  1  0.415600  0.069200  0.081900  1.0  0.0968
  H  H73  1  0.320300  0.080600  0.019600  1.0  0.1152
  H  H74  1  0.345700  0.182500  0.903900  1.0  0.1037
  H  H75  1  0.459000  0.264300  0.865800  1.0  0.0918
  H  H76  1  0.553700  0.255900  0.935800  1.0  0.1067
  H  H77  1  0.434800  0.984500  0.287300  1.0  0.1101
  H  H78  1  0.320700  0.914700  0.223800  1.0  0.1065
  H  H79  1  0.240000  0.948900  0.247800  1.0  0.0758
  H  H80  1  0.272100  0.063600  0.291700  1.0  0.1313
  H  H81  1  0.389000  0.136500  0.365500  1.0  0.0987
  H  H82  1  0.653600  0.069200  0.418100  1.0  0.0961
  H  H83  1  0.760300  0.080600  0.480400  1.0  0.1154
  H  H84  1  0.836800  0.182500  0.596100  1.0  0.1039
  H  H85  1  0.805300  0.264300  0.634200  1.0  0.0917
  H  H86  1  0.702200  0.255900  0.564200  1.0  0.1069
  H  H87  1  0.549700  0.565200  0.287300  1.0  0.1104
  H  H88  1  0.594000  0.679300  0.223800  1.0  0.1069
  H  H89  1  0.708900  0.760000  0.247800  1.0  0.0773
  H  H90  1  0.791500  0.727900  0.291700  1.0  0.1288
  H  H91  1  0.747500  0.611000  0.365500  1.0  0.0981
  H  H92  1  0.415600  0.346400  0.418100  1.0  0.0965
  H  H93  1  0.320300  0.239700  0.480400  1.0  0.1163
  H  H94  1  0.345700  0.163200  0.596100  1.0  0.1039
  H  H95  1  0.459000  0.194700  0.634200  1.0  0.0917
  H  H96  1  0.553700  0.297800  0.564200  1.0  0.1089
  H  H97  1  0.015500  0.450300  0.287300  1.0  0.11
  H  H98  1  0.085300  0.406000  0.223800  1.0  0.1067
  H  H99  1  0.051100  0.291100  0.247800  1.0  0.0786
  H  H100  1  0.936400  0.208500  0.291700  1.0  0.1277
  H  H101  1  0.863500  0.252500  0.365500  1.0  0.098
  H  H102  1  0.930800  0.584400  0.418100  1.0  0.0961
  H  H103  1  0.919400  0.679700  0.480400  1.0  0.1156
  H  H104  1  0.817500  0.654300  0.596100  1.0  0.1038
  H  H105  1  0.735700  0.541000  0.634200  1.0  0.0922
  H  H106  1  0.744100  0.446300  0.564200  1.0  0.1081
  H  H107  1  0.565200  0.015500  0.787300  1.0  0.1107
  H  H108  1  0.679300  0.085300  0.723800  1.0  0.1066
  H  H109  1  0.760000  0.051100  0.747800  1.0  0.0769
  H  H110  1  0.727900  0.936400  0.791700  1.0  0.1294
  H  H111  1  0.611000  0.863500  0.865500  1.0  0.0989
  H  H112  1  0.346400  0.930800  0.918100  1.0  0.0961
  H  H113  1  0.239700  0.919400  0.980400  1.0  0.1156
  H  H114  1  0.163200  0.817500  0.096100  1.0  0.1039
  H  H115  1  0.194700  0.735700  0.134200  1.0  0.092
  H  H116  1  0.297800  0.744100  0.064200  1.0  0.107
  H  H117  1  0.450300  0.434800  0.787300  1.0  0.1104
  H  H118  1  0.406000  0.320700  0.723800  1.0  0.107
  H  H119  1  0.291100  0.240000  0.747800  1.0  0.0766
  H  H120  1  0.208500  0.272100  0.791700  1.0  0.129
  H  H121  1  0.252500  0.389000  0.865500  1.0  0.0983
  H  H122  1  0.584400  0.653600  0.918100  1.0  0.0964
  H  H123  1  0.679700  0.760300  0.980400  1.0  0.1167
  H  H124  1  0.654300  0.836800  0.096100  1.0  0.1032
  H  H125  1  0.541000  0.805300  0.134200  1.0  0.0917
  H  H126  1  0.446300  0.702200  0.064200  1.0  0.1097
  H  H127  1  0.984500  0.549700  0.787300  1.0  0.1097
  H  H128  1  0.914700  0.594000  0.723800  1.0  0.1064
  H  H129  1  0.948900  0.708900  0.747800  1.0  0.0768
  H  H130  1  0.063600  0.791500  0.791700  1.0  0.1286
  H  H131  1  0.136500  0.747500  0.865500  1.0  0.0971
  H  H132  1  0.069200  0.415600  0.918100  1.0  0.096
  H  H133  1  0.080600  0.320300  0.980400  1.0  0.1159
  H  H134  1  0.182500  0.345700  0.096100  1.0  0.1044
  H  H135  1  0.264300  0.459000  0.134200  1.0  0.0915
  H  H136  1  0.255900  0.553700  0.064200  1.0  0.1075
  C  C137  1  0.117600  0.499200  0.634400  1.0  0.2956
  C  C138  1  0.158000  0.602700  0.567900  1.0  0.4282
  C  C139  1  0.070300  0.425500  0.666667  1.0  -0.0171
  C  C140  1  0.001300  0.402700  0.709200  1.0  -0.1123
  C  C141  1  0.959000  0.334300  0.745200  1.0  -0.0987
  C  C142  1  0.981100  0.287500  0.735900  1.0  -0.0811
  C  C143  1  0.047400  0.304600  0.704200  1.0  -0.1466
  C  C144  1  0.091900  0.376100  0.663600  1.0  -0.1103
  C  C145  1  0.162700  0.667400  0.516500  1.0  -0.0918
  C  C146  1  0.108700  0.684800  0.540400  1.0  -0.0603
  C  C147  1  0.114700  0.747600  0.502200  1.0  -0.1645
  C  C148  1  0.177400  0.794500  0.432100  1.0  -0.089
  C  C149  1  0.225600  0.775800  0.410300  1.0  -0.0798
  C  C150  1  0.220400  0.713300  0.451700  1.0  -0.1052
  C  C151  1  0.500800  0.618400  0.634400  1.0  0.2951
  C  C152  1  0.397300  0.555300  0.567900  1.0  0.4291
  C  C153  1  0.574500  0.644800  0.666667  1.0  -0.0178
  C  C154  1  0.597300  0.598600  0.709200  1.0  -0.1141
  C  C155  1  0.665700  0.624700  0.745200  1.0  -0.0966
  C  C156  1  0.712500  0.693600  0.735900  1.0  -0.0797
  C  C157  1  0.695400  0.742800  0.704200  1.0  -0.1459
  C  C158  1  0.623900  0.715800  0.663600  1.0  -0.1092
  C  C159  1  0.332600  0.495300  0.516500  1.0  -0.0914
  C  C160  1  0.315200  0.423900  0.540400  1.0  -0.0626
  C  C161  1  0.252400  0.367100  0.502200  1.0  -0.1624
  C  C162  1  0.205500  0.382900  0.432100  1.0  -0.0917
  C  C163  1  0.224200  0.449800  0.410300  1.0  -0.0785
  C  C164  1  0.286700  0.507100  0.451700  1.0  -0.1082
  C  C165  1  0.381600  0.882400  0.634400  1.0  0.2955
  C  C166  1  0.444700  0.842000  0.567900  1.0  0.4248
  C  C167  1  0.355200  0.929700  0.666667  1.0  -0.0179
  C  C168  1  0.401400  0.998700  0.709200  1.0  -0.1171
  C  C169  1  0.375300  0.041000  0.745200  1.0  -0.0968
  C  C170  1  0.306400  0.018900  0.735900  1.0  -0.0807
  C  C171  1  0.257200  0.952600  0.704200  1.0  -0.146
  C  C172  1  0.284200  0.908100  0.663600  1.0  -0.1076
  C  C173  1  0.504700  0.837300  0.516500  1.0  -0.0929
  C  C174  1  0.576100  0.891300  0.540400  1.0  -0.0626
  C  C175  1  0.632900  0.885300  0.502200  1.0  -0.1632
  C  C176  1  0.617100  0.822600  0.432100  1.0  -0.0947
  C  C177  1  0.550200  0.774400  0.410300  1.0  -0.0788
  C  C178  1  0.492900  0.779600  0.451700  1.0  -0.1068
  C  C179  1  0.882400  0.500800  0.134400  1.0  0.2958
  C  C180  1  0.842000  0.397300  0.067900  1.0  0.4276
  C  C181  1  0.929700  0.574500  0.166700  1.0  -0.0177
  C  C182  1  0.998700  0.597300  0.209200  1.0  -0.1139
  C  C183  1  0.041000  0.665700  0.245200  1.0  -0.0976
  C  C184  1  0.018900  0.712500  0.235900  1.0  -0.0773
  C  C185  1  0.952600  0.695400  0.204200  1.0  -0.1461
  C  C186  1  0.908100  0.623900  0.163600  1.0  -0.1095
  C  C187  1  0.837300  0.332600  0.016500  1.0  -0.0918
  C  C188  1  0.891300  0.315200  0.040400  1.0  -0.0609
  C  C189  1  0.885300  0.252400  0.002200  1.0  -0.1656
  C  C190  1  0.822600  0.205500  0.932100  1.0  -0.092
  C  C191  1  0.774400  0.224200  0.910300  1.0  -0.0806
  C  C192  1  0.779600  0.286700  0.951700  1.0  -0.1058
  C  C193  1  0.499200  0.381600  0.134400  1.0  0.2943
  C  C194  1  0.602700  0.444700  0.067900  1.0  0.4295
  C  C195  1  0.425500  0.355200  0.166700  1.0  -0.0187
  C  C196  1  0.402700  0.401400  0.209200  1.0  -0.1155
  C  C197  1  0.334300  0.375300  0.245200  1.0  -0.0957
  C  C198  1  0.287500  0.306400  0.235900  1.0  -0.0791
  C  C199  1  0.304600  0.257200  0.204200  1.0  -0.1458
  C  C200  1  0.376100  0.284200  0.163600  1.0  -0.1081
  C  C201  1  0.667400  0.504700  0.016500  1.0  -0.0917
  C  C202  1  0.684800  0.576100  0.040400  1.0  -0.0623
  C  C203  1  0.747600  0.632900  0.002200  1.0  -0.1623
  C  C204  1  0.794500  0.617100  0.932100  1.0  -0.0896
  C  C205  1  0.775800  0.550200  0.910300  1.0  -0.0785
  C  C206  1  0.713300  0.492900  0.951700  1.0  -0.1082
  C  C207  1  0.618400  0.117600  0.134400  1.0  0.2951
  C  C208  1  0.555300  0.158000  0.067900  1.0  0.4275
  C  C209  1  0.644800  0.070300  0.166700  1.0  -0.0182
  C  C210  1  0.598600  0.001300  0.209200  1.0  -0.1167
  C  C211  1  0.624700  0.959000  0.245200  1.0  -0.0963
  C  C212  1  0.693600  0.981100  0.235900  1.0  -0.0776
  C  C213  1  0.742800  0.047400  0.204200  1.0  -0.1451
  C  C214  1  0.715800  0.091900  0.163600  1.0  -0.1094
  C  C215  1  0.495300  0.162700  0.016500  1.0  -0.0918
  C  C216  1  0.423900  0.108700  0.040400  1.0  -0.062
  C  C217  1  0.367100  0.114700  0.002200  1.0  -0.1632
  C  C218  1  0.382900  0.177400  0.932100  1.0  -0.0923
  C  C219  1  0.449800  0.225600  0.910300  1.0  -0.0781
  C  C220  1  0.507100  0.220400  0.951700  1.0  -0.1063
  C  C221  1  0.499200  0.117600  0.365600  1.0  0.296
  C  C222  1  0.602700  0.158000  0.432100  1.0  0.4249
  C  C223  1  0.425500  0.070300  0.333333  1.0  -0.0175
  C  C224  1  0.402700  0.001300  0.290800  1.0  -0.1174
  C  C225  1  0.334300  0.959000  0.254800  1.0  -0.0965
  C  C226  1  0.287500  0.981100  0.264100  1.0  -0.0801
  C  C227  1  0.304600  0.047400  0.295800  1.0  -0.1457
  C  C228  1  0.376100  0.091900  0.336400  1.0  -0.1067
  C  C229  1  0.667400  0.162700  0.483500  1.0  -0.0924
  C  C230  1  0.684800  0.108700  0.459600  1.0  -0.0629
  C  C231  1  0.747600  0.114700  0.497800  1.0  -0.1639
  C  C232  1  0.794500  0.177400  0.567900  1.0  -0.0963
  C  C233  1  0.775800  0.225600  0.589700  1.0  -0.0773
  C  C234  1  0.713300  0.220400  0.548300  1.0  -0.1066
  C  C235  1  0.618400  0.500800  0.365600  1.0  0.2967
  C  C236  1  0.555300  0.397300  0.432100  1.0  0.4288
  C  C237  1  0.644800  0.574500  0.333333  1.0  -0.0168
  C  C238  1  0.598600  0.597300  0.290800  1.0  -0.1124
  C  C239  1  0.624700  0.665700  0.254800  1.0  -0.0982
  C  C240  1  0.693600  0.712500  0.264100  1.0  -0.0785
  C  C241  1  0.742800  0.695400  0.295800  1.0  -0.1456
  C  C242  1  0.715800  0.623900  0.336400  1.0  -0.1097
  C  C243  1  0.495300  0.332600  0.483500  1.0  -0.0915
  C  C244  1  0.423900  0.315200  0.459600  1.0  -0.0605
  C  C245  1  0.367100  0.252400  0.497800  1.0  -0.1649
  C  C246  1  0.382900  0.205500  0.567900  1.0  -0.0915
  C  C247  1  0.449800  0.224200  0.589700  1.0  -0.0792
  C  C248  1  0.507100  0.286700  0.548300  1.0  -0.1058
  C  C249  1  0.882400  0.381600  0.365600  1.0  0.2955
  C  C250  1  0.842000  0.444700  0.432100  1.0  0.43
  C  C251  1  0.929700  0.355200  0.333333  1.0  -0.017
  C  C252  1  0.998700  0.401400  0.290800  1.0  -0.115
  C  C253  1  0.041000  0.375300  0.254800  1.0  -0.096
  C  C254  1  0.018900  0.306400  0.264100  1.0  -0.0802
  C  C255  1  0.952600  0.257200  0.295800  1.0  -0.1453
  C  C256  1  0.908100  0.284200  0.336400  1.0  -0.109
  C  C257  1  0.837300  0.504700  0.483500  1.0  -0.0922
  C  C258  1  0.891300  0.576100  0.459600  1.0  -0.0633
  C  C259  1  0.885300  0.632900  0.497800  1.0  -0.1622
  C  C260  1  0.822600  0.617100  0.567900  1.0  -0.0889
  C  C261  1  0.774400  0.550200  0.589700  1.0  -0.0778
  C  C262  1  0.779600  0.492900  0.548300  1.0  -0.1079
  C  C263  1  0.500800  0.882400  0.865600  1.0  0.2958
  C  C264  1  0.397300  0.842000  0.932100  1.0  0.4285
  C  C265  1  0.574500  0.929700  0.833300  1.0  -0.0177
  C  C266  1  0.597300  0.998700  0.790800  1.0  -0.1171
  C  C267  1  0.665700  0.041000  0.754800  1.0  -0.0961
  C  C268  1  0.712500  0.018900  0.764100  1.0  -0.0778
  C  C269  1  0.695400  0.952600  0.795800  1.0  -0.1451
  C  C270  1  0.623900  0.908100  0.836400  1.0  -0.1092
  C  C271  1  0.332600  0.837300  0.983500  1.0  -0.0917
  C  C272  1  0.315200  0.891300  0.959600  1.0  -0.0621
  C  C273  1  0.252400  0.885300  0.997800  1.0  -0.1629
  C  C274  1  0.205500  0.822600  0.067900  1.0  -0.0919
  C  C275  1  0.224200  0.774400  0.089700  1.0  -0.0785
  C  C276  1  0.286700  0.779600  0.048300  1.0  -0.1061
  C  C277  1  0.381600  0.499200  0.865600  1.0  0.296
  C  C278  1  0.444700  0.602700  0.932100  1.0  0.4284
  C  C279  1  0.355200  0.425500  0.833300  1.0  -0.0172
  C  C280  1  0.401400  0.402700  0.790800  1.0  -0.1143
  C  C281  1  0.375300  0.334300  0.754800  1.0  -0.0979
  C  C282  1  0.306400  0.287500  0.764100  1.0  -0.0792
  C  C283  1  0.257200  0.304600  0.795800  1.0  -0.146
  C  C284  1  0.284200  0.376100  0.836400  1.0  -0.1097
  C  C285  1  0.504700  0.667400  0.983500  1.0  -0.0921
  C  C286  1  0.576100  0.684800  0.959600  1.0  -0.0614
  C  C287  1  0.632900  0.747600  0.997800  1.0  -0.1657
  C  C288  1  0.617100  0.794500  0.067900  1.0  -0.0904
  C  C289  1  0.550200  0.775800  0.089700  1.0  -0.0803
  C  C290  1  0.492900  0.713300  0.048300  1.0  -0.1048
  C  C291  1  0.117600  0.618400  0.865600  1.0  0.2949
  C  C292  1  0.158000  0.555300  0.932100  1.0  0.4297
  C  C293  1  0.070300  0.644800  0.833300  1.0  -0.0189
  C  C294  1  0.001300  0.598600  0.790800  1.0  -0.1149
  C  C295  1  0.959000  0.624700  0.754800  1.0  -0.0961
  C  C296  1  0.981100  0.693600  0.764100  1.0  -0.0778
  C  C297  1  0.047400  0.742800  0.795800  1.0  -0.145
  C  C298  1  0.091900  0.715800  0.836400  1.0  -0.1083
  C  C299  1  0.162700  0.495300  0.983500  1.0  -0.0905
  C  C300  1  0.108700  0.423900  0.959600  1.0  -0.0624
  C  C301  1  0.114700  0.367100  0.997800  1.0  -0.1625
  C  C302  1  0.177400  0.382900  0.067900  1.0  -0.0941
  C  C303  1  0.225600  0.449800  0.089700  1.0  -0.0773
  C  C304  1  0.220400  0.507100  0.048300  1.0  -0.1075
  N  N305  1  0.214000  0.602700  0.607300  1.0  -0.2998
  N  N306  1  0.187800  0.534100  0.650100  1.0  -0.2776
  N  N307  1  0.097200  0.543400  0.582900  1.0  -0.4363
  N  N308  1  0.397300  0.611300  0.607300  1.0  -0.3002
  N  N309  1  0.465900  0.653700  0.650100  1.0  -0.2759
  N  N310  1  0.456600  0.553800  0.582900  1.0  -0.4362
  N  N311  1  0.388700  0.786000  0.607300  1.0  -0.2999
  N  N312  1  0.346300  0.812200  0.650100  1.0  -0.2749
  N  N313  1  0.446200  0.902800  0.582900  1.0  -0.4366
  N  N314  1  0.786000  0.397300  0.107300  1.0  -0.3007
  N  N315  1  0.812200  0.465900  0.150100  1.0  -0.2789
  N  N316  1  0.902800  0.456600  0.082900  1.0  -0.4348
  N  N317  1  0.602700  0.388700  0.107300  1.0  -0.2988
  N  N318  1  0.534100  0.346300  0.150100  1.0  -0.2748
  N  N319  1  0.543400  0.446200  0.082900  1.0  -0.4353
  N  N320  1  0.611300  0.214000  0.107300  1.0  -0.3003
  N  N321  1  0.653700  0.187800  0.150100  1.0  -0.275
  N  N322  1  0.553800  0.097200  0.082900  1.0  -0.4361
  N  N323  1  0.602700  0.214000  0.392700  1.0  -0.3
  N  N324  1  0.534100  0.187800  0.349900  1.0  -0.2744
  N  N325  1  0.543400  0.097200  0.417100  1.0  -0.4357
  N  N326  1  0.611300  0.397300  0.392700  1.0  -0.2985
  N  N327  1  0.653700  0.465900  0.349900  1.0  -0.2772
  N  N328  1  0.553800  0.456600  0.417100  1.0  -0.4369
  N  N329  1  0.786000  0.388700  0.392700  1.0  -0.2995
  N  N330  1  0.812200  0.346300  0.349900  1.0  -0.2758
  N  N331  1  0.902800  0.446200  0.417100  1.0  -0.4372
  N  N332  1  0.397300  0.786000  0.892700  1.0  -0.2997
  N  N333  1  0.465900  0.812200  0.849900  1.0  -0.2741
  N  N334  1  0.456600  0.902800  0.917100  1.0  -0.4375
  N  N335  1  0.388700  0.602700  0.892700  1.0  -0.2998
  N  N336  1  0.346300  0.534100  0.849900  1.0  -0.2782
  N  N337  1  0.446200  0.543400  0.917100  1.0  -0.4347
  N  N338  1  0.214000  0.611300  0.892700  1.0  -0.2995
  N  N339  1  0.187800  0.653700  0.849900  1.0  -0.2745
  N  N340  1  0.097200  0.553800  0.917100  1.0  -0.4373
