# generated using pymatgen
data_Ag8H60C84(N7O3)3
_symmetry_space_group_name_H-M   'P 1'
_cell_length_a   12.02000000
_cell_length_b   21.79000000
_cell_length_c   21.79000000
_cell_angle_alpha   120.00000000
_cell_angle_beta   90.00000000
_cell_angle_gamma   90.00000000
_symmetry_Int_Tables_number   1
_chemical_formula_structural   Ag8H60C84(N7O3)3
_chemical_formula_sum   'Ag16 H120 C168 N42 O18'
_cell_volume   4942.53279730
_cell_formula_units_Z   2
loop_
 _symmetry_equiv_pos_site_id
 _symmetry_equiv_pos_as_xyz
  1  'x, y, z'
loop_
 _atom_site_type_symbol
 _atom_site_label
 _atom_site_symmetry_multiplicity
 _atom_site_fract_x
 _atom_site_fract_y
 _atom_site_fract_z
 _atom_site_occupancy
 _atom_site_charge
  Ag  Ag1  1  0.250000  0.262420  0.737580  1.0  0.3326
  Ag  Ag2  1  0.250000  0.475160  0.737580  1.0  0.3328
  Ag  Ag3  1  0.250000  0.262420  0.524840  1.0  0.3333
  Ag  Ag4  1  0.750000  0.737580  0.262420  1.0  0.333
  Ag  Ag5  1  0.750000  0.524840  0.262420  1.0  0.3331
  Ag  Ag6  1  0.750000  0.737580  0.475160  1.0  0.3326
  Ag  Ag7  1  0.410020  0.333333  0.666667  1.0  0.3443
  Ag  Ag8  1  0.910020  0.666667  0.333333  1.0  0.3443
  Ag  Ag9  1  0.589980  0.666667  0.333333  1.0  0.3442
  Ag  Ag10  1  0.089980  0.333333  0.666667  1.0  0.3442
  Ag  Ag11  1  0.500000  0.500580  0.000000  1.0  0.3767
  Ag  Ag12  1  0.500000  0.499420  0.499420  1.0  0.3774
  Ag  Ag13  1  0.500000  0.000000  0.500580  1.0  0.3768
  Ag  Ag14  1  0.000000  0.499420  0.000000  1.0  0.3773
  Ag  Ag15  1  0.000000  0.500580  0.500580  1.0  0.3765
  Ag  Ag16  1  0.000000  0.000000  0.499420  1.0  0.3764
  H  H17  1  0.076300  0.068000  0.416100  1.0  0.1338
  H  H18  1  0.010700  0.077700  0.321200  1.0  0.1338
  H  H19  1  0.905000  0.175100  0.341300  1.0  0.1296
  H  H20  1  0.864800  0.262800  0.456400  1.0  0.1275
  H  H21  1  0.930300  0.253200  0.551300  1.0  0.1334
  H  H22  1  0.209200  0.991700  0.555100  1.0  0.1294
  H  H23  1  0.262000  0.918100  0.598500  1.0  0.1222
  H  H24  1  0.251800  0.958400  0.719000  1.0  0.1292
  H  H25  1  0.188700  0.072200  0.796200  1.0  0.1374
  H  H26  1  0.135900  0.145800  0.752800  1.0  0.134
  H  H27  1  0.076300  0.348100  0.932000  1.0  0.1332
  H  H28  1  0.010700  0.243500  0.922300  1.0  0.1338
  H  H29  1  0.905000  0.166200  0.824900  1.0  0.1316
  H  H30  1  0.864800  0.193600  0.737200  1.0  0.1271
  H  H31  1  0.930300  0.298100  0.746800  1.0  0.1355
  H  H32  1  0.209200  0.563400  0.008300  1.0  0.1276
  H  H33  1  0.262000  0.680400  0.081900  1.0  0.1227
  H  H34  1  0.251800  0.760600  0.041600  1.0  0.1286
  H  H35  1  0.188700  0.724000  0.927800  1.0  0.1394
  H  H36  1  0.135900  0.607000  0.854200  1.0  0.1338
  H  H37  1  0.076300  0.583900  0.651900  1.0  0.1342
  H  H38  1  0.010700  0.678800  0.756500  1.0  0.134
  H  H39  1  0.905000  0.658700  0.833800  1.0  0.1308
  H  H40  1  0.864800  0.543600  0.806400  1.0  0.1278
  H  H41  1  0.930300  0.448700  0.701900  1.0  0.1349
  H  H42  1  0.209200  0.444900  0.436600  1.0  0.1275
  H  H43  1  0.262000  0.401500  0.319600  1.0  0.1212
  H  H44  1  0.251800  0.281000  0.239400  1.0  0.1289
  H  H45  1  0.188700  0.203800  0.276000  1.0  0.1377
  H  H46  1  0.135900  0.247200  0.393000  1.0  0.133
  H  H47  1  0.576300  0.932000  0.583900  1.0  0.1337
  H  H48  1  0.510700  0.922300  0.678800  1.0  0.1338
  H  H49  1  0.405000  0.824900  0.658700  1.0  0.1284
  H  H50  1  0.364800  0.737200  0.543600  1.0  0.127
  H  H51  1  0.430300  0.746800  0.448700  1.0  0.1335
  H  H52  1  0.709200  0.008300  0.444900  1.0  0.1287
  H  H53  1  0.762000  0.081900  0.401500  1.0  0.1222
  H  H54  1  0.751800  0.041600  0.281000  1.0  0.1288
  H  H55  1  0.688700  0.927800  0.203800  1.0  0.1372
  H  H56  1  0.635900  0.854200  0.247200  1.0  0.1337
  H  H57  1  0.576300  0.651900  0.068000  1.0  0.1335
  H  H58  1  0.510700  0.756500  0.077700  1.0  0.1339
  H  H59  1  0.405000  0.833800  0.175100  1.0  0.1304
  H  H60  1  0.364800  0.806400  0.262800  1.0  0.1265
  H  H61  1  0.430300  0.701900  0.253200  1.0  0.1345
  H  H62  1  0.709200  0.436600  0.991700  1.0  0.1274
  H  H63  1  0.762000  0.319600  0.918100  1.0  0.1222
  H  H64  1  0.751800  0.239400  0.958400  1.0  0.129
  H  H65  1  0.688700  0.276000  0.072200  1.0  0.1401
  H  H66  1  0.635900  0.393000  0.145800  1.0  0.1338
  H  H67  1  0.576300  0.416100  0.348100  1.0  0.134
  H  H68  1  0.510700  0.321200  0.243500  1.0  0.1341
  H  H69  1  0.405000  0.341300  0.166200  1.0  0.1307
  H  H70  1  0.364800  0.456400  0.193600  1.0  0.1272
  H  H71  1  0.430300  0.551300  0.298100  1.0  0.1349
  H  H72  1  0.709200  0.555100  0.563400  1.0  0.1271
  H  H73  1  0.762000  0.598500  0.680400  1.0  0.1213
  H  H74  1  0.751800  0.719000  0.760600  1.0  0.1294
  H  H75  1  0.688700  0.796200  0.724000  1.0  0.1379
  H  H76  1  0.635900  0.752800  0.607000  1.0  0.1329
  H  H77  1  0.923700  0.651900  0.583900  1.0  0.1335
  H  H78  1  0.989300  0.756500  0.678800  1.0  0.1339
  H  H79  1  0.095000  0.833800  0.658700  1.0  0.1311
  H  H80  1  0.135200  0.806400  0.543600  1.0  0.1275
  H  H81  1  0.069700  0.701900  0.448700  1.0  0.1357
  H  H82  1  0.790800  0.436600  0.444900  1.0  0.1266
  H  H83  1  0.738000  0.319600  0.401500  1.0  0.1231
  H  H84  1  0.748200  0.239400  0.281000  1.0  0.1288
  H  H85  1  0.811300  0.276000  0.203800  1.0  0.1383
  H  H86  1  0.864100  0.393000  0.247200  1.0  0.1337
  H  H87  1  0.923700  0.416100  0.068000  1.0  0.1338
  H  H88  1  0.989300  0.321200  0.077700  1.0  0.1341
  H  H89  1  0.095000  0.341300  0.175100  1.0  0.1316
  H  H90  1  0.135200  0.456400  0.262800  1.0  0.1282
  H  H91  1  0.069700  0.551300  0.253200  1.0  0.1348
  H  H92  1  0.790800  0.555100  0.991700  1.0  0.1266
  H  H93  1  0.738000  0.598500  0.918100  1.0  0.1219
  H  H94  1  0.748200  0.719000  0.958400  1.0  0.1288
  H  H95  1  0.811300  0.796200  0.072200  1.0  0.137
  H  H96  1  0.864100  0.752800  0.145800  1.0  0.1327
  H  H97  1  0.923700  0.932000  0.348100  1.0  0.1333
  H  H98  1  0.989300  0.922300  0.243500  1.0  0.1343
  H  H99  1  0.095000  0.824900  0.166200  1.0  0.1299
  H  H100  1  0.135200  0.737200  0.193600  1.0  0.1279
  H  H101  1  0.069700  0.746800  0.298100  1.0  0.1336
  H  H102  1  0.790800  0.008300  0.563400  1.0  0.1285
  H  H103  1  0.738000  0.081900  0.680400  1.0  0.1228
  H  H104  1  0.748200  0.041600  0.760600  1.0  0.1288
  H  H105  1  0.811300  0.927800  0.724000  1.0  0.1372
  H  H106  1  0.864100  0.854200  0.607000  1.0  0.1338
  H  H107  1  0.423700  0.348100  0.416100  1.0  0.1333
  H  H108  1  0.489300  0.243500  0.321200  1.0  0.1338
  H  H109  1  0.595000  0.166200  0.341300  1.0  0.131
  H  H110  1  0.635200  0.193600  0.456400  1.0  0.1274
  H  H111  1  0.569700  0.298100  0.551300  1.0  0.1347
  H  H112  1  0.290800  0.563400  0.555100  1.0  0.1268
  H  H113  1  0.238000  0.680400  0.598500  1.0  0.1231
  H  H114  1  0.248200  0.760600  0.719000  1.0  0.1285
  H  H115  1  0.311300  0.724000  0.796200  1.0  0.139
  H  H116  1  0.364100  0.607000  0.752800  1.0  0.1333
  H  H117  1  0.423700  0.583900  0.932000  1.0  0.1339
  H  H118  1  0.489300  0.678800  0.922300  1.0  0.134
  H  H119  1  0.595000  0.658700  0.824900  1.0  0.1311
  H  H120  1  0.635200  0.543600  0.737200  1.0  0.1277
  H  H121  1  0.569700  0.448700  0.746800  1.0  0.1348
  H  H122  1  0.290800  0.444900  0.008300  1.0  0.1269
  H  H123  1  0.238000  0.401500  0.081900  1.0  0.1216
  H  H124  1  0.248200  0.281000  0.041600  1.0  0.1297
  H  H125  1  0.311300  0.203800  0.927800  1.0  0.1381
  H  H126  1  0.364100  0.247200  0.854200  1.0  0.1326
  H  H127  1  0.423700  0.068000  0.651900  1.0  0.1334
  H  H128  1  0.489300  0.077700  0.756500  1.0  0.1339
  H  H129  1  0.595000  0.175100  0.833800  1.0  0.1287
  H  H130  1  0.635200  0.262800  0.806400  1.0  0.127
  H  H131  1  0.569700  0.253200  0.701900  1.0  0.1336
  H  H132  1  0.290800  0.991700  0.436600  1.0  0.1286
  H  H133  1  0.238000  0.918100  0.319600  1.0  0.1228
  H  H134  1  0.248200  0.958400  0.239400  1.0  0.129
  H  H135  1  0.311300  0.072200  0.276000  1.0  0.1369
  H  H136  1  0.364100  0.145800  0.393000  1.0  0.1339
  C  C137  1  0.438000  0.449200  0.841200  1.0  0.3621
  C  C138  1  0.128700  0.119400  0.621400  1.0  0.2587
  C  C139  1  0.009800  0.159600  0.493100  1.0  0.0572
  C  C140  1  0.033900  0.107100  0.424200  1.0  -0.1019
  C  C141  1  0.994600  0.112900  0.367300  1.0  -0.0755
  C  C142  1  0.931300  0.171200  0.379300  1.0  -0.0781
  C  C143  1  0.907200  0.223800  0.448300  1.0  -0.0523
  C  C144  1  0.946400  0.218000  0.505200  1.0  -0.1094
  C  C145  1  0.167300  0.076000  0.649700  1.0  -0.0077
  C  C146  1  0.205100  0.007800  0.603400  1.0  -0.1083
  C  C147  1  0.236700  0.963700  0.629400  1.0  -0.0827
  C  C148  1  0.230600  0.987900  0.701600  1.0  -0.0546
  C  C149  1  0.192800  0.056000  0.747900  1.0  -0.0614
  C  C150  1  0.161200  0.100100  0.721900  1.0  -0.1056
  C  C151  1  0.438000  0.392000  0.550800  1.0  0.3611
  C  C152  1  0.128700  0.502000  0.880600  1.0  0.2592
  C  C153  1  0.009800  0.333500  0.840400  1.0  0.058
  C  C154  1  0.033900  0.317100  0.892900  1.0  -0.1027
  C  C155  1  0.994600  0.254400  0.887100  1.0  -0.0755
  C  C156  1  0.931300  0.208100  0.828800  1.0  -0.0754
  C  C157  1  0.907200  0.224500  0.776200  1.0  -0.0525
  C  C158  1  0.946400  0.287200  0.782000  1.0  -0.1102
  C  C159  1  0.167300  0.573700  0.924000  1.0  -0.0078
  C  C160  1  0.205100  0.595600  0.992200  1.0  -0.1081
  C  C161  1  0.236700  0.665700  0.036300  1.0  -0.0813
  C  C162  1  0.230600  0.713700  0.012100  1.0  -0.0555
  C  C163  1  0.192800  0.691900  0.944000  1.0  -0.0664
  C  C164  1  0.161200  0.621800  0.899900  1.0  -0.11
  C  C165  1  0.438000  0.158800  0.608000  1.0  0.3619
  C  C166  1  0.128700  0.378600  0.498000  1.0  0.2586
  C  C167  1  0.009800  0.506900  0.666500  1.0  0.0581
  C  C168  1  0.033900  0.575800  0.682900  1.0  -0.1029
  C  C169  1  0.994600  0.632700  0.745600  1.0  -0.0732
  C  C170  1  0.931300  0.620700  0.791900  1.0  -0.0736
  C  C171  1  0.907200  0.551700  0.775500  1.0  -0.0538
  C  C172  1  0.946400  0.494800  0.712800  1.0  -0.1105
  C  C173  1  0.167300  0.350300  0.426300  1.0  -0.0077
  C  C174  1  0.205100  0.396600  0.404400  1.0  -0.1108
  C  C175  1  0.236700  0.370600  0.334300  1.0  -0.0831
  C  C176  1  0.230600  0.298400  0.286300  1.0  -0.0572
  C  C177  1  0.192800  0.252100  0.308100  1.0  -0.0671
  C  C178  1  0.161200  0.278100  0.378200  1.0  -0.1048
  C  C179  1  0.938000  0.550800  0.158800  1.0  0.3618
  C  C180  1  0.628700  0.880600  0.378600  1.0  0.2586
  C  C181  1  0.509800  0.840400  0.506900  1.0  0.0578
  C  C182  1  0.533900  0.892900  0.575800  1.0  -0.1015
  C  C183  1  0.494600  0.887100  0.632700  1.0  -0.0737
  C  C184  1  0.431300  0.828800  0.620700  1.0  -0.0752
  C  C185  1  0.407200  0.776200  0.551700  1.0  -0.053
  C  C186  1  0.446400  0.782000  0.494800  1.0  -0.1075
  C  C187  1  0.667300  0.924000  0.350300  1.0  -0.0079
  C  C188  1  0.705100  0.992200  0.396600  1.0  -0.1077
  C  C189  1  0.736700  0.036300  0.370600  1.0  -0.0826
  C  C190  1  0.730600  0.012100  0.298400  1.0  -0.0526
  C  C191  1  0.692800  0.944000  0.252100  1.0  -0.0612
  C  C192  1  0.661200  0.899900  0.278100  1.0  -0.1057
  C  C193  1  0.938000  0.608000  0.449200  1.0  0.3615
  C  C194  1  0.628700  0.498000  0.119400  1.0  0.2588
  C  C195  1  0.509800  0.666500  0.159600  1.0  0.0587
  C  C196  1  0.533900  0.682900  0.107100  1.0  -0.1031
  C  C197  1  0.494600  0.745600  0.112900  1.0  -0.0783
  C  C198  1  0.431300  0.791900  0.171200  1.0  -0.0744
  C  C199  1  0.407200  0.775500  0.223800  1.0  -0.0543
  C  C200  1  0.446400  0.712800  0.218000  1.0  -0.1107
  C  C201  1  0.667300  0.426300  0.076000  1.0  -0.0077
  C  C202  1  0.705100  0.404400  0.007800  1.0  -0.1084
  C  C203  1  0.736700  0.334300  0.963700  1.0  -0.0829
  C  C204  1  0.730600  0.286300  0.987900  1.0  -0.0578
  C  C205  1  0.692800  0.308100  0.056000  1.0  -0.0673
  C  C206  1  0.661200  0.378200  0.100100  1.0  -0.1116
  C  C207  1  0.938000  0.841200  0.392000  1.0  0.3614
  C  C208  1  0.628700  0.621400  0.502000  1.0  0.2585
  C  C209  1  0.509800  0.493100  0.333500  1.0  0.0581
  C  C210  1  0.533900  0.424200  0.317100  1.0  -0.1029
  C  C211  1  0.494600  0.367300  0.254400  1.0  -0.0752
  C  C212  1  0.431300  0.379300  0.208100  1.0  -0.0772
  C  C213  1  0.407200  0.448300  0.224500  1.0  -0.0539
  C  C214  1  0.446400  0.505200  0.287200  1.0  -0.1128
  C  C215  1  0.667300  0.649700  0.573700  1.0  -0.007
  C  C216  1  0.705100  0.603400  0.595600  1.0  -0.1096
  C  C217  1  0.736700  0.629400  0.665700  1.0  -0.0824
  C  C218  1  0.730600  0.701600  0.713700  1.0  -0.0568
  C  C219  1  0.692800  0.747900  0.691900  1.0  -0.0687
  C  C220  1  0.661200  0.721900  0.621800  1.0  -0.104
  C  C221  1  0.562000  0.608000  0.158800  1.0  0.3608
  C  C222  1  0.871300  0.498000  0.378600  1.0  0.2599
  C  C223  1  0.990200  0.666500  0.506900  1.0  0.0587
  C  C224  1  0.966100  0.682900  0.575800  1.0  -0.1029
  C  C225  1  0.005400  0.745600  0.632700  1.0  -0.0764
  C  C226  1  0.068700  0.791900  0.620700  1.0  -0.0724
  C  C227  1  0.092800  0.775500  0.551700  1.0  -0.0543
  C  C228  1  0.053600  0.712800  0.494800  1.0  -0.1099
  C  C229  1  0.832700  0.426300  0.350300  1.0  -0.0083
  C  C230  1  0.794900  0.404400  0.396600  1.0  -0.1078
  C  C231  1  0.763300  0.334300  0.370600  1.0  -0.0825
  C  C232  1  0.769400  0.286300  0.298400  1.0  -0.0598
  C  C233  1  0.807200  0.308100  0.252100  1.0  -0.0662
  C  C234  1  0.838800  0.378200  0.278100  1.0  -0.1112
  C  C235  1  0.562000  0.841200  0.449200  1.0  0.3617
  C  C236  1  0.871300  0.621400  0.119400  1.0  0.2591
  C  C237  1  0.990200  0.493100  0.159600  1.0  0.0584
  C  C238  1  0.966100  0.424200  0.107100  1.0  -0.1027
  C  C239  1  0.005400  0.367300  0.112900  1.0  -0.0742
  C  C240  1  0.068700  0.379300  0.171200  1.0  -0.0749
  C  C241  1  0.092800  0.448300  0.223800  1.0  -0.0545
  C  C242  1  0.053600  0.505200  0.218000  1.0  -0.1125
  C  C243  1  0.832700  0.649700  0.076000  1.0  -0.0081
  C  C244  1  0.794900  0.603400  0.007800  1.0  -0.1097
  C  C245  1  0.763300  0.629400  0.963700  1.0  -0.0841
  C  C246  1  0.769400  0.701600  0.987900  1.0  -0.0566
  C  C247  1  0.807200  0.747900  0.056000  1.0  -0.0674
  C  C248  1  0.838800  0.721900  0.100100  1.0  -0.1061
  C  C249  1  0.562000  0.550800  0.392000  1.0  0.3614
  C  C250  1  0.871300  0.880600  0.502000  1.0  0.2593
  C  C251  1  0.990200  0.840400  0.333500  1.0  0.0568
  C  C252  1  0.966100  0.892900  0.317100  1.0  -0.1012
  C  C253  1  0.005400  0.887100  0.254400  1.0  -0.0746
  C  C254  1  0.068700  0.828800  0.208100  1.0  -0.0773
  C  C255  1  0.092800  0.776200  0.224500  1.0  -0.0534
  C  C256  1  0.053600  0.782000  0.287200  1.0  -0.1087
  C  C257  1  0.832700  0.924000  0.573700  1.0  -0.0085
  C  C258  1  0.794900  0.992200  0.595600  1.0  -0.1079
  C  C259  1  0.763300  0.036300  0.665700  1.0  -0.0836
  C  C260  1  0.769400  0.012100  0.713700  1.0  -0.0551
  C  C261  1  0.807200  0.944000  0.691900  1.0  -0.0611
  C  C262  1  0.838800  0.899900  0.621800  1.0  -0.1066
  C  C263  1  0.062000  0.392000  0.841200  1.0  0.3612
  C  C264  1  0.371300  0.502000  0.621400  1.0  0.2596
  C  C265  1  0.490200  0.333500  0.493100  1.0  0.0579
  C  C266  1  0.466100  0.317100  0.424200  1.0  -0.1031
  C  C267  1  0.505400  0.254400  0.367300  1.0  -0.0763
  C  C268  1  0.568700  0.208100  0.379300  1.0  -0.0749
  C  C269  1  0.592800  0.224500  0.448300  1.0  -0.0533
  C  C270  1  0.553600  0.287200  0.505200  1.0  -0.1101
  C  C271  1  0.332700  0.573700  0.649700  1.0  -0.008
  C  C272  1  0.294900  0.595600  0.603400  1.0  -0.1086
  C  C273  1  0.263300  0.665700  0.629400  1.0  -0.0843
  C  C274  1  0.269400  0.713700  0.701600  1.0  -0.0577
  C  C275  1  0.307200  0.691900  0.747900  1.0  -0.0674
  C  C276  1  0.338800  0.621800  0.721900  1.0  -0.1118
  C  C277  1  0.062000  0.158800  0.550800  1.0  0.361
  C  C278  1  0.371300  0.378600  0.880600  1.0  0.2593
  C  C279  1  0.490200  0.506900  0.840400  1.0  0.0582
  C  C280  1  0.466100  0.575800  0.892900  1.0  -0.1034
  C  C281  1  0.505400  0.632700  0.887100  1.0  -0.075
  C  C282  1  0.568700  0.620700  0.828800  1.0  -0.0729
  C  C283  1  0.592800  0.551700  0.776200  1.0  -0.054
  C  C284  1  0.553600  0.494800  0.782000  1.0  -0.1103
  C  C285  1  0.332700  0.350300  0.924000  1.0  -0.0076
  C  C286  1  0.294900  0.396600  0.992200  1.0  -0.1107
  C  C287  1  0.263300  0.370600  0.036300  1.0  -0.0841
  C  C288  1  0.269400  0.298400  0.012100  1.0  -0.0586
  C  C289  1  0.307200  0.252100  0.944000  1.0  -0.0672
  C  C290  1  0.338800  0.278100  0.899900  1.0  -0.1047
  C  C291  1  0.062000  0.449200  0.608000  1.0  0.3618
  C  C292  1  0.371300  0.119400  0.498000  1.0  0.2595
  C  C293  1  0.490200  0.159600  0.666500  1.0  0.0578
  C  C294  1  0.466100  0.107100  0.682900  1.0  -0.1019
  C  C295  1  0.505400  0.112900  0.745600  1.0  -0.0748
  C  C296  1  0.568700  0.171200  0.791900  1.0  -0.0732
  C  C297  1  0.592800  0.223800  0.775500  1.0  -0.0527
  C  C298  1  0.553600  0.218000  0.712800  1.0  -0.1082
  C  C299  1  0.332700  0.076000  0.426300  1.0  -0.0084
  C  C300  1  0.294900  0.007800  0.404400  1.0  -0.1073
  C  C301  1  0.263300  0.963700  0.334300  1.0  -0.084
  C  C302  1  0.269400  0.987900  0.286300  1.0  -0.0531
  C  C303  1  0.307200  0.056000  0.308100  1.0  -0.0622
  C  C304  1  0.338800  0.100100  0.378200  1.0  -0.1073
  N  N305  1  0.143900  0.463700  0.807400  1.0  -0.2774
  N  N306  1  0.398300  0.392800  0.784300  1.0  -0.2347
  N  N307  1  0.420600  0.443500  0.902800  1.0  -0.3776
  N  N308  1  0.143900  0.343700  0.536300  1.0  -0.2768
  N  N309  1  0.398300  0.391500  0.607200  1.0  -0.2328
  N  N310  1  0.420600  0.459300  0.556500  1.0  -0.3787
  N  N311  1  0.143900  0.192600  0.656300  1.0  -0.2773
  N  N312  1  0.398300  0.215700  0.608500  1.0  -0.2334
  N  N313  1  0.420600  0.097200  0.540700  1.0  -0.3782
  N  N314  1  0.643900  0.536300  0.192600  1.0  -0.2771
  N  N315  1  0.898300  0.607200  0.215700  1.0  -0.2345
  N  N316  1  0.920600  0.556500  0.097200  1.0  -0.3779
  N  N317  1  0.643900  0.656300  0.463700  1.0  -0.2765
  N  N318  1  0.898300  0.608500  0.392800  1.0  -0.2335
  N  N319  1  0.920600  0.540700  0.443500  1.0  -0.3793
  N  N320  1  0.643900  0.807400  0.343700  1.0  -0.2769
  N  N321  1  0.898300  0.784300  0.391500  1.0  -0.233
  N  N322  1  0.920600  0.902800  0.459300  1.0  -0.3793
  N  N323  1  0.856100  0.656300  0.192600  1.0  -0.278
  N  N324  1  0.601700  0.608500  0.215700  1.0  -0.2329
  N  N325  1  0.579400  0.540700  0.097200  1.0  -0.3789
  N  N326  1  0.856100  0.807400  0.463700  1.0  -0.2773
  N  N327  1  0.601700  0.784300  0.392800  1.0  -0.2331
  N  N328  1  0.579400  0.902800  0.443500  1.0  -0.3797
  N  N329  1  0.856100  0.536300  0.343700  1.0  -0.2779
  N  N330  1  0.601700  0.607200  0.391500  1.0  -0.2339
  N  N331  1  0.579400  0.556500  0.459300  1.0  -0.3775
  N  N332  1  0.356100  0.343700  0.807400  1.0  -0.2773
  N  N333  1  0.101700  0.391500  0.784300  1.0  -0.2343
  N  N334  1  0.079400  0.459300  0.902800  1.0  -0.3798
  N  N335  1  0.356100  0.192600  0.536300  1.0  -0.277
  N  N336  1  0.101700  0.215700  0.607200  1.0  -0.2331
  N  N337  1  0.079400  0.097200  0.556500  1.0  -0.3779
  N  N338  1  0.356100  0.463700  0.656300  1.0  -0.2776
  N  N339  1  0.101700  0.392800  0.608500  1.0  -0.2346
  N  N340  1  0.079400  0.443500  0.540700  1.0  -0.3773
  N  N341  1  0.750000  0.414950  0.585050  1.0  0.201
  N  N342  1  0.750000  0.170100  0.585050  1.0  0.2005
  N  N343  1  0.750000  0.414950  0.829900  1.0  0.201
  N  N344  1  0.250000  0.585050  0.414950  1.0  0.2007
  N  N345  1  0.250000  0.829900  0.414950  1.0  0.2009
  N  N346  1  0.250000  0.585050  0.170100  1.0  0.2007
  O  O347  1  0.824000  0.364900  0.563300  1.0  -0.5602
  O  O348  1  0.676000  0.436700  0.635100  1.0  -0.5575
  O  O349  1  0.750000  0.443500  0.556500  1.0  -0.5327
  O  O350  1  0.824000  0.198400  0.635100  1.0  -0.5593
  O  O351  1  0.676000  0.198400  0.563300  1.0  -0.558
  O  O352  1  0.750000  0.113000  0.556500  1.0  -0.5295
  O  O353  1  0.824000  0.436700  0.801600  1.0  -0.5589
  O  O354  1  0.676000  0.364900  0.801600  1.0  -0.5588
  O  O355  1  0.750000  0.443500  0.887000  1.0  -0.5301
  O  O356  1  0.324000  0.635100  0.436700  1.0  -0.5585
  O  O357  1  0.176000  0.563300  0.364900  1.0  -0.5581
  O  O358  1  0.250000  0.556500  0.443500  1.0  -0.53
  O  O359  1  0.324000  0.801600  0.364900  1.0  -0.5591
  O  O360  1  0.176000  0.801600  0.436700  1.0  -0.5583
  O  O361  1  0.250000  0.887000  0.443500  1.0  -0.5315
  O  O362  1  0.324000  0.563300  0.198400  1.0  -0.5595
  O  O363  1  0.176000  0.635100  0.198400  1.0  -0.5582
  O  O364  1  0.250000  0.556500  0.113000  1.0  -0.5328
