# generated using pymatgen
data_TbH16(C14O5)2
_symmetry_space_group_name_H-M   'P 1'
_cell_length_a   15.18340000
_cell_length_b   15.18340000
_cell_length_c   26.52820000
_cell_angle_alpha   90.00000000
_cell_angle_beta   90.00000000
_cell_angle_gamma   120.00000000
_symmetry_Int_Tables_number   1
_chemical_formula_structural   TbH16(C14O5)2
_chemical_formula_sum   'Tb6 H96 C168 O60'
_cell_volume   5296.34761914
_cell_formula_units_Z   6
loop_
 _symmetry_equiv_pos_site_id
 _symmetry_equiv_pos_as_xyz
  1  'x, y, z'
loop_
 _atom_site_type_symbol
 _atom_site_label
 _atom_site_symmetry_multiplicity
 _atom_site_fract_x
 _atom_site_fract_y
 _atom_site_fract_z
 _atom_site_occupancy
 _atom_site_charge
  Tb  Tb1  1  0.500000  0.500000  0.088690  1.0  2.2771
  Tb  Tb2  1  0.500000  0.000000  0.422020  1.0  2.277
  Tb  Tb3  1  0.000000  0.500000  0.755360  1.0  2.2835
  Tb  Tb4  1  0.500000  0.500000  0.244640  1.0  2.2765
  Tb  Tb5  1  0.000000  0.500000  0.911310  1.0  2.2765
  Tb  Tb6  1  0.500000  0.000000  0.577980  1.0  2.2836
  H  H7  1  0.227900  0.792500  0.910000  1.0  0.0997
  H  H8  1  0.310500  0.093900  0.909100  1.0  0.13
  H  H9  1  0.325200  0.202700  0.973000  1.0  0.1159
  H  H10  1  0.623600  0.362000  0.953000  1.0  0.108
  H  H11  1  0.354300  0.959400  0.924500  1.0  0.1303
  H  H12  1  0.263300  0.839300  0.762700  1.0  0.1118
  H  H13  1  0.610400  0.250800  0.888400  1.0  0.1245
  H  H14  1  0.387100  0.004500  0.775600  1.0  0.1211
  H  H15  1  0.207500  0.435400  0.243330  1.0  0.0996
  H  H16  1  0.906100  0.216600  0.242430  1.0  0.1314
  H  H17  1  0.797300  0.122500  0.306330  1.0  0.115
  H  H18  1  0.638000  0.261600  0.286330  1.0  0.1105
  H  H19  1  0.040600  0.394900  0.257830  1.0  0.13
  H  H20  1  0.160700  0.424000  0.096030  1.0  0.1115
  H  H21  1  0.749200  0.359600  0.221730  1.0  0.1246
  H  H22  1  0.995500  0.382600  0.108930  1.0  0.1205
  H  H23  1  0.564600  0.772100  0.576670  1.0  0.0996
  H  H24  1  0.783400  0.689500  0.575770  1.0  0.1301
  H  H25  1  0.877500  0.674800  0.639670  1.0  0.1157
  H  H26  1  0.738400  0.376400  0.619670  1.0  0.1093
  H  H27  1  0.605100  0.645700  0.591170  1.0  0.1301
  H  H28  1  0.576000  0.736700  0.429370  1.0  0.1119
  H  H29  1  0.640400  0.389600  0.555070  1.0  0.1242
  H  H30  1  0.617400  0.612900  0.442270  1.0  0.122
  H  H31  1  0.772100  0.207500  0.910000  1.0  0.0992
  H  H32  1  0.689500  0.906100  0.909100  1.0  0.1306
  H  H33  1  0.674800  0.797300  0.973000  1.0  0.1156
  H  H34  1  0.376400  0.638000  0.953000  1.0  0.108
  H  H35  1  0.645700  0.040600  0.924500  1.0  0.1301
  H  H36  1  0.736700  0.160700  0.762700  1.0  0.1122
  H  H37  1  0.389600  0.749200  0.888400  1.0  0.1245
  H  H38  1  0.612900  0.995500  0.775600  1.0  0.1211
  H  H39  1  0.792500  0.564600  0.243330  1.0  0.0993
  H  H40  1  0.093900  0.783400  0.242430  1.0  0.1325
  H  H41  1  0.202700  0.877500  0.306330  1.0  0.1158
  H  H42  1  0.362000  0.738400  0.286330  1.0  0.1103
  H  H43  1  0.959400  0.605100  0.257830  1.0  0.1304
  H  H44  1  0.839300  0.576000  0.096030  1.0  0.111
  H  H45  1  0.250800  0.640400  0.221730  1.0  0.1244
  H  H46  1  0.004500  0.617400  0.108930  1.0  0.1209
  H  H47  1  0.435400  0.227900  0.576670  1.0  0.1005
  H  H48  1  0.216600  0.310500  0.575770  1.0  0.13
  H  H49  1  0.122500  0.325200  0.639670  1.0  0.1157
  H  H50  1  0.261600  0.623600  0.619670  1.0  0.109
  H  H51  1  0.394900  0.354300  0.591170  1.0  0.1301
  H  H52  1  0.424000  0.263300  0.429370  1.0  0.112
  H  H53  1  0.359600  0.610400  0.555070  1.0  0.1244
  H  H54  1  0.382600  0.387100  0.442270  1.0  0.1216
  H  H55  1  0.792500  0.227900  0.423330  1.0  0.0999
  H  H56  1  0.093900  0.310500  0.424230  1.0  0.1298
  H  H57  1  0.202700  0.325200  0.360330  1.0  0.1147
  H  H58  1  0.362000  0.623600  0.380330  1.0  0.1091
  H  H59  1  0.959400  0.354300  0.408830  1.0  0.1304
  H  H60  1  0.839300  0.263300  0.570630  1.0  0.1121
  H  H61  1  0.250800  0.610400  0.444930  1.0  0.1241
  H  H62  1  0.004500  0.387100  0.557730  1.0  0.1222
  H  H63  1  0.435400  0.207500  0.090000  1.0  0.0997
  H  H64  1  0.216600  0.906100  0.090900  1.0  0.1305
  H  H65  1  0.122500  0.797300  0.027000  1.0  0.116
  H  H66  1  0.261600  0.638000  0.047000  1.0  0.1081
  H  H67  1  0.394900  0.040600  0.075500  1.0  0.1307
  H  H68  1  0.424000  0.160700  0.237300  1.0  0.1125
  H  H69  1  0.359600  0.749200  0.111600  1.0  0.1246
  H  H70  1  0.382600  0.995500  0.224400  1.0  0.1218
  H  H71  1  0.772100  0.564600  0.756670  1.0  0.0992
  H  H72  1  0.689500  0.783400  0.757570  1.0  0.1318
  H  H73  1  0.674800  0.877500  0.693670  1.0  0.1154
  H  H74  1  0.376400  0.738400  0.713670  1.0  0.11
  H  H75  1  0.645700  0.605100  0.742170  1.0  0.1303
  H  H76  1  0.736700  0.576000  0.903970  1.0  0.1114
  H  H77  1  0.389600  0.640400  0.778270  1.0  0.1243
  H  H78  1  0.612900  0.617400  0.891070  1.0  0.1208
  H  H79  1  0.207500  0.772100  0.423330  1.0  0.0998
  H  H80  1  0.906100  0.689500  0.424230  1.0  0.1301
  H  H81  1  0.797300  0.674800  0.360330  1.0  0.1168
  H  H82  1  0.638000  0.376400  0.380330  1.0  0.1087
  H  H83  1  0.040600  0.645700  0.408830  1.0  0.1305
  H  H84  1  0.160700  0.736700  0.570630  1.0  0.112
  H  H85  1  0.749200  0.389600  0.444930  1.0  0.1243
  H  H86  1  0.995500  0.612900  0.557730  1.0  0.1219
  H  H87  1  0.564600  0.792500  0.090000  1.0  0.0997
  H  H88  1  0.783400  0.093900  0.090900  1.0  0.13
  H  H89  1  0.877500  0.202700  0.027000  1.0  0.1151
  H  H90  1  0.738400  0.362000  0.047000  1.0  0.1077
  H  H91  1  0.605100  0.959400  0.075500  1.0  0.1305
  H  H92  1  0.576000  0.839300  0.237300  1.0  0.1117
  H  H93  1  0.640400  0.250800  0.111600  1.0  0.1242
  H  H94  1  0.617400  0.004500  0.224400  1.0  0.1207
  H  H95  1  0.227900  0.435400  0.756670  1.0  0.0989
  H  H96  1  0.310500  0.216600  0.757570  1.0  0.1321
  H  H97  1  0.325200  0.122500  0.693670  1.0  0.1152
  H  H98  1  0.623600  0.261600  0.713670  1.0  0.1102
  H  H99  1  0.354300  0.394900  0.742170  1.0  0.1307
  H  H100  1  0.263300  0.424000  0.903970  1.0  0.1118
  H  H101  1  0.610400  0.359600  0.778270  1.0  0.1243
  H  H102  1  0.387100  0.382600  0.891070  1.0  0.1213
  C  C103  1  0.483000  0.364100  0.009000  1.0  0.5536
  C  C104  1  0.228700  0.800000  0.835200  1.0  -0.1575
  C  C105  1  0.381200  0.000300  0.851600  1.0  0.3041
  C  C106  1  0.258800  0.835800  0.882800  1.0  -0.0281
  C  C107  1  0.374300  0.146700  0.918400  1.0  -0.2334
  C  C108  1  0.459500  0.158800  0.894800  1.0  0.2886
  C  C109  1  0.475900  0.294500  0.969100  1.0  -0.0623
  C  C110  1  0.383200  0.213100  0.956000  1.0  -0.0441
  C  C111  1  0.560200  0.307700  0.944400  1.0  -0.0543
  C  C112  1  0.143200  0.693200  0.825000  1.0  0.756
  C  C113  1  0.335000  0.936200  0.891700  1.0  -0.2623
  C  C114  1  0.279900  0.863900  0.795500  1.0  -0.0094
  C  C115  1  0.552800  0.240100  0.905900  1.0  -0.1473
  C  C116  1  0.354400  0.962600  0.803100  1.0  -0.1573
  C  C117  1  0.635900  0.118900  0.342330  1.0  0.5576
  C  C118  1  0.200000  0.428700  0.168530  1.0  -0.1588
  C  C119  1  0.999700  0.380900  0.184930  1.0  0.3048
  C  C120  1  0.164200  0.423000  0.216130  1.0  -0.0302
  C  C121  1  0.853300  0.227600  0.251730  1.0  -0.2355
  C  C122  1  0.841200  0.300700  0.228130  1.0  0.2885
  C  C123  1  0.705500  0.181400  0.302430  1.0  -0.0623
  C  C124  1  0.786900  0.170100  0.289330  1.0  -0.048
  C  C125  1  0.692300  0.252500  0.277730  1.0  -0.059
  C  C126  1  0.306800  0.450000  0.158330  1.0  0.7514
  C  C127  1  0.063800  0.398800  0.225030  1.0  -0.2649
  C  C128  1  0.136100  0.416000  0.128830  1.0  -0.0134
  C  C129  1  0.759900  0.312700  0.239230  1.0  -0.1459
  C  C130  1  0.037400  0.391800  0.136430  1.0  -0.1574
  C  C131  1  0.881100  0.517000  0.675670  1.0  0.5541
  C  C132  1  0.571300  0.771300  0.501870  1.0  -0.1574
  C  C133  1  0.619100  0.618800  0.518270  1.0  0.3045
  C  C134  1  0.577000  0.741200  0.549470  1.0  -0.03
  C  C135  1  0.772400  0.625700  0.585070  1.0  -0.2371
  C  C136  1  0.699300  0.540500  0.561470  1.0  0.2882
  C  C137  1  0.818600  0.524100  0.635770  1.0  -0.0607
  C  C138  1  0.829900  0.616800  0.622670  1.0  -0.048
  C  C139  1  0.747500  0.439800  0.611070  1.0  -0.0587
  C  C140  1  0.550000  0.856800  0.491670  1.0  0.7559
  C  C141  1  0.601200  0.665000  0.558370  1.0  -0.2631
  C  C142  1  0.584000  0.720100  0.462170  1.0  -0.0148
  C  C143  1  0.687300  0.447200  0.572570  1.0  -0.147
  C  C144  1  0.608200  0.645600  0.469770  1.0  -0.1595
  C  C145  1  0.517000  0.635900  0.009000  1.0  0.5544
  C  C146  1  0.771300  0.200000  0.835200  1.0  -0.157
  C  C147  1  0.618800  0.999700  0.851600  1.0  0.3043
  C  C148  1  0.741200  0.164200  0.882800  1.0  -0.0277
  C  C149  1  0.625700  0.853300  0.918400  1.0  -0.234
  C  C150  1  0.540500  0.841200  0.894800  1.0  0.2883
  C  C151  1  0.524100  0.705500  0.969100  1.0  -0.0634
  C  C152  1  0.616800  0.786900  0.956000  1.0  -0.0458
  C  C153  1  0.439800  0.692300  0.944400  1.0  -0.054
  C  C154  1  0.856800  0.306800  0.825000  1.0  0.7557
  C  C155  1  0.665000  0.063800  0.891700  1.0  -0.262
  C  C156  1  0.720100  0.136100  0.795500  1.0  -0.0109
  C  C157  1  0.447200  0.759900  0.905900  1.0  -0.1481
  C  C158  1  0.645600  0.037400  0.803100  1.0  -0.1572
  C  C159  1  0.364100  0.881100  0.342330  1.0  0.5571
  C  C160  1  0.800000  0.571300  0.168530  1.0  -0.1621
  C  C161  1  0.000300  0.619100  0.184930  1.0  0.3045
  C  C162  1  0.835800  0.577000  0.216130  1.0  -0.0293
  C  C163  1  0.146700  0.772400  0.251730  1.0  -0.2353
  C  C164  1  0.158800  0.699300  0.228130  1.0  0.2891
  C  C165  1  0.294500  0.818600  0.302430  1.0  -0.0605
  C  C166  1  0.213100  0.829900  0.289330  1.0  -0.0473
  C  C167  1  0.307700  0.747500  0.277730  1.0  -0.0581
  C  C168  1  0.693200  0.550000  0.158330  1.0  0.7525
  C  C169  1  0.936200  0.601200  0.225030  1.0  -0.2638
  C  C170  1  0.863900  0.584000  0.128830  1.0  -0.0132
  C  C171  1  0.240100  0.687300  0.239230  1.0  -0.1468
  C  C172  1  0.962600  0.608200  0.136430  1.0  -0.1572
  C  C173  1  0.118900  0.483000  0.675670  1.0  0.5547
  C  C174  1  0.428700  0.228700  0.501870  1.0  -0.1589
  C  C175  1  0.380900  0.381200  0.518270  1.0  0.3037
  C  C176  1  0.423000  0.258800  0.549470  1.0  -0.0305
  C  C177  1  0.227600  0.374300  0.585070  1.0  -0.2377
  C  C178  1  0.300700  0.459500  0.561470  1.0  0.288
  C  C179  1  0.181400  0.475900  0.635770  1.0  -0.0579
  C  C180  1  0.170100  0.383200  0.622670  1.0  -0.0502
  C  C181  1  0.252500  0.560200  0.611070  1.0  -0.058
  C  C182  1  0.450000  0.143200  0.491670  1.0  0.7547
  C  C183  1  0.398800  0.335000  0.558370  1.0  -0.2652
  C  C184  1  0.416000  0.279900  0.462170  1.0  -0.0119
  C  C185  1  0.312700  0.552800  0.572570  1.0  -0.1475
  C  C186  1  0.391800  0.354400  0.469770  1.0  -0.1596
  C  C187  1  0.364100  0.483000  0.324330  1.0  0.553
  C  C188  1  0.800000  0.228700  0.498130  1.0  -0.1577
  C  C189  1  0.000300  0.381200  0.481730  1.0  0.304
  C  C190  1  0.835800  0.258800  0.450530  1.0  -0.0306
  C  C191  1  0.146700  0.374300  0.414930  1.0  -0.2392
  C  C192  1  0.158800  0.459500  0.438530  1.0  0.2877
  C  C193  1  0.294500  0.475900  0.364230  1.0  -0.0608
  C  C194  1  0.213100  0.383200  0.377330  1.0  -0.0501
  C  C195  1  0.307700  0.560200  0.388930  1.0  -0.058
  C  C196  1  0.693200  0.143200  0.508330  1.0  0.7579
  C  C197  1  0.936200  0.335000  0.441630  1.0  -0.2612
  C  C198  1  0.863900  0.279900  0.537830  1.0  -0.0155
  C  C199  1  0.240100  0.552800  0.427430  1.0  -0.1487
  C  C200  1  0.962600  0.354400  0.530230  1.0  -0.1586
  C  C201  1  0.118900  0.635900  0.991000  1.0  0.5516
  C  C202  1  0.428700  0.200000  0.164800  1.0  -0.1566
  C  C203  1  0.380900  0.999700  0.148400  1.0  0.3043
  C  C204  1  0.423000  0.164200  0.117200  1.0  -0.0281
  C  C205  1  0.227600  0.853300  0.081600  1.0  -0.2343
  C  C206  1  0.300700  0.841200  0.105200  1.0  0.2879
  C  C207  1  0.181400  0.705500  0.030900  1.0  -0.0638
  C  C208  1  0.170100  0.786900  0.044000  1.0  -0.0444
  C  C209  1  0.252500  0.692300  0.055600  1.0  -0.0553
  C  C210  1  0.450000  0.306800  0.175000  1.0  0.7568
  C  C211  1  0.398800  0.063800  0.108300  1.0  -0.2611
  C  C212  1  0.416000  0.136100  0.204500  1.0  -0.0118
  C  C213  1  0.312700  0.759900  0.094100  1.0  -0.1479
  C  C214  1  0.391800  0.037400  0.196900  1.0  -0.1575
  C  C215  1  0.517000  0.881100  0.657670  1.0  0.5548
  C  C216  1  0.771300  0.571300  0.831470  1.0  -0.1593
  C  C217  1  0.618800  0.619100  0.815070  1.0  0.3051
  C  C218  1  0.741200  0.577000  0.783870  1.0  -0.0296
  C  C219  1  0.625700  0.772400  0.748270  1.0  -0.2358
  C  C220  1  0.540500  0.699300  0.771870  1.0  0.2877
  C  C221  1  0.524100  0.818600  0.697570  1.0  -0.0617
  C  C222  1  0.616800  0.829900  0.710670  1.0  -0.048
  C  C223  1  0.439800  0.747500  0.722270  1.0  -0.0594
  C  C224  1  0.856800  0.550000  0.841670  1.0  0.752
  C  C225  1  0.665000  0.601200  0.774970  1.0  -0.2632
  C  C226  1  0.720100  0.584000  0.871170  1.0  -0.0133
  C  C227  1  0.447200  0.687300  0.760770  1.0  -0.1457
  C  C228  1  0.645600  0.608200  0.863570  1.0  -0.1576
  C  C229  1  0.635900  0.517000  0.324330  1.0  0.5521
  C  C230  1  0.200000  0.771300  0.498130  1.0  -0.1582
  C  C231  1  0.999700  0.618800  0.481730  1.0  0.3044
  C  C232  1  0.164200  0.741200  0.450530  1.0  -0.03
  C  C233  1  0.853300  0.625700  0.414930  1.0  -0.2366
  C  C234  1  0.841200  0.540500  0.438530  1.0  0.2876
  C  C235  1  0.705500  0.524100  0.364230  1.0  -0.0578
  C  C236  1  0.786900  0.616800  0.377330  1.0  -0.0491
  C  C237  1  0.692300  0.439800  0.388930  1.0  -0.0591
  C  C238  1  0.306800  0.856800  0.508330  1.0  0.7548
  C  C239  1  0.063800  0.665000  0.441630  1.0  -0.2642
  C  C240  1  0.136100  0.720100  0.537830  1.0  -0.0137
  C  C241  1  0.759900  0.447200  0.427430  1.0  -0.1467
  C  C242  1  0.037400  0.645600  0.530230  1.0  -0.1609
  C  C243  1  0.881100  0.364100  0.991000  1.0  0.5527
  C  C244  1  0.571300  0.800000  0.164800  1.0  -0.1568
  C  C245  1  0.619100  0.000300  0.148400  1.0  0.3043
  C  C246  1  0.577000  0.835800  0.117200  1.0  -0.028
  C  C247  1  0.772400  0.146700  0.081600  1.0  -0.2341
  C  C248  1  0.699300  0.158800  0.105200  1.0  0.2877
  C  C249  1  0.818600  0.294500  0.030900  1.0  -0.0626
  C  C250  1  0.829900  0.213100  0.044000  1.0  -0.0454
  C  C251  1  0.747500  0.307700  0.055600  1.0  -0.0539
  C  C252  1  0.550000  0.693200  0.175000  1.0  0.7566
  C  C253  1  0.601200  0.936200  0.108300  1.0  -0.2603
  C  C254  1  0.584000  0.863900  0.204500  1.0  -0.0112
  C  C255  1  0.687300  0.240100  0.094100  1.0  -0.1486
  C  C256  1  0.608200  0.962600  0.196900  1.0  -0.1571
  C  C257  1  0.483000  0.118900  0.657670  1.0  0.5562
  C  C258  1  0.228700  0.428700  0.831470  1.0  -0.1628
  C  C259  1  0.381200  0.380900  0.815070  1.0  0.3047
  C  C260  1  0.258800  0.423000  0.783870  1.0  -0.0294
  C  C261  1  0.374300  0.227600  0.748270  1.0  -0.2358
  C  C262  1  0.459500  0.300700  0.771870  1.0  0.2884
  C  C263  1  0.475900  0.181400  0.697570  1.0  -0.0619
  C  C264  1  0.383200  0.170100  0.710670  1.0  -0.0468
  C  C265  1  0.560200  0.252500  0.722270  1.0  -0.0582
  C  C266  1  0.143200  0.450000  0.841670  1.0  0.7536
  C  C267  1  0.335000  0.398800  0.774970  1.0  -0.262
  C  C268  1  0.279900  0.416000  0.871170  1.0  -0.0149
  C  C269  1  0.552800  0.312700  0.760770  1.0  -0.1473
  C  C270  1  0.354400  0.391800  0.863570  1.0  -0.1579
  O  O271  1  0.571500  0.438900  0.023100  1.0  -0.6631
  O  O272  1  0.458700  0.098000  0.856000  1.0  -0.2356
  O  O273  1  0.414800  0.357400  0.031100  1.0  -0.5666
  O  O274  1  0.114900  0.667300  0.780600  1.0  -0.6234
  O  O275  1  0.106200  0.635000  0.862800  1.0  -0.7246
  O  O276  1  0.561100  0.132600  0.356430  1.0  -0.6652
  O  O277  1  0.902000  0.360700  0.189330  1.0  -0.2345
  O  O278  1  0.642600  0.057400  0.364430  1.0  -0.5684
  O  O279  1  0.332700  0.447600  0.113930  1.0  -0.6226
  O  O280  1  0.365000  0.471200  0.196130  1.0  -0.7213
  O  O281  1  0.867400  0.428500  0.689770  1.0  -0.6624
  O  O282  1  0.639300  0.541300  0.522670  1.0  -0.2371
  O  O283  1  0.942600  0.585200  0.697770  1.0  -0.5645
  O  O284  1  0.552400  0.885100  0.447270  1.0  -0.6258
  O  O285  1  0.528800  0.893800  0.529470  1.0  -0.7243
  O  O286  1  0.428500  0.561100  0.023100  1.0  -0.6624
  O  O287  1  0.541300  0.902000  0.856000  1.0  -0.2353
  O  O288  1  0.585200  0.642600  0.031100  1.0  -0.5662
  O  O289  1  0.885100  0.332700  0.780600  1.0  -0.6238
  O  O290  1  0.893800  0.365000  0.862800  1.0  -0.724
  O  O291  1  0.438900  0.867400  0.356430  1.0  -0.6653
  O  O292  1  0.098000  0.639300  0.189330  1.0  -0.2348
  O  O293  1  0.357400  0.942600  0.364430  1.0  -0.5668
  O  O294  1  0.667300  0.552400  0.113930  1.0  -0.6222
  O  O295  1  0.635000  0.528800  0.196130  1.0  -0.7214
  O  O296  1  0.132600  0.571500  0.689770  1.0  -0.6639
  O  O297  1  0.360700  0.458700  0.522670  1.0  -0.2362
  O  O298  1  0.057400  0.414800  0.697770  1.0  -0.5634
  O  O299  1  0.447600  0.114900  0.447270  1.0  -0.6274
  O  O300  1  0.471200  0.106200  0.529470  1.0  -0.7239
  O  O301  1  0.438900  0.571500  0.310230  1.0  -0.6628
  O  O302  1  0.098000  0.458700  0.477330  1.0  -0.2365
  O  O303  1  0.357400  0.414800  0.302230  1.0  -0.5641
  O  O304  1  0.667300  0.114900  0.552730  1.0  -0.6263
  O  O305  1  0.635000  0.106200  0.470530  1.0  -0.7249
  O  O306  1  0.132600  0.561100  0.976900  1.0  -0.6625
  O  O307  1  0.360700  0.902000  0.144000  1.0  -0.2354
  O  O308  1  0.057400  0.642600  0.968900  1.0  -0.5668
  O  O309  1  0.447600  0.332700  0.219400  1.0  -0.6248
  O  O310  1  0.471200  0.365000  0.137200  1.0  -0.7251
  O  O311  1  0.428500  0.867400  0.643570  1.0  -0.6653
  O  O312  1  0.541300  0.639300  0.810670  1.0  -0.2347
  O  O313  1  0.585200  0.942600  0.635570  1.0  -0.568
  O  O314  1  0.885100  0.552400  0.886070  1.0  -0.6233
  O  O315  1  0.893800  0.528800  0.803870  1.0  -0.7222
  O  O316  1  0.561100  0.428500  0.310230  1.0  -0.6632
  O  O317  1  0.902000  0.541300  0.477330  1.0  -0.2371
  O  O318  1  0.642600  0.585200  0.302230  1.0  -0.5631
  O  O319  1  0.332700  0.885100  0.552730  1.0  -0.6288
  O  O320  1  0.365000  0.893800  0.470530  1.0  -0.7249
  O  O321  1  0.867400  0.438900  0.976900  1.0  -0.6637
  O  O322  1  0.639300  0.098000  0.144000  1.0  -0.2351
  O  O323  1  0.942600  0.357400  0.968900  1.0  -0.5666
  O  O324  1  0.552400  0.667300  0.219400  1.0  -0.6246
  O  O325  1  0.528800  0.635000  0.137200  1.0  -0.7254
  O  O326  1  0.571500  0.132600  0.643570  1.0  -0.6648
  O  O327  1  0.458700  0.360700  0.810670  1.0  -0.2341
  O  O328  1  0.414800  0.057400  0.635570  1.0  -0.5675
  O  O329  1  0.114900  0.447600  0.886070  1.0  -0.6237
  O  O330  1  0.106200  0.471200  0.803870  1.0  -0.7224
