# generated using pymatgen
data_CuH4C8N3O4
_symmetry_space_group_name_H-M   'P 1'
_cell_length_a   4.70960000
_cell_length_b   11.09470000
_cell_length_c   20.04170000
_cell_angle_alpha   90.00000000
_cell_angle_beta   90.00000000
_cell_angle_gamma   96.84350000
_symmetry_Int_Tables_number   1
_chemical_formula_structural   CuH4C8N3O4
_chemical_formula_sum   'Cu4 H16 C32 N12 O16'
_cell_volume   1039.74983955
_cell_formula_units_Z   4
loop_
 _symmetry_equiv_pos_site_id
 _symmetry_equiv_pos_as_xyz
  1  'x, y, z'
loop_
 _atom_site_type_symbol
 _atom_site_label
 _atom_site_symmetry_multiplicity
 _atom_site_fract_x
 _atom_site_fract_y
 _atom_site_fract_z
 _atom_site_occupancy
 _atom_site_charge
  Cu  Cu1  1  0.304000  0.942100  0.839500  1.0  0.7935
  Cu  Cu2  1  0.696000  0.557900  0.339500  1.0  0.7938
  Cu  Cu3  1  0.696000  0.057900  0.160500  1.0  0.794
  Cu  Cu4  1  0.304000  0.442100  0.660500  1.0  0.7938
  H  H5  1  0.265450  0.912840  0.592840  1.0  0.1105
  H  H6  1  0.438230  0.004440  0.692910  1.0  0.1036
  H  H7  1  0.622300  0.826900  0.954010  1.0  0.1076
  H  H8  1  0.220440  0.114680  0.941340  1.0  0.0839
  H  H9  1  0.734550  0.587160  0.092840  1.0  0.1106
  H  H10  1  0.561770  0.495560  0.192910  1.0  0.1048
  H  H11  1  0.377700  0.673100  0.454010  1.0  0.1078
  H  H12  1  0.779560  0.385320  0.441340  1.0  0.0838
  H  H13  1  0.734550  0.087160  0.407160  1.0  0.1112
  H  H14  1  0.561770  0.995560  0.307090  1.0  0.1049
  H  H15  1  0.377700  0.173100  0.045990  1.0  0.1079
  H  H16  1  0.779560  0.885320  0.058660  1.0  0.0828
  H  H17  1  0.265450  0.412840  0.907160  1.0  0.1106
  H  H18  1  0.438230  0.504440  0.807090  1.0  0.1034
  H  H19  1  0.622300  0.326900  0.545990  1.0  0.1079
  H  H20  1  0.220440  0.614680  0.558660  1.0  0.0825
  C  C21  1  0.054000  0.773000  0.750000  1.0  0.0415
  C  C22  1  0.960000  0.714000  0.691000  1.0  0.1227
  C  C23  1  0.210000  0.868000  0.629000  1.0  0.1614
  C  C24  1  0.309000  0.923000  0.689000  1.0  0.088
  C  C25  1  0.999000  0.722000  0.822000  1.0  0.5974
  C  C26  1  0.758000  0.598000  0.688000  1.0  0.6325
  C  C27  1  0.560000  0.905000  0.969000  1.0  0.1121
  C  C28  1  0.347000  0.069000  0.968000  1.0  0.0931
  C  C29  1  0.946000  0.727000  0.250000  1.0  0.0414
  C  C30  1  0.040000  0.786000  0.191000  1.0  0.1235
  C  C31  1  0.790000  0.632000  0.129000  1.0  0.1595
  C  C32  1  0.691000  0.577000  0.189000  1.0  0.0873
  C  C33  1  0.001000  0.778000  0.322000  1.0  0.5971
  C  C34  1  0.242000  0.902000  0.188000  1.0  0.6327
  C  C35  1  0.440000  0.595000  0.469000  1.0  0.1123
  C  C36  1  0.653000  0.431000  0.468000  1.0  0.0949
  C  C37  1  0.946000  0.227000  0.250000  1.0  0.0405
  C  C38  1  0.040000  0.286000  0.309000  1.0  0.1237
  C  C39  1  0.790000  0.132000  0.371000  1.0  0.1611
  C  C40  1  0.691000  0.077000  0.311000  1.0  0.0873
  C  C41  1  0.001000  0.278000  0.178000  1.0  0.5972
  C  C42  1  0.242000  0.402000  0.312000  1.0  0.6328
  C  C43  1  0.440000  0.095000  0.031000  1.0  0.1122
  C  C44  1  0.653000  0.931000  0.032000  1.0  0.0956
  C  C45  1  0.054000  0.273000  0.750000  1.0  0.0404
  C  C46  1  0.960000  0.214000  0.809000  1.0  0.1229
  C  C47  1  0.210000  0.368000  0.871000  1.0  0.1632
  C  C48  1  0.309000  0.423000  0.811000  1.0  0.0879
  C  C49  1  0.999000  0.222000  0.678000  1.0  0.5987
  C  C50  1  0.758000  0.098000  0.812000  1.0  0.6325
  C  C51  1  0.560000  0.405000  0.531000  1.0  0.1132
  C  C52  1  0.347000  0.569000  0.532000  1.0  0.0928
  N  N53  1  0.237000  0.879000  0.752000  1.0  -0.2434
  N  N54  1  0.048000  0.760000  0.631000  1.0  -0.352
  N  N55  1  0.411000  0.973000  0.940000  1.0  -0.2024
  N  N56  1  0.763000  0.621000  0.252000  1.0  -0.2432
  N  N57  1  0.952000  0.740000  0.131000  1.0  -0.3501
  N  N58  1  0.589000  0.527000  0.440000  1.0  -0.2014
  N  N59  1  0.763000  0.121000  0.248000  1.0  -0.2434
  N  N60  1  0.952000  0.240000  0.369000  1.0  -0.3514
  N  N61  1  0.589000  0.027000  0.060000  1.0  -0.2011
  N  N62  1  0.237000  0.379000  0.748000  1.0  -0.243
  N  N63  1  0.048000  0.260000  0.869000  1.0  -0.3518
  N  N64  1  0.411000  0.473000  0.560000  1.0  -0.2013
  O  O65  1  0.113000  0.771000  0.873000  1.0  -0.5626
  O  O66  1  0.869000  0.619000  0.827000  1.0  -0.5343
  O  O67  1  0.493000  0.599000  0.689000  1.0  -0.5395
  O  O68  1  0.870000  0.510000  0.668000  1.0  -0.617
  O  O69  1  0.887000  0.729000  0.373000  1.0  -0.5669
  O  O70  1  0.131000  0.881000  0.327000  1.0  -0.5341
  O  O71  1  0.507000  0.901000  0.189000  1.0  -0.5389
  O  O72  1  0.130000  0.990000  0.168000  1.0  -0.6166
  O  O73  1  0.887000  0.229000  0.127000  1.0  -0.5626
  O  O74  1  0.131000  0.381000  0.173000  1.0  -0.5347
  O  O75  1  0.507000  0.401000  0.311000  1.0  -0.539
  O  O76  1  0.130000  0.490000  0.332000  1.0  -0.6166
  O  O77  1  0.113000  0.271000  0.627000  1.0  -0.5597
  O  O78  1  0.869000  0.119000  0.673000  1.0  -0.535
  O  O79  1  0.493000  0.099000  0.811000  1.0  -0.5394
  O  O80  1  0.870000  0.010000  0.832000  1.0  -0.617
