# generated using pymatgen
data_FeH28C22(SN5)2
_symmetry_space_group_name_H-M   'P 1'
_cell_length_a   10.96200000
_cell_length_b   15.04750000
_cell_length_c   15.04750000
_cell_angle_alpha   65.69780000
_cell_angle_beta   75.94630000
_cell_angle_gamma   104.05400000
_symmetry_Int_Tables_number   1
_chemical_formula_structural   FeH28C22(SN5)2
_chemical_formula_sum   'Fe3 H84 C66 S6 N30'
_cell_volume   2022.79981472
_cell_formula_units_Z   3
loop_
 _symmetry_equiv_pos_site_id
 _symmetry_equiv_pos_as_xyz
  1  'x, y, z'
loop_
 _atom_site_type_symbol
 _atom_site_label
 _atom_site_symmetry_multiplicity
 _atom_site_fract_x
 _atom_site_fract_y
 _atom_site_fract_z
 _atom_site_occupancy
 _atom_site_charge
  Fe  Fe1  1  0.500000  0.500000  0.500000  1.0  0.4362
  Fe  Fe2  1  0.000000  0.500000  0.000000  1.0  0.4358
  Fe  Fe3  1  0.000000  0.000000  0.500000  1.0  0.4362
  H  H4  1  0.231100  0.340700  0.536300  1.0  0.2394
  H  H5  1  0.475400  0.689300  0.293900  1.0  0.1265
  H  H6  1  0.345700  0.708300  0.271800  1.0  0.1257
  H  H7  1  0.442000  0.678000  0.200400  1.0  0.1264
  H  H8  1  0.031400  0.236800  0.532900  1.0  0.1191
  H  H9  1  0.042600  0.272100  0.414300  1.0  0.125
  H  H10  1  0.950500  0.306400  0.483700  1.0  0.1324
  H  H11  1  0.027900  0.714600  0.239100  1.0  0.1304
  H  H12  1  0.165000  0.716700  0.259500  1.0  0.1289
  H  H13  1  0.020400  0.630800  0.350900  1.0  0.1305
  H  H14  1  0.129300  0.368900  0.146300  1.0  0.1321
  H  H15  1  0.119700  0.324800  0.265400  1.0  0.1153
  H  H16  1  0.259700  0.412900  0.169000  1.0  0.1296
  H  H17  1  0.991200  0.631800  0.135000  1.0  0.2341
  H  H18  1  0.768900  0.659300  0.463700  1.0  0.2398
  H  H19  1  0.524600  0.310700  0.706100  1.0  0.1264
  H  H20  1  0.654300  0.291700  0.728200  1.0  0.1257
  H  H21  1  0.558000  0.322000  0.799600  1.0  0.1263
  H  H22  1  0.968600  0.763200  0.467100  1.0  0.1187
  H  H23  1  0.957400  0.727900  0.585700  1.0  0.1248
  H  H24  1  0.049500  0.693600  0.516300  1.0  0.1327
  H  H25  1  0.972100  0.285400  0.760900  1.0  0.1308
  H  H26  1  0.835000  0.283300  0.740500  1.0  0.1288
  H  H27  1  0.979600  0.369200  0.649100  1.0  0.1303
  H  H28  1  0.870700  0.631100  0.853700  1.0  0.1319
  H  H29  1  0.880300  0.675200  0.734600  1.0  0.1154
  H  H30  1  0.740300  0.587100  0.831000  1.0  0.1293
  H  H31  1  0.008800  0.368200  0.865000  1.0  0.2337
  H  H32  1  0.767400  0.536300  0.123000  1.0  0.239
  H  H33  1  0.769300  0.293900  0.016800  1.0  0.1282
  H  H34  1  0.617500  0.271800  0.019900  1.0  0.1235
  H  H35  1  0.642400  0.200400  0.121600  1.0  0.1279
  H  H36  1  0.564300  0.532900  0.230300  1.0  0.1179
  H  H37  1  0.456900  0.414300  0.313600  1.0  0.1256
  H  H38  1  0.434200  0.483700  0.209900  1.0  0.1308
  H  H39  1  0.267000  0.239100  0.046300  1.0  0.1305
  H  H40  1  0.424500  0.259500  0.023800  1.0  0.1263
  H  H41  1  0.371300  0.350900  0.018300  1.0  0.1335
  H  H42  1  0.275600  0.146300  0.484800  1.0  0.1316
  H  H43  1  0.385100  0.265400  0.409800  1.0  0.1151
  H  H44  1  0.428700  0.169000  0.418100  1.0  0.1288
  H  H45  1  0.126200  0.135000  0.233200  1.0  0.2314
  H  H46  1  0.232600  0.463700  0.877000  1.0  0.239
  H  H47  1  0.230700  0.706100  0.983200  1.0  0.128
  H  H48  1  0.382500  0.728200  0.980100  1.0  0.1237
  H  H49  1  0.357600  0.799600  0.878400  1.0  0.1269
  H  H50  1  0.435700  0.467100  0.769700  1.0  0.1173
  H  H51  1  0.543100  0.585700  0.686400  1.0  0.1248
  H  H52  1  0.565800  0.516300  0.790100  1.0  0.1305
  H  H53  1  0.733000  0.760900  0.953700  1.0  0.1311
  H  H54  1  0.575500  0.740500  0.976200  1.0  0.1268
  H  H55  1  0.628700  0.649100  0.981700  1.0  0.1333
  H  H56  1  0.724400  0.853700  0.515200  1.0  0.1312
  H  H57  1  0.614900  0.734600  0.590200  1.0  0.1145
  H  H58  1  0.571300  0.831000  0.581900  1.0  0.1285
  H  H59  1  0.873800  0.865000  0.766800  1.0  0.2328
  H  H60  1  0.890400  0.123000  0.340700  1.0  0.2394
  H  H61  1  0.786100  0.016800  0.689300  1.0  0.1293
  H  H62  1  0.637400  0.019900  0.708300  1.0  0.1228
  H  H63  1  0.764000  0.121600  0.678000  1.0  0.1265
  H  H64  1  0.794600  0.230300  0.236800  1.0  0.1183
  H  H65  1  0.770500  0.313600  0.272100  1.0  0.1275
  H  H66  1  0.644100  0.209900  0.306400  1.0  0.1313
  H  H67  1  0.313300  0.046300  0.714600  1.0  0.1285
  H  H68  1  0.448300  0.023800  0.716700  1.0  0.1286
  H  H69  1  0.389600  0.018300  0.630800  1.0  0.1317
  H  H70  1  0.760400  0.484800  0.368900  1.0  0.1307
  H  H71  1  0.794900  0.409800  0.324800  1.0  0.1146
  H  H72  1  0.846800  0.418100  0.412900  1.0  0.1286
  H  H73  1  0.359400  0.233200  0.631800  1.0  0.2334
  H  H74  1  0.109600  0.877000  0.659300  1.0  0.2398
  H  H75  1  0.213900  0.983200  0.310700  1.0  0.1283
  H  H76  1  0.362600  0.980100  0.291700  1.0  0.1222
  H  H77  1  0.236000  0.878400  0.322000  1.0  0.1264
  H  H78  1  0.205400  0.769700  0.763200  1.0  0.118
  H  H79  1  0.229500  0.686400  0.727900  1.0  0.1274
  H  H80  1  0.355900  0.790100  0.693600  1.0  0.1326
  H  H81  1  0.686700  0.953700  0.285400  1.0  0.1285
  H  H82  1  0.551700  0.976200  0.283300  1.0  0.1276
  H  H83  1  0.610400  0.981700  0.369200  1.0  0.1316
  H  H84  1  0.239600  0.515200  0.631100  1.0  0.1308
  H  H85  1  0.205100  0.590200  0.675200  1.0  0.1152
  H  H86  1  0.153200  0.581900  0.587100  1.0  0.1289
  H  H87  1  0.640600  0.766800  0.368200  1.0  0.2329
  C  C88  1  0.273360  0.346460  0.739280  1.0  0.2915
  C  C89  1  0.315870  0.552000  0.346890  1.0  0.2164
  C  C90  1  0.200040  0.490440  0.341220  1.0  -0.1732
  C  C91  1  0.153240  0.391210  0.428590  1.0  0.1828
  C  C92  1  0.402250  0.666900  0.271650  1.0  -0.3672
  C  C93  1  0.034500  0.293500  0.468100  1.0  -0.374
  C  C94  1  0.083870  0.596270  0.234260  1.0  0.1802
  C  C95  1  0.140380  0.521420  0.260480  1.0  -0.1892
  C  C96  1  0.115880  0.472240  0.199600  1.0  0.2382
  C  C97  1  0.073450  0.671100  0.274350  1.0  -0.3674
  C  C98  1  0.159980  0.387460  0.194620  1.0  -0.3866
  C  C99  1  0.726640  0.653540  0.260720  1.0  0.2889
  C  C100  1  0.684130  0.448000  0.653110  1.0  0.2164
  C  C101  1  0.799960  0.509560  0.658780  1.0  -0.1738
  C  C102  1  0.846760  0.608790  0.571410  1.0  0.1828
  C  C103  1  0.597750  0.333100  0.728350  1.0  -0.3675
  C  C104  1  0.965500  0.706500  0.531900  1.0  -0.3743
  C  C105  1  0.916130  0.403730  0.765740  1.0  0.18
  C  C106  1  0.859620  0.478580  0.739520  1.0  -0.1893
  C  C107  1  0.884120  0.527760  0.800400  1.0  0.2378
  C  C108  1  0.926550  0.328900  0.725650  1.0  -0.3683
  C  C109  1  0.840020  0.612540  0.805380  1.0  -0.386
  C  C110  1  0.012640  0.739280  0.914260  1.0  0.289
  C  C111  1  0.662760  0.346890  0.101110  1.0  0.2183
  C  C112  1  0.541260  0.341220  0.168340  1.0  -0.1742
  C  C113  1  0.581830  0.428590  0.180200  1.0  0.1819
  C  C114  1  0.673900  0.271650  0.061450  1.0  -0.3691
  C  C115  1  0.502600  0.468100  0.238400  1.0  -0.3737
  C  C116  1  0.318130  0.234260  0.169470  1.0  0.1818
  C  C117  1  0.400860  0.260480  0.218100  1.0  -0.1873
  C  C118  1  0.315480  0.199600  0.328160  1.0  0.2378
  C  C119  1  0.347800  0.274350  0.054550  1.0  -0.3688
  C  C120  1  0.354600  0.194620  0.417920  1.0  -0.3892
  C  C121  1  0.987360  0.260720  0.085740  1.0  0.2909
  C  C122  1  0.337240  0.653110  0.898890  1.0  0.2173
  C  C123  1  0.458740  0.658780  0.831660  1.0  -0.1741
  C  C124  1  0.418170  0.571410  0.819800  1.0  0.1818
  C  C125  1  0.326100  0.728350  0.938550  1.0  -0.3686
  C  C126  1  0.497400  0.531900  0.761600  1.0  -0.3741
  C  C127  1  0.681870  0.765740  0.830530  1.0  0.1801
  C  C128  1  0.599140  0.739520  0.781900  1.0  -0.1883
  C  C129  1  0.684520  0.800400  0.671840  1.0  0.238
  C  C130  1  0.652200  0.725650  0.945450  1.0  -0.3687
  C  C131  1  0.645400  0.805380  0.582080  1.0  -0.3889
  C  C132  1  0.926900  0.914260  0.346460  1.0  0.2906
  C  C133  1  0.763870  0.101110  0.552000  1.0  0.2179
  C  C134  1  0.709600  0.168340  0.490440  1.0  -0.1737
  C  C135  1  0.762030  0.180200  0.391210  1.0  0.1815
  C  C136  1  0.735350  0.061450  0.666900  1.0  -0.3682
  C  C137  1  0.741000  0.238400  0.293500  1.0  -0.3742
  C  C138  1  0.487600  0.169470  0.596270  1.0  0.1805
  C  C139  1  0.618960  0.218100  0.521420  1.0  -0.1888
  C  C140  1  0.643640  0.328160  0.472240  1.0  0.2377
  C  C141  1  0.402350  0.054550  0.671100  1.0  -0.3696
  C  C142  1  0.772520  0.417920  0.387460  1.0  -0.3884
  C  C143  1  0.073100  0.085740  0.653540  1.0  0.2905
  C  C144  1  0.236130  0.898890  0.448000  1.0  0.2181
  C  C145  1  0.290400  0.831660  0.509560  1.0  -0.1736
  C  C146  1  0.237970  0.819800  0.608790  1.0  0.1816
  C  C147  1  0.264650  0.938550  0.333100  1.0  -0.3679
  C  C148  1  0.259000  0.761600  0.706500  1.0  -0.3729
  C  C149  1  0.512400  0.830530  0.403730  1.0  0.1808
  C  C150  1  0.381040  0.781900  0.478580  1.0  -0.1881
  C  C151  1  0.356360  0.671840  0.527760  1.0  0.2378
  C  C152  1  0.597650  0.945450  0.328900  1.0  -0.3692
  C  C153  1  0.227480  0.582080  0.612540  1.0  -0.389
  S  S154  1  0.179720  0.277880  0.865730  1.0  -0.3711
  S  S155  1  0.820280  0.722120  0.134270  1.0  -0.3672
  S  S156  1  0.045450  0.865730  0.856390  1.0  -0.3682
  S  S157  1  0.954550  0.134270  0.143610  1.0  -0.3697
  S  S158  1  0.901840  0.856390  0.277880  1.0  -0.3657
  S  S159  1  0.098160  0.143610  0.722120  1.0  -0.3665
  N  N160  1  0.342470  0.395460  0.649350  1.0  -0.4473
  N  N161  1  0.339480  0.492580  0.431440  1.0  -0.2113
  N  N162  1  0.239200  0.395400  0.478800  1.0  -0.1009
  N  N163  1  0.049640  0.514390  0.140470  1.0  -0.2475
  N  N164  1  0.032000  0.590730  0.163530  1.0  -0.0819
  N  N165  1  0.657530  0.604540  0.350650  1.0  -0.4466
  N  N166  1  0.660520  0.507420  0.568560  1.0  -0.2127
  N  N167  1  0.760800  0.604600  0.521200  1.0  -0.1016
  N  N168  1  0.950360  0.485610  0.859530  1.0  -0.2465
  N  N169  1  0.968000  0.409270  0.836470  1.0  -0.0833
  N  N170  1  0.991820  0.649350  0.955190  1.0  -0.4449
  N  N171  1  0.770920  0.431440  0.075980  1.0  -0.2128
  N  N172  1  0.718000  0.478800  0.125800  1.0  -0.1014
  N  N173  1  0.190110  0.140470  0.345140  1.0  -0.2467
  N  N174  1  0.195530  0.163530  0.245740  1.0  -0.0814
  N  N175  1  0.008180  0.350650  0.044810  1.0  -0.4455
  N  N176  1  0.229080  0.568560  0.924020  1.0  -0.2138
  N  N177  1  0.282000  0.521200  0.874200  1.0  -0.1015
  N  N178  1  0.809890  0.859530  0.654860  1.0  -0.2472
  N  N179  1  0.804470  0.836470  0.754260  1.0  -0.0818
  N  N180  1  0.947010  0.955190  0.395460  1.0  -0.4449
  N  N181  1  0.846900  0.075980  0.492580  1.0  -0.2119
  N  N182  1  0.843800  0.125800  0.395400  1.0  -0.1018
  N  N183  1  0.535250  0.345140  0.514390  1.0  -0.2478
  N  N184  1  0.441270  0.245740  0.590730  1.0  -0.0825
  N  N185  1  0.052990  0.044810  0.604540  1.0  -0.444
  N  N186  1  0.153100  0.924020  0.507420  1.0  -0.2131
  N  N187  1  0.156200  0.874200  0.604600  1.0  -0.1007
  N  N188  1  0.464750  0.654860  0.485610  1.0  -0.2472
  N  N189  1  0.558730  0.754260  0.409270  1.0  -0.0823
