# generated using pymatgen
data_FeH28C22(SN5)2
_symmetry_space_group_name_H-M   'P 1'
_cell_length_a   10.96720000
_cell_length_b   15.05870000
_cell_length_c   15.05870000
_cell_angle_alpha   65.69480000
_cell_angle_beta   75.95020000
_cell_angle_gamma   104.05000000
_symmetry_Int_Tables_number   1
_chemical_formula_structural   FeH28C22(SN5)2
_chemical_formula_sum   'Fe3 H84 C66 S6 N30'
_cell_volume   2026.84446377
_cell_formula_units_Z   3
loop_
 _symmetry_equiv_pos_site_id
 _symmetry_equiv_pos_as_xyz
  1  'x, y, z'
loop_
 _atom_site_type_symbol
 _atom_site_label
 _atom_site_symmetry_multiplicity
 _atom_site_fract_x
 _atom_site_fract_y
 _atom_site_fract_z
 _atom_site_occupancy
 _atom_site_charge
  Fe  Fe1  1  0.500000  0.500000  0.500000  1.0  0.4394
  Fe  Fe2  1  0.000000  0.500000  0.000000  1.0  0.4391
  Fe  Fe3  1  0.000000  0.000000  0.500000  1.0  0.4394
  H  H4  1  0.230800  0.341600  0.536000  1.0  0.2419
  H  H5  1  0.476400  0.689100  0.294000  1.0  0.1249
  H  H6  1  0.347800  0.709200  0.270900  1.0  0.1264
  H  H7  1  0.443500  0.678000  0.200400  1.0  0.128
  H  H8  1  0.031700  0.237300  0.531900  1.0  0.1262
  H  H9  1  0.043200  0.272900  0.413300  1.0  0.1265
  H  H10  1  0.950900  0.306800  0.482900  1.0  0.1313
  H  H11  1  0.028300  0.715800  0.236700  1.0  0.1301
  H  H12  1  0.165400  0.718800  0.257100  1.0  0.1276
  H  H13  1  0.020800  0.633000  0.348900  1.0  0.1332
  H  H14  1  0.129000  0.369200  0.146600  1.0  0.1334
  H  H15  1  0.118800  0.324800  0.266000  1.0  0.1138
  H  H16  1  0.259100  0.412300  0.169900  1.0  0.1291
  H  H17  1  0.991300  0.631300  0.134200  1.0  0.2299
  H  H18  1  0.769200  0.658400  0.464000  1.0  0.2422
  H  H19  1  0.523600  0.310900  0.706000  1.0  0.1248
  H  H20  1  0.652200  0.290800  0.729100  1.0  0.1267
  H  H21  1  0.556500  0.322000  0.799600  1.0  0.1272
  H  H22  1  0.968300  0.762700  0.468100  1.0  0.126
  H  H23  1  0.956800  0.727100  0.586700  1.0  0.1263
  H  H24  1  0.049100  0.693200  0.517100  1.0  0.1311
  H  H25  1  0.971700  0.284200  0.763300  1.0  0.1297
  H  H26  1  0.834600  0.281200  0.742900  1.0  0.1276
  H  H27  1  0.979200  0.367000  0.651100  1.0  0.1334
  H  H28  1  0.871000  0.630800  0.853400  1.0  0.1332
  H  H29  1  0.881200  0.675200  0.734000  1.0  0.1142
  H  H30  1  0.740900  0.587700  0.830100  1.0  0.1291
  H  H31  1  0.008700  0.368700  0.865800  1.0  0.2292
  H  H32  1  0.766800  0.536000  0.122400  1.0  0.242
  H  H33  1  0.770400  0.294000  0.016900  1.0  0.1268
  H  H34  1  0.618700  0.270900  0.019900  1.0  0.1265
  H  H35  1  0.643900  0.200400  0.121600  1.0  0.1283
  H  H36  1  0.563600  0.531900  0.230800  1.0  0.1253
  H  H37  1  0.456500  0.413300  0.313800  1.0  0.1275
  H  H38  1  0.433800  0.482900  0.210300  1.0  0.1294
  H  H39  1  0.265000  0.236700  0.047500  1.0  0.1294
  H  H40  1  0.422500  0.257100  0.024100  1.0  0.1254
  H  H41  1  0.369700  0.348900  0.018100  1.0  0.1364
  H  H42  1  0.275600  0.146600  0.484200  1.0  0.1326
  H  H43  1  0.384800  0.266000  0.409200  1.0  0.1137
  H  H44  1  0.429000  0.169900  0.417800  1.0  0.1287
  H  H45  1  0.125500  0.134200  0.234500  1.0  0.2271
  H  H46  1  0.233200  0.464000  0.877600  1.0  0.2416
  H  H47  1  0.229600  0.706000  0.983100  1.0  0.1264
  H  H48  1  0.381300  0.729100  0.980100  1.0  0.126
  H  H49  1  0.356100  0.799600  0.878400  1.0  0.1275
  H  H50  1  0.436400  0.468100  0.769200  1.0  0.125
  H  H51  1  0.543500  0.586700  0.686200  1.0  0.1265
  H  H52  1  0.566200  0.517100  0.789700  1.0  0.1294
  H  H53  1  0.735000  0.763300  0.952500  1.0  0.1298
  H  H54  1  0.577500  0.742900  0.975900  1.0  0.1254
  H  H55  1  0.630300  0.651100  0.981900  1.0  0.1353
  H  H56  1  0.724400  0.853400  0.515800  1.0  0.1324
  H  H57  1  0.615200  0.734000  0.590800  1.0  0.1138
  H  H58  1  0.571000  0.830100  0.582200  1.0  0.1281
  H  H59  1  0.874500  0.865800  0.765500  1.0  0.2282
  H  H60  1  0.889200  0.122400  0.341600  1.0  0.2421
  H  H61  1  0.787300  0.016900  0.689100  1.0  0.128
  H  H62  1  0.638600  0.019900  0.709200  1.0  0.1222
  H  H63  1  0.765500  0.121600  0.678000  1.0  0.1277
  H  H64  1  0.794400  0.230800  0.237300  1.0  0.1256
  H  H65  1  0.770300  0.313800  0.272900  1.0  0.1293
  H  H66  1  0.644100  0.210300  0.306800  1.0  0.1296
  H  H67  1  0.312500  0.047500  0.715800  1.0  0.1289
  H  H68  1  0.446600  0.024100  0.718800  1.0  0.1307
  H  H69  1  0.387800  0.018100  0.633000  1.0  0.1349
  H  H70  1  0.759800  0.484200  0.369200  1.0  0.1318
  H  H71  1  0.794000  0.409200  0.324800  1.0  0.1138
  H  H72  1  0.846800  0.417800  0.412300  1.0  0.1284
  H  H73  1  0.360000  0.234500  0.631300  1.0  0.2291
  H  H74  1  0.110800  0.877600  0.658400  1.0  0.242
  H  H75  1  0.212700  0.983100  0.310900  1.0  0.127
  H  H76  1  0.361400  0.980100  0.290800  1.0  0.1215
  H  H77  1  0.234500  0.878400  0.322000  1.0  0.1282
  H  H78  1  0.205600  0.769200  0.762700  1.0  0.1257
  H  H79  1  0.229700  0.686200  0.727100  1.0  0.1295
  H  H80  1  0.355900  0.789700  0.693200  1.0  0.1315
  H  H81  1  0.687500  0.952500  0.284200  1.0  0.129
  H  H82  1  0.553400  0.975900  0.281200  1.0  0.1299
  H  H83  1  0.612200  0.981900  0.367000  1.0  0.1346
  H  H84  1  0.240200  0.515800  0.630800  1.0  0.1322
  H  H85  1  0.206000  0.590800  0.675200  1.0  0.1138
  H  H86  1  0.153200  0.582200  0.587700  1.0  0.1284
  H  H87  1  0.640000  0.765500  0.368700  1.0  0.2287
  C  C88  1  0.274580  0.348310  0.738670  1.0  0.2941
  C  C89  1  0.316010  0.552590  0.346460  1.0  0.2172
  C  C90  1  0.200260  0.491370  0.340590  1.0  -0.1814
  C  C91  1  0.153620  0.391500  0.428040  1.0  0.1848
  C  C92  1  0.403440  0.667050  0.271530  1.0  -0.3695
  C  C93  1  0.034770  0.293880  0.467370  1.0  -0.3753
  C  C94  1  0.084650  0.597210  0.233460  1.0  0.1764
  C  C95  1  0.140140  0.521450  0.260030  1.0  -0.1835
  C  C96  1  0.116410  0.472450  0.199720  1.0  0.2376
  C  C97  1  0.073820  0.672660  0.272400  1.0  -0.3642
  C  C98  1  0.159500  0.387450  0.195150  1.0  -0.383
  C  C99  1  0.725420  0.651690  0.261330  1.0  0.2938
  C  C100  1  0.683990  0.447410  0.653540  1.0  0.2172
  C  C101  1  0.799740  0.508630  0.659410  1.0  -0.1813
  C  C102  1  0.846380  0.608500  0.571960  1.0  0.1846
  C  C103  1  0.596560  0.332950  0.728470  1.0  -0.3694
  C  C104  1  0.965230  0.706120  0.532630  1.0  -0.3759
  C  C105  1  0.915350  0.402790  0.766540  1.0  0.1756
  C  C106  1  0.859860  0.478550  0.739970  1.0  -0.1838
  C  C107  1  0.883590  0.527550  0.800280  1.0  0.2375
  C  C108  1  0.926180  0.327340  0.727600  1.0  -0.3652
  C  C109  1  0.840500  0.612550  0.804850  1.0  -0.3818
  C  C110  1  0.013250  0.738670  0.913020  1.0  0.2937
  C  C111  1  0.662470  0.346460  0.100950  1.0  0.2187
  C  C112  1  0.540850  0.340590  0.168040  1.0  -0.1822
  C  C113  1  0.581660  0.428040  0.180460  1.0  0.1845
  C  C114  1  0.674970  0.271530  0.061420  1.0  -0.371
  C  C115  1  0.502140  0.467370  0.238750  1.0  -0.3743
  C  C116  1  0.318110  0.233460  0.169330  1.0  0.1773
  C  C117  1  0.400170  0.260030  0.218520  1.0  -0.1821
  C  C118  1  0.316130  0.199720  0.327830  1.0  0.2377
  C  C119  1  0.346220  0.272400  0.054940  1.0  -0.3658
  C  C120  1  0.354650  0.195150  0.417400  1.0  -0.384
  C  C121  1  0.986750  0.261330  0.086980  1.0  0.2935
  C  C122  1  0.337530  0.653540  0.899050  1.0  0.2174
  C  C123  1  0.459150  0.659410  0.831960  1.0  -0.1822
  C  C124  1  0.418340  0.571960  0.819540  1.0  0.1838
  C  C125  1  0.325030  0.728470  0.938580  1.0  -0.3705
  C  C126  1  0.497860  0.532630  0.761250  1.0  -0.3748
  C  C127  1  0.681890  0.766540  0.830670  1.0  0.1759
  C  C128  1  0.599830  0.739970  0.781480  1.0  -0.1832
  C  C129  1  0.683870  0.800280  0.672170  1.0  0.2375
  C  C130  1  0.653780  0.727600  0.945060  1.0  -0.3655
  C  C131  1  0.645350  0.804850  0.582600  1.0  -0.3841
  C  C132  1  0.926270  0.913020  0.348310  1.0  0.2936
  C  C133  1  0.763420  0.100950  0.552590  1.0  0.2186
  C  C134  1  0.708890  0.168040  0.491370  1.0  -0.1818
  C  C135  1  0.762120  0.180460  0.391500  1.0  0.1837
  C  C136  1  0.736390  0.061420  0.667050  1.0  -0.3702
  C  C137  1  0.740890  0.238750  0.293880  1.0  -0.3748
  C  C138  1  0.487440  0.169330  0.597210  1.0  0.1763
  C  C139  1  0.618690  0.218520  0.521450  1.0  -0.183
  C  C140  1  0.643960  0.327830  0.472450  1.0  0.2366
  C  C141  1  0.401160  0.054940  0.672660  1.0  -0.3666
  C  C142  1  0.772050  0.417400  0.387450  1.0  -0.3836
  C  C143  1  0.073730  0.086980  0.651690  1.0  0.2933
  C  C144  1  0.236580  0.899050  0.447410  1.0  0.2182
  C  C145  1  0.291110  0.831960  0.508630  1.0  -0.1811
  C  C146  1  0.237880  0.819540  0.608500  1.0  0.184
  C  C147  1  0.263610  0.938580  0.332950  1.0  -0.3702
  C  C148  1  0.259110  0.761250  0.706120  1.0  -0.3734
  C  C149  1  0.512560  0.830670  0.402790  1.0  0.1768
  C  C150  1  0.381310  0.781480  0.478550  1.0  -0.1825
  C  C151  1  0.356040  0.672170  0.527550  1.0  0.2377
  C  C152  1  0.598840  0.945060  0.327340  1.0  -0.367
  C  C153  1  0.227950  0.582600  0.612550  1.0  -0.3844
  S  S154  1  0.181500  0.280570  0.865360  1.0  -0.3672
  S  S155  1  0.818500  0.719430  0.134640  1.0  -0.3645
  S  S156  1  0.046860  0.865360  0.854070  1.0  -0.3665
  S  S157  1  0.953140  0.134640  0.145930  1.0  -0.3677
  S  S158  1  0.900930  0.854070  0.280570  1.0  -0.3616
  S  S159  1  0.099070  0.145930  0.719430  1.0  -0.3633
  N  N160  1  0.343240  0.396290  0.648530  1.0  -0.4489
  N  N161  1  0.339350  0.493390  0.430720  1.0  -0.2194
  N  N162  1  0.239060  0.395980  0.478360  1.0  -0.1024
  N  N163  1  0.049130  0.514180  0.140680  1.0  -0.2473
  N  N164  1  0.032220  0.590560  0.162850  1.0  -0.0879
  N  N165  1  0.656760  0.603710  0.351470  1.0  -0.4486
  N  N166  1  0.660650  0.506610  0.569280  1.0  -0.2207
  N  N167  1  0.760940  0.604020  0.521640  1.0  -0.1016
  N  N168  1  0.950870  0.485820  0.859320  1.0  -0.2462
  N  N169  1  0.967780  0.409440  0.837150  1.0  -0.0889
  N  N170  1  0.991770  0.648530  0.955180  1.0  -0.4466
  N  N171  1  0.770070  0.430720  0.075890  1.0  -0.2207
  N  N172  1  0.717420  0.478360  0.125660  1.0  -0.1021
  N  N173  1  0.189810  0.140680  0.345140  1.0  -0.2472
  N  N174  1  0.195070  0.162850  0.246590  1.0  -0.0878
  N  N175  1  0.008230  0.351470  0.044820  1.0  -0.4476
  N  N176  1  0.229930  0.569280  0.924110  1.0  -0.2217
  N  N177  1  0.282580  0.521640  0.874340  1.0  -0.1023
  N  N178  1  0.810190  0.859320  0.654860  1.0  -0.2476
  N  N179  1  0.804930  0.837150  0.753410  1.0  -0.0875
  N  N180  1  0.946950  0.955180  0.396290  1.0  -0.4479
  N  N181  1  0.845960  0.075890  0.493390  1.0  -0.2195
  N  N182  1  0.843080  0.125660  0.395980  1.0  -0.1023
  N  N183  1  0.534950  0.345140  0.514180  1.0  -0.2477
  N  N184  1  0.441660  0.246590  0.590560  1.0  -0.0884
  N  N185  1  0.053050  0.044820  0.603710  1.0  -0.447
  N  N186  1  0.154040  0.924110  0.506610  1.0  -0.2205
  N  N187  1  0.156920  0.874340  0.604020  1.0  -0.1018
  N  N188  1  0.465050  0.654860  0.485820  1.0  -0.2479
  N  N189  1  0.558340  0.753410  0.409440  1.0  -0.0881
