# generated using pymatgen
data_FeH28C22(SN5)2
_symmetry_space_group_name_H-M   'P 1'
_cell_length_a   10.98600000
_cell_length_b   15.10940000
_cell_length_c   15.10940000
_cell_angle_alpha   65.67650000
_cell_angle_beta   75.97380000
_cell_angle_gamma   104.02600000
_symmetry_Int_Tables_number   1
_chemical_formula_structural   FeH28C22(SN5)2
_chemical_formula_sum   'Fe3 H84 C66 S6 N30'
_cell_volume   2044.44114658
_cell_formula_units_Z   3
loop_
 _symmetry_equiv_pos_site_id
 _symmetry_equiv_pos_as_xyz
  1  'x, y, z'
loop_
 _atom_site_type_symbol
 _atom_site_label
 _atom_site_symmetry_multiplicity
 _atom_site_fract_x
 _atom_site_fract_y
 _atom_site_fract_z
 _atom_site_occupancy
 _atom_site_charge
  Fe  Fe1  1  0.500000  0.500000  0.500000  1.0  0.4829
  Fe  Fe2  1  0.000000  0.500000  0.000000  1.0  0.4829
  Fe  Fe3  1  0.000000  0.000000  0.500000  1.0  0.4829
  H  H4  1  0.233000  0.344800  0.532000  1.0  0.2434
  H  H5  1  0.477400  0.687400  0.292000  1.0  0.1222
  H  H6  1  0.351900  0.707100  0.269100  1.0  0.1245
  H  H7  1  0.445400  0.676200  0.200700  1.0  0.129
  H  H8  1  0.034300  0.241700  0.529700  1.0  0.1216
  H  H9  1  0.043900  0.275700  0.414300  1.0  0.1211
  H  H10  1  0.955400  0.310000  0.481900  1.0  0.1297
  H  H11  1  0.026300  0.711000  0.242400  1.0  0.1225
  H  H12  1  0.159600  0.713400  0.263700  1.0  0.1286
  H  H13  1  0.018000  0.628600  0.351700  1.0  0.1304
  H  H14  1  0.135000  0.375200  0.144500  1.0  0.1311
  H  H15  1  0.127800  0.330800  0.260300  1.0  0.1144
  H  H16  1  0.262800  0.418600  0.166000  1.0  0.1269
  H  H17  1  0.991000  0.628500  0.139500  1.0  0.2283
  H  H18  1  0.767000  0.655200  0.468000  1.0  0.2435
  H  H19  1  0.522600  0.312600  0.708000  1.0  0.1222
  H  H20  1  0.648100  0.292900  0.730900  1.0  0.1244
  H  H21  1  0.554600  0.323800  0.799300  1.0  0.1284
  H  H22  1  0.965700  0.758300  0.470300  1.0  0.121
  H  H23  1  0.956100  0.724300  0.585700  1.0  0.1213
  H  H24  1  0.044600  0.690000  0.518100  1.0  0.1296
  H  H25  1  0.973700  0.289000  0.757600  1.0  0.1226
  H  H26  1  0.840400  0.286600  0.736300  1.0  0.1284
  H  H27  1  0.982000  0.371400  0.648300  1.0  0.1306
  H  H28  1  0.865000  0.624800  0.855500  1.0  0.1315
  H  H29  1  0.872200  0.669200  0.739700  1.0  0.1141
  H  H30  1  0.737200  0.581400  0.834000  1.0  0.1263
  H  H31  1  0.009000  0.371500  0.860500  1.0  0.2282
  H  H32  1  0.765000  0.532000  0.123200  1.0  0.2435
  H  H33  1  0.769400  0.292000  0.020600  1.0  0.1244
  H  H34  1  0.621000  0.269100  0.023800  1.0  0.1228
  H  H35  1  0.646100  0.200700  0.123100  1.0  0.1287
  H  H36  1  0.564000  0.529700  0.228600  1.0  0.1207
  H  H37  1  0.458200  0.414300  0.310000  1.0  0.1209
  H  H38  1  0.437300  0.481900  0.208100  1.0  0.1291
  H  H39  1  0.268700  0.242400  0.046600  1.0  0.1278
  H  H40  1  0.423300  0.263700  0.022900  1.0  0.1263
  H  H41  1  0.369700  0.351700  0.019700  1.0  0.1337
  H  H42  1  0.279500  0.144500  0.480300  1.0  0.1308
  H  H43  1  0.388100  0.260300  0.408900  1.0  0.1143
  H  H44  1  0.428800  0.166000  0.415400  1.0  0.1271
  H  H45  1  0.130500  0.139500  0.232000  1.0  0.2252
  H  H46  1  0.235000  0.468000  0.876800  1.0  0.2431
  H  H47  1  0.230600  0.708000  0.979400  1.0  0.1244
  H  H48  1  0.379000  0.730900  0.976200  1.0  0.1223
  H  H49  1  0.353900  0.799300  0.876900  1.0  0.1285
  H  H50  1  0.436000  0.470300  0.771400  1.0  0.1211
  H  H51  1  0.541800  0.585700  0.690000  1.0  0.1201
  H  H52  1  0.562700  0.518100  0.791900  1.0  0.1296
  H  H53  1  0.731300  0.757600  0.953400  1.0  0.1269
  H  H54  1  0.576700  0.736300  0.977100  1.0  0.1275
  H  H55  1  0.630300  0.648300  0.980300  1.0  0.1334
  H  H56  1  0.720500  0.855500  0.519700  1.0  0.1309
  H  H57  1  0.611900  0.739700  0.591100  1.0  0.1145
  H  H58  1  0.571200  0.834000  0.584600  1.0  0.1256
  H  H59  1  0.869500  0.860500  0.768000  1.0  0.2263
  H  H60  1  0.888200  0.123200  0.344800  1.0  0.244
  H  H61  1  0.790000  0.020600  0.687400  1.0  0.1247
  H  H62  1  0.644800  0.023800  0.707100  1.0  0.1298
  H  H63  1  0.769200  0.123100  0.676200  1.0  0.1293
  H  H64  1  0.792600  0.228600  0.241700  1.0  0.1214
  H  H65  1  0.768200  0.310000  0.275700  1.0  0.1238
  H  H66  1  0.645400  0.208100  0.310000  1.0  0.1281
  H  H67  1  0.315300  0.046600  0.711000  1.0  0.1283
  H  H68  1  0.446200  0.022900  0.713400  1.0  0.1333
  H  H69  1  0.389400  0.019700  0.628600  1.0  0.132
  H  H70  1  0.759800  0.480300  0.375200  1.0  0.1316
  H  H71  1  0.797000  0.408900  0.330800  1.0  0.1135
  H  H72  1  0.844200  0.415400  0.418600  1.0  0.1272
  H  H73  1  0.362500  0.232000  0.628500  1.0  0.2276
  H  H74  1  0.111800  0.876800  0.655200  1.0  0.2438
  H  H75  1  0.210000  0.979400  0.312600  1.0  0.1227
  H  H76  1  0.355200  0.976200  0.292900  1.0  0.1304
  H  H77  1  0.230800  0.876900  0.323800  1.0  0.1292
  H  H78  1  0.207400  0.771400  0.758300  1.0  0.121
  H  H79  1  0.231800  0.690000  0.724300  1.0  0.1234
  H  H80  1  0.354600  0.791900  0.690000  1.0  0.1296
  H  H81  1  0.684700  0.953400  0.289000  1.0  0.1266
  H  H82  1  0.553800  0.977100  0.286600  1.0  0.1334
  H  H83  1  0.610600  0.980300  0.371400  1.0  0.1319
  H  H84  1  0.240200  0.519700  0.624800  1.0  0.1316
  H  H85  1  0.203000  0.591100  0.669200  1.0  0.114
  H  H86  1  0.155800  0.584600  0.581400  1.0  0.1271
  H  H87  1  0.637500  0.768000  0.371500  1.0  0.227
  C  C88  1  0.275460  0.348820  0.735640  1.0  0.3093
  C  C89  1  0.318900  0.552600  0.344700  1.0  0.2295
  C  C90  1  0.202110  0.492420  0.339690  1.0  -0.1819
  C  C91  1  0.155800  0.393500  0.426500  1.0  0.1834
  C  C92  1  0.406100  0.665800  0.270100  1.0  -0.3685
  C  C93  1  0.037000  0.296800  0.466600  1.0  -0.3747
  C  C94  1  0.083800  0.595800  0.236400  1.0  0.1703
  C  C95  1  0.142290  0.522410  0.260240  1.0  -0.1903
  C  C96  1  0.119500  0.474600  0.199800  1.0  0.2384
  C  C97  1  0.070800  0.668600  0.277100  1.0  -0.3588
  C  C98  1  0.165200  0.392500  0.192100  1.0  -0.38
  C  C99  1  0.724540  0.651180  0.264360  1.0  0.3094
  C  C100  1  0.681100  0.447400  0.655300  1.0  0.2295
  C  C101  1  0.797890  0.507580  0.660310  1.0  -0.1817
  C  C102  1  0.844200  0.606500  0.573500  1.0  0.1832
  C  C103  1  0.593900  0.334200  0.729900  1.0  -0.369
  C  C104  1  0.963000  0.703200  0.533400  1.0  -0.3756
  C  C105  1  0.916200  0.404200  0.763600  1.0  0.1708
  C  C106  1  0.857710  0.477590  0.739760  1.0  -0.1902
  C  C107  1  0.880500  0.525400  0.800200  1.0  0.2386
  C  C108  1  0.929200  0.331400  0.722900  1.0  -0.3599
  C  C109  1  0.834800  0.607500  0.807900  1.0  -0.3799
  C  C110  1  0.011100  0.735640  0.915540  1.0  0.3082
  C  C111  1  0.663600  0.344700  0.102700  1.0  0.2309
  C  C112  1  0.541800  0.339690  0.167890  1.0  -0.1828
  C  C113  1  0.582300  0.426500  0.180000  1.0  0.1831
  C  C114  1  0.676200  0.270100  0.064100  1.0  -0.3697
  C  C115  1  0.503600  0.466600  0.236600  1.0  -0.3754
  C  C116  1  0.320200  0.236400  0.167800  1.0  0.1722
  C  C117  1  0.402530  0.260240  0.217350  1.0  -0.1899
  C  C118  1  0.319300  0.199800  0.325600  1.0  0.2392
  C  C119  1  0.347900  0.277100  0.054300  1.0  -0.3607
  C  C120  1  0.357300  0.192100  0.415400  1.0  -0.3832
  C  C121  1  0.988900  0.264360  0.084460  1.0  0.3077
  C  C122  1  0.336400  0.655300  0.897300  1.0  0.2296
  C  C123  1  0.458200  0.660310  0.832110  1.0  -0.1827
  C  C124  1  0.417700  0.573500  0.820000  1.0  0.182
  C  C125  1  0.323800  0.729900  0.935900  1.0  -0.3692
  C  C126  1  0.496400  0.533400  0.763400  1.0  -0.3761
  C  C127  1  0.679800  0.763600  0.832200  1.0  0.1713
  C  C128  1  0.597470  0.739760  0.782650  1.0  -0.1906
  C  C129  1  0.680700  0.800200  0.674400  1.0  0.2391
  C  C130  1  0.652100  0.722900  0.945700  1.0  -0.3606
  C  C131  1  0.642700  0.807900  0.584600  1.0  -0.3821
  C  C132  1  0.926640  0.915540  0.348820  1.0  0.3091
  C  C133  1  0.766300  0.102700  0.552600  1.0  0.2309
  C  C134  1  0.709690  0.167890  0.492420  1.0  -0.1819
  C  C135  1  0.762300  0.180000  0.393500  1.0  0.1829
  C  C136  1  0.740300  0.064100  0.665800  1.0  -0.3697
  C  C137  1  0.740200  0.236600  0.296800  1.0  -0.3758
  C  C138  1  0.488000  0.167800  0.595800  1.0  0.1713
  C  C139  1  0.619880  0.217350  0.522410  1.0  -0.1897
  C  C140  1  0.644900  0.325600  0.474600  1.0  0.2389
  C  C141  1  0.402200  0.054300  0.668600  1.0  -0.3601
  C  C142  1  0.772700  0.415400  0.392500  1.0  -0.3816
  C  C143  1  0.073360  0.084460  0.651180  1.0  0.3075
  C  C144  1  0.233700  0.897300  0.447400  1.0  0.2303
  C  C145  1  0.290310  0.832110  0.507580  1.0  -0.1817
  C  C146  1  0.237700  0.820000  0.606500  1.0  0.1825
  C  C147  1  0.259700  0.935900  0.334200  1.0  -0.3694
  C  C148  1  0.259800  0.763400  0.703200  1.0  -0.3752
  C  C149  1  0.512000  0.832200  0.404200  1.0  0.1721
  C  C150  1  0.380120  0.782650  0.477590  1.0  -0.19
  C  C151  1  0.355100  0.674400  0.525400  1.0  0.239
  C  C152  1  0.597800  0.945700  0.331400  1.0  -0.3601
  C  C153  1  0.227300  0.584600  0.607500  1.0  -0.3826
  S  S154  1  0.184200  0.282470  0.860720  1.0  -0.3758
  S  S155  1  0.815800  0.717530  0.139280  1.0  -0.3752
  S  S156  1  0.044920  0.860720  0.856810  1.0  -0.3674
  S  S157  1  0.955080  0.139280  0.143190  1.0  -0.3669
  S  S158  1  0.901730  0.856810  0.282470  1.0  -0.376
  S  S159  1  0.098270  0.143190  0.717530  1.0  -0.3791
  N  N160  1  0.343770  0.396340  0.647230  1.0  -0.4583
  N  N161  1  0.341730  0.493870  0.428380  1.0  -0.2233
  N  N162  1  0.241210  0.397840  0.475810  1.0  -0.1002
  N  N163  1  0.051030  0.515290  0.142300  1.0  -0.2735
  N  N164  1  0.032160  0.589340  0.166460  1.0  -0.0645
  N  N165  1  0.656230  0.603660  0.352770  1.0  -0.4577
  N  N166  1  0.658270  0.506130  0.571620  1.0  -0.2252
  N  N167  1  0.758790  0.602160  0.524190  1.0  -0.0995
  N  N168  1  0.948970  0.484710  0.857700  1.0  -0.2731
  N  N169  1  0.967840  0.410660  0.833540  1.0  -0.0667
  N  N170  1  0.991000  0.647230  0.956430  1.0  -0.4558
  N  N171  1  0.770110  0.428380  0.077750  1.0  -0.2249
  N  N172  1  0.717020  0.475810  0.126350  1.0  -0.0999
  N  N173  1  0.193330  0.142300  0.342410  1.0  -0.2749
  N  N174  1  0.198620  0.166460  0.244200  1.0  -0.0636
  N  N175  1  0.009000  0.352770  0.043570  1.0  -0.4575
  N  N176  1  0.229890  0.571620  0.922250  1.0  -0.2263
  N  N177  1  0.282980  0.524190  0.873650  1.0  -0.1001
  N  N178  1  0.806670  0.857700  0.657590  1.0  -0.2747
  N  N179  1  0.801380  0.833540  0.755800  1.0  -0.0646
  N  N180  1  0.947430  0.956430  0.396340  1.0  -0.4574
  N  N181  1  0.847860  0.077750  0.493870  1.0  -0.2249
  N  N182  1  0.843370  0.126350  0.397840  1.0  -0.1013
  N  N183  1  0.535740  0.342410  0.515290  1.0  -0.2748
  N  N184  1  0.442820  0.244200  0.589340  1.0  -0.0655
  N  N185  1  0.052570  0.043570  0.603660  1.0  -0.4568
  N  N186  1  0.152140  0.922250  0.506130  1.0  -0.2255
  N  N187  1  0.156630  0.873650  0.602160  1.0  -0.0989
  N  N188  1  0.464260  0.657590  0.484710  1.0  -0.2741
  N  N189  1  0.557180  0.755800  0.410660  1.0  -0.065
