# generated using pymatgen
data_FeH28C22(SN5)2
_symmetry_space_group_name_H-M   'P 1'
_cell_length_a   10.94630000
_cell_length_b   15.04630000
_cell_length_c   15.04630000
_cell_angle_alpha   65.68270000
_cell_angle_beta   75.96580000
_cell_angle_gamma   104.03400000
_symmetry_Int_Tables_number   1
_chemical_formula_structural   FeH28C22(SN5)2
_chemical_formula_sum   'Fe3 H84 C66 S6 N30'
_cell_volume   2019.93354763
_cell_formula_units_Z   3
loop_
 _symmetry_equiv_pos_site_id
 _symmetry_equiv_pos_as_xyz
  1  'x, y, z'
loop_
 _atom_site_type_symbol
 _atom_site_label
 _atom_site_symmetry_multiplicity
 _atom_site_fract_x
 _atom_site_fract_y
 _atom_site_fract_z
 _atom_site_occupancy
 _atom_site_charge
  Fe  Fe1  1  0.500000  0.500000  0.500000  1.0  0.4699
  Fe  Fe2  1  0.000000  0.500000  0.000000  1.0  0.4699
  Fe  Fe3  1  0.000000  0.000000  0.500000  1.0  0.4699
  H  H4  1  0.229500  0.341100  0.536400  1.0  0.242
  H  H5  1  0.475800  0.688900  0.294700  1.0  0.1218
  H  H6  1  0.346900  0.709000  0.271600  1.0  0.1247
  H  H7  1  0.443100  0.678300  0.200700  1.0  0.1255
  H  H8  1  0.031000  0.237500  0.532400  1.0  0.1245
  H  H9  1  0.041700  0.272500  0.414100  1.0  0.1251
  H  H10  1  0.949800  0.307000  0.483400  1.0  0.1299
  H  H11  1  0.026800  0.715200  0.237000  1.0  0.1274
  H  H12  1  0.164000  0.718200  0.257700  1.0  0.1246
  H  H13  1  0.019100  0.632300  0.349400  1.0  0.1324
  H  H14  1  0.128600  0.369200  0.146600  1.0  0.1322
  H  H15  1  0.118700  0.324900  0.265800  1.0  0.1121
  H  H16  1  0.259100  0.412400  0.169700  1.0  0.1275
  H  H17  1  0.991600  0.631600  0.133900  1.0  0.2308
  H  H18  1  0.770500  0.658900  0.463600  1.0  0.2423
  H  H19  1  0.524200  0.311100  0.705300  1.0  0.122
  H  H20  1  0.653100  0.291000  0.728400  1.0  0.1253
  H  H21  1  0.556900  0.321700  0.799300  1.0  0.1253
  H  H22  1  0.969000  0.762500  0.467600  1.0  0.1242
  H  H23  1  0.958300  0.727500  0.585900  1.0  0.1254
  H  H24  1  0.050200  0.693000  0.516600  1.0  0.1304
  H  H25  1  0.973200  0.284800  0.763000  1.0  0.1273
  H  H26  1  0.836000  0.281800  0.742300  1.0  0.124
  H  H27  1  0.980900  0.367700  0.650600  1.0  0.1322
  H  H28  1  0.871400  0.630800  0.853400  1.0  0.1318
  H  H29  1  0.881300  0.675100  0.734200  1.0  0.1129
  H  H30  1  0.740900  0.587600  0.830300  1.0  0.127
  H  H31  1  0.008400  0.368400  0.866100  1.0  0.2314
  H  H32  1  0.765900  0.536400  0.122500  1.0  0.2418
  H  H33  1  0.770500  0.294700  0.016400  1.0  0.1244
  H  H34  1  0.618500  0.271600  0.019400  1.0  0.1244
  H  H35  1  0.643800  0.200700  0.121000  1.0  0.127
  H  H36  1  0.563400  0.532400  0.230100  1.0  0.1235
  H  H37  1  0.455800  0.414100  0.313400  1.0  0.1263
  H  H38  1  0.433200  0.483400  0.209600  1.0  0.1286
  H  H39  1  0.263800  0.237000  0.047800  1.0  0.1275
  H  H40  1  0.421700  0.257700  0.024100  1.0  0.1239
  H  H41  1  0.368500  0.349400  0.018300  1.0  0.1357
  H  H42  1  0.275200  0.146600  0.484200  1.0  0.1315
  H  H43  1  0.384500  0.265800  0.409300  1.0  0.1123
  H  H44  1  0.428800  0.169700  0.417900  1.0  0.1273
  H  H45  1  0.125500  0.133900  0.234500  1.0  0.2288
  H  H46  1  0.234100  0.463600  0.877500  1.0  0.2418
  H  H47  1  0.229500  0.705300  0.983600  1.0  0.1236
  H  H48  1  0.381500  0.728400  0.980600  1.0  0.1258
  H  H49  1  0.356200  0.799300  0.879000  1.0  0.126
  H  H50  1  0.436600  0.467600  0.769900  1.0  0.1231
  H  H51  1  0.544200  0.585900  0.686600  1.0  0.1249
  H  H52  1  0.566800  0.516600  0.790400  1.0  0.129
  H  H53  1  0.736200  0.763000  0.952200  1.0  0.1278
  H  H54  1  0.578300  0.742300  0.975900  1.0  0.1242
  H  H55  1  0.631500  0.650600  0.981700  1.0  0.1359
  H  H56  1  0.724800  0.853400  0.515800  1.0  0.131
  H  H57  1  0.615500  0.734200  0.590700  1.0  0.1125
  H  H58  1  0.571200  0.830300  0.582100  1.0  0.1262
  H  H59  1  0.874500  0.866100  0.765500  1.0  0.2299
  H  H60  1  0.888400  0.122500  0.341100  1.0  0.2419
  H  H61  1  0.786900  0.016400  0.688900  1.0  0.1243
  H  H62  1  0.637900  0.019400  0.709000  1.0  0.1246
  H  H63  1  0.764800  0.121000  0.678300  1.0  0.1255
  H  H64  1  0.793500  0.230100  0.237500  1.0  0.1239
  H  H65  1  0.769200  0.313400  0.272500  1.0  0.1276
  H  H66  1  0.642800  0.209600  0.307000  1.0  0.129
  H  H67  1  0.311600  0.047800  0.715200  1.0  0.1283
  H  H68  1  0.445800  0.024100  0.718200  1.0  0.1314
  H  H69  1  0.386800  0.018300  0.632300  1.0  0.1339
  H  H70  1  0.759400  0.484200  0.369200  1.0  0.1306
  H  H71  1  0.793800  0.409300  0.324900  1.0  0.1126
  H  H72  1  0.846700  0.417900  0.412400  1.0  0.1271
  H  H73  1  0.360000  0.234500  0.631600  1.0  0.2314
  H  H74  1  0.111600  0.877500  0.658900  1.0  0.2421
  H  H75  1  0.213100  0.983600  0.311100  1.0  0.1235
  H  H76  1  0.362100  0.980600  0.291000  1.0  0.1247
  H  H77  1  0.235200  0.879000  0.321700  1.0  0.1257
  H  H78  1  0.206500  0.769900  0.762500  1.0  0.124
  H  H79  1  0.230800  0.686600  0.727500  1.0  0.1285
  H  H80  1  0.357200  0.790400  0.693000  1.0  0.1304
  H  H81  1  0.688400  0.952200  0.284800  1.0  0.1283
  H  H82  1  0.554200  0.975900  0.281800  1.0  0.1304
  H  H83  1  0.613200  0.981700  0.367700  1.0  0.1337
  H  H84  1  0.240600  0.515800  0.630800  1.0  0.1309
  H  H85  1  0.206200  0.590700  0.675100  1.0  0.1124
  H  H86  1  0.153300  0.582100  0.587600  1.0  0.1271
  H  H87  1  0.640000  0.765500  0.368400  1.0  0.2304
  C  C88  1  0.275010  0.348640  0.738310  1.0  0.2942
  C  C89  1  0.315390  0.552260  0.346790  1.0  0.2277
  C  C90  1  0.199750  0.491500  0.340750  1.0  -0.1819
  C  C91  1  0.152800  0.391720  0.428020  1.0  0.1832
  C  C92  1  0.402740  0.666950  0.272030  1.0  -0.3658
  C  C93  1  0.033710  0.293890  0.467860  1.0  -0.3766
  C  C94  1  0.083370  0.596900  0.233990  1.0  0.1773
  C  C95  1  0.139920  0.521540  0.260180  1.0  -0.1923
  C  C96  1  0.116150  0.472590  0.199740  1.0  0.2369
  C  C97  1  0.072360  0.672030  0.272850  1.0  -0.3605
  C  C98  1  0.159340  0.387470  0.195050  1.0  -0.3857
  C  C99  1  0.724990  0.651360  0.261690  1.0  0.2931
  C  C100  1  0.684610  0.447740  0.653210  1.0  0.2273
  C  C101  1  0.800250  0.508500  0.659250  1.0  -0.1818
  C  C102  1  0.847200  0.608280  0.571980  1.0  0.1829
  C  C103  1  0.597260  0.333050  0.727970  1.0  -0.366
  C  C104  1  0.966290  0.706110  0.532140  1.0  -0.3769
  C  C105  1  0.916630  0.403100  0.766010  1.0  0.1768
  C  C106  1  0.860080  0.478460  0.739820  1.0  -0.1921
  C  C107  1  0.883850  0.527410  0.800260  1.0  0.2371
  C  C108  1  0.927640  0.327970  0.727150  1.0  -0.3612
  C  C109  1  0.840660  0.612530  0.804950  1.0  -0.3846
  C  C110  1  0.013320  0.738310  0.913050  1.0  0.2932
  C  C111  1  0.662180  0.346790  0.100950  1.0  0.2284
  C  C112  1  0.540500  0.340750  0.167750  1.0  -0.1824
  C  C113  1  0.580820  0.428020  0.180260  1.0  0.1829
  C  C114  1  0.674770  0.272030  0.061020  1.0  -0.3685
  C  C115  1  0.501570  0.467860  0.238250  1.0  -0.3759
  C  C116  1  0.317360  0.233990  0.169110  1.0  0.1784
  C  C117  1  0.400100  0.260180  0.218280  1.0  -0.1903
  C  C118  1  0.315890  0.199740  0.327670  1.0  0.2371
  C  C119  1  0.345210  0.272850  0.055120  1.0  -0.3619
  C  C120  1  0.354390  0.195050  0.417480  1.0  -0.3877
  C  C121  1  0.986680  0.261690  0.086950  1.0  0.2934
  C  C122  1  0.337820  0.653210  0.899050  1.0  0.2275
  C  C123  1  0.459500  0.659250  0.832250  1.0  -0.1827
  C  C124  1  0.419180  0.571980  0.819740  1.0  0.1825
  C  C125  1  0.325230  0.727970  0.938980  1.0  -0.3673
  C  C126  1  0.498430  0.532140  0.761750  1.0  -0.3763
  C  C127  1  0.682640  0.766010  0.830890  1.0  0.1767
  C  C128  1  0.599900  0.739820  0.781720  1.0  -0.1912
  C  C129  1  0.684110  0.800260  0.672330  1.0  0.2369
  C  C130  1  0.654790  0.727150  0.944880  1.0  -0.3619
  C  C131  1  0.645610  0.804950  0.582520  1.0  -0.388
  C  C132  1  0.926370  0.913050  0.348640  1.0  0.2928
  C  C133  1  0.763130  0.100950  0.552260  1.0  0.2281
  C  C134  1  0.708250  0.167750  0.491500  1.0  -0.1822
  C  C135  1  0.761080  0.180260  0.391720  1.0  0.1827
  C  C136  1  0.735790  0.061020  0.666950  1.0  -0.3691
  C  C137  1  0.739820  0.238250  0.293890  1.0  -0.3764
  C  C138  1  0.486470  0.169110  0.596900  1.0  0.1779
  C  C139  1  0.618380  0.218280  0.521540  1.0  -0.1913
  C  C140  1  0.643560  0.327670  0.472590  1.0  0.2362
  C  C141  1  0.400330  0.055120  0.672030  1.0  -0.3624
  C  C142  1  0.771870  0.417480  0.387470  1.0  -0.387
  C  C143  1  0.073630  0.086950  0.651360  1.0  0.2933
  C  C144  1  0.236870  0.899050  0.447740  1.0  0.2284
  C  C145  1  0.291750  0.832250  0.508500  1.0  -0.1815
  C  C146  1  0.238920  0.819740  0.608280  1.0  0.1826
  C  C147  1  0.264210  0.938980  0.333050  1.0  -0.3688
  C  C148  1  0.260180  0.761750  0.706110  1.0  -0.375
  C  C149  1  0.513530  0.830890  0.403100  1.0  0.1775
  C  C150  1  0.381620  0.781720  0.478460  1.0  -0.191
  C  C151  1  0.356440  0.672330  0.527410  1.0  0.2364
  C  C152  1  0.599670  0.944880  0.327970  1.0  -0.3626
  C  C153  1  0.228130  0.582520  0.612530  1.0  -0.3874
  S  S154  1  0.182000  0.280380  0.865050  1.0  -0.3675
  S  S155  1  0.818000  0.719620  0.134950  1.0  -0.365
  S  S156  1  0.047050  0.865050  0.854570  1.0  -0.3659
  S  S157  1  0.952950  0.134950  0.145430  1.0  -0.3666
  S  S158  1  0.901620  0.854570  0.280380  1.0  -0.3615
  S  S159  1  0.098380  0.145430  0.719620  1.0  -0.3638
  N  N160  1  0.343460  0.396520  0.648130  1.0  -0.4521
  N  N161  1  0.338860  0.493280  0.431000  1.0  -0.2188
  N  N162  1  0.238050  0.395670  0.478680  1.0  -0.1017
  N  N163  1  0.048830  0.514290  0.140760  1.0  -0.2562
  N  N164  1  0.032000  0.590500  0.163000  1.0  -0.0793
  N  N165  1  0.656540  0.603480  0.351870  1.0  -0.4517
  N  N166  1  0.661140  0.506720  0.569000  1.0  -0.2201
  N  N167  1  0.761950  0.604330  0.521320  1.0  -0.102
  N  N168  1  0.951170  0.485710  0.859240  1.0  -0.2553
  N  N169  1  0.968000  0.409500  0.837000  1.0  -0.0802
  N  N170  1  0.991590  0.648130  0.955350  1.0  -0.4498
  N  N171  1  0.769860  0.431000  0.075720  1.0  -0.2201
  N  N172  1  0.716730  0.478680  0.125650  1.0  -0.1014
  N  N173  1  0.189590  0.140760  0.344950  1.0  -0.2562
  N  N174  1  0.195000  0.163000  0.246500  1.0  -0.0784
  N  N175  1  0.008410  0.351870  0.044650  1.0  -0.4507
  N  N176  1  0.230140  0.569000  0.924280  1.0  -0.221
  N  N177  1  0.283270  0.521320  0.874350  1.0  -0.1019
  N  N178  1  0.810410  0.859240  0.655050  1.0  -0.2566
  N  N179  1  0.805000  0.837000  0.753500  1.0  -0.0788
  N  N180  1  0.946940  0.955350  0.396520  1.0  -0.4508
  N  N181  1  0.845580  0.075720  0.493280  1.0  -0.2189
  N  N182  1  0.842380  0.125650  0.395670  1.0  -0.1024
  N  N183  1  0.534540  0.344950  0.514290  1.0  -0.2565
  N  N184  1  0.441500  0.246500  0.590500  1.0  -0.0792
  N  N185  1  0.053060  0.044650  0.603480  1.0  -0.4498
  N  N186  1  0.154420  0.924280  0.506720  1.0  -0.2201
  N  N187  1  0.157620  0.874350  0.604330  1.0  -0.101
  N  N188  1  0.465460  0.655050  0.485710  1.0  -0.2563
  N  N189  1  0.558500  0.753500  0.409500  1.0  -0.0782
