# generated using pymatgen
data_FeH28C22(SN5)2
_symmetry_space_group_name_H-M   'P 1'
_cell_length_a   11.03850000
_cell_length_b   15.17580000
_cell_length_c   15.17580000
_cell_angle_alpha   65.68070000
_cell_angle_beta   75.96840000
_cell_angle_gamma   104.03200000
_symmetry_Int_Tables_number   1
_chemical_formula_structural   FeH28C22(SN5)2
_chemical_formula_sum   'Fe3 H84 C66 S6 N30'
_cell_volume   2072.19774776
_cell_formula_units_Z   3
loop_
 _symmetry_equiv_pos_site_id
 _symmetry_equiv_pos_as_xyz
  1  'x, y, z'
loop_
 _atom_site_type_symbol
 _atom_site_label
 _atom_site_symmetry_multiplicity
 _atom_site_fract_x
 _atom_site_fract_y
 _atom_site_fract_z
 _atom_site_occupancy
 _atom_site_charge
  Fe  Fe1  1  0.500000  0.500000  0.500000  1.0  0.5141
  Fe  Fe2  1  0.000000  0.500000  0.000000  1.0  0.5141
  Fe  Fe3  1  0.000000  0.000000  0.500000  1.0  0.5141
  H  H4  1  0.233200  0.344500  0.531700  1.0  0.2439
  H  H5  1  0.476600  0.686800  0.291700  1.0  0.1244
  H  H6  1  0.352100  0.706900  0.268300  1.0  0.1343
  H  H7  1  0.444600  0.675200  0.200900  1.0  0.1341
  H  H8  1  0.034300  0.242400  0.529200  1.0  0.1191
  H  H9  1  0.043600  0.276100  0.414400  1.0  0.1218
  H  H10  1  0.955800  0.310400  0.481700  1.0  0.1293
  H  H11  1  0.026900  0.710800  0.241300  1.0  0.1267
  H  H12  1  0.159800  0.713600  0.262100  1.0  0.1322
  H  H13  1  0.019000  0.629500  0.350200  1.0  0.1307
  H  H14  1  0.135400  0.375200  0.144800  1.0  0.1319
  H  H15  1  0.128100  0.331200  0.260100  1.0  0.1163
  H  H16  1  0.262600  0.418700  0.166100  1.0  0.1287
  H  H17  1  0.991600  0.628700  0.139400  1.0  0.2359
  H  H18  1  0.766800  0.655500  0.468300  1.0  0.2439
  H  H19  1  0.523400  0.313200  0.708300  1.0  0.1238
  H  H20  1  0.647900  0.293100  0.731700  1.0  0.1335
  H  H21  1  0.555400  0.324800  0.799100  1.0  0.1322
  H  H22  1  0.965700  0.757600  0.470800  1.0  0.1191
  H  H23  1  0.956400  0.723900  0.585600  1.0  0.1213
  H  H24  1  0.044200  0.689600  0.518300  1.0  0.1296
  H  H25  1  0.973100  0.289200  0.758700  1.0  0.1264
  H  H26  1  0.840200  0.286400  0.737900  1.0  0.1316
  H  H27  1  0.981000  0.370500  0.649800  1.0  0.1314
  H  H28  1  0.864600  0.624800  0.855200  1.0  0.1325
  H  H29  1  0.871900  0.668800  0.739900  1.0  0.1165
  H  H30  1  0.737400  0.581300  0.833900  1.0  0.1282
  H  H31  1  0.008400  0.371300  0.860600  1.0  0.236
  H  H32  1  0.764900  0.531700  0.123800  1.0  0.2442
  H  H33  1  0.768300  0.291700  0.021500  1.0  0.1262
  H  H34  1  0.620400  0.268300  0.024800  1.0  0.1241
  H  H35  1  0.645500  0.200900  0.123900  1.0  0.1327
  H  H36  1  0.563500  0.529200  0.228400  1.0  0.1185
  H  H37  1  0.458000  0.414400  0.309500  1.0  0.1217
  H  H38  1  0.437500  0.481700  0.207900  1.0  0.1289
  H  H39  1  0.268200  0.241300  0.047900  1.0  0.1271
  H  H40  1  0.421900  0.262100  0.024300  1.0  0.1257
  H  H41  1  0.369200  0.350200  0.020300  1.0  0.1332
  H  H42  1  0.280200  0.144800  0.480000  1.0  0.1321
  H  H43  1  0.388200  0.260100  0.408700  1.0  0.1174
  H  H44  1  0.428700  0.166100  0.415200  1.0  0.1283
  H  H45  1  0.131000  0.139400  0.231900  1.0  0.2338
  H  H46  1  0.235100  0.468300  0.876200  1.0  0.2434
  H  H47  1  0.231700  0.708300  0.978500  1.0  0.1253
  H  H48  1  0.379600  0.731700  0.975200  1.0  0.1241
  H  H49  1  0.354500  0.799100  0.876100  1.0  0.1318
  H  H50  1  0.436500  0.470800  0.771600  1.0  0.1187
  H  H51  1  0.542000  0.585600  0.690500  1.0  0.1213
  H  H52  1  0.562500  0.518300  0.792100  1.0  0.1299
  H  H53  1  0.731800  0.758700  0.952100  1.0  0.1269
  H  H54  1  0.578100  0.737900  0.975700  1.0  0.1267
  H  H55  1  0.630800  0.649800  0.979700  1.0  0.1328
  H  H56  1  0.719800  0.855200  0.520000  1.0  0.1325
  H  H57  1  0.611800  0.739900  0.591300  1.0  0.1168
  H  H58  1  0.571300  0.833900  0.584800  1.0  0.1276
  H  H59  1  0.869000  0.860600  0.768100  1.0  0.2341
  H  H60  1  0.888700  0.123800  0.344500  1.0  0.2442
  H  H61  1  0.789800  0.021500  0.686800  1.0  0.1271
  H  H62  1  0.645200  0.024800  0.706900  1.0  0.127
  H  H63  1  0.769400  0.123900  0.675200  1.0  0.1331
  H  H64  1  0.791900  0.228400  0.242400  1.0  0.1189
  H  H65  1  0.767500  0.309500  0.276100  1.0  0.1244
  H  H66  1  0.645400  0.207900  0.310400  1.0  0.1278
  H  H67  1  0.316100  0.047900  0.710800  1.0  0.1251
  H  H68  1  0.446200  0.024300  0.713600  1.0  0.1262
  H  H69  1  0.389500  0.020300  0.629500  1.0  0.1316
  H  H70  1  0.760200  0.480000  0.375200  1.0  0.1328
  H  H71  1  0.796900  0.408700  0.331200  1.0  0.1157
  H  H72  1  0.843900  0.415200  0.418700  1.0  0.1279
  H  H73  1  0.362900  0.231900  0.628700  1.0  0.236
  H  H74  1  0.111300  0.876200  0.655500  1.0  0.244
  H  H75  1  0.210200  0.978500  0.313200  1.0  0.1258
  H  H76  1  0.354800  0.975200  0.293100  1.0  0.1277
  H  H77  1  0.230600  0.876100  0.324800  1.0  0.1332
  H  H78  1  0.208100  0.771600  0.757600  1.0  0.1191
  H  H79  1  0.232500  0.690500  0.723900  1.0  0.1246
  H  H80  1  0.354600  0.792100  0.689600  1.0  0.13
  H  H81  1  0.683900  0.952100  0.289200  1.0  0.1243
  H  H82  1  0.553800  0.975700  0.286400  1.0  0.1255
  H  H83  1  0.610500  0.979700  0.370500  1.0  0.1309
  H  H84  1  0.239800  0.520000  0.624800  1.0  0.1325
  H  H85  1  0.203100  0.591300  0.668800  1.0  0.1161
  H  H86  1  0.156100  0.584800  0.581300  1.0  0.1276
  H  H87  1  0.637100  0.768100  0.371300  1.0  0.2352
  C  C88  1  0.275990  0.349280  0.735710  1.0  0.3057
  C  C89  1  0.318480  0.552950  0.344510  1.0  0.2306
  C  C90  1  0.202770  0.492660  0.339450  1.0  -0.1788
  C  C91  1  0.155800  0.393900  0.426000  1.0  0.18
  C  C92  1  0.405700  0.665400  0.269700  1.0  -0.3735
  C  C93  1  0.036900  0.297200  0.466400  1.0  -0.3698
  C  C94  1  0.083700  0.595200  0.236100  1.0  0.1708
  C  C95  1  0.141810  0.521950  0.260620  1.0  -0.1899
  C  C96  1  0.119640  0.474640  0.199420  1.0  0.2438
  C  C97  1  0.071300  0.668900  0.275900  1.0  -0.3557
  C  C98  1  0.165500  0.392700  0.192000  1.0  -0.3788
  C  C99  1  0.724010  0.650720  0.264290  1.0  0.3071
  C  C100  1  0.681520  0.447050  0.655490  1.0  0.2308
  C  C101  1  0.797230  0.507340  0.660550  1.0  -0.1787
  C  C102  1  0.844200  0.606100  0.574000  1.0  0.18
  C  C103  1  0.594300  0.334600  0.730300  1.0  -0.3756
  C  C104  1  0.963100  0.702800  0.533600  1.0  -0.3712
  C  C105  1  0.916300  0.404800  0.763900  1.0  0.1707
  C  C106  1  0.858190  0.478050  0.739380  1.0  -0.1897
  C  C107  1  0.880360  0.525360  0.800580  1.0  0.2437
  C  C108  1  0.928700  0.331100  0.724100  1.0  -0.3571
  C  C109  1  0.834500  0.607300  0.808000  1.0  -0.3789
  C  C110  1  0.011700  0.735710  0.915010  1.0  0.3051
  C  C111  1  0.662990  0.344510  0.102540  1.0  0.2317
  C  C112  1  0.542220  0.339450  0.167890  1.0  -0.1796
  C  C113  1  0.581800  0.426000  0.180100  1.0  0.1796
  C  C114  1  0.675400  0.269700  0.064900  1.0  -0.3755
  C  C115  1  0.503300  0.466400  0.236400  1.0  -0.3695
  C  C116  1  0.319800  0.236100  0.168700  1.0  0.1728
  C  C117  1  0.402430  0.260620  0.217430  1.0  -0.1876
  C  C118  1  0.319060  0.199420  0.325940  1.0  0.2437
  C  C119  1  0.347200  0.275900  0.055200  1.0  -0.3577
  C  C120  1  0.357500  0.192000  0.415300  1.0  -0.3846
  C  C121  1  0.988300  0.264290  0.084990  1.0  0.3055
  C  C122  1  0.337010  0.655490  0.897460  1.0  0.231
  C  C123  1  0.457780  0.660550  0.832110  1.0  -0.1798
  C  C124  1  0.418200  0.574000  0.819900  1.0  0.1793
  C  C125  1  0.324600  0.730300  0.935100  1.0  -0.3746
  C  C126  1  0.496700  0.533600  0.763600  1.0  -0.3711
  C  C127  1  0.680200  0.763900  0.831300  1.0  0.1708
  C  C128  1  0.597570  0.739380  0.782570  1.0  -0.1883
  C  C129  1  0.680940  0.800580  0.674060  1.0  0.2437
  C  C130  1  0.652800  0.724100  0.944800  1.0  -0.358
  C  C131  1  0.642500  0.808000  0.584700  1.0  -0.3819
  C  C132  1  0.926710  0.915010  0.349280  1.0  0.3074
  C  C133  1  0.765530  0.102540  0.552950  1.0  0.2327
  C  C134  1  0.710110  0.167890  0.492660  1.0  -0.1794
  C  C135  1  0.761900  0.180100  0.393900  1.0  0.1801
  C  C136  1  0.740300  0.064900  0.665400  1.0  -0.3752
  C  C137  1  0.739700  0.236400  0.297200  1.0  -0.3709
  C  C138  1  0.488500  0.168700  0.595200  1.0  0.1719
  C  C139  1  0.619860  0.217430  0.521950  1.0  -0.189
  C  C140  1  0.645000  0.325940  0.474640  1.0  0.2427
  C  C141  1  0.402400  0.055200  0.668900  1.0  -0.3569
  C  C142  1  0.772800  0.415300  0.392700  1.0  -0.3804
  C  C143  1  0.073290  0.084990  0.650720  1.0  0.3041
  C  C144  1  0.234470  0.897460  0.447050  1.0  0.2326
  C  C145  1  0.289890  0.832110  0.507340  1.0  -0.1785
  C  C146  1  0.238100  0.819900  0.606100  1.0  0.1798
  C  C147  1  0.259700  0.935100  0.334600  1.0  -0.3738
  C  C148  1  0.260300  0.763600  0.702800  1.0  -0.3704
  C  C149  1  0.511500  0.831300  0.404800  1.0  0.1727
  C  C150  1  0.380140  0.782570  0.478050  1.0  -0.1877
  C  C151  1  0.355000  0.674060  0.525360  1.0  0.2436
  C  C152  1  0.597600  0.944800  0.331100  1.0  -0.3575
  C  C153  1  0.227200  0.584700  0.607300  1.0  -0.3812
  S  S154  1  0.184440  0.282770  0.860660  1.0  -0.3695
  S  S155  1  0.815560  0.717230  0.139340  1.0  -0.3677
  S  S156  1  0.045100  0.860660  0.856570  1.0  -0.3722
  S  S157  1  0.954900  0.139340  0.143430  1.0  -0.3719
  S  S158  1  0.901670  0.856570  0.282770  1.0  -0.374
  S  S159  1  0.098330  0.143430  0.717230  1.0  -0.3763
  N  N160  1  0.343680  0.396360  0.646620  1.0  -0.4677
  N  N161  1  0.341380  0.493980  0.428340  1.0  -0.238
  N  N162  1  0.241300  0.397560  0.475860  1.0  -0.0993
  N  N163  1  0.050680  0.515000  0.142460  1.0  -0.2879
  N  N164  1  0.032150  0.589520  0.166370  1.0  -0.0702
  N  N165  1  0.656320  0.603640  0.353380  1.0  -0.4686
  N  N166  1  0.658620  0.506020  0.571660  1.0  -0.2393
  N  N167  1  0.758700  0.602440  0.524140  1.0  -0.0996
  N  N168  1  0.949320  0.485000  0.857540  1.0  -0.2874
  N  N169  1  0.967850  0.410480  0.833630  1.0  -0.0722
  N  N170  1  0.990300  0.646620  0.957020  1.0  -0.4667
  N  N171  1  0.769720  0.428340  0.077680  1.0  -0.239
  N  N172  1  0.717160  0.475860  0.126580  1.0  -0.0998
  N  N173  1  0.193140  0.142460  0.342540  1.0  -0.2892
  N  N174  1  0.198520  0.166370  0.244110  1.0  -0.0701
  N  N175  1  0.009700  0.353380  0.042980  1.0  -0.4671
  N  N176  1  0.230280  0.571660  0.922320  1.0  -0.2405
  N  N177  1  0.282840  0.524140  0.873420  1.0  -0.0998
  N  N178  1  0.806860  0.857540  0.657460  1.0  -0.2887
  N  N179  1  0.801480  0.833630  0.755890  1.0  -0.0698
  N  N180  1  0.947320  0.957020  0.396360  1.0  -0.467
  N  N181  1  0.847400  0.077680  0.493980  1.0  -0.2389
  N  N182  1  0.843740  0.126580  0.397560  1.0  -0.1009
  N  N183  1  0.535680  0.342540  0.515000  1.0  -0.2886
  N  N184  1  0.442630  0.244110  0.589520  1.0  -0.0709
  N  N185  1  0.052680  0.042980  0.603640  1.0  -0.4675
  N  N186  1  0.152600  0.922320  0.506020  1.0  -0.2405
  N  N187  1  0.156260  0.873420  0.602440  1.0  -0.0989
  N  N188  1  0.464320  0.657460  0.485000  1.0  -0.2881
  N  N189  1  0.557370  0.755890  0.410480  1.0  -0.071
