# generated using pymatgen
data_FeH26C22(SN5)2
_symmetry_space_group_name_H-M   'P 1'
_cell_length_a   11.02150000
_cell_length_b   15.14860000
_cell_length_c   15.14860000
_cell_angle_alpha   65.68350000
_cell_angle_beta   75.96470000
_cell_angle_gamma   104.03500000
_symmetry_Int_Tables_number   1
_chemical_formula_structural   FeH26C22(SN5)2
_chemical_formula_sum   'Fe3 H78 C66 S6 N30'
_cell_volume   2061.54092051
_cell_formula_units_Z   3
loop_
 _symmetry_equiv_pos_site_id
 _symmetry_equiv_pos_as_xyz
  1  'x, y, z'
loop_
 _atom_site_type_symbol
 _atom_site_label
 _atom_site_symmetry_multiplicity
 _atom_site_fract_x
 _atom_site_fract_y
 _atom_site_fract_z
 _atom_site_occupancy
 _atom_site_charge
  Fe  Fe1  1  0.500000  0.500000  0.500000  1.0  0.9505
  Fe  Fe2  1  0.000000  0.500000  0.000000  1.0  0.9547
  Fe  Fe3  1  0.000000  0.000000  0.500000  1.0  0.9547
  H  H4  1  0.477000  0.687200  0.291800  1.0  0.1228
  H  H5  1  0.352100  0.707200  0.268600  1.0  0.1298
  H  H6  1  0.445200  0.676100  0.200600  1.0  0.1324
  H  H7  1  0.034500  0.241600  0.528700  1.0  0.1263
  H  H8  1  0.044900  0.275800  0.413500  1.0  0.125
  H  H9  1  0.955600  0.309400  0.481000  1.0  0.1247
  H  H10  1  0.026600  0.711200  0.241700  1.0  0.1257
  H  H11  1  0.159700  0.713900  0.262400  1.0  0.1292
  H  H12  1  0.018600  0.629500  0.350500  1.0  0.1382
  H  H13  1  0.135400  0.375400  0.145000  1.0  0.1347
  H  H14  1  0.127900  0.331300  0.260500  1.0  0.1269
  H  H15  1  0.262700  0.419000  0.166400  1.0  0.1307
  H  H16  1  0.990900  0.628100  0.139400  1.0  0.2394
  H  H17  1  0.523000  0.312800  0.708200  1.0  0.123
  H  H18  1  0.647900  0.292800  0.731400  1.0  0.1298
  H  H19  1  0.554800  0.323900  0.799400  1.0  0.131
  H  H20  1  0.965500  0.758400  0.471300  1.0  0.1266
  H  H21  1  0.955100  0.724200  0.586500  1.0  0.1244
  H  H22  1  0.044400  0.690600  0.519000  1.0  0.1247
  H  H23  1  0.973400  0.288800  0.758300  1.0  0.1257
  H  H24  1  0.840300  0.286100  0.737600  1.0  0.1292
  H  H25  1  0.981400  0.370500  0.649500  1.0  0.1388
  H  H26  1  0.864600  0.624600  0.855000  1.0  0.1352
  H  H27  1  0.872100  0.668700  0.739500  1.0  0.1278
  H  H28  1  0.737300  0.581000  0.833600  1.0  0.1295
  H  H29  1  0.009100  0.371900  0.860600  1.0  0.2396
  H  H30  1  0.768800  0.291800  0.021000  1.0  0.1247
  H  H31  1  0.620700  0.268600  0.024200  1.0  0.1287
  H  H32  1  0.645800  0.200600  0.123300  1.0  0.1323
  H  H33  1  0.563200  0.528700  0.229700  1.0  0.1267
  H  H34  1  0.458400  0.413500  0.310700  1.0  0.1247
  H  H35  1  0.436600  0.481000  0.209600  1.0  0.1246
  H  H36  1  0.268300  0.241700  0.047100  1.0  0.1278
  H  H37  1  0.422100  0.262400  0.023700  1.0  0.1257
  H  H38  1  0.369100  0.350500  0.020000  1.0  0.1408
  H  H39  1  0.280400  0.145000  0.479600  1.0  0.1347
  H  H40  1  0.388400  0.260500  0.408200  1.0  0.1275
  H  H41  1  0.429100  0.166400  0.414600  1.0  0.1301
  H  H42  1  0.130300  0.139400  0.232500  1.0  0.2372
  H  H43  1  0.231200  0.708200  0.979000  1.0  0.1247
  H  H44  1  0.379300  0.731400  0.975800  1.0  0.1283
  H  H45  1  0.354200  0.799400  0.876700  1.0  0.1308
  H  H46  1  0.436800  0.471300  0.770300  1.0  0.126
  H  H47  1  0.541600  0.586500  0.689300  1.0  0.125
  H  H48  1  0.563400  0.519000  0.790400  1.0  0.1249
  H  H49  1  0.731700  0.758300  0.952900  1.0  0.1271
  H  H50  1  0.577900  0.737600  0.976300  1.0  0.1275
  H  H51  1  0.630900  0.649500  0.980000  1.0  0.1417
  H  H52  1  0.719600  0.855000  0.520400  1.0  0.135
  H  H53  1  0.611600  0.739500  0.591800  1.0  0.128
  H  H54  1  0.570900  0.833600  0.585400  1.0  0.1289
  H  H55  1  0.869700  0.860600  0.767500  1.0  0.2359
  H  H56  1  0.789800  0.021000  0.687200  1.0  0.1261
  H  H57  1  0.644900  0.024200  0.707200  1.0  0.1355
  H  H58  1  0.769100  0.123300  0.676100  1.0  0.1324
  H  H59  1  0.792900  0.229700  0.241600  1.0  0.1263
  H  H60  1  0.769100  0.310700  0.275800  1.0  0.1275
  H  H61  1  0.646200  0.209600  0.309400  1.0  0.1232
  H  H62  1  0.315400  0.047100  0.711200  1.0  0.1307
  H  H63  1  0.445800  0.023700  0.713900  1.0  0.1342
  H  H64  1  0.389100  0.020000  0.629500  1.0  0.1386
  H  H65  1  0.760000  0.479600  0.375400  1.0  0.1353
  H  H66  1  0.796600  0.408200  0.331300  1.0  0.1272
  H  H67  1  0.843700  0.414600  0.419000  1.0  0.1303
  H  H68  1  0.362800  0.232500  0.628100  1.0  0.2391
  H  H69  1  0.210200  0.979000  0.312800  1.0  0.1249
  H  H70  1  0.355100  0.975800  0.292800  1.0  0.1365
  H  H71  1  0.230900  0.876700  0.323900  1.0  0.1324
  H  H72  1  0.207100  0.770300  0.758400  1.0  0.1257
  H  H73  1  0.230900  0.689300  0.724200  1.0  0.1266
  H  H74  1  0.353800  0.790400  0.690600  1.0  0.1245
  H  H75  1  0.684600  0.952900  0.288800  1.0  0.1277
  H  H76  1  0.554200  0.976300  0.286100  1.0  0.1349
  H  H77  1  0.610900  0.980000  0.370500  1.0  0.138
  H  H78  1  0.240000  0.520400  0.624600  1.0  0.1349
  H  H79  1  0.203400  0.591800  0.668700  1.0  0.1267
  H  H80  1  0.156300  0.585400  0.581000  1.0  0.1297
  H  H81  1  0.637200  0.767500  0.371900  1.0  0.2379
  C  C82  1  0.276090  0.349230  0.735960  1.0  0.3264
  C  C83  1  0.318580  0.552690  0.344550  1.0  0.2496
  C  C84  1  0.202020  0.492320  0.339860  1.0  -0.1559
  C  C85  1  0.155740  0.393880  0.426160  1.0  0.2252
  C  C86  1  0.405900  0.665800  0.269800  1.0  -0.3827
  C  C87  1  0.037200  0.296600  0.465800  1.0  -0.3734
  C  C88  1  0.083600  0.595600  0.235900  1.0  0.178
  C  C89  1  0.141550  0.522650  0.260300  1.0  -0.177
  C  C90  1  0.119400  0.475090  0.199690  1.0  0.2557
  C  C91  1  0.071000  0.669000  0.276300  1.0  -0.3592
  C  C92  1  0.165400  0.392900  0.192200  1.0  -0.3809
  C  C93  1  0.723910  0.650770  0.264040  1.0  0.3273
  C  C94  1  0.681420  0.447310  0.655450  1.0  0.251
  C  C95  1  0.797980  0.507680  0.660140  1.0  -0.1559
  C  C96  1  0.844260  0.606120  0.573840  1.0  0.2264
  C  C97  1  0.594100  0.334200  0.730200  1.0  -0.3815
  C  C98  1  0.962800  0.703400  0.534200  1.0  -0.3734
  C  C99  1  0.916400  0.404400  0.764100  1.0  0.1779
  C  C100  1  0.858450  0.477350  0.739700  1.0  -0.1772
  C  C101  1  0.880600  0.524910  0.800310  1.0  0.2554
  C  C102  1  0.929000  0.331000  0.723700  1.0  -0.3599
  C  C103  1  0.834600  0.607100  0.807800  1.0  -0.3815
  C  C104  1  0.012050  0.735960  0.914810  1.0  0.3257
  C  C105  1  0.663130  0.344550  0.102760  1.0  0.2517
  C  C106  1  0.541880  0.339860  0.167820  1.0  -0.1568
  C  C107  1  0.581900  0.426160  0.179960  1.0  0.2267
  C  C108  1  0.675700  0.269800  0.064400  1.0  -0.383
  C  C109  1  0.503000  0.465800  0.237600  1.0  -0.3723
  C  C110  1  0.319500  0.235900  0.168500  1.0  0.18
  C  C111  1  0.401850  0.260300  0.217050  1.0  -0.1761
  C  C112  1  0.319090  0.199690  0.325220  1.0  0.2552
  C  C113  1  0.347300  0.276300  0.054700  1.0  -0.3602
  C  C114  1  0.357600  0.192200  0.414900  1.0  -0.3856
  C  C115  1  0.987950  0.264040  0.085190  1.0  0.3276
  C  C116  1  0.336870  0.655450  0.897240  1.0  0.2525
  C  C117  1  0.458120  0.660140  0.832180  1.0  -0.1568
  C  C118  1  0.418100  0.573840  0.820040  1.0  0.2251
  C  C119  1  0.324300  0.730200  0.935600  1.0  -0.3817
  C  C120  1  0.497000  0.534200  0.762400  1.0  -0.3728
  C  C121  1  0.680500  0.764100  0.831500  1.0  0.1785
  C  C122  1  0.598150  0.739700  0.782950  1.0  -0.1761
  C  C123  1  0.680910  0.800310  0.674780  1.0  0.2554
  C  C124  1  0.652700  0.723700  0.945300  1.0  -0.3602
  C  C125  1  0.642400  0.807800  0.585100  1.0  -0.3838
  C  C126  1  0.926860  0.914810  0.349230  1.0  0.3277
  C  C127  1  0.765890  0.102760  0.552690  1.0  0.2526
  C  C128  1  0.709700  0.167820  0.492320  1.0  -0.1566
  C  C129  1  0.761860  0.179960  0.393880  1.0  0.2257
  C  C130  1  0.740100  0.064400  0.665800  1.0  -0.3816
  C  C131  1  0.740600  0.237600  0.296600  1.0  -0.3726
  C  C132  1  0.488000  0.168500  0.595600  1.0  0.1776
  C  C133  1  0.618900  0.217050  0.522650  1.0  -0.1768
  C  C134  1  0.644310  0.325220  0.475090  1.0  0.2545
  C  C135  1  0.402000  0.054700  0.669000  1.0  -0.3614
  C  C136  1  0.772500  0.414900  0.392900  1.0  -0.3818
  C  C137  1  0.073140  0.085190  0.650770  1.0  0.3264
  C  C138  1  0.234110  0.897240  0.447310  1.0  0.2522
  C  C139  1  0.290300  0.832180  0.507680  1.0  -0.1556
  C  C140  1  0.238140  0.820040  0.606120  1.0  0.2272
  C  C141  1  0.259900  0.935600  0.334200  1.0  -0.382
  C  C142  1  0.259400  0.762400  0.703400  1.0  -0.3719
  C  C143  1  0.512000  0.831500  0.404400  1.0  0.178
  C  C144  1  0.381100  0.782950  0.477350  1.0  -0.1767
  C  C145  1  0.355690  0.674780  0.524910  1.0  0.2545
  C  C146  1  0.598000  0.945300  0.331000  1.0  -0.3605
  C  C147  1  0.227500  0.585100  0.607100  1.0  -0.3829
  S  S148  1  0.184520  0.282800  0.860630  1.0  -0.2783
  S  S149  1  0.815480  0.717200  0.139370  1.0  -0.2775
  S  S150  1  0.045150  0.860630  0.856570  1.0  -0.2818
  S  S151  1  0.954850  0.139370  0.143430  1.0  -0.2802
  S  S152  1  0.901720  0.856570  0.282800  1.0  -0.2581
  S  S153  1  0.098280  0.143430  0.717200  1.0  -0.2576
  N  N154  1  0.343250  0.396240  0.646590  1.0  -0.4779
  N  N155  1  0.341620  0.493960  0.428200  1.0  -0.2658
  N  N156  1  0.241240  0.397970  0.476150  1.0  -0.2801
  N  N157  1  0.050550  0.515230  0.142180  1.0  -0.3247
  N  N158  1  0.031970  0.589170  0.166260  1.0  -0.0537
  N  N159  1  0.656750  0.603760  0.353410  1.0  -0.478
  N  N160  1  0.658380  0.506040  0.571800  1.0  -0.2629
  N  N161  1  0.758760  0.602030  0.523850  1.0  -0.2823
  N  N162  1  0.949450  0.484770  0.857820  1.0  -0.3243
  N  N163  1  0.968030  0.410830  0.833740  1.0  -0.056
  N  N164  1  0.989840  0.646590  0.957170  1.0  -0.477
  N  N165  1  0.769820  0.428200  0.077840  1.0  -0.2657
  N  N166  1  0.717390  0.476150  0.125880  1.0  -0.2815
  N  N167  1  0.192730  0.142180  0.342590  1.0  -0.3269
  N  N168  1  0.198230  0.166260  0.244570  1.0  -0.0515
  N  N169  1  0.010160  0.353410  0.042830  1.0  -0.4759
  N  N170  1  0.230180  0.571800  0.922160  1.0  -0.2654
  N  N171  1  0.282610  0.523850  0.874120  1.0  -0.2804
  N  N172  1  0.807270  0.857820  0.657410  1.0  -0.3262
  N  N173  1  0.801770  0.833740  0.755430  1.0  -0.0522
  N  N174  1  0.947010  0.957170  0.396240  1.0  -0.4767
  N  N175  1  0.847660  0.077840  0.493960  1.0  -0.263
  N  N176  1  0.843270  0.125880  0.397970  1.0  -0.2842
  N  N177  1  0.535320  0.342590  0.515230  1.0  -0.3266
  N  N178  1  0.442800  0.244570  0.589170  1.0  -0.0544
  N  N179  1  0.052990  0.042830  0.603760  1.0  -0.4758
  N  N180  1  0.152340  0.922160  0.506040  1.0  -0.2655
  N  N181  1  0.156730  0.874120  0.602030  1.0  -0.2832
  N  N182  1  0.464680  0.657410  0.484770  1.0  -0.3251
  N  N183  1  0.557200  0.755430  0.410830  1.0  -0.0537
