# generated using pymatgen
data_CuH44(C27N2)2
_symmetry_space_group_name_H-M   'P 1'
_cell_length_a   12.81990000
_cell_length_b   12.81990000
_cell_length_c   32.61700000
_cell_angle_alpha   90.00000000
_cell_angle_beta   90.00000000
_cell_angle_gamma   90.00000000
_symmetry_Int_Tables_number   1
_chemical_formula_structural   CuH44(C27N2)2
_chemical_formula_sum   'Cu4 H176 C216 N16'
_cell_volume   5360.59860114
_cell_formula_units_Z   4
loop_
 _symmetry_equiv_pos_site_id
 _symmetry_equiv_pos_as_xyz
  1  'x, y, z'
loop_
 _atom_site_type_symbol
 _atom_site_label
 _atom_site_symmetry_multiplicity
 _atom_site_fract_x
 _atom_site_fract_y
 _atom_site_fract_z
 _atom_site_occupancy
 _atom_site_charge
  Cu  Cu1  1  0.500000  0.000000  0.250000  1.0  0.3765
  Cu  Cu2  1  0.500000  0.000000  0.750000  1.0  0.3765
  Cu  Cu3  1  0.000000  0.500000  0.250000  1.0  0.3765
  Cu  Cu4  1  0.000000  0.500000  0.750000  1.0  0.3765
  H  H5  1  0.542300  0.871600  0.322900  1.0  0.0675
  H  H6  1  0.281300  0.957600  0.274800  1.0  0.084
  H  H7  1  0.458400  0.782600  0.374100  1.0  0.1124
  H  H8  1  0.189900  0.868300  0.323700  1.0  0.1143
  H  H9  1  0.372600  0.690000  0.415000  1.0  0.103
  H  H10  1  0.111100  0.805100  0.370500  1.0  0.1119
  H  H11  1  0.277700  0.596400  0.462300  1.0  0.0965
  H  H12  1  0.018000  0.717200  0.419200  1.0  0.088
  H  H13  1  0.180900  0.456900  0.482900  1.0  0.0736
  H  H14  1  0.043700  0.457100  0.429000  1.0  0.0682
  H  H15  1  0.043600  0.683300  0.516900  1.0  0.0815
  H  H16  1  0.457700  0.128400  0.322900  1.0  0.0657
  H  H17  1  0.718700  0.042400  0.274800  1.0  0.0842
  H  H18  1  0.541600  0.217400  0.374100  1.0  0.1117
  H  H19  1  0.810100  0.131700  0.323700  1.0  0.1135
  H  H20  1  0.627400  0.310000  0.415000  1.0  0.1041
  H  H21  1  0.888900  0.194900  0.370500  1.0  0.1117
  H  H22  1  0.722300  0.403600  0.462300  1.0  0.0964
  H  H23  1  0.982000  0.282800  0.419200  1.0  0.0871
  H  H24  1  0.819100  0.543100  0.482900  1.0  0.0744
  H  H25  1  0.956300  0.542900  0.429000  1.0  0.0694
  H  H26  1  0.956400  0.316700  0.516900  1.0  0.0817
  H  H27  1  0.628400  0.042300  0.822900  1.0  0.0641
  H  H28  1  0.542400  0.781300  0.774800  1.0  0.0837
  H  H29  1  0.717400  0.958400  0.874100  1.0  0.1121
  H  H30  1  0.631700  0.689900  0.823700  1.0  0.1148
  H  H31  1  0.810000  0.872600  0.915000  1.0  0.1021
  H  H32  1  0.694900  0.611100  0.870500  1.0  0.1116
  H  H33  1  0.903600  0.777700  0.962300  1.0  0.0979
  H  H34  1  0.782800  0.518000  0.919200  1.0  0.087
  H  H35  1  0.043100  0.680900  0.982900  1.0  0.0758
  H  H36  1  0.042900  0.543700  0.929000  1.0  0.0695
  H  H37  1  0.816700  0.543600  0.016900  1.0  0.0823
  H  H38  1  0.371600  0.957700  0.822900  1.0  0.0634
  H  H39  1  0.457600  0.218700  0.774800  1.0  0.0842
  H  H40  1  0.282600  0.041600  0.874100  1.0  0.1127
  H  H41  1  0.368300  0.310100  0.823700  1.0  0.1136
  H  H42  1  0.190000  0.127400  0.915000  1.0  0.1015
  H  H43  1  0.305100  0.388900  0.870500  1.0  0.1122
  H  H44  1  0.096400  0.222300  0.962300  1.0  0.0976
  H  H45  1  0.217200  0.482000  0.919200  1.0  0.087
  H  H46  1  0.956900  0.319100  0.982900  1.0  0.0743
  H  H47  1  0.957100  0.456300  0.929000  1.0  0.0682
  H  H48  1  0.183300  0.456400  0.016900  1.0  0.0808
  H  H49  1  0.457700  0.871600  0.677100  1.0  0.0662
  H  H50  1  0.718700  0.957600  0.725200  1.0  0.0843
  H  H51  1  0.541600  0.782600  0.625900  1.0  0.1121
  H  H52  1  0.810100  0.868300  0.676300  1.0  0.113
  H  H53  1  0.627400  0.690000  0.585000  1.0  0.1031
  H  H54  1  0.888900  0.805100  0.629500  1.0  0.1119
  H  H55  1  0.722300  0.596400  0.537700  1.0  0.0957
  H  H56  1  0.982000  0.717200  0.580800  1.0  0.0867
  H  H57  1  0.819100  0.456900  0.517100  1.0  0.0747
  H  H58  1  0.956300  0.457100  0.571000  1.0  0.0691
  H  H59  1  0.956400  0.683300  0.483100  1.0  0.0838
  H  H60  1  0.542300  0.128400  0.677100  1.0  0.0683
  H  H61  1  0.281300  0.042400  0.725200  1.0  0.0842
  H  H62  1  0.458400  0.217400  0.625900  1.0  0.1129
  H  H63  1  0.189900  0.131700  0.676300  1.0  0.1134
  H  H64  1  0.372600  0.310000  0.585000  1.0  0.1032
  H  H65  1  0.111100  0.194900  0.629500  1.0  0.1113
  H  H66  1  0.277700  0.403600  0.537700  1.0  0.0966
  H  H67  1  0.018000  0.282800  0.580800  1.0  0.0872
  H  H68  1  0.180900  0.543100  0.517100  1.0  0.0746
  H  H69  1  0.043700  0.542900  0.571000  1.0  0.0685
  H  H70  1  0.043600  0.316700  0.483100  1.0  0.0824
  H  H71  1  0.371600  0.042300  0.177100  1.0  0.0638
  H  H72  1  0.457600  0.781300  0.225200  1.0  0.0841
  H  H73  1  0.282600  0.958400  0.125900  1.0  0.1133
  H  H74  1  0.368300  0.689900  0.176300  1.0  0.1142
  H  H75  1  0.190000  0.872600  0.085000  1.0  0.1016
  H  H76  1  0.305100  0.611100  0.129500  1.0  0.1114
  H  H77  1  0.096400  0.777700  0.037700  1.0  0.0983
  H  H78  1  0.217200  0.518000  0.080800  1.0  0.0868
  H  H79  1  0.956900  0.680900  0.017100  1.0  0.0755
  H  H80  1  0.957100  0.543700  0.071000  1.0  0.0683
  H  H81  1  0.183300  0.543600  0.983100  1.0  0.0817
  H  H82  1  0.628400  0.957700  0.177100  1.0  0.0651
  H  H83  1  0.542400  0.218700  0.225200  1.0  0.0843
  H  H84  1  0.717400  0.041600  0.125900  1.0  0.1126
  H  H85  1  0.631700  0.310100  0.176300  1.0  0.113
  H  H86  1  0.810000  0.127400  0.085000  1.0  0.1023
  H  H87  1  0.694900  0.388900  0.129500  1.0  0.1114
  H  H88  1  0.903600  0.222300  0.037700  1.0  0.0966
  H  H89  1  0.782800  0.482000  0.080800  1.0  0.0871
  H  H90  1  0.043100  0.319100  0.017100  1.0  0.077
  H  H91  1  0.042900  0.456300  0.071000  1.0  0.069
  H  H92  1  0.816700  0.456400  0.983100  1.0  0.0823
  H  H93  1  0.042300  0.371600  0.822900  1.0  0.0675
  H  H94  1  0.781300  0.457600  0.774800  1.0  0.084
  H  H95  1  0.958400  0.282600  0.874100  1.0  0.113
  H  H96  1  0.689900  0.368300  0.823700  1.0  0.1143
  H  H97  1  0.872600  0.190000  0.915000  1.0  0.103
  H  H98  1  0.611100  0.305100  0.870500  1.0  0.1119
  H  H99  1  0.777700  0.096400  0.962300  1.0  0.0965
  H  H100  1  0.518000  0.217200  0.919200  1.0  0.088
  H  H101  1  0.680900  0.956900  0.982900  1.0  0.0736
  H  H102  1  0.543700  0.957100  0.929000  1.0  0.0682
  H  H103  1  0.543600  0.183300  0.016900  1.0  0.0815
  H  H104  1  0.957700  0.628400  0.822900  1.0  0.0657
  H  H105  1  0.218700  0.542400  0.774800  1.0  0.0842
  H  H106  1  0.041600  0.717400  0.874100  1.0  0.1124
  H  H107  1  0.310100  0.631700  0.823700  1.0  0.1135
  H  H108  1  0.127400  0.810000  0.915000  1.0  0.1041
  H  H109  1  0.388900  0.694900  0.870500  1.0  0.1117
  H  H110  1  0.222300  0.903600  0.962300  1.0  0.0964
  H  H111  1  0.482000  0.782800  0.919200  1.0  0.0871
  H  H112  1  0.319100  0.043100  0.982900  1.0  0.0744
  H  H113  1  0.456300  0.042900  0.929000  1.0  0.0694
  H  H114  1  0.456400  0.816700  0.016900  1.0  0.0817
  H  H115  1  0.128400  0.542300  0.322900  1.0  0.0641
  H  H116  1  0.042400  0.281300  0.274800  1.0  0.0837
  H  H117  1  0.217400  0.458400  0.374100  1.0  0.1127
  H  H118  1  0.131700  0.189900  0.323700  1.0  0.1148
  H  H119  1  0.310000  0.372600  0.415000  1.0  0.1021
  H  H120  1  0.194900  0.111100  0.370500  1.0  0.1116
  H  H121  1  0.403600  0.277700  0.462300  1.0  0.0979
  H  H122  1  0.282800  0.018000  0.419200  1.0  0.087
  H  H123  1  0.543100  0.180900  0.482900  1.0  0.0758
  H  H124  1  0.542900  0.043700  0.429000  1.0  0.0695
  H  H125  1  0.316700  0.043600  0.516900  1.0  0.0823
  H  H126  1  0.871600  0.457700  0.322900  1.0  0.0634
  H  H127  1  0.957600  0.718700  0.274800  1.0  0.0842
  H  H128  1  0.782600  0.541600  0.374100  1.0  0.1135
  H  H129  1  0.868300  0.810100  0.323700  1.0  0.1136
  H  H130  1  0.690000  0.627400  0.415000  1.0  0.1015
  H  H131  1  0.805100  0.888900  0.370500  1.0  0.1122
  H  H132  1  0.596400  0.722300  0.462300  1.0  0.0976
  H  H133  1  0.717200  0.982000  0.419200  1.0  0.087
  H  H134  1  0.456900  0.819100  0.482900  1.0  0.0743
  H  H135  1  0.457100  0.956300  0.429000  1.0  0.0682
  H  H136  1  0.683300  0.956400  0.516900  1.0  0.0808
  H  H137  1  0.957700  0.371600  0.177100  1.0  0.0662
  H  H138  1  0.218700  0.457600  0.225200  1.0  0.0843
  H  H139  1  0.041600  0.282600  0.125900  1.0  0.1128
  H  H140  1  0.310100  0.368300  0.176300  1.0  0.113
  H  H141  1  0.127400  0.190000  0.085000  1.0  0.1031
  H  H142  1  0.388900  0.305100  0.129500  1.0  0.1119
  H  H143  1  0.222300  0.096400  0.037700  1.0  0.0957
  H  H144  1  0.482000  0.217200  0.080800  1.0  0.0867
  H  H145  1  0.319100  0.956900  0.017100  1.0  0.0747
  H  H146  1  0.456300  0.957100  0.071000  1.0  0.0691
  H  H147  1  0.456400  0.183300  0.983100  1.0  0.0838
  H  H148  1  0.042300  0.628400  0.177100  1.0  0.0683
  H  H149  1  0.781300  0.542400  0.225200  1.0  0.0842
  H  H150  1  0.958400  0.717400  0.125900  1.0  0.1135
  H  H151  1  0.689900  0.631700  0.176300  1.0  0.1134
  H  H152  1  0.872600  0.810000  0.085000  1.0  0.1032
  H  H153  1  0.611100  0.694900  0.129500  1.0  0.1113
  H  H154  1  0.777700  0.903600  0.037700  1.0  0.0966
  H  H155  1  0.518000  0.782800  0.080800  1.0  0.0872
  H  H156  1  0.680900  0.043100  0.017100  1.0  0.0746
  H  H157  1  0.543700  0.042900  0.071000  1.0  0.0685
  H  H158  1  0.543600  0.816700  0.983100  1.0  0.0824
  H  H159  1  0.871600  0.542300  0.677100  1.0  0.0638
  H  H160  1  0.957600  0.281300  0.725200  1.0  0.0841
  H  H161  1  0.782600  0.458400  0.625900  1.0  0.114
  H  H162  1  0.868300  0.189900  0.676300  1.0  0.1142
  H  H163  1  0.690000  0.372600  0.585000  1.0  0.1016
  H  H164  1  0.805100  0.111100  0.629500  1.0  0.1114
  H  H165  1  0.596400  0.277700  0.537700  1.0  0.0983
  H  H166  1  0.717200  0.018000  0.580800  1.0  0.0868
  H  H167  1  0.456900  0.180900  0.517100  1.0  0.0755
  H  H168  1  0.457100  0.043700  0.571000  1.0  0.0683
  H  H169  1  0.683300  0.043600  0.483100  1.0  0.0817
  H  H170  1  0.128400  0.457700  0.677100  1.0  0.0651
  H  H171  1  0.042400  0.718700  0.725200  1.0  0.0843
  H  H172  1  0.217400  0.541600  0.625900  1.0  0.1133
  H  H173  1  0.131700  0.810100  0.676300  1.0  0.113
  H  H174  1  0.310000  0.627400  0.585000  1.0  0.1023
  H  H175  1  0.194900  0.888900  0.629500  1.0  0.1114
  H  H176  1  0.403600  0.722300  0.537700  1.0  0.0966
  H  H177  1  0.282800  0.982000  0.580800  1.0  0.0871
  H  H178  1  0.543100  0.819100  0.517100  1.0  0.077
  H  H179  1  0.542900  0.956300  0.571000  1.0  0.069
  H  H180  1  0.316700  0.956400  0.483100  1.0  0.0823
  C  C181  1  0.469700  0.871200  0.323000  1.0  0.1713
  C  C182  1  0.317600  0.921000  0.294900  1.0  0.1366
  C  C183  1  0.419700  0.817200  0.354200  1.0  -0.2194
  C  C184  1  0.262400  0.868100  0.324500  1.0  -0.1651
  C  C185  1  0.312800  0.815000  0.355400  1.0  0.075
  C  C186  1  0.252500  0.756500  0.386800  1.0  0.0304
  C  C187  1  0.300200  0.694500  0.414800  1.0  -0.1199
  C  C188  1  0.146500  0.762500  0.389000  1.0  -0.1427
  C  C189  1  0.242400  0.637300  0.443300  1.0  -0.1905
  C  C190  1  0.089800  0.707000  0.417900  1.0  -0.1824
  C  C191  1  0.133800  0.639400  0.444200  1.0  0.0651
  C  C192  1  0.068900  0.570200  0.472600  1.0  0.1085
  C  C193  1  0.530300  0.128800  0.323000  1.0  0.1708
  C  C194  1  0.682400  0.079000  0.294900  1.0  0.1363
  C  C195  1  0.580300  0.182800  0.354200  1.0  -0.2177
  C  C196  1  0.737600  0.131900  0.324500  1.0  -0.1674
  C  C197  1  0.687200  0.185000  0.355400  1.0  0.0761
  C  C198  1  0.747500  0.243500  0.386800  1.0  0.0304
  C  C199  1  0.699800  0.305500  0.414800  1.0  -0.1197
  C  C200  1  0.853500  0.237500  0.389000  1.0  -0.1432
  C  C201  1  0.757600  0.362700  0.443300  1.0  -0.1896
  C  C202  1  0.910200  0.293000  0.417900  1.0  -0.1804
  C  C203  1  0.866200  0.360600  0.444200  1.0  0.0644
  C  C204  1  0.931100  0.429800  0.472600  1.0  0.1063
  C  C205  1  0.628800  0.969700  0.823000  1.0  0.1739
  C  C206  1  0.579000  0.817600  0.794900  1.0  0.1351
  C  C207  1  0.682800  0.919700  0.854200  1.0  -0.2178
  C  C208  1  0.631900  0.762400  0.824500  1.0  -0.1713
  C  C209  1  0.685000  0.812800  0.855400  1.0  0.0756
  C  C210  1  0.743500  0.752500  0.886800  1.0  0.0299
  C  C211  1  0.805500  0.800200  0.914800  1.0  -0.1229
  C  C212  1  0.737500  0.646500  0.889000  1.0  -0.1408
  C  C213  1  0.862700  0.742400  0.943300  1.0  -0.1927
  C  C214  1  0.793000  0.589800  0.917900  1.0  -0.1772
  C  C215  1  0.860600  0.633800  0.944200  1.0  0.0642
  C  C216  1  0.929800  0.568900  0.972600  1.0  0.1074
  C  C217  1  0.371200  0.030300  0.823000  1.0  0.1715
  C  C218  1  0.421000  0.182400  0.794900  1.0  0.1355
  C  C219  1  0.317200  0.080300  0.854200  1.0  -0.2179
  C  C220  1  0.368100  0.237600  0.824500  1.0  -0.1696
  C  C221  1  0.315000  0.187200  0.855400  1.0  0.0758
  C  C222  1  0.256500  0.247500  0.886800  1.0  0.0301
  C  C223  1  0.194500  0.199800  0.914800  1.0  -0.1202
  C  C224  1  0.262500  0.353500  0.889000  1.0  -0.1416
  C  C225  1  0.137300  0.257600  0.943300  1.0  -0.1929
  C  C226  1  0.207000  0.410200  0.917900  1.0  -0.178
  C  C227  1  0.139400  0.366200  0.944200  1.0  0.0658
  C  C228  1  0.070200  0.431100  0.972600  1.0  0.1079
  C  C229  1  0.530300  0.871200  0.677000  1.0  0.1708
  C  C230  1  0.682400  0.921000  0.705100  1.0  0.1367
  C  C231  1  0.580300  0.817200  0.645800  1.0  -0.2184
  C  C232  1  0.737600  0.868100  0.675500  1.0  -0.1676
  C  C233  1  0.687200  0.815000  0.644600  1.0  0.0749
  C  C234  1  0.747500  0.756500  0.613200  1.0  0.0299
  C  C235  1  0.699800  0.694500  0.585200  1.0  -0.1189
  C  C236  1  0.853500  0.762500  0.611000  1.0  -0.1432
  C  C237  1  0.757600  0.637300  0.556700  1.0  -0.1904
  C  C238  1  0.910200  0.707000  0.582100  1.0  -0.1814
  C  C239  1  0.866200  0.639400  0.555800  1.0  0.065
  C  C240  1  0.931100  0.570200  0.527400  1.0  0.1083
  C  C241  1  0.469700  0.128800  0.677000  1.0  0.1724
  C  C242  1  0.317600  0.079000  0.705100  1.0  0.1364
  C  C243  1  0.419700  0.182800  0.645800  1.0  -0.219
  C  C244  1  0.262400  0.131900  0.675500  1.0  -0.1641
  C  C245  1  0.312800  0.185000  0.644600  1.0  0.0749
  C  C246  1  0.252500  0.243500  0.613200  1.0  0.0299
  C  C247  1  0.300200  0.305500  0.585200  1.0  -0.12
  C  C248  1  0.146500  0.237500  0.611000  1.0  -0.1413
  C  C249  1  0.242400  0.362700  0.556700  1.0  -0.1899
  C  C250  1  0.089800  0.293000  0.582100  1.0  -0.1804
  C  C251  1  0.133800  0.360600  0.555800  1.0  0.0656
  C  C252  1  0.068900  0.429800  0.527400  1.0  0.1073
  C  C253  1  0.371200  0.969700  0.177000  1.0  0.174
  C  C254  1  0.421000  0.817600  0.205100  1.0  0.1359
  C  C255  1  0.317200  0.919700  0.145800  1.0  -0.2171
  C  C256  1  0.368100  0.762400  0.175500  1.0  -0.1686
  C  C257  1  0.315000  0.812800  0.144600  1.0  0.0754
  C  C258  1  0.256500  0.752500  0.113200  1.0  0.0295
  C  C259  1  0.194500  0.800200  0.085200  1.0  -0.1223
  C  C260  1  0.262500  0.646500  0.111000  1.0  -0.1409
  C  C261  1  0.137300  0.742400  0.056700  1.0  -0.1932
  C  C262  1  0.207000  0.589800  0.082100  1.0  -0.1783
  C  C263  1  0.139400  0.633800  0.055800  1.0  0.0649
  C  C264  1  0.070200  0.568900  0.027400  1.0  0.1089
  C  C265  1  0.628800  0.030300  0.177000  1.0  0.1731
  C  C266  1  0.579000  0.182400  0.205100  1.0  0.1345
  C  C267  1  0.682800  0.080300  0.145800  1.0  -0.2191
  C  C268  1  0.631900  0.237600  0.175500  1.0  -0.1701
  C  C269  1  0.685000  0.187200  0.144600  1.0  0.0751
  C  C270  1  0.743500  0.247500  0.113200  1.0  0.0294
  C  C271  1  0.805500  0.199800  0.085200  1.0  -0.1187
  C  C272  1  0.737500  0.353500  0.111000  1.0  -0.1401
  C  C273  1  0.862700  0.257600  0.056700  1.0  -0.1931
  C  C274  1  0.793000  0.410200  0.082100  1.0  -0.1766
  C  C275  1  0.860600  0.366200  0.055800  1.0  0.0647
  C  C276  1  0.929800  0.431100  0.027400  1.0  0.1067
  C  C277  1  0.136400  0.500000  0.500000  1.0  -0.207
  C  C278  1  0.863600  0.500000  0.500000  1.0  -0.2139
  C  C279  1  0.000000  0.636400  0.000000  1.0  -0.204
  C  C280  1  0.000000  0.363600  0.000000  1.0  -0.2041
  C  C281  1  0.000000  0.500000  0.446500  1.0  -0.2491
  C  C282  1  0.000000  0.500000  0.946500  1.0  -0.2491
  C  C283  1  0.000000  0.500000  0.553500  1.0  -0.2481
  C  C284  1  0.000000  0.500000  0.053500  1.0  -0.2481
  C  C285  1  0.000000  0.638900  0.500000  1.0  -0.2404
  C  C286  1  0.000000  0.361100  0.500000  1.0  -0.2359
  C  C287  1  0.861100  0.500000  0.000000  1.0  -0.2506
  C  C288  1  0.138900  0.500000  0.000000  1.0  -0.2446
  C  C289  1  0.969700  0.371200  0.823000  1.0  0.1713
  C  C290  1  0.817600  0.421000  0.794900  1.0  0.1366
  C  C291  1  0.919700  0.317200  0.854200  1.0  -0.2194
  C  C292  1  0.762400  0.368100  0.824500  1.0  -0.1651
  C  C293  1  0.812800  0.315000  0.855400  1.0  0.075
  C  C294  1  0.752500  0.256500  0.886800  1.0  0.0304
  C  C295  1  0.800200  0.194500  0.914800  1.0  -0.1199
  C  C296  1  0.646500  0.262500  0.889000  1.0  -0.1427
  C  C297  1  0.742400  0.137300  0.943300  1.0  -0.1905
  C  C298  1  0.589800  0.207000  0.917900  1.0  -0.1824
  C  C299  1  0.633800  0.139400  0.944200  1.0  0.0651
  C  C300  1  0.568900  0.070200  0.972600  1.0  0.1085
  C  C301  1  0.030300  0.628800  0.823000  1.0  0.1708
  C  C302  1  0.182400  0.579000  0.794900  1.0  0.1363
  C  C303  1  0.080300  0.682800  0.854200  1.0  -0.2177
  C  C304  1  0.237600  0.631900  0.824500  1.0  -0.1674
  C  C305  1  0.187200  0.685000  0.855400  1.0  0.0761
  C  C306  1  0.247500  0.743500  0.886800  1.0  0.0304
  C  C307  1  0.199800  0.805500  0.914800  1.0  -0.1197
  C  C308  1  0.353500  0.737500  0.889000  1.0  -0.1432
  C  C309  1  0.257600  0.862700  0.943300  1.0  -0.1896
  C  C310  1  0.410200  0.793000  0.917900  1.0  -0.1804
  C  C311  1  0.366200  0.860600  0.944200  1.0  0.0644
  C  C312  1  0.431100  0.929800  0.972600  1.0  0.1063
  C  C313  1  0.128800  0.469700  0.323000  1.0  0.1739
  C  C314  1  0.079000  0.317600  0.294900  1.0  0.1351
  C  C315  1  0.182800  0.419700  0.354200  1.0  -0.2178
  C  C316  1  0.131900  0.262400  0.324500  1.0  -0.1713
  C  C317  1  0.185000  0.312800  0.355400  1.0  0.0756
  C  C318  1  0.243500  0.252500  0.386800  1.0  0.0299
  C  C319  1  0.305500  0.300200  0.414800  1.0  -0.1229
  C  C320  1  0.237500  0.146500  0.389000  1.0  -0.1408
  C  C321  1  0.362700  0.242400  0.443300  1.0  -0.1927
  C  C322  1  0.293000  0.089800  0.417900  1.0  -0.1772
  C  C323  1  0.360600  0.133800  0.444200  1.0  0.0642
  C  C324  1  0.429800  0.068900  0.472600  1.0  0.1074
  C  C325  1  0.871200  0.530300  0.323000  1.0  0.1715
  C  C326  1  0.921000  0.682400  0.294900  1.0  0.1355
  C  C327  1  0.817200  0.580300  0.354200  1.0  -0.2179
  C  C328  1  0.868100  0.737600  0.324500  1.0  -0.1696
  C  C329  1  0.815000  0.687200  0.355400  1.0  0.0758
  C  C330  1  0.756500  0.747500  0.386800  1.0  0.0301
  C  C331  1  0.694500  0.699800  0.414800  1.0  -0.1202
  C  C332  1  0.762500  0.853500  0.389000  1.0  -0.1416
  C  C333  1  0.637300  0.757600  0.443300  1.0  -0.1929
  C  C334  1  0.707000  0.910200  0.417900  1.0  -0.178
  C  C335  1  0.639400  0.866200  0.444200  1.0  0.0658
  C  C336  1  0.570200  0.931100  0.472600  1.0  0.1079
  C  C337  1  0.030300  0.371200  0.177000  1.0  0.1708
  C  C338  1  0.182400  0.421000  0.205100  1.0  0.1367
  C  C339  1  0.080300  0.317200  0.145800  1.0  -0.2184
  C  C340  1  0.237600  0.368100  0.175500  1.0  -0.1676
  C  C341  1  0.187200  0.315000  0.144600  1.0  0.0749
  C  C342  1  0.247500  0.256500  0.113200  1.0  0.0299
  C  C343  1  0.199800  0.194500  0.085200  1.0  -0.1189
  C  C344  1  0.353500  0.262500  0.111000  1.0  -0.1432
  C  C345  1  0.257600  0.137300  0.056700  1.0  -0.1904
  C  C346  1  0.410200  0.207000  0.082100  1.0  -0.1814
  C  C347  1  0.366200  0.139400  0.055800  1.0  0.065
  C  C348  1  0.431100  0.070200  0.027400  1.0  0.1083
  C  C349  1  0.969700  0.628800  0.177000  1.0  0.1724
  C  C350  1  0.817600  0.579000  0.205100  1.0  0.1364
  C  C351  1  0.919700  0.682800  0.145800  1.0  -0.219
  C  C352  1  0.762400  0.631900  0.175500  1.0  -0.1641
  C  C353  1  0.812800  0.685000  0.144600  1.0  0.0749
  C  C354  1  0.752500  0.743500  0.113200  1.0  0.0299
  C  C355  1  0.800200  0.805500  0.085200  1.0  -0.12
  C  C356  1  0.646500  0.737500  0.111000  1.0  -0.1413
  C  C357  1  0.742400  0.862700  0.056700  1.0  -0.1899
  C  C358  1  0.589800  0.793000  0.082100  1.0  -0.1804
  C  C359  1  0.633800  0.860600  0.055800  1.0  0.0656
  C  C360  1  0.568900  0.929800  0.027400  1.0  0.1073
  C  C361  1  0.871200  0.469700  0.677000  1.0  0.174
  C  C362  1  0.921000  0.317600  0.705100  1.0  0.1359
  C  C363  1  0.817200  0.419700  0.645800  1.0  -0.2171
  C  C364  1  0.868100  0.262400  0.675500  1.0  -0.1686
  C  C365  1  0.815000  0.312800  0.644600  1.0  0.0754
  C  C366  1  0.756500  0.252500  0.613200  1.0  0.0295
  C  C367  1  0.694500  0.300200  0.585200  1.0  -0.1223
  C  C368  1  0.762500  0.146500  0.611000  1.0  -0.1409
  C  C369  1  0.637300  0.242400  0.556700  1.0  -0.1932
  C  C370  1  0.707000  0.089800  0.582100  1.0  -0.1783
  C  C371  1  0.639400  0.133800  0.555800  1.0  0.0649
  C  C372  1  0.570200  0.068900  0.527400  1.0  0.1089
  C  C373  1  0.128800  0.530300  0.677000  1.0  0.1731
  C  C374  1  0.079000  0.682400  0.705100  1.0  0.1345
  C  C375  1  0.182800  0.580300  0.645800  1.0  -0.2191
  C  C376  1  0.131900  0.737600  0.675500  1.0  -0.1701
  C  C377  1  0.185000  0.687200  0.644600  1.0  0.0751
  C  C378  1  0.243500  0.747500  0.613200  1.0  0.0294
  C  C379  1  0.305500  0.699800  0.585200  1.0  -0.1187
  C  C380  1  0.237500  0.853500  0.611000  1.0  -0.1401
  C  C381  1  0.362700  0.757600  0.556700  1.0  -0.1931
  C  C382  1  0.293000  0.910200  0.582100  1.0  -0.1766
  C  C383  1  0.360600  0.866200  0.555800  1.0  0.0647
  C  C384  1  0.429800  0.931100  0.527400  1.0  0.1067
  C  C385  1  0.636400  0.000000  0.000000  1.0  -0.207
  C  C386  1  0.363600  0.000000  0.000000  1.0  -0.2139
  C  C387  1  0.500000  0.136400  0.500000  1.0  -0.204
  C  C388  1  0.500000  0.863600  0.500000  1.0  -0.2041
  C  C389  1  0.500000  0.000000  0.946500  1.0  -0.2491
  C  C390  1  0.500000  0.000000  0.446500  1.0  -0.2491
  C  C391  1  0.500000  0.000000  0.053500  1.0  -0.2481
  C  C392  1  0.500000  0.000000  0.553500  1.0  -0.2481
  C  C393  1  0.500000  0.138900  0.000000  1.0  -0.2404
  C  C394  1  0.500000  0.861100  0.000000  1.0  -0.2359
  C  C395  1  0.361100  0.000000  0.500000  1.0  -0.2506
  C  C396  1  0.638900  0.000000  0.500000  1.0  -0.2446
  N  N397  1  0.421400  0.921300  0.294100  1.0  -0.3121
  N  N398  1  0.578600  0.078700  0.294100  1.0  -0.3134
  N  N399  1  0.578700  0.921400  0.794100  1.0  -0.3126
  N  N400  1  0.421300  0.078600  0.794100  1.0  -0.3137
  N  N401  1  0.578600  0.921300  0.705900  1.0  -0.3101
  N  N402  1  0.421400  0.078700  0.705900  1.0  -0.3111
  N  N403  1  0.421300  0.921400  0.205900  1.0  -0.311
  N  N404  1  0.578700  0.078600  0.205900  1.0  -0.3111
  N  N405  1  0.921400  0.421300  0.794100  1.0  -0.3121
  N  N406  1  0.078600  0.578700  0.794100  1.0  -0.3134
  N  N407  1  0.078700  0.421400  0.294100  1.0  -0.3126
  N  N408  1  0.921300  0.578600  0.294100  1.0  -0.3137
  N  N409  1  0.078600  0.421300  0.205900  1.0  -0.3101
  N  N410  1  0.921400  0.578700  0.205900  1.0  -0.3111
  N  N411  1  0.921300  0.421400  0.705900  1.0  -0.311
  N  N412  1  0.078700  0.578600  0.705900  1.0  -0.3111
