# generated using pymatgen
data_NiH7C11O5
_symmetry_space_group_name_H-M   'P 1'
_cell_length_a   10.28200000
_cell_length_b   11.26100000
_cell_length_c   12.17100000
_cell_angle_alpha   92.57500000
_cell_angle_beta   109.11400000
_cell_angle_gamma   109.75200000
_symmetry_Int_Tables_number   1
_chemical_formula_structural   NiH7C11O5
_chemical_formula_sum   'Ni4 H28 C44 O20'
_cell_volume   1233.86261126
_cell_formula_units_Z   4
loop_
 _symmetry_equiv_pos_site_id
 _symmetry_equiv_pos_as_xyz
  1  'x, y, z'
loop_
 _atom_site_type_symbol
 _atom_site_label
 _atom_site_symmetry_multiplicity
 _atom_site_fract_x
 _atom_site_fract_y
 _atom_site_fract_z
 _atom_site_occupancy
 _atom_site_charge
  Ni  Ni1  1  0.791810  0.526370  0.702900  1.0  0.8379
  Ni  Ni2  1  0.208190  0.473630  0.297100  1.0  0.8367
  Ni  Ni3  1  0.500000  0.500000  0.500000  1.0  0.9288
  Ni  Ni4  1  0.000000  0.500000  0.000000  1.0  0.7232
  H  H5  1  0.723600  0.419300  0.526500  1.0  0.3961
  H  H6  1  0.737900  0.527800  0.476700  1.0  0.3623
  H  H7  1  0.923600  0.648800  0.936500  1.0  0.3924
  H  H8  1  0.780400  0.561900  0.885500  1.0  0.4151
  H  H9  1  0.956500  0.947800  0.679400  1.0  0.1251
  H  H10  1  0.612200  0.102700  0.721600  1.0  0.1198
  H  H11  1  0.535500  0.749500  0.793600  1.0  0.1214
  H  H12  1  0.387300  0.938600  0.541900  1.0  0.1193
  H  H13  1  0.142600  0.305500  0.892700  1.0  0.1064
  H  H14  1  0.086000  0.117300  0.582500  1.0  0.1072
  H  H15  1  0.293200  0.624900  0.769400  1.0  0.128
  H  H16  1  0.146500  0.810100  0.511700  1.0  0.1036
  H  H17  1  0.373500  0.437200  0.908400  1.0  0.1197
  H  H18  1  0.316300  0.254300  0.596200  1.0  0.1109
  H  H19  1  0.276400  0.580700  0.473500  1.0  0.3958
  H  H20  1  0.262100  0.472200  0.523300  1.0  0.3611
  H  H21  1  0.076400  0.351200  0.063500  1.0  0.3934
  H  H22  1  0.219600  0.438100  0.114500  1.0  0.4135
  H  H23  1  0.043500  0.052200  0.320600  1.0  0.1248
  H  H24  1  0.387800  0.897300  0.278400  1.0  0.1194
  H  H25  1  0.464500  0.250500  0.206400  1.0  0.1218
  H  H26  1  0.612700  0.061400  0.458100  1.0  0.1192
  H  H27  1  0.857400  0.694500  0.107300  1.0  0.1067
  H  H28  1  0.914000  0.882700  0.417500  1.0  0.1072
  H  H29  1  0.706800  0.375100  0.230600  1.0  0.127
  H  H30  1  0.853500  0.189900  0.488300  1.0  0.1032
  H  H31  1  0.626500  0.562800  0.091600  1.0  0.12
  H  H32  1  0.683700  0.745700  0.403800  1.0  0.1112
  C  C33  1  0.711700  0.752400  0.642500  1.0  0.6916
  C  C34  1  0.746200  0.893400  0.672400  1.0  -0.0858
  C  C35  1  0.887900  0.979700  0.689600  1.0  -0.0776
  C  C36  1  0.640000  0.939600  0.685300  1.0  0.0159
  C  C37  1  0.931800  0.112000  0.721300  1.0  0.0211
  C  C38  1  0.682500  0.070900  0.715200  1.0  -0.1326
  C  C39  1  0.487300  0.856000  0.670300  1.0  0.0053
  C  C40  1  0.084000  0.198000  0.733000  1.0  0.088
  C  C41  1  0.823900  0.156600  0.735900  1.0  -0.0556
  C  C42  1  0.457300  0.762700  0.737600  1.0  -0.0724
  C  C43  1  0.368800  0.874600  0.586800  1.0  -0.1109
  C  C44  1  0.176700  0.295200  0.832300  1.0  -0.1168
  C  C45  1  0.142100  0.183300  0.647200  1.0  -0.1012
  C  C46  1  0.850200  0.294600  0.775200  1.0  0.7679
  C  C47  1  0.311800  0.687600  0.723400  1.0  -0.0413
  C  C48  1  0.224400  0.799100  0.570200  1.0  -0.0171
  C  C49  1  0.314600  0.374200  0.841800  1.0  -0.0328
  C  C50  1  0.281300  0.264800  0.656000  1.0  -0.0526
  C  C51  1  0.194200  0.707600  0.639200  1.0  -0.1133
  C  C52  1  0.368900  0.361400  0.751800  1.0  -0.1387
  C  C53  1  0.037100  0.630300  0.622000  1.0  0.7011
  C  C54  1  0.522200  0.448800  0.768800  1.0  0.694
  C  C55  1  0.288300  0.247600  0.357500  1.0  0.6921
  C  C56  1  0.253800  0.106600  0.327600  1.0  -0.0867
  C  C57  1  0.112100  0.020300  0.310400  1.0  -0.0778
  C  C58  1  0.360000  0.060400  0.314700  1.0  0.0147
  C  C59  1  0.068200  0.888000  0.278700  1.0  0.0186
  C  C60  1  0.317500  0.929100  0.284800  1.0  -0.1313
  C  C61  1  0.512700  0.144000  0.329700  1.0  0.0029
  C  C62  1  0.916000  0.802000  0.267000  1.0  0.0882
  C  C63  1  0.176100  0.843400  0.264100  1.0  -0.0554
  C  C64  1  0.542700  0.237300  0.262400  1.0  -0.0725
  C  C65  1  0.631200  0.125400  0.413200  1.0  -0.11
  C  C66  1  0.823300  0.704800  0.167700  1.0  -0.1168
  C  C67  1  0.857900  0.816700  0.352800  1.0  -0.1014
  C  C68  1  0.149800  0.705400  0.224800  1.0  0.7683
  C  C69  1  0.688200  0.312400  0.276600  1.0  -0.0405
  C  C70  1  0.775600  0.200900  0.429800  1.0  -0.0183
  C  C71  1  0.685400  0.625800  0.158200  1.0  -0.0329
  C  C72  1  0.718700  0.735200  0.344000  1.0  -0.0509
  C  C73  1  0.805800  0.292400  0.360800  1.0  -0.1142
  C  C74  1  0.631100  0.638600  0.248200  1.0  -0.1379
  C  C75  1  0.962900  0.369700  0.378000  1.0  0.7016
  C  C76  1  0.477800  0.551200  0.231200  1.0  0.691
  O  O77  1  0.589600  0.687600  0.562200  1.0  -0.5775
  O  O78  1  0.697000  0.483200  0.519300  1.0  -0.7583
  O  O79  1  0.565500  0.462300  0.682100  1.0  -0.6276
  O  O80  1  0.808400  0.711200  0.698100  1.0  -0.5719
  O  O81  1  0.867800  0.581300  0.885500  1.0  -0.7992
  O  O82  1  0.784800  0.346800  0.700300  1.0  -0.5784
  O  O83  1  0.006800  0.585500  0.706700  1.0  -0.5597
  O  O84  1  0.926500  0.339900  0.881600  1.0  -0.615
  O  O85  1  0.940800  0.617500  0.519900  1.0  -0.5795
  O  O86  1  0.606200  0.501900  0.872000  1.0  -0.5567
  O  O87  1  0.410400  0.312400  0.437800  1.0  -0.5777
  O  O88  1  0.303000  0.516800  0.480700  1.0  -0.7603
  O  O89  1  0.434500  0.537700  0.317900  1.0  -0.6276
  O  O90  1  0.191600  0.288800  0.301900  1.0  -0.5717
  O  O91  1  0.132200  0.418700  0.114500  1.0  -0.7967
  O  O92  1  0.215200  0.653200  0.299700  1.0  -0.5779
  O  O93  1  0.993200  0.414500  0.293300  1.0  -0.5602
  O  O94  1  0.073500  0.660100  0.118400  1.0  -0.6126
  O  O95  1  0.059200  0.382500  0.480100  1.0  -0.5785
  O  O96  1  0.393800  0.498100  0.128000  1.0  -0.5576
