# generated using pymatgen
data_Dy4Zn3H72C144(NO2)12
_symmetry_space_group_name_H-M   'P 1'
_cell_length_a   16.72950000
_cell_length_b   18.14040000
_cell_length_c   33.47390000
_cell_angle_alpha   90.00000000
_cell_angle_beta   90.00000000
_cell_angle_gamma   117.45900000
_symmetry_Int_Tables_number   1
_chemical_formula_structural   Dy4Zn3H72C144(NO2)12
_chemical_formula_sum   'Dy8 Zn6 H144 C288 N24 O48'
_cell_volume   9014.18976376
_cell_formula_units_Z   2
loop_
 _symmetry_equiv_pos_site_id
 _symmetry_equiv_pos_as_xyz
  1  'x, y, z'
loop_
 _atom_site_type_symbol
 _atom_site_label
 _atom_site_symmetry_multiplicity
 _atom_site_fract_x
 _atom_site_fract_y
 _atom_site_fract_z
 _atom_site_occupancy
 _atom_site_charge
  Dy  Dy1  1  0.733070  0.466150  0.250000  1.0  2.3369
  Dy  Dy2  1  0.266930  0.533850  0.250000  1.0  2.3374
  Dy  Dy3  1  0.266930  0.533850  0.750000  1.0  2.3369
  Dy  Dy4  1  0.733070  0.466150  0.750000  1.0  2.3364
  Dy  Dy5  1  0.000000  0.500000  0.283770  1.0  2.3244
  Dy  Dy6  1  0.500000  0.500000  0.216230  1.0  2.3243
  Dy  Dy7  1  0.000000  0.500000  0.716230  1.0  2.3243
  Dy  Dy8  1  0.500000  0.500000  0.783770  1.0  2.3244
  Zn  Zn9  1  0.644900  0.059940  0.000000  1.0  0.7521
  Zn  Zn10  1  0.355100  0.940060  0.000000  1.0  0.7467
  Zn  Zn11  1  0.415040  0.059940  0.500000  1.0  0.7464
  Zn  Zn12  1  0.584960  0.940060  0.500000  1.0  0.7524
  Zn  Zn13  1  0.000000  0.000000  0.500000  1.0  0.8087
  Zn  Zn14  1  0.000000  0.000000  0.000000  1.0  0.8087
  H  H15  1  0.820700  0.364600  0.036600  1.0  0.1147
  H  H16  1  0.724900  0.129600  0.146600  1.0  0.1081
  H  H17  1  0.632900  0.979600  0.145700  1.0  0.1034
  H  H18  1  0.437400  0.759600  0.035400  1.0  0.1023
  H  H19  1  0.882600  0.236000  0.116700  1.0  0.0951
  H  H20  1  0.945200  0.322400  0.171100  1.0  0.1099
  H  H21  1  0.768600  0.410000  0.159000  1.0  0.0928
  H  H22  1  0.712700  0.331800  0.101100  1.0  0.1119
  H  H23  1  0.451600  0.882600  0.136200  1.0  0.1122
  H  H24  1  0.398900  0.772600  0.182300  1.0  0.097
  H  H25  1  0.542000  0.677400  0.127200  1.0  0.1095
  H  H26  1  0.592900  0.786000  0.080900  1.0  0.1158
  H  H27  1  0.901600  0.698800  0.463200  1.0  0.1203
  H  H28  1  0.980000  0.926600  0.352600  1.0  0.108
  H  H29  1  0.764700  0.629800  0.353200  1.0  0.0862
  H  H30  1  0.791000  0.727800  0.403000  1.0  0.12
  H  H31  1  0.021900  0.706400  0.337400  1.0  0.0984
  H  H32  1  0.053800  0.815800  0.381500  1.0  0.0971
  H  H33  1  0.179300  0.635400  0.036600  1.0  0.1147
  H  H34  1  0.275100  0.870400  0.146600  1.0  0.1091
  H  H35  1  0.367100  0.020400  0.145700  1.0  0.1042
  H  H36  1  0.562600  0.240400  0.035400  1.0  0.1024
  H  H37  1  0.117400  0.764000  0.116700  1.0  0.0953
  H  H38  1  0.054800  0.677600  0.171100  1.0  0.1095
  H  H39  1  0.231400  0.590000  0.159000  1.0  0.0924
  H  H40  1  0.287300  0.668200  0.101100  1.0  0.1125
  H  H41  1  0.548400  0.117400  0.136200  1.0  0.1128
  H  H42  1  0.601100  0.227400  0.182300  1.0  0.0981
  H  H43  1  0.458000  0.322600  0.127200  1.0  0.1097
  H  H44  1  0.407100  0.214000  0.080900  1.0  0.1153
  H  H45  1  0.098400  0.301200  0.463200  1.0  0.1207
  H  H46  1  0.020000  0.073400  0.352600  1.0  0.1077
  H  H47  1  0.235300  0.370200  0.353200  1.0  0.0866
  H  H48  1  0.209000  0.272200  0.403000  1.0  0.1206
  H  H49  1  0.978100  0.293600  0.337400  1.0  0.0981
  H  H50  1  0.946200  0.184200  0.381500  1.0  0.0963
  H  H51  1  0.543900  0.364600  0.463400  1.0  0.1162
  H  H52  1  0.404700  0.129600  0.353400  1.0  0.1078
  H  H53  1  0.346700  0.979600  0.354300  1.0  0.104
  H  H54  1  0.322200  0.759600  0.464600  1.0  0.1024
  H  H55  1  0.353400  0.236000  0.383300  1.0  0.0948
  H  H56  1  0.377200  0.322400  0.328900  1.0  0.1093
  H  H57  1  0.641400  0.410000  0.341000  1.0  0.0933
  H  H58  1  0.619100  0.331800  0.398900  1.0  0.1123
  H  H59  1  0.431000  0.882600  0.363800  1.0  0.1131
  H  H60  1  0.373700  0.772600  0.317700  1.0  0.0973
  H  H61  1  0.135400  0.677400  0.372800  1.0  0.1108
  H  H62  1  0.193100  0.786000  0.419100  1.0  0.1154
  H  H63  1  0.797200  0.698800  0.036800  1.0  0.1201
  H  H64  1  0.946600  0.926600  0.147400  1.0  0.1077
  H  H65  1  0.865100  0.629800  0.146800  1.0  0.0864
  H  H66  1  0.936800  0.727800  0.097000  1.0  0.1204
  H  H67  1  0.684500  0.706400  0.162600  1.0  0.0982
  H  H68  1  0.762000  0.815800  0.118500  1.0  0.0972
  H  H69  1  0.456100  0.635400  0.463400  1.0  0.1148
  H  H70  1  0.595300  0.870400  0.353400  1.0  0.1082
  H  H71  1  0.653300  0.020400  0.354300  1.0  0.1045
  H  H72  1  0.677800  0.240400  0.464600  1.0  0.1021
  H  H73  1  0.646600  0.764000  0.383300  1.0  0.0952
  H  H74  1  0.622800  0.677600  0.328900  1.0  0.1096
  H  H75  1  0.358600  0.590000  0.341000  1.0  0.0926
  H  H76  1  0.380900  0.668200  0.398900  1.0  0.1123
  H  H77  1  0.569000  0.117400  0.363800  1.0  0.1131
  H  H78  1  0.626300  0.227400  0.317700  1.0  0.0974
  H  H79  1  0.864600  0.322600  0.372800  1.0  0.1114
  H  H80  1  0.806900  0.214000  0.419100  1.0  0.1159
  H  H81  1  0.202800  0.301200  0.036800  1.0  0.1203
  H  H82  1  0.053400  0.073400  0.147400  1.0  0.1078
  H  H83  1  0.134900  0.370200  0.146800  1.0  0.0867
  H  H84  1  0.063200  0.272200  0.097000  1.0  0.1204
  H  H85  1  0.315500  0.293600  0.162600  1.0  0.0987
  H  H86  1  0.238000  0.184200  0.118500  1.0  0.0969
  H  H87  1  0.179300  0.635400  0.963400  1.0  0.1153
  H  H88  1  0.275100  0.870400  0.853400  1.0  0.1078
  H  H89  1  0.367100  0.020400  0.854300  1.0  0.1043
  H  H90  1  0.562600  0.240400  0.964600  1.0  0.1027
  H  H91  1  0.117400  0.764000  0.883300  1.0  0.0951
  H  H92  1  0.054800  0.677600  0.828900  1.0  0.1093
  H  H93  1  0.231400  0.590000  0.841000  1.0  0.0927
  H  H94  1  0.287300  0.668200  0.898900  1.0  0.1127
  H  H95  1  0.548400  0.117400  0.863800  1.0  0.1132
  H  H96  1  0.601100  0.227400  0.817700  1.0  0.0976
  H  H97  1  0.458000  0.322600  0.872800  1.0  0.1096
  H  H98  1  0.407100  0.214000  0.919100  1.0  0.1156
  H  H99  1  0.098400  0.301200  0.536800  1.0  0.1202
  H  H100  1  0.020000  0.073400  0.647400  1.0  0.1076
  H  H101  1  0.235300  0.370200  0.646800  1.0  0.0866
  H  H102  1  0.209000  0.272200  0.597000  1.0  0.1204
  H  H103  1  0.978100  0.293600  0.662600  1.0  0.098
  H  H104  1  0.946200  0.184200  0.618500  1.0  0.0963
  H  H105  1  0.820700  0.364600  0.963400  1.0  0.1156
  H  H106  1  0.724900  0.129600  0.853400  1.0  0.1079
  H  H107  1  0.632900  0.979600  0.854300  1.0  0.1049
  H  H108  1  0.437400  0.759600  0.964600  1.0  0.1022
  H  H109  1  0.882600  0.236000  0.883300  1.0  0.0954
  H  H110  1  0.945200  0.322400  0.828900  1.0  0.1098
  H  H111  1  0.768600  0.410000  0.841000  1.0  0.0932
  H  H112  1  0.712700  0.331800  0.898900  1.0  0.1118
  H  H113  1  0.451600  0.882600  0.863800  1.0  0.1131
  H  H114  1  0.398900  0.772600  0.817700  1.0  0.0973
  H  H115  1  0.542000  0.677400  0.872800  1.0  0.1096
  H  H116  1  0.592900  0.786000  0.919100  1.0  0.1159
  H  H117  1  0.901600  0.698800  0.536800  1.0  0.1202
  H  H118  1  0.980000  0.926600  0.647400  1.0  0.1079
  H  H119  1  0.764700  0.629800  0.646800  1.0  0.0863
  H  H120  1  0.791000  0.727800  0.597000  1.0  0.1201
  H  H121  1  0.021900  0.706400  0.662600  1.0  0.0984
  H  H122  1  0.053800  0.815800  0.618500  1.0  0.0969
  H  H123  1  0.456100  0.635400  0.536600  1.0  0.114
  H  H124  1  0.595300  0.870400  0.646600  1.0  0.1082
  H  H125  1  0.653300  0.020400  0.645700  1.0  0.1031
  H  H126  1  0.677800  0.240400  0.535400  1.0  0.102
  H  H127  1  0.646600  0.764000  0.616700  1.0  0.0954
  H  H128  1  0.622800  0.677600  0.671100  1.0  0.1097
  H  H129  1  0.358600  0.590000  0.659000  1.0  0.0923
  H  H130  1  0.380900  0.668200  0.601100  1.0  0.112
  H  H131  1  0.569000  0.117400  0.636200  1.0  0.1123
  H  H132  1  0.626300  0.227400  0.682300  1.0  0.0973
  H  H133  1  0.864600  0.322600  0.627200  1.0  0.1115
  H  H134  1  0.806900  0.214000  0.580900  1.0  0.1159
  H  H135  1  0.202800  0.301200  0.963200  1.0  0.1205
  H  H136  1  0.053400  0.073400  0.852600  1.0  0.1079
  H  H137  1  0.134900  0.370200  0.853200  1.0  0.0867
  H  H138  1  0.063200  0.272200  0.903000  1.0  0.12
  H  H139  1  0.315500  0.293600  0.837400  1.0  0.0984
  H  H140  1  0.238000  0.184200  0.881500  1.0  0.0968
  H  H141  1  0.543900  0.364600  0.536600  1.0  0.1153
  H  H142  1  0.404700  0.129600  0.646600  1.0  0.1091
  H  H143  1  0.346700  0.979600  0.645700  1.0  0.1042
  H  H144  1  0.322200  0.759600  0.535400  1.0  0.1029
  H  H145  1  0.353400  0.236000  0.616700  1.0  0.0947
  H  H146  1  0.377200  0.322400  0.671100  1.0  0.1095
  H  H147  1  0.641400  0.410000  0.659000  1.0  0.0929
  H  H148  1  0.619100  0.331800  0.601100  1.0  0.1122
  H  H149  1  0.431000  0.882600  0.636200  1.0  0.1124
  H  H150  1  0.373700  0.772600  0.682300  1.0  0.0977
  H  H151  1  0.135400  0.677400  0.627200  1.0  0.1106
  H  H152  1  0.193100  0.786000  0.580900  1.0  0.1151
  H  H153  1  0.797200  0.698800  0.963200  1.0  0.1207
  H  H154  1  0.946600  0.926600  0.852600  1.0  0.1078
  H  H155  1  0.865100  0.629800  0.853200  1.0  0.0864
  H  H156  1  0.936800  0.727800  0.903000  1.0  0.1207
  H  H157  1  0.684500  0.706400  0.837400  1.0  0.0983
  H  H158  1  0.762000  0.815800  0.881500  1.0  0.0975
  C  C159  1  0.794260  0.318520  0.019950  1.0  -0.174
  C  C160  1  0.746110  0.234420  0.032730  1.0  0.1988
  C  C161  1  0.741660  0.207520  0.072120  1.0  -0.0946
  C  C162  1  0.699720  0.126240  0.083560  1.0  0.1959
  C  C163  1  0.697200  0.097200  0.124300  1.0  -0.1806
  C  C164  1  0.645500  0.014600  0.123800  1.0  -0.154
  C  C165  1  0.613840  0.990680  0.083600  1.0  0.2063
  C  C166  1  0.557800  0.910200  0.071700  1.0  -0.0841
  C  C167  1  0.533600  0.885600  0.032100  1.0  0.1794
  C  C168  1  0.472910  0.804020  0.018900  1.0  -0.136
  C  C169  1  0.789400  0.271600  0.104220  1.0  0.058
  C  C170  1  0.860300  0.272000  0.124500  1.0  -0.1092
  C  C171  1  0.895500  0.321000  0.158100  1.0  -0.0727
  C  C172  1  0.859600  0.371400  0.171100  1.0  -0.1305
  C  C173  1  0.792000  0.375400  0.150070  1.0  -0.0377
  C  C174  1  0.756770  0.326940  0.116060  1.0  -0.1511
  C  C175  1  0.888700  0.415000  0.210100  1.0  0.6876
  C  C176  1  0.525500  0.842800  0.104100  1.0  0.0461
  C  C177  1  0.469400  0.841400  0.134300  1.0  -0.1104
  C  C178  1  0.438600  0.775800  0.162200  1.0  0.0027
  C  C179  1  0.466800  0.718400  0.160300  1.0  -0.1563
  C  C180  1  0.525500  0.719600  0.129000  1.0  -0.079
  C  C181  1  0.553400  0.782600  0.101100  1.0  -0.0831
  C  C182  1  0.436000  0.647200  0.191000  1.0  0.7157
  C  C183  1  0.915500  0.745200  0.480200  1.0  -0.1685
  C  C184  1  0.939400  0.825600  0.468300  1.0  0.1573
  C  C185  1  0.948500  0.852400  0.427400  1.0  -0.0194
  C  C186  1  0.976500  0.931400  0.415200  1.0  0.1586
  C  C187  1  0.988200  0.960000  0.374900  1.0  -0.1527
  C  C188  1  0.927500  0.786000  0.396800  1.0  0.0514
  C  C189  1  0.823700  0.666200  0.360000  1.0  -0.0497
  C  C190  1  0.838500  0.728000  0.388600  1.0  -0.1752
  C  C191  1  0.891200  0.657800  0.342100  1.0  -0.1261
  C  C192  1  0.975400  0.711600  0.350100  1.0  -0.0783
  C  C193  1  0.994400  0.776600  0.377300  1.0  -0.1196
  C  C194  1  0.870700  0.586600  0.313200  1.0  0.6318
  C  C195  1  0.205740  0.681480  0.019950  1.0  -0.175
  C  C196  1  0.253890  0.765580  0.032730  1.0  0.1999
  C  C197  1  0.258340  0.792480  0.072120  1.0  -0.0945
  C  C198  1  0.300280  0.873760  0.083560  1.0  0.1952
  C  C199  1  0.302800  0.902800  0.124300  1.0  -0.1817
  C  C200  1  0.354500  0.985400  0.123800  1.0  -0.154
  C  C201  1  0.386160  0.009320  0.083600  1.0  0.2072
  C  C202  1  0.442200  0.089800  0.071700  1.0  -0.0844
  C  C203  1  0.466400  0.114400  0.032100  1.0  0.1776
  C  C204  1  0.527090  0.195980  0.018900  1.0  -0.134
  C  C205  1  0.210600  0.728400  0.104220  1.0  0.056
  C  C206  1  0.139700  0.728000  0.124500  1.0  -0.1096
  C  C207  1  0.104500  0.679000  0.158100  1.0  -0.0739
  C  C208  1  0.140400  0.628600  0.171100  1.0  -0.1295
  C  C209  1  0.208000  0.624600  0.150070  1.0  -0.0386
  C  C210  1  0.243230  0.673060  0.116060  1.0  -0.1508
  C  C211  1  0.111300  0.585000  0.210100  1.0  0.6875
  C  C212  1  0.474500  0.157200  0.104100  1.0  0.0453
  C  C213  1  0.530600  0.158600  0.134300  1.0  -0.1106
  C  C214  1  0.561400  0.224200  0.162200  1.0  0.0027
  C  C215  1  0.533200  0.281600  0.160300  1.0  -0.1563
  C  C216  1  0.474500  0.280400  0.129000  1.0  -0.0798
  C  C217  1  0.446600  0.217400  0.101100  1.0  -0.0846
  C  C218  1  0.564000  0.352800  0.191000  1.0  0.7142
  C  C219  1  0.084500  0.254800  0.480200  1.0  -0.1678
  C  C220  1  0.060600  0.174400  0.468300  1.0  0.1573
  C  C221  1  0.051500  0.147600  0.427400  1.0  -0.0197
  C  C222  1  0.023500  0.068600  0.415200  1.0  0.16
  C  C223  1  0.011800  0.040000  0.374900  1.0  -0.1524
  C  C224  1  0.072500  0.214000  0.396800  1.0  0.0515
  C  C225  1  0.176300  0.333800  0.360000  1.0  -0.0495
  C  C226  1  0.161500  0.272000  0.388600  1.0  -0.175
  C  C227  1  0.108800  0.342200  0.342100  1.0  -0.126
  C  C228  1  0.024600  0.288400  0.350100  1.0  -0.0776
  C  C229  1  0.005600  0.223400  0.377300  1.0  -0.1192
  C  C230  1  0.129300  0.413400  0.313200  1.0  0.6322
  C  C231  1  0.524260  0.318520  0.480050  1.0  -0.1729
  C  C232  1  0.488310  0.234420  0.467270  1.0  0.1994
  C  C233  1  0.465860  0.207520  0.427880  1.0  -0.0955
  C  C234  1  0.426520  0.126240  0.416440  1.0  0.1951
  C  C235  1  0.400000  0.097200  0.375700  1.0  -0.1809
  C  C236  1  0.369100  0.014600  0.376200  1.0  -0.1521
  C  C237  1  0.376840  0.990680  0.416400  1.0  0.2069
  C  C238  1  0.352400  0.910200  0.428300  1.0  -0.0839
  C  C239  1  0.352000  0.885600  0.467900  1.0  0.1794
  C  C240  1  0.331110  0.804020  0.481100  1.0  -0.1353
  C  C241  1  0.482200  0.271600  0.395780  1.0  0.0564
  C  C242  1  0.411700  0.272000  0.375500  1.0  -0.1085
  C  C243  1  0.425500  0.321000  0.341900  1.0  -0.0728
  C  C244  1  0.511800  0.371400  0.328900  1.0  -0.1304
  C  C245  1  0.583400  0.375400  0.349930  1.0  -0.0385
  C  C246  1  0.570170  0.326940  0.383940  1.0  -0.1518
  C  C247  1  0.526300  0.415000  0.289900  1.0  0.6881
  C  C248  1  0.317300  0.842800  0.395900  1.0  0.0449
  C  C249  1  0.372000  0.841400  0.365700  1.0  -0.1111
  C  C250  1  0.337200  0.775800  0.337800  1.0  0.0036
  C  C251  1  0.251600  0.718400  0.339700  1.0  -0.1558
  C  C252  1  0.194100  0.719600  0.371000  1.0  -0.0788
  C  C253  1  0.229200  0.782600  0.398900  1.0  -0.0842
  C  C254  1  0.211200  0.647200  0.309000  1.0  0.7145
  C  C255  1  0.829700  0.745200  0.019800  1.0  -0.1684
  C  C256  1  0.886200  0.825600  0.031700  1.0  0.1568
  C  C257  1  0.903900  0.852400  0.072600  1.0  -0.0194
  C  C258  1  0.954900  0.931400  0.084800  1.0  0.1593
  C  C259  1  0.971800  0.960000  0.125100  1.0  -0.1532
  C  C260  1  0.858500  0.786000  0.103200  1.0  0.0516
  C  C261  1  0.842500  0.666200  0.140000  1.0  -0.0497
  C  C262  1  0.889500  0.728000  0.111400  1.0  -0.1751
  C  C263  1  0.766600  0.657800  0.157900  1.0  -0.125
  C  C264  1  0.736200  0.711600  0.149900  1.0  -0.0779
  C  C265  1  0.782200  0.776600  0.122700  1.0  -0.1191
  C  C266  1  0.715900  0.586600  0.186800  1.0  0.6323
  C  C267  1  0.475740  0.681480  0.480050  1.0  -0.1747
  C  C268  1  0.511690  0.765580  0.467270  1.0  0.1989
  C  C269  1  0.534140  0.792480  0.427880  1.0  -0.0947
  C  C270  1  0.573480  0.873760  0.416440  1.0  0.1954
  C  C271  1  0.600000  0.902800  0.375700  1.0  -0.1819
  C  C272  1  0.630900  0.985400  0.376200  1.0  -0.1533
  C  C273  1  0.623160  0.009320  0.416400  1.0  0.2058
  C  C274  1  0.647600  0.089800  0.428300  1.0  -0.0846
  C  C275  1  0.648000  0.114400  0.467900  1.0  0.1802
  C  C276  1  0.668890  0.195980  0.481100  1.0  -0.1355
  C  C277  1  0.517800  0.728400  0.395780  1.0  0.0579
  C  C278  1  0.588300  0.728000  0.375500  1.0  -0.1076
  C  C279  1  0.574500  0.679000  0.341900  1.0  -0.0719
  C  C280  1  0.488200  0.628600  0.328900  1.0  -0.1297
  C  C281  1  0.416600  0.624600  0.349930  1.0  -0.0382
  C  C282  1  0.429830  0.673060  0.383940  1.0  -0.1507
  C  C283  1  0.473700  0.585000  0.289900  1.0  0.6876
  C  C284  1  0.682700  0.157200  0.395900  1.0  0.0456
  C  C285  1  0.628000  0.158600  0.365700  1.0  -0.1106
  C  C286  1  0.662800  0.224200  0.337800  1.0  0.0033
  C  C287  1  0.748400  0.281600  0.339700  1.0  -0.1554
  C  C288  1  0.805900  0.280400  0.371000  1.0  -0.0802
  C  C289  1  0.770800  0.217400  0.398900  1.0  -0.084
  C  C290  1  0.788800  0.352800  0.309000  1.0  0.7142
  C  C291  1  0.170300  0.254800  0.019800  1.0  -0.1691
  C  C292  1  0.113800  0.174400  0.031700  1.0  0.1568
  C  C293  1  0.096100  0.147600  0.072600  1.0  -0.0192
  C  C294  1  0.045100  0.068600  0.084800  1.0  0.1603
  C  C295  1  0.028200  0.040000  0.125100  1.0  -0.1523
  C  C296  1  0.141500  0.214000  0.103200  1.0  0.051
  C  C297  1  0.157500  0.333800  0.140000  1.0  -0.0497
  C  C298  1  0.110500  0.272000  0.111400  1.0  -0.1739
  C  C299  1  0.233400  0.342200  0.157900  1.0  -0.1255
  C  C300  1  0.263800  0.288400  0.149900  1.0  -0.0781
  C  C301  1  0.217800  0.223400  0.122700  1.0  -0.1186
  C  C302  1  0.284100  0.413400  0.186800  1.0  0.6324
  C  C303  1  0.205740  0.681480  0.980050  1.0  -0.1745
  C  C304  1  0.253890  0.765580  0.967270  1.0  0.1989
  C  C305  1  0.258340  0.792480  0.927880  1.0  -0.0949
  C  C306  1  0.300280  0.873760  0.916440  1.0  0.1954
  C  C307  1  0.302800  0.902800  0.875700  1.0  -0.1808
  C  C308  1  0.354500  0.985400  0.876200  1.0  -0.152
  C  C309  1  0.386160  0.009320  0.916400  1.0  0.2068
  C  C310  1  0.442200  0.089800  0.928300  1.0  -0.0846
  C  C311  1  0.466400  0.114400  0.967900  1.0  0.1784
  C  C312  1  0.527090  0.195980  0.981100  1.0  -0.1339
  C  C313  1  0.210600  0.728400  0.895780  1.0  0.0564
  C  C314  1  0.139700  0.728000  0.875500  1.0  -0.1086
  C  C315  1  0.104500  0.679000  0.841900  1.0  -0.0729
  C  C316  1  0.140400  0.628600  0.828900  1.0  -0.1309
  C  C317  1  0.208000  0.624600  0.849930  1.0  -0.0394
  C  C318  1  0.243230  0.673060  0.883940  1.0  -0.1509
  C  C319  1  0.111300  0.585000  0.789900  1.0  0.688
  C  C320  1  0.474500  0.157200  0.895900  1.0  0.0451
  C  C321  1  0.530600  0.158600  0.865700  1.0  -0.1115
  C  C322  1  0.561400  0.224200  0.837800  1.0  0.0033
  C  C323  1  0.533200  0.281600  0.839700  1.0  -0.1551
  C  C324  1  0.474500  0.280400  0.871000  1.0  -0.0798
  C  C325  1  0.446600  0.217400  0.898900  1.0  -0.0843
  C  C326  1  0.564000  0.352800  0.809000  1.0  0.7141
  C  C327  1  0.084500  0.254800  0.519800  1.0  -0.1687
  C  C328  1  0.060600  0.174400  0.531700  1.0  0.1569
  C  C329  1  0.051500  0.147600  0.572600  1.0  -0.0194
  C  C330  1  0.023500  0.068600  0.584800  1.0  0.159
  C  C331  1  0.011800  0.040000  0.625100  1.0  -0.1527
  C  C332  1  0.072500  0.214000  0.603200  1.0  0.0513
  C  C333  1  0.176300  0.333800  0.640000  1.0  -0.0494
  C  C334  1  0.161500  0.272000  0.611400  1.0  -0.175
  C  C335  1  0.108800  0.342200  0.657900  1.0  -0.1255
  C  C336  1  0.024600  0.288400  0.649900  1.0  -0.0778
  C  C337  1  0.005600  0.223400  0.622700  1.0  -0.1185
  C  C338  1  0.129300  0.413400  0.686800  1.0  0.6326
  C  C339  1  0.794260  0.318520  0.980050  1.0  -0.1742
  C  C340  1  0.746110  0.234420  0.967270  1.0  0.1983
  C  C341  1  0.741660  0.207520  0.927880  1.0  -0.095
  C  C342  1  0.699720  0.126240  0.916440  1.0  0.1954
  C  C343  1  0.697200  0.097200  0.875700  1.0  -0.1818
  C  C344  1  0.645500  0.014600  0.876200  1.0  -0.1538
  C  C345  1  0.613840  0.990680  0.916400  1.0  0.2059
  C  C346  1  0.557800  0.910200  0.928300  1.0  -0.0842
  C  C347  1  0.533600  0.885600  0.967900  1.0  0.1805
  C  C348  1  0.472910  0.804020  0.981100  1.0  -0.1363
  C  C349  1  0.789400  0.271600  0.895780  1.0  0.0577
  C  C350  1  0.860300  0.272000  0.875500  1.0  -0.1076
  C  C351  1  0.895500  0.321000  0.841900  1.0  -0.0721
  C  C352  1  0.859600  0.371400  0.828900  1.0  -0.13
  C  C353  1  0.792000  0.375400  0.849930  1.0  -0.038
  C  C354  1  0.756770  0.326940  0.883940  1.0  -0.1514
  C  C355  1  0.888700  0.415000  0.789900  1.0  0.6878
  C  C356  1  0.525500  0.842800  0.895900  1.0  0.0456
  C  C357  1  0.469400  0.841400  0.865700  1.0  -0.1102
  C  C358  1  0.438600  0.775800  0.837800  1.0  0.0035
  C  C359  1  0.466800  0.718400  0.839700  1.0  -0.1553
  C  C360  1  0.525500  0.719600  0.871000  1.0  -0.079
  C  C361  1  0.553400  0.782600  0.898900  1.0  -0.0837
  C  C362  1  0.436000  0.647200  0.809000  1.0  0.7147
  C  C363  1  0.915500  0.745200  0.519800  1.0  -0.1689
  C  C364  1  0.939400  0.825600  0.531700  1.0  0.1568
  C  C365  1  0.948500  0.852400  0.572600  1.0  -0.0191
  C  C366  1  0.976500  0.931400  0.584800  1.0  0.1607
  C  C367  1  0.988200  0.960000  0.625100  1.0  -0.153
  C  C368  1  0.927500  0.786000  0.603200  1.0  0.0512
  C  C369  1  0.823700  0.666200  0.640000  1.0  -0.0495
  C  C370  1  0.838500  0.728000  0.611400  1.0  -0.1747
  C  C371  1  0.891200  0.657800  0.657900  1.0  -0.125
  C  C372  1  0.975400  0.711600  0.649900  1.0  -0.0782
  C  C373  1  0.994400  0.776600  0.622700  1.0  -0.1193
  C  C374  1  0.870700  0.586600  0.686800  1.0  0.6321
  C  C375  1  0.475740  0.681480  0.519950  1.0  -0.175
  C  C376  1  0.511690  0.765580  0.532730  1.0  0.1985
  C  C377  1  0.534140  0.792480  0.572120  1.0  -0.0945
  C  C378  1  0.573480  0.873760  0.583560  1.0  0.1957
  C  C379  1  0.600000  0.902800  0.624300  1.0  -0.181
  C  C380  1  0.630900  0.985400  0.623800  1.0  -0.1537
  C  C381  1  0.623160  0.009320  0.583600  1.0  0.2065
  C  C382  1  0.647600  0.089800  0.571700  1.0  -0.0846
  C  C383  1  0.648000  0.114400  0.532100  1.0  0.1787
  C  C384  1  0.668890  0.195980  0.518900  1.0  -0.1357
  C  C385  1  0.517800  0.728400  0.604220  1.0  0.0582
  C  C386  1  0.588300  0.728000  0.624500  1.0  -0.1093
  C  C387  1  0.574500  0.679000  0.658100  1.0  -0.0728
  C  C388  1  0.488200  0.628600  0.671100  1.0  -0.1296
  C  C389  1  0.416600  0.624600  0.650070  1.0  -0.0376
  C  C390  1  0.429830  0.673060  0.616060  1.0  -0.1509
  C  C391  1  0.473700  0.585000  0.710100  1.0  0.6877
  C  C392  1  0.682700  0.157200  0.604100  1.0  0.0461
  C  C393  1  0.628000  0.158600  0.634300  1.0  -0.1098
  C  C394  1  0.662800  0.224200  0.662200  1.0  0.0027
  C  C395  1  0.748400  0.281600  0.660300  1.0  -0.1572
  C  C396  1  0.805900  0.280400  0.629000  1.0  -0.0798
  C  C397  1  0.770800  0.217400  0.601100  1.0  -0.0836
  C  C398  1  0.788800  0.352800  0.691000  1.0  0.7147
  C  C399  1  0.170300  0.254800  0.980200  1.0  -0.1683
  C  C400  1  0.113800  0.174400  0.968300  1.0  0.1571
  C  C401  1  0.096100  0.147600  0.927400  1.0  -0.0194
  C  C402  1  0.045100  0.068600  0.915200  1.0  0.1583
  C  C403  1  0.028200  0.040000  0.874900  1.0  -0.1524
  C  C404  1  0.141500  0.214000  0.896800  1.0  0.0512
  C  C405  1  0.157500  0.333800  0.860000  1.0  -0.0499
  C  C406  1  0.110500  0.272000  0.888600  1.0  -0.1745
  C  C407  1  0.233400  0.342200  0.842100  1.0  -0.1259
  C  C408  1  0.263800  0.288400  0.850100  1.0  -0.0781
  C  C409  1  0.217800  0.223400  0.877300  1.0  -0.119
  C  C410  1  0.284100  0.413400  0.813200  1.0  0.6319
  C  C411  1  0.524260  0.318520  0.519950  1.0  -0.1733
  C  C412  1  0.488310  0.234420  0.532730  1.0  0.1985
  C  C413  1  0.465860  0.207520  0.572120  1.0  -0.0949
  C  C414  1  0.426520  0.126240  0.583560  1.0  0.1956
  C  C415  1  0.400000  0.097200  0.624300  1.0  -0.1812
  C  C416  1  0.369100  0.014600  0.623800  1.0  -0.1535
  C  C417  1  0.376840  0.990680  0.583600  1.0  0.2067
  C  C418  1  0.352400  0.910200  0.571700  1.0  -0.0837
  C  C419  1  0.352000  0.885600  0.532100  1.0  0.178
  C  C420  1  0.331110  0.804020  0.518900  1.0  -0.1351
  C  C421  1  0.482200  0.271600  0.604220  1.0  0.0558
  C  C422  1  0.411700  0.272000  0.624500  1.0  -0.1094
  C  C423  1  0.425500  0.321000  0.658100  1.0  -0.0735
  C  C424  1  0.511800  0.371400  0.671100  1.0  -0.1298
  C  C425  1  0.583400  0.375400  0.650070  1.0  -0.0379
  C  C426  1  0.570170  0.326940  0.616060  1.0  -0.1512
  C  C427  1  0.526300  0.415000  0.710100  1.0  0.6873
  C  C428  1  0.317300  0.842800  0.604100  1.0  0.0451
  C  C429  1  0.372000  0.841400  0.634300  1.0  -0.1114
  C  C430  1  0.337200  0.775800  0.662200  1.0  0.003
  C  C431  1  0.251600  0.718400  0.660300  1.0  -0.156
  C  C432  1  0.194100  0.719600  0.629000  1.0  -0.079
  C  C433  1  0.229200  0.782600  0.601100  1.0  -0.0844
  C  C434  1  0.211200  0.647200  0.691000  1.0  0.715
  C  C435  1  0.829700  0.745200  0.980200  1.0  -0.1681
  C  C436  1  0.886200  0.825600  0.968300  1.0  0.1575
  C  C437  1  0.903900  0.852400  0.927400  1.0  -0.0197
  C  C438  1  0.954900  0.931400  0.915200  1.0  0.1605
  C  C439  1  0.971800  0.960000  0.874900  1.0  -0.1526
  C  C440  1  0.858500  0.786000  0.896800  1.0  0.0517
  C  C441  1  0.842500  0.666200  0.860000  1.0  -0.0497
  C  C442  1  0.889500  0.728000  0.888600  1.0  -0.175
  C  C443  1  0.766600  0.657800  0.842100  1.0  -0.1262
  C  C444  1  0.736200  0.711600  0.850100  1.0  -0.0779
  C  C445  1  0.782200  0.776600  0.877300  1.0  -0.1197
  C  C446  1  0.715900  0.586600  0.813200  1.0  0.6321
  N  N447  1  0.649070  0.058740  0.058410  1.0  -0.4595
  N  N448  1  0.350930  0.941260  0.058410  1.0  -0.4581
  N  N449  1  0.409670  0.058740  0.441590  1.0  -0.4583
  N  N450  1  0.590330  0.941260  0.441590  1.0  -0.46
  N  N451  1  0.350930  0.941260  0.941590  1.0  -0.4585
  N  N452  1  0.649070  0.058740  0.941590  1.0  -0.4598
  N  N453  1  0.590330  0.941260  0.558410  1.0  -0.4593
  N  N454  1  0.409670  0.058740  0.558410  1.0  -0.4582
  N  N455  1  0.716800  0.182200  0.000000  1.0  -0.443
  N  N456  1  0.567900  0.939000  0.000000  1.0  -0.4785
  N  N457  1  0.283200  0.817800  0.000000  1.0  -0.4395
  N  N458  1  0.432100  0.061000  0.000000  1.0  -0.478
  N  N459  1  0.465400  0.182200  0.500000  1.0  -0.4399
  N  N460  1  0.371100  0.939000  0.500000  1.0  -0.4774
  N  N461  1  0.534600  0.817800  0.500000  1.0  -0.4423
  N  N462  1  0.628900  0.061000  0.500000  1.0  -0.4786
  N  N463  1  0.957400  0.877400  0.500000  1.0  -0.4596
  N  N464  1  0.042600  0.122600  0.500000  1.0  -0.4602
  N  N465  1  0.920000  0.877400  0.000000  1.0  -0.4599
  N  N466  1  0.080000  0.122600  0.000000  1.0  -0.4602
  N  N467  1  0.000000  0.000000  0.440300  1.0  -0.3704
  N  N468  1  0.000000  0.000000  0.059700  1.0  -0.3699
  N  N469  1  0.000000  0.000000  0.559700  1.0  -0.3699
  N  N470  1  0.000000  0.000000  0.940300  1.0  -0.3704
  O  O471  1  0.853510  0.458020  0.223580  1.0  -0.7651
  O  O472  1  0.953800  0.410800  0.228490  1.0  -0.6676
  O  O473  1  0.369200  0.637800  0.212200  1.0  -0.6537
  O  O474  1  0.479750  0.607100  0.192880  1.0  -0.7078
  O  O475  1  0.935190  0.580180  0.298970  1.0  -0.703
  O  O476  1  0.786600  0.555200  0.297000  1.0  -0.6222
  O  O477  1  0.146490  0.541980  0.223580  1.0  -0.7661
  O  O478  1  0.046200  0.589200  0.228490  1.0  -0.6684
  O  O479  1  0.630800  0.362200  0.212200  1.0  -0.6537
  O  O480  1  0.520250  0.392900  0.192880  1.0  -0.7083
  O  O481  1  0.064810  0.419820  0.298970  1.0  -0.7054
  O  O482  1  0.213400  0.444800  0.297000  1.0  -0.6204
  O  O483  1  0.604510  0.458020  0.276420  1.0  -0.7657
  O  O484  1  0.457000  0.410800  0.271510  1.0  -0.6685
  O  O485  1  0.268600  0.637800  0.287800  1.0  -0.6653
  O  O486  1  0.127350  0.607100  0.307120  1.0  -0.7083
  O  O487  1  0.644990  0.580180  0.201030  1.0  -0.702
  O  O488  1  0.768600  0.555200  0.203000  1.0  -0.6209
  O  O489  1  0.395490  0.541980  0.276420  1.0  -0.7663
  O  O490  1  0.543000  0.589200  0.271510  1.0  -0.6686
  O  O491  1  0.731400  0.362200  0.287800  1.0  -0.6651
  O  O492  1  0.872650  0.392900  0.307120  1.0  -0.708
  O  O493  1  0.355010  0.419820  0.201030  1.0  -0.7026
  O  O494  1  0.231400  0.444800  0.203000  1.0  -0.621
  O  O495  1  0.146490  0.541980  0.776420  1.0  -0.7663
  O  O496  1  0.046200  0.589200  0.771510  1.0  -0.6686
  O  O497  1  0.630800  0.362200  0.787800  1.0  -0.6543
  O  O498  1  0.520250  0.392900  0.807120  1.0  -0.7082
  O  O499  1  0.064810  0.419820  0.701030  1.0  -0.7018
  O  O500  1  0.213400  0.444800  0.703000  1.0  -0.6203
  O  O501  1  0.853510  0.458020  0.776420  1.0  -0.7653
  O  O502  1  0.953800  0.410800  0.771510  1.0  -0.6686
  O  O503  1  0.369200  0.637800  0.787800  1.0  -0.6533
  O  O504  1  0.479750  0.607100  0.807120  1.0  -0.7078
  O  O505  1  0.935190  0.580180  0.701030  1.0  -0.7063
  O  O506  1  0.786600  0.555200  0.703000  1.0  -0.6218
  O  O507  1  0.395490  0.541980  0.723580  1.0  -0.7662
  O  O508  1  0.543000  0.589200  0.728490  1.0  -0.6682
  O  O509  1  0.731400  0.362200  0.712200  1.0  -0.6647
  O  O510  1  0.872650  0.392900  0.692880  1.0  -0.708
  O  O511  1  0.355010  0.419820  0.798970  1.0  -0.7022
  O  O512  1  0.231400  0.444800  0.797000  1.0  -0.6215
  O  O513  1  0.604510  0.458020  0.723580  1.0  -0.7655
  O  O514  1  0.457000  0.410800  0.728490  1.0  -0.6677
  O  O515  1  0.268600  0.637800  0.712200  1.0  -0.6652
  O  O516  1  0.127350  0.607100  0.692880  1.0  -0.7084
  O  O517  1  0.644990  0.580180  0.798970  1.0  -0.7025
  O  O518  1  0.768600  0.555200  0.797000  1.0  -0.6211
