# generated using pymatgen
data_In3H18C30N9O13
_symmetry_space_group_name_H-M   'P 1'
_cell_length_a   13.81000000
_cell_length_b   13.81000000
_cell_length_c   18.33000000
_cell_angle_alpha   90.00000000
_cell_angle_beta   90.00000000
_cell_angle_gamma   120.00000000
_symmetry_Int_Tables_number   1
_chemical_formula_structural   In3H18C30N9O13
_chemical_formula_sum   'In6 H36 C60 N18 O26'
_cell_volume   3027.47422107
_cell_formula_units_Z   2
loop_
 _symmetry_equiv_pos_site_id
 _symmetry_equiv_pos_as_xyz
  1  'x, y, z'
loop_
 _atom_site_type_symbol
 _atom_site_label
 _atom_site_symmetry_multiplicity
 _atom_site_fract_x
 _atom_site_fract_y
 _atom_site_fract_z
 _atom_site_occupancy
 _atom_site_charge
  In  In1  1  0.751190  0.248810  0.750000  1.0  1.5738
  In  In2  1  0.751190  0.502380  0.750000  1.0  1.5747
  In  In3  1  0.497620  0.248810  0.750000  1.0  1.5742
  In  In4  1  0.248810  0.751190  0.250000  1.0  1.5741
  In  In5  1  0.248810  0.497620  0.250000  1.0  1.5747
  In  In6  1  0.502380  0.751190  0.250000  1.0  1.5738
  H  H7  1  0.665400  0.042100  0.556700  1.0  0.1104
  H  H8  1  0.957900  0.623300  0.556700  1.0  0.1105
  H  H9  1  0.376700  0.334600  0.556700  1.0  0.1104
  H  H10  1  0.334600  0.957900  0.056700  1.0  0.1094
  H  H11  1  0.042100  0.376700  0.056700  1.0  0.1111
  H  H12  1  0.623300  0.665400  0.056700  1.0  0.1104
  H  H13  1  0.042100  0.665400  0.443300  1.0  0.1106
  H  H14  1  0.623300  0.957900  0.443300  1.0  0.1099
  H  H15  1  0.334600  0.376700  0.443300  1.0  0.1103
  H  H16  1  0.957900  0.334600  0.943300  1.0  0.1101
  H  H17  1  0.376700  0.042100  0.943300  1.0  0.1096
  H  H18  1  0.665400  0.623300  0.943300  1.0  0.1108
  H  H19  1  0.334600  0.957900  0.443300  1.0  0.1096
  H  H20  1  0.042100  0.376700  0.443300  1.0  0.1108
  H  H21  1  0.623300  0.665400  0.443300  1.0  0.1105
  H  H22  1  0.665400  0.042100  0.943300  1.0  0.11
  H  H23  1  0.957900  0.623300  0.943300  1.0  0.1106
  H  H24  1  0.376700  0.334600  0.943300  1.0  0.1102
  H  H25  1  0.957900  0.334600  0.556700  1.0  0.1104
  H  H26  1  0.376700  0.042100  0.556700  1.0  0.1097
  H  H27  1  0.665400  0.623300  0.556700  1.0  0.1109
  H  H28  1  0.042100  0.665400  0.056700  1.0  0.1105
  H  H29  1  0.623300  0.957900  0.056700  1.0  0.11
  H  H30  1  0.334600  0.376700  0.056700  1.0  0.1106
  H  H31  1  0.860800  0.139200  0.648300  1.0  0.0853
  H  H32  1  0.860800  0.721600  0.648300  1.0  0.0846
  H  H33  1  0.278400  0.139200  0.648300  1.0  0.085
  H  H34  1  0.139200  0.860800  0.148300  1.0  0.085
  H  H35  1  0.139200  0.278400  0.148300  1.0  0.0849
  H  H36  1  0.721600  0.860800  0.148300  1.0  0.0853
  H  H37  1  0.139200  0.860800  0.351700  1.0  0.0853
  H  H38  1  0.721600  0.860800  0.351700  1.0  0.0852
  H  H39  1  0.139200  0.278400  0.351700  1.0  0.0852
  H  H40  1  0.860800  0.139200  0.851700  1.0  0.0854
  H  H41  1  0.278400  0.139200  0.851700  1.0  0.0858
  H  H42  1  0.860800  0.721600  0.851700  1.0  0.0846
  C  C43  1  0.599100  0.026000  0.533600  1.0  -0.04
  C  C44  1  0.974000  0.573100  0.533600  1.0  -0.0388
  C  C45  1  0.426900  0.400900  0.533600  1.0  -0.0389
  C  C46  1  0.400900  0.974000  0.033600  1.0  -0.0393
  C  C47  1  0.026000  0.426900  0.033600  1.0  -0.0383
  C  C48  1  0.573100  0.599100  0.033600  1.0  -0.0388
  C  C49  1  0.026000  0.599100  0.466400  1.0  -0.0386
  C  C50  1  0.573100  0.974000  0.466400  1.0  -0.0404
  C  C51  1  0.400900  0.426900  0.466400  1.0  -0.0378
  C  C52  1  0.974000  0.400900  0.966400  1.0  -0.0386
  C  C53  1  0.426900  0.026000  0.966400  1.0  -0.0392
  C  C54  1  0.599100  0.573100  0.966400  1.0  -0.0389
  C  C55  1  0.400900  0.974000  0.466400  1.0  -0.0393
  C  C56  1  0.026000  0.426900  0.466400  1.0  -0.0384
  C  C57  1  0.573100  0.599100  0.466400  1.0  -0.0382
  C  C58  1  0.599100  0.026000  0.966400  1.0  -0.0403
  C  C59  1  0.974000  0.573100  0.966400  1.0  -0.0385
  C  C60  1  0.426900  0.400900  0.966400  1.0  -0.039
  C  C61  1  0.974000  0.400900  0.533600  1.0  -0.0386
  C  C62  1  0.426900  0.026000  0.533600  1.0  -0.0393
  C  C63  1  0.599100  0.573100  0.533600  1.0  -0.0393
  C  C64  1  0.026000  0.599100  0.033600  1.0  -0.039
  C  C65  1  0.573100  0.974000  0.033600  1.0  -0.04
  C  C66  1  0.400900  0.426900  0.033600  1.0  -0.0377
  C  C67  1  0.557100  0.114200  0.637800  1.0  0.7647
  C  C68  1  0.527000  0.054000  0.566300  1.0  -0.1132
  C  C69  1  0.885800  0.442900  0.637800  1.0  0.7675
  C  C70  1  0.946000  0.473000  0.566300  1.0  -0.1151
  C  C71  1  0.557100  0.442900  0.637800  1.0  0.7663
  C  C72  1  0.527000  0.473000  0.566300  1.0  -0.116
  C  C73  1  0.442900  0.885800  0.137800  1.0  0.7641
  C  C74  1  0.473000  0.946000  0.066300  1.0  -0.1132
  C  C75  1  0.114200  0.557100  0.137800  1.0  0.7668
  C  C76  1  0.054000  0.527000  0.066300  1.0  -0.1159
  C  C77  1  0.442900  0.557100  0.137800  1.0  0.7681
  C  C78  1  0.473000  0.527000  0.066300  1.0  -0.1148
  C  C79  1  0.114200  0.557100  0.362200  1.0  0.7646
  C  C80  1  0.054000  0.527000  0.433700  1.0  -0.1167
  C  C81  1  0.442900  0.885800  0.362200  1.0  0.7623
  C  C82  1  0.473000  0.946000  0.433700  1.0  -0.1142
  C  C83  1  0.442900  0.557100  0.362200  1.0  0.7653
  C  C84  1  0.473000  0.527000  0.433700  1.0  -0.1158
  C  C85  1  0.885800  0.442900  0.862200  1.0  0.7653
  C  C86  1  0.946000  0.473000  0.933700  1.0  -0.1158
  C  C87  1  0.557100  0.114200  0.862200  1.0  0.7625
  C  C88  1  0.527000  0.054000  0.933700  1.0  -0.1138
  C  C89  1  0.557100  0.442900  0.862200  1.0  0.7647
  C  C90  1  0.527000  0.473000  0.933700  1.0  -0.1169
  C  C91  1  0.873600  0.126400  0.696200  1.0  0.184
  C  C92  1  0.873600  0.747200  0.696200  1.0  0.1837
  C  C93  1  0.252800  0.126400  0.696200  1.0  0.1852
  C  C94  1  0.126400  0.873600  0.196200  1.0  0.1853
  C  C95  1  0.126400  0.252800  0.196200  1.0  0.1834
  C  C96  1  0.747200  0.873600  0.196200  1.0  0.1842
  C  C97  1  0.126400  0.873600  0.303800  1.0  0.1852
  C  C98  1  0.747200  0.873600  0.303800  1.0  0.1838
  C  C99  1  0.126400  0.252800  0.303800  1.0  0.1835
  C  C100  1  0.873600  0.126400  0.803800  1.0  0.1838
  C  C101  1  0.252800  0.126400  0.803800  1.0  0.1851
  C  C102  1  0.873600  0.747200  0.803800  1.0  0.1834
  N  N103  1  0.840800  0.159200  0.750000  1.0  -0.2287
  N  N104  1  0.840800  0.681600  0.750000  1.0  -0.2332
  N  N105  1  0.318400  0.159200  0.750000  1.0  -0.232
  N  N106  1  0.159200  0.840800  0.250000  1.0  -0.2318
  N  N107  1  0.159200  0.318400  0.250000  1.0  -0.2325
  N  N108  1  0.681600  0.840800  0.250000  1.0  -0.2284
  N  N109  1  0.927300  0.072700  0.712400  1.0  -0.3384
  N  N110  1  0.927300  0.854600  0.712400  1.0  -0.3384
  N  N111  1  0.145400  0.072700  0.712400  1.0  -0.338
  N  N112  1  0.072700  0.927300  0.212400  1.0  -0.3375
  N  N113  1  0.072700  0.145400  0.212400  1.0  -0.3386
  N  N114  1  0.854600  0.927300  0.212400  1.0  -0.3387
  N  N115  1  0.072700  0.927300  0.287600  1.0  -0.3388
  N  N116  1  0.854600  0.927300  0.287600  1.0  -0.3394
  N  N117  1  0.072700  0.145400  0.287600  1.0  -0.3392
  N  N118  1  0.927300  0.072700  0.787600  1.0  -0.3386
  N  N119  1  0.145400  0.072700  0.787600  1.0  -0.3386
  N  N120  1  0.927300  0.854600  0.787600  1.0  -0.3391
  O  O121  1  0.649000  0.136500  0.664500  1.0  -0.6146
  O  O122  1  0.863500  0.512500  0.664500  1.0  -0.6132
  O  O123  1  0.487500  0.351000  0.664500  1.0  -0.6157
  O  O124  1  0.351000  0.863500  0.164500  1.0  -0.6139
  O  O125  1  0.136500  0.487500  0.164500  1.0  -0.6141
  O  O126  1  0.512500  0.649000  0.164500  1.0  -0.6153
  O  O127  1  0.136500  0.649000  0.335500  1.0  -0.6162
  O  O128  1  0.512500  0.863500  0.335500  1.0  -0.6158
  O  O129  1  0.351000  0.487500  0.335500  1.0  -0.6144
  O  O130  1  0.863500  0.351000  0.835500  1.0  -0.6163
  O  O131  1  0.487500  0.136500  0.835500  1.0  -0.6141
  O  O132  1  0.649000  0.512500  0.835500  1.0  -0.6148
  O  O133  1  0.351000  0.863500  0.335500  1.0  -0.6144
  O  O134  1  0.136500  0.487500  0.335500  1.0  -0.6151
  O  O135  1  0.512500  0.649000  0.335500  1.0  -0.6159
  O  O136  1  0.649000  0.136500  0.835500  1.0  -0.6152
  O  O137  1  0.863500  0.512500  0.835500  1.0  -0.6137
  O  O138  1  0.487500  0.351000  0.835500  1.0  -0.6165
  O  O139  1  0.863500  0.351000  0.664500  1.0  -0.6154
  O  O140  1  0.487500  0.136500  0.664500  1.0  -0.6135
  O  O141  1  0.649000  0.512500  0.664500  1.0  -0.614
  O  O142  1  0.136500  0.649000  0.164500  1.0  -0.616
  O  O143  1  0.512500  0.863500  0.164500  1.0  -0.6152
  O  O144  1  0.351000  0.487500  0.164500  1.0  -0.6138
  O  O145  1  0.666667  0.333333  0.750000  1.0  -0.992
  O  O146  1  0.333333  0.666667  0.250000  1.0  -0.992
