# generated using pymatgen
data_In5H18C30N9O13
_symmetry_space_group_name_H-M   'P 1'
_cell_length_a   13.87300000
_cell_length_b   13.87300000
_cell_length_c   18.45500000
_cell_angle_alpha   90.00000000
_cell_angle_beta   90.00000000
_cell_angle_gamma   120.00000000
_symmetry_Int_Tables_number   1
_chemical_formula_structural   In5H18C30N9O13
_chemical_formula_sum   'In10 H36 C60 N18 O26'
_cell_volume   3075.99378596
_cell_formula_units_Z   2
loop_
 _symmetry_equiv_pos_site_id
 _symmetry_equiv_pos_as_xyz
  1  'x, y, z'
loop_
 _atom_site_type_symbol
 _atom_site_label
 _atom_site_symmetry_multiplicity
 _atom_site_fract_x
 _atom_site_fract_y
 _atom_site_fract_z
 _atom_site_occupancy
 _atom_site_charge
  In  In1  1  0.248770  0.497540  0.250000  1.0  1.5561
  In  In2  1  0.502460  0.751230  0.250000  1.0  1.5534
  In  In3  1  0.248770  0.751230  0.250000  1.0  1.5542
  In  In4  1  0.751230  0.502460  0.750000  1.0  1.5568
  In  In5  1  0.497540  0.248770  0.750000  1.0  1.5537
  In  In6  1  0.751230  0.248770  0.750000  1.0  1.5532
  In  In7  1  0.000000  0.000000  0.133900  1.0  0.9786
  In  In8  1  0.000000  0.000000  0.633900  1.0  0.9786
  In  In9  1  0.000000  0.000000  0.866100  1.0  0.9845
  In  In10  1  0.000000  0.000000  0.366100  1.0  0.9845
  H  H11  1  0.328700  0.377700  0.444200  1.0  0.0784
  H  H12  1  0.622300  0.951000  0.444200  1.0  0.0778
  H  H13  1  0.049000  0.671300  0.444200  1.0  0.0786
  H  H14  1  0.671300  0.622300  0.944200  1.0  0.0787
  H  H15  1  0.377700  0.049000  0.944200  1.0  0.0774
  H  H16  1  0.951000  0.328700  0.944200  1.0  0.0786
  H  H17  1  0.377700  0.328700  0.555800  1.0  0.0788
  H  H18  1  0.951000  0.622300  0.555800  1.0  0.0789
  H  H19  1  0.671300  0.049000  0.555800  1.0  0.0783
  H  H20  1  0.622300  0.671300  0.055800  1.0  0.079
  H  H21  1  0.049000  0.377700  0.055800  1.0  0.0792
  H  H22  1  0.328700  0.951000  0.055800  1.0  0.0777
  H  H23  1  0.671300  0.622300  0.555800  1.0  0.0791
  H  H24  1  0.377700  0.049000  0.555800  1.0  0.0778
  H  H25  1  0.951000  0.328700  0.555800  1.0  0.0791
  H  H26  1  0.328700  0.377700  0.055800  1.0  0.0787
  H  H27  1  0.622300  0.951000  0.055800  1.0  0.0781
  H  H28  1  0.049000  0.671300  0.055800  1.0  0.0788
  H  H29  1  0.622300  0.671300  0.444200  1.0  0.0786
  H  H30  1  0.049000  0.377700  0.444200  1.0  0.0787
  H  H31  1  0.328700  0.951000  0.444200  1.0  0.0775
  H  H32  1  0.377700  0.328700  0.944200  1.0  0.0785
  H  H33  1  0.951000  0.622300  0.944200  1.0  0.0788
  H  H34  1  0.671300  0.049000  0.944200  1.0  0.0778
  H  H35  1  0.136450  0.272900  0.150400  1.0  0.0565
  H  H36  1  0.727100  0.863550  0.150400  1.0  0.0563
  H  H37  1  0.136450  0.863550  0.150400  1.0  0.0562
  H  H38  1  0.863550  0.727100  0.650400  1.0  0.0565
  H  H39  1  0.272900  0.136450  0.650400  1.0  0.0562
  H  H40  1  0.863550  0.136450  0.650400  1.0  0.0563
  H  H41  1  0.272900  0.136450  0.849600  1.0  0.0566
  H  H42  1  0.863550  0.727100  0.849600  1.0  0.0564
  H  H43  1  0.863550  0.136450  0.849600  1.0  0.0565
  H  H44  1  0.727100  0.863550  0.349600  1.0  0.0564
  H  H45  1  0.136450  0.272900  0.349600  1.0  0.0567
  H  H46  1  0.136450  0.863550  0.349600  1.0  0.0566
  C  C47  1  0.396600  0.425400  0.466100  1.0  -0.0753
  C  C48  1  0.574600  0.971200  0.466100  1.0  -0.0775
  C  C49  1  0.028800  0.603400  0.466100  1.0  -0.0773
  C  C50  1  0.603400  0.574600  0.966100  1.0  -0.078
  C  C51  1  0.425400  0.028800  0.966100  1.0  -0.0785
  C  C52  1  0.971200  0.396600  0.966100  1.0  -0.0757
  C  C53  1  0.425400  0.396600  0.533900  1.0  -0.0759
  C  C54  1  0.971200  0.574600  0.533900  1.0  -0.0766
  C  C55  1  0.603400  0.028800  0.533900  1.0  -0.0772
  C  C56  1  0.574600  0.603400  0.033900  1.0  -0.0769
  C  C57  1  0.028800  0.425400  0.033900  1.0  -0.0759
  C  C58  1  0.396600  0.971200  0.033900  1.0  -0.0778
  C  C59  1  0.603400  0.574600  0.533900  1.0  -0.0776
  C  C60  1  0.425400  0.028800  0.533900  1.0  -0.078
  C  C61  1  0.971200  0.396600  0.533900  1.0  -0.0754
  C  C62  1  0.396600  0.425400  0.033900  1.0  -0.0753
  C  C63  1  0.574600  0.971200  0.033900  1.0  -0.0774
  C  C64  1  0.028800  0.603400  0.033900  1.0  -0.0768
  C  C65  1  0.574600  0.603400  0.466100  1.0  -0.0774
  C  C66  1  0.028800  0.425400  0.466100  1.0  -0.0766
  C  C67  1  0.396600  0.971200  0.466100  1.0  -0.0789
  C  C68  1  0.425400  0.396600  0.966100  1.0  -0.0761
  C  C69  1  0.971200  0.574600  0.966100  1.0  -0.077
  C  C70  1  0.603400  0.028800  0.966100  1.0  -0.0781
  C  C71  1  0.124500  0.249000  0.198000  1.0  0.1141
  C  C72  1  0.751000  0.875500  0.198000  1.0  0.1134
  C  C73  1  0.124500  0.875500  0.198000  1.0  0.1139
  C  C74  1  0.875500  0.751000  0.698000  1.0  0.1139
  C  C75  1  0.249000  0.124500  0.698000  1.0  0.1141
  C  C76  1  0.875500  0.124500  0.698000  1.0  0.1133
  C  C77  1  0.249000  0.124500  0.802000  1.0  0.114
  C  C78  1  0.875500  0.751000  0.802000  1.0  0.1135
  C  C79  1  0.875500  0.124500  0.802000  1.0  0.1127
  C  C80  1  0.751000  0.875500  0.302000  1.0  0.1126
  C  C81  1  0.124500  0.249000  0.302000  1.0  0.1135
  C  C82  1  0.124500  0.875500  0.302000  1.0  0.1138
  C  C83  1  0.441400  0.558600  0.362400  1.0  0.7181
  C  C84  1  0.472700  0.527300  0.432800  1.0  -0.0867
  C  C85  1  0.441400  0.882800  0.362400  1.0  0.7145
  C  C86  1  0.472700  0.945400  0.432800  1.0  -0.0867
  C  C87  1  0.117200  0.558600  0.362400  1.0  0.7174
  C  C88  1  0.054600  0.527300  0.432800  1.0  -0.0874
  C  C89  1  0.558600  0.441400  0.862400  1.0  0.7175
  C  C90  1  0.527300  0.472700  0.932800  1.0  -0.0874
  C  C91  1  0.558600  0.117200  0.862400  1.0  0.7149
  C  C92  1  0.527300  0.054600  0.932800  1.0  -0.0868
  C  C93  1  0.882800  0.441400  0.862400  1.0  0.718
  C  C94  1  0.945400  0.472700  0.932800  1.0  -0.0866
  C  C95  1  0.558600  0.441400  0.637600  1.0  0.7188
  C  C96  1  0.527300  0.472700  0.567200  1.0  -0.0855
  C  C97  1  0.882800  0.441400  0.637600  1.0  0.7199
  C  C98  1  0.945400  0.472700  0.567200  1.0  -0.0845
  C  C99  1  0.558600  0.117200  0.637600  1.0  0.7167
  C  C100  1  0.527300  0.054600  0.567200  1.0  -0.0846
  C  C101  1  0.441400  0.558600  0.137600  1.0  0.7203
  C  C102  1  0.472700  0.527300  0.067200  1.0  -0.0845
  C  C103  1  0.117200  0.558600  0.137600  1.0  0.719
  C  C104  1  0.054600  0.527300  0.067200  1.0  -0.0854
  C  C105  1  0.441400  0.882800  0.137600  1.0  0.7158
  C  C106  1  0.472700  0.945400  0.067200  1.0  -0.0843
  N  N107  1  0.158300  0.316600  0.250000  1.0  -0.236
  N  N108  1  0.683400  0.841700  0.250000  1.0  -0.2323
  N  N109  1  0.158300  0.841700  0.250000  1.0  -0.2352
  N  N110  1  0.841700  0.683400  0.750000  1.0  -0.2374
  N  N111  1  0.316600  0.158300  0.750000  1.0  -0.2345
  N  N112  1  0.841700  0.158300  0.750000  1.0  -0.2318
  N  N113  1  0.074000  0.148000  0.213300  1.0  -0.3388
  N  N114  1  0.852000  0.926000  0.213300  1.0  -0.3335
  N  N115  1  0.074000  0.926000  0.213300  1.0  -0.3343
  N  N116  1  0.926000  0.852000  0.713300  1.0  -0.3393
  N  N117  1  0.148000  0.074000  0.713300  1.0  -0.3353
  N  N118  1  0.926000  0.074000  0.713300  1.0  -0.3332
  N  N119  1  0.148000  0.074000  0.786700  1.0  -0.3365
  N  N120  1  0.926000  0.852000  0.786700  1.0  -0.3393
  N  N121  1  0.926000  0.074000  0.786700  1.0  -0.3337
  N  N122  1  0.852000  0.926000  0.286700  1.0  -0.3337
  N  N123  1  0.074000  0.148000  0.286700  1.0  -0.3392
  N  N124  1  0.074000  0.926000  0.286700  1.0  -0.3353
  O  O125  1  0.348900  0.487900  0.336300  1.0  -0.6413
  O  O126  1  0.512100  0.861000  0.336300  1.0  -0.6416
  O  O127  1  0.139000  0.651100  0.336300  1.0  -0.6421
  O  O128  1  0.651100  0.512100  0.836300  1.0  -0.642
  O  O129  1  0.487900  0.139000  0.836300  1.0  -0.6407
  O  O130  1  0.861000  0.348900  0.836300  1.0  -0.6412
  O  O131  1  0.487900  0.348900  0.663700  1.0  -0.6407
  O  O132  1  0.861000  0.512100  0.663700  1.0  -0.6399
  O  O133  1  0.651100  0.139000  0.663700  1.0  -0.641
  O  O134  1  0.512100  0.651100  0.163700  1.0  -0.6415
  O  O135  1  0.139000  0.487900  0.163700  1.0  -0.642
  O  O136  1  0.348900  0.861000  0.163700  1.0  -0.6403
  O  O137  1  0.651100  0.512100  0.663700  1.0  -0.6415
  O  O138  1  0.487900  0.139000  0.663700  1.0  -0.64
  O  O139  1  0.861000  0.348900  0.663700  1.0  -0.6404
  O  O140  1  0.348900  0.487900  0.163700  1.0  -0.6407
  O  O141  1  0.512100  0.861000  0.163700  1.0  -0.6412
  O  O142  1  0.139000  0.651100  0.163700  1.0  -0.6419
  O  O143  1  0.512100  0.651100  0.336300  1.0  -0.6416
  O  O144  1  0.139000  0.487900  0.336300  1.0  -0.6427
  O  O145  1  0.348900  0.861000  0.336300  1.0  -0.6412
  O  O146  1  0.487900  0.348900  0.836300  1.0  -0.6416
  O  O147  1  0.861000  0.512100  0.836300  1.0  -0.6404
  O  O148  1  0.651100  0.139000  0.836300  1.0  -0.6413
  O  O149  1  0.333333  0.666667  0.250000  1.0  -1.0411
  O  O150  1  0.666667  0.333333  0.750000  1.0  -1.0411
