# generated using pymatgen
data_Mg2Fe3H18C30N9O13
_symmetry_space_group_name_H-M   'P 1'
_cell_length_a   13.85700000
_cell_length_b   13.85700000
_cell_length_c   17.92500000
_cell_angle_alpha   90.00000000
_cell_angle_beta   90.00000000
_cell_angle_gamma   120.00000000
_symmetry_Int_Tables_number   1
_chemical_formula_structural   Mg2Fe3H18C30N9O13
_chemical_formula_sum   'Mg4 Fe6 H36 C60 N18 O26'
_cell_volume   2980.76837580
_cell_formula_units_Z   2
loop_
 _symmetry_equiv_pos_site_id
 _symmetry_equiv_pos_as_xyz
  1  'x, y, z'
loop_
 _atom_site_type_symbol
 _atom_site_label
 _atom_site_symmetry_multiplicity
 _atom_site_fract_x
 _atom_site_fract_y
 _atom_site_fract_z
 _atom_site_occupancy
 _atom_site_charge
  Mg  Mg1  1  0.000000  0.000000  0.355200  1.0  1.3663
  Mg  Mg2  1  0.000000  0.000000  0.855200  1.0  1.3663
  Mg  Mg3  1  0.000000  0.000000  0.644800  1.0  1.3666
  Mg  Mg4  1  0.000000  0.000000  0.144800  1.0  1.3666
  Fe  Fe5  1  0.746700  0.493400  0.250000  1.0  1.0319
  Fe  Fe6  1  0.506600  0.253300  0.250000  1.0  1.0309
  Fe  Fe7  1  0.746700  0.253300  0.250000  1.0  1.027
  Fe  Fe8  1  0.253300  0.506600  0.750000  1.0  1.0311
  Fe  Fe9  1  0.493400  0.746700  0.750000  1.0  1.0276
  Fe  Fe10  1  0.253300  0.746700  0.750000  1.0  1.0315
  H  H11  1  0.666100  0.618800  0.443300  1.0  0.0879
  H  H12  1  0.381200  0.047300  0.443300  1.0  0.087
  H  H13  1  0.952700  0.333900  0.443300  1.0  0.0877
  H  H14  1  0.333900  0.381200  0.943300  1.0  0.0878
  H  H15  1  0.618800  0.952700  0.943300  1.0  0.0873
  H  H16  1  0.047300  0.666100  0.943300  1.0  0.0875
  H  H17  1  0.618800  0.666100  0.556700  1.0  0.0873
  H  H18  1  0.047300  0.381200  0.556700  1.0  0.0879
  H  H19  1  0.333900  0.952700  0.556700  1.0  0.0869
  H  H20  1  0.381200  0.333900  0.056700  1.0  0.0875
  H  H21  1  0.952700  0.618800  0.056700  1.0  0.0884
  H  H22  1  0.666100  0.047300  0.056700  1.0  0.0877
  H  H23  1  0.333900  0.381200  0.556700  1.0  0.0878
  H  H24  1  0.618800  0.952700  0.556700  1.0  0.0873
  H  H25  1  0.047300  0.666100  0.556700  1.0  0.0873
  H  H26  1  0.666100  0.618800  0.056700  1.0  0.088
  H  H27  1  0.381200  0.047300  0.056700  1.0  0.087
  H  H28  1  0.952700  0.333900  0.056700  1.0  0.0876
  H  H29  1  0.381200  0.333900  0.443300  1.0  0.0876
  H  H30  1  0.952700  0.618800  0.443300  1.0  0.0884
  H  H31  1  0.666100  0.047300  0.443300  1.0  0.0874
  H  H32  1  0.618800  0.666100  0.943300  1.0  0.0875
  H  H33  1  0.047300  0.381200  0.943300  1.0  0.0878
  H  H34  1  0.333900  0.952700  0.943300  1.0  0.0872
  H  H35  1  0.857350  0.714700  0.354900  1.0  0.0821
  H  H36  1  0.285300  0.142650  0.354900  1.0  0.0827
  H  H37  1  0.857350  0.142650  0.354900  1.0  0.0827
  H  H38  1  0.142650  0.285300  0.854900  1.0  0.0824
  H  H39  1  0.714700  0.857350  0.854900  1.0  0.0825
  H  H40  1  0.142650  0.857350  0.854900  1.0  0.0823
  H  H41  1  0.714700  0.857350  0.645100  1.0  0.0832
  H  H42  1  0.142650  0.285300  0.645100  1.0  0.0828
  H  H43  1  0.142650  0.857350  0.645100  1.0  0.0827
  H  H44  1  0.285300  0.142650  0.145100  1.0  0.0826
  H  H45  1  0.857350  0.714700  0.145100  1.0  0.0829
  H  H46  1  0.857350  0.142650  0.145100  1.0  0.0831
  C  C47  1  0.598700  0.569800  0.466000  1.0  -0.0524
  C  C48  1  0.430200  0.028900  0.466000  1.0  -0.0533
  C  C49  1  0.971100  0.401300  0.466000  1.0  -0.0519
  C  C50  1  0.401300  0.430200  0.966000  1.0  -0.0518
  C  C51  1  0.569800  0.971100  0.966000  1.0  -0.0538
  C  C52  1  0.028900  0.598700  0.966000  1.0  -0.052
  C  C53  1  0.569800  0.598700  0.534000  1.0  -0.051
  C  C54  1  0.028900  0.430200  0.534000  1.0  -0.0517
  C  C55  1  0.401300  0.971100  0.534000  1.0  -0.0529
  C  C56  1  0.430200  0.401300  0.034000  1.0  -0.0517
  C  C57  1  0.971100  0.569800  0.034000  1.0  -0.0526
  C  C58  1  0.598700  0.028900  0.034000  1.0  -0.0535
  C  C59  1  0.401300  0.430200  0.534000  1.0  -0.0515
  C  C60  1  0.569800  0.971100  0.534000  1.0  -0.0531
  C  C61  1  0.028900  0.598700  0.534000  1.0  -0.0516
  C  C62  1  0.598700  0.569800  0.034000  1.0  -0.0521
  C  C63  1  0.430200  0.028900  0.034000  1.0  -0.0532
  C  C64  1  0.971100  0.401300  0.034000  1.0  -0.0514
  C  C65  1  0.430200  0.401300  0.466000  1.0  -0.0522
  C  C66  1  0.971100  0.569800  0.466000  1.0  -0.0529
  C  C67  1  0.598700  0.028900  0.466000  1.0  -0.0541
  C  C68  1  0.569800  0.598700  0.966000  1.0  -0.0515
  C  C69  1  0.028900  0.430200  0.966000  1.0  -0.0521
  C  C70  1  0.401300  0.971100  0.966000  1.0  -0.0532
  C  C71  1  0.561600  0.438400  0.359100  1.0  0.7375
  C  C72  1  0.528900  0.471100  0.433100  1.0  -0.0975
  C  C73  1  0.561600  0.123200  0.359100  1.0  0.7362
  C  C74  1  0.528900  0.057800  0.433100  1.0  -0.0942
  C  C75  1  0.876800  0.438400  0.359100  1.0  0.7373
  C  C76  1  0.942200  0.471100  0.433100  1.0  -0.0963
  C  C77  1  0.438400  0.561600  0.859100  1.0  0.7375
  C  C78  1  0.471100  0.528900  0.933100  1.0  -0.096
  C  C79  1  0.438400  0.876800  0.859100  1.0  0.7359
  C  C80  1  0.471100  0.942200  0.933100  1.0  -0.0943
  C  C81  1  0.123200  0.561600  0.859100  1.0  0.7377
  C  C82  1  0.057800  0.528900  0.933100  1.0  -0.0972
  C  C83  1  0.438400  0.561600  0.640900  1.0  0.7384
  C  C84  1  0.471100  0.528900  0.566900  1.0  -0.0961
  C  C85  1  0.123200  0.561600  0.640900  1.0  0.7379
  C  C86  1  0.057800  0.528900  0.566900  1.0  -0.097
  C  C87  1  0.438400  0.876800  0.640900  1.0  0.7363
  C  C88  1  0.471100  0.942200  0.566900  1.0  -0.094
  C  C89  1  0.561600  0.438400  0.140900  1.0  0.7377
  C  C90  1  0.528900  0.471100  0.066900  1.0  -0.0971
  C  C91  1  0.876800  0.438400  0.140900  1.0  0.7381
  C  C92  1  0.942200  0.471100  0.066900  1.0  -0.0964
  C  C93  1  0.561600  0.123200  0.140900  1.0  0.7367
  C  C94  1  0.528900  0.057800  0.066900  1.0  -0.0945
  C  C95  1  0.870600  0.741200  0.306100  1.0  0.1518
  C  C96  1  0.258800  0.129400  0.306100  1.0  0.152
  C  C97  1  0.870600  0.129400  0.306100  1.0  0.1514
  C  C98  1  0.129400  0.258800  0.806100  1.0  0.1518
  C  C99  1  0.741200  0.870600  0.806100  1.0  0.1509
  C  C100  1  0.129400  0.870600  0.806100  1.0  0.1514
  C  C101  1  0.741200  0.870600  0.693900  1.0  0.1507
  C  C102  1  0.129400  0.258800  0.693900  1.0  0.1513
  C  C103  1  0.129400  0.870600  0.693900  1.0  0.1512
  C  C104  1  0.258800  0.129400  0.193900  1.0  0.1513
  C  C105  1  0.870600  0.741200  0.193900  1.0  0.1516
  C  C106  1  0.870600  0.129400  0.193900  1.0  0.1508
  N  N107  1  0.837050  0.674100  0.250000  1.0  -0.3211
  N  N108  1  0.325900  0.162950  0.250000  1.0  -0.3165
  N  N109  1  0.837050  0.162950  0.250000  1.0  -0.3152
  N  N110  1  0.162950  0.325900  0.750000  1.0  -0.3179
  N  N111  1  0.674100  0.837050  0.750000  1.0  -0.3154
  N  N112  1  0.162950  0.837050  0.750000  1.0  -0.3169
  N  N113  1  0.927300  0.854600  0.291000  1.0  -0.374
  N  N114  1  0.145400  0.072700  0.291000  1.0  -0.3749
  N  N115  1  0.927300  0.072700  0.291000  1.0  -0.3715
  N  N116  1  0.072700  0.145400  0.791000  1.0  -0.3732
  N  N117  1  0.854600  0.927300  0.791000  1.0  -0.371
  N  N118  1  0.072700  0.927300  0.791000  1.0  -0.3744
  N  N119  1  0.854600  0.927300  0.709000  1.0  -0.3737
  N  N120  1  0.072700  0.145400  0.709000  1.0  -0.3757
  N  N121  1  0.072700  0.927300  0.709000  1.0  -0.3762
  N  N122  1  0.145400  0.072700  0.209000  1.0  -0.3772
  N  N123  1  0.927300  0.854600  0.209000  1.0  -0.3766
  N  N124  1  0.927300  0.072700  0.209000  1.0  -0.3745
  O  O125  1  0.649700  0.505900  0.332400  1.0  -0.6152
  O  O126  1  0.494100  0.143800  0.332400  1.0  -0.6144
  O  O127  1  0.856200  0.350300  0.332400  1.0  -0.6167
  O  O128  1  0.350300  0.494100  0.832400  1.0  -0.6144
  O  O129  1  0.505900  0.856200  0.832400  1.0  -0.6157
  O  O130  1  0.143800  0.649700  0.832400  1.0  -0.6158
  O  O131  1  0.505900  0.649700  0.667600  1.0  -0.6151
  O  O132  1  0.143800  0.494100  0.667600  1.0  -0.615
  O  O133  1  0.350300  0.856200  0.667600  1.0  -0.6145
  O  O134  1  0.494100  0.350300  0.167600  1.0  -0.6156
  O  O135  1  0.856200  0.505900  0.167600  1.0  -0.6141
  O  O136  1  0.649700  0.143800  0.167600  1.0  -0.6154
  O  O137  1  0.350300  0.494100  0.667600  1.0  -0.6143
  O  O138  1  0.505900  0.856200  0.667600  1.0  -0.6157
  O  O139  1  0.143800  0.649700  0.667600  1.0  -0.6158
  O  O140  1  0.649700  0.505900  0.167600  1.0  -0.6149
  O  O141  1  0.494100  0.143800  0.167600  1.0  -0.6143
  O  O142  1  0.856200  0.350300  0.167600  1.0  -0.6169
  O  O143  1  0.494100  0.350300  0.332400  1.0  -0.6161
  O  O144  1  0.856200  0.505900  0.332400  1.0  -0.6144
  O  O145  1  0.649700  0.143800  0.332400  1.0  -0.6155
  O  O146  1  0.505900  0.649700  0.832400  1.0  -0.6148
  O  O147  1  0.143800  0.494100  0.832400  1.0  -0.6152
  O  O148  1  0.350300  0.856200  0.832400  1.0  -0.6147
  O  O149  1  0.666667  0.333333  0.250000  1.0  -0.9173
  O  O150  1  0.333333  0.666667  0.750000  1.0  -0.9173
