# generated using pymatgen
data_In3Ni2H18C30N9O13
_symmetry_space_group_name_H-M   'P 1'
_cell_length_a   13.86180000
_cell_length_b   13.86180000
_cell_length_c   18.50790000
_cell_angle_alpha   90.00000000
_cell_angle_beta   90.00000000
_cell_angle_gamma   120.00000000
_symmetry_Int_Tables_number   1
_chemical_formula_structural   In3Ni2H18C30N9O13
_chemical_formula_sum   'In6 Ni4 H36 C60 N18 O26'
_cell_volume   3079.83204197
_cell_formula_units_Z   2
loop_
 _symmetry_equiv_pos_site_id
 _symmetry_equiv_pos_as_xyz
  1  'x, y, z'
loop_
 _atom_site_type_symbol
 _atom_site_label
 _atom_site_symmetry_multiplicity
 _atom_site_fract_x
 _atom_site_fract_y
 _atom_site_fract_z
 _atom_site_occupancy
 _atom_site_charge
  In  In1  1  0.751360  0.248640  0.250000  1.0  1.582
  In  In2  1  0.751360  0.502720  0.250000  1.0  1.5845
  In  In3  1  0.497280  0.248640  0.250000  1.0  1.5822
  In  In4  1  0.248640  0.751360  0.750000  1.0  1.5829
  In  In5  1  0.248640  0.497280  0.750000  1.0  1.5835
  In  In6  1  0.502720  0.751360  0.750000  1.0  1.5827
  Ni  Ni7  1  0.000000  0.000000  0.360510  1.0  0.493
  Ni  Ni8  1  0.000000  0.000000  0.860510  1.0  0.493
  Ni  Ni9  1  0.000000  0.000000  0.639490  1.0  0.489
  Ni  Ni10  1  0.000000  0.000000  0.139490  1.0  0.489
  H  H11  1  0.666200  0.044600  0.055000  1.0  0.094
  H  H12  1  0.955400  0.621600  0.055000  1.0  0.0947
  H  H13  1  0.378400  0.333800  0.055000  1.0  0.0942
  H  H14  1  0.333800  0.955400  0.555000  1.0  0.0935
  H  H15  1  0.044600  0.378400  0.555000  1.0  0.0947
  H  H16  1  0.621600  0.666200  0.555000  1.0  0.0942
  H  H17  1  0.044600  0.666200  0.945000  1.0  0.0944
  H  H18  1  0.621600  0.955400  0.945000  1.0  0.0936
  H  H19  1  0.333800  0.378400  0.945000  1.0  0.0941
  H  H20  1  0.955400  0.333800  0.445000  1.0  0.094
  H  H21  1  0.378400  0.044600  0.445000  1.0  0.0933
  H  H22  1  0.666200  0.621600  0.445000  1.0  0.0946
  H  H23  1  0.333800  0.955400  0.945000  1.0  0.0935
  H  H24  1  0.044600  0.378400  0.945000  1.0  0.0944
  H  H25  1  0.621600  0.666200  0.945000  1.0  0.094
  H  H26  1  0.666200  0.044600  0.445000  1.0  0.0937
  H  H27  1  0.955400  0.621600  0.445000  1.0  0.0946
  H  H28  1  0.378400  0.333800  0.445000  1.0  0.094
  H  H29  1  0.955400  0.333800  0.055000  1.0  0.0942
  H  H30  1  0.378400  0.044600  0.055000  1.0  0.0935
  H  H31  1  0.666200  0.621600  0.055000  1.0  0.0947
  H  H32  1  0.044600  0.666200  0.555000  1.0  0.0945
  H  H33  1  0.621600  0.955400  0.555000  1.0  0.0937
  H  H34  1  0.333800  0.378400  0.555000  1.0  0.0943
  H  H35  1  0.862100  0.137900  0.354500  1.0  0.084
  H  H36  1  0.862100  0.724200  0.354500  1.0  0.0832
  H  H37  1  0.275800  0.137900  0.354500  1.0  0.084
  H  H38  1  0.137900  0.862100  0.854500  1.0  0.0838
  H  H39  1  0.137900  0.275800  0.854500  1.0  0.0837
  H  H40  1  0.724200  0.862100  0.854500  1.0  0.0838
  H  H41  1  0.137900  0.862100  0.645500  1.0  0.0842
  H  H42  1  0.724200  0.862100  0.645500  1.0  0.0845
  H  H43  1  0.137900  0.275800  0.645500  1.0  0.0844
  H  H44  1  0.862100  0.137900  0.145500  1.0  0.0847
  H  H45  1  0.275800  0.137900  0.145500  1.0  0.0843
  H  H46  1  0.862100  0.724200  0.145500  1.0  0.0842
  C  C47  1  0.598800  0.026600  0.033300  1.0  -0.0558
  C  C48  1  0.973400  0.572200  0.033300  1.0  -0.0542
  C  C49  1  0.427800  0.401200  0.033300  1.0  -0.0538
  C  C50  1  0.401200  0.973400  0.533300  1.0  -0.0547
  C  C51  1  0.026600  0.427800  0.533300  1.0  -0.0543
  C  C52  1  0.572200  0.598800  0.533300  1.0  -0.055
  C  C53  1  0.026600  0.598800  0.966700  1.0  -0.0546
  C  C54  1  0.572200  0.973400  0.966700  1.0  -0.0561
  C  C55  1  0.401200  0.427800  0.966700  1.0  -0.0537
  C  C56  1  0.973400  0.401200  0.466700  1.0  -0.0538
  C  C57  1  0.427800  0.026600  0.466700  1.0  -0.0549
  C  C58  1  0.598800  0.572200  0.466700  1.0  -0.0544
  C  C59  1  0.401200  0.973400  0.966700  1.0  -0.055
  C  C60  1  0.026600  0.427800  0.966700  1.0  -0.0544
  C  C61  1  0.572200  0.598800  0.966700  1.0  -0.0544
  C  C62  1  0.598800  0.026600  0.466700  1.0  -0.0561
  C  C63  1  0.973400  0.572200  0.466700  1.0  -0.0539
  C  C64  1  0.427800  0.401200  0.466700  1.0  -0.054
  C  C65  1  0.973400  0.401200  0.033300  1.0  -0.0536
  C  C66  1  0.427800  0.026600  0.033300  1.0  -0.0546
  C  C67  1  0.598800  0.572200  0.033300  1.0  -0.0549
  C  C68  1  0.026600  0.598800  0.533300  1.0  -0.0547
  C  C69  1  0.572200  0.973400  0.533300  1.0  -0.0559
  C  C70  1  0.401200  0.427800  0.533300  1.0  -0.0534
  C  C71  1  0.556700  0.113400  0.137800  1.0  0.7492
  C  C72  1  0.526700  0.053400  0.067800  1.0  -0.11
  C  C73  1  0.886600  0.443300  0.137800  1.0  0.7515
  C  C74  1  0.946600  0.473300  0.067800  1.0  -0.1116
  C  C75  1  0.556700  0.443300  0.137800  1.0  0.751
  C  C76  1  0.526700  0.473300  0.067800  1.0  -0.1122
  C  C77  1  0.443300  0.886600  0.637800  1.0  0.7485
  C  C78  1  0.473300  0.946600  0.567800  1.0  -0.1111
  C  C79  1  0.113400  0.556700  0.637800  1.0  0.7513
  C  C80  1  0.053400  0.526700  0.567800  1.0  -0.1119
  C  C81  1  0.443300  0.556700  0.637800  1.0  0.7516
  C  C82  1  0.473300  0.526700  0.567800  1.0  -0.1111
  C  C83  1  0.113400  0.556700  0.862200  1.0  0.749
  C  C84  1  0.053400  0.526700  0.932200  1.0  -0.1111
  C  C85  1  0.443300  0.886600  0.862200  1.0  0.7461
  C  C86  1  0.473300  0.946600  0.932200  1.0  -0.111
  C  C87  1  0.443300  0.556700  0.862200  1.0  0.7486
  C  C88  1  0.473300  0.526700  0.932200  1.0  -0.1107
  C  C89  1  0.886600  0.443300  0.362200  1.0  0.7487
  C  C90  1  0.946600  0.473300  0.432200  1.0  -0.1113
  C  C91  1  0.556700  0.113400  0.362200  1.0  0.7462
  C  C92  1  0.526700  0.053400  0.432200  1.0  -0.1098
  C  C93  1  0.556700  0.443300  0.362200  1.0  0.7491
  C  C94  1  0.526700  0.473300  0.432200  1.0  -0.1117
  C  C95  1  0.874800  0.125200  0.307000  1.0  0.1928
  C  C96  1  0.874800  0.749600  0.307000  1.0  0.193
  C  C97  1  0.250400  0.125200  0.307000  1.0  0.1938
  C  C98  1  0.125200  0.874800  0.807000  1.0  0.1936
  C  C99  1  0.125200  0.250400  0.807000  1.0  0.1934
  C  C100  1  0.749600  0.874800  0.807000  1.0  0.1926
  C  C101  1  0.125200  0.874800  0.693000  1.0  0.1939
  C  C102  1  0.749600  0.874800  0.693000  1.0  0.193
  C  C103  1  0.125200  0.250400  0.693000  1.0  0.1932
  C  C104  1  0.874800  0.125200  0.193000  1.0  0.1931
  C  C105  1  0.250400  0.125200  0.193000  1.0  0.1939
  C  C106  1  0.874800  0.749600  0.193000  1.0  0.1934
  N  N107  1  0.841200  0.158800  0.250000  1.0  -0.3425
  N  N108  1  0.841200  0.682400  0.250000  1.0  -0.3476
  N  N109  1  0.317600  0.158800  0.250000  1.0  -0.3441
  N  N110  1  0.158800  0.841200  0.750000  1.0  -0.3446
  N  N111  1  0.158800  0.317600  0.750000  1.0  -0.3463
  N  N112  1  0.682400  0.841200  0.750000  1.0  -0.3432
  N  N113  1  0.927900  0.072100  0.289300  1.0  -0.3579
  N  N114  1  0.927900  0.855800  0.289300  1.0  -0.3639
  N  N115  1  0.144200  0.072100  0.289300  1.0  -0.3595
  N  N116  1  0.072100  0.927900  0.789300  1.0  -0.3598
  N  N117  1  0.072100  0.144200  0.789300  1.0  -0.3641
  N  N118  1  0.855800  0.927900  0.789300  1.0  -0.3583
  N  N119  1  0.072100  0.927900  0.710700  1.0  -0.3587
  N  N120  1  0.855800  0.927900  0.710700  1.0  -0.3579
  N  N121  1  0.072100  0.144200  0.710700  1.0  -0.3637
  N  N122  1  0.927900  0.072100  0.210700  1.0  -0.3577
  N  N123  1  0.144200  0.072100  0.210700  1.0  -0.3588
  N  N124  1  0.927900  0.855800  0.210700  1.0  -0.363
  O  O125  1  0.648300  0.135500  0.164500  1.0  -0.621
  O  O126  1  0.864500  0.512800  0.164500  1.0  -0.6215
  O  O127  1  0.487200  0.351700  0.164500  1.0  -0.6226
  O  O128  1  0.351700  0.864500  0.664500  1.0  -0.6208
  O  O129  1  0.135500  0.487200  0.664500  1.0  -0.6217
  O  O130  1  0.512800  0.648300  0.664500  1.0  -0.6225
  O  O131  1  0.135500  0.648300  0.835500  1.0  -0.6239
  O  O132  1  0.512800  0.864500  0.835500  1.0  -0.622
  O  O133  1  0.351700  0.487200  0.835500  1.0  -0.6222
  O  O134  1  0.864500  0.351700  0.335500  1.0  -0.6231
  O  O135  1  0.487200  0.135500  0.335500  1.0  -0.6211
  O  O136  1  0.648300  0.512800  0.335500  1.0  -0.6226
  O  O137  1  0.351700  0.864500  0.835500  1.0  -0.6215
  O  O138  1  0.135500  0.487200  0.835500  1.0  -0.6225
  O  O139  1  0.512800  0.648300  0.835500  1.0  -0.6232
  O  O140  1  0.648300  0.135500  0.335500  1.0  -0.6218
  O  O141  1  0.864500  0.512800  0.335500  1.0  -0.6219
  O  O142  1  0.487200  0.351700  0.335500  1.0  -0.6238
  O  O143  1  0.864500  0.351700  0.164500  1.0  -0.6221
  O  O144  1  0.487200  0.135500  0.164500  1.0  -0.6202
  O  O145  1  0.648300  0.512800  0.164500  1.0  -0.6221
  O  O146  1  0.135500  0.648300  0.664500  1.0  -0.623
  O  O147  1  0.512800  0.864500  0.664500  1.0  -0.6215
  O  O148  1  0.351700  0.487200  0.664500  1.0  -0.6216
  O  O149  1  0.666667  0.333333  0.250000  1.0  -1.0371
  O  O150  1  0.333333  0.666667  0.750000  1.0  -1.0371
