# generated using pymatgen
data_In3Co2H6C30N9O25
_symmetry_space_group_name_H-M   'P 1'
_cell_length_a   13.89300000
_cell_length_b   13.89300000
_cell_length_c   18.36800000
_cell_angle_alpha   90.00000000
_cell_angle_beta   90.00000000
_cell_angle_gamma   120.00000000
_symmetry_Int_Tables_number   1
_chemical_formula_structural   In3Co2H6C30N9O25
_chemical_formula_sum   'In6 Co4 H12 C60 N18 O50'
_cell_volume   3070.32659066
_cell_formula_units_Z   2
loop_
 _symmetry_equiv_pos_site_id
 _symmetry_equiv_pos_as_xyz
  1  'x, y, z'
loop_
 _atom_site_type_symbol
 _atom_site_label
 _atom_site_symmetry_multiplicity
 _atom_site_fract_x
 _atom_site_fract_y
 _atom_site_fract_z
 _atom_site_occupancy
 _atom_site_charge
  In  In1  1  0.751520  0.248480  0.250000  1.0  1.6291
  In  In2  1  0.751520  0.503040  0.250000  1.0  1.6309
  In  In3  1  0.496960  0.248480  0.250000  1.0  1.6295
  In  In4  1  0.248480  0.751520  0.750000  1.0  1.6296
  In  In5  1  0.248480  0.496960  0.750000  1.0  1.631
  In  In6  1  0.503040  0.751520  0.750000  1.0  1.6292
  Co  Co7  1  0.000000  0.000000  0.353230  1.0  0.787
  Co  Co8  1  0.000000  0.000000  0.853230  1.0  0.787
  Co  Co9  1  0.000000  0.000000  0.646770  1.0  0.7881
  Co  Co10  1  0.000000  0.000000  0.146770  1.0  0.7881
  H  H11  1  0.860700  0.139300  0.350900  1.0  0.1223
  H  H12  1  0.860700  0.721400  0.350900  1.0  0.1221
  H  H13  1  0.278600  0.139300  0.350900  1.0  0.1229
  H  H14  1  0.139300  0.860700  0.850900  1.0  0.1226
  H  H15  1  0.139300  0.278600  0.850900  1.0  0.1228
  H  H16  1  0.721400  0.860700  0.850900  1.0  0.122
  H  H17  1  0.139300  0.860700  0.649100  1.0  0.1228
  H  H18  1  0.721400  0.860700  0.649100  1.0  0.1225
  H  H19  1  0.139300  0.278600  0.649100  1.0  0.1228
  H  H20  1  0.860700  0.139300  0.149100  1.0  0.1226
  H  H21  1  0.278600  0.139300  0.149100  1.0  0.1228
  H  H22  1  0.860700  0.721400  0.149100  1.0  0.1228
  C  C23  1  0.971600  0.571300  0.465900  1.0  0.3485
  C  C24  1  0.428700  0.400300  0.465900  1.0  0.3487
  C  C25  1  0.599700  0.028400  0.465900  1.0  0.3493
  C  C26  1  0.028400  0.428700  0.965900  1.0  0.3498
  C  C27  1  0.571300  0.599700  0.965900  1.0  0.3481
  C  C28  1  0.400300  0.971600  0.965900  1.0  0.3492
  C  C29  1  0.571300  0.971600  0.534100  1.0  0.349
  C  C30  1  0.400300  0.428700  0.534100  1.0  0.3505
  C  C31  1  0.028400  0.599700  0.534100  1.0  0.348
  C  C32  1  0.428700  0.028400  0.034100  1.0  0.35
  C  C33  1  0.599700  0.571300  0.034100  1.0  0.3486
  C  C34  1  0.971600  0.400300  0.034100  1.0  0.3501
  C  C35  1  0.028400  0.428700  0.534100  1.0  0.3503
  C  C36  1  0.571300  0.599700  0.534100  1.0  0.3485
  C  C37  1  0.400300  0.971600  0.534100  1.0  0.3496
  C  C38  1  0.971600  0.571300  0.034100  1.0  0.3489
  C  C39  1  0.428700  0.400300  0.034100  1.0  0.3494
  C  C40  1  0.599700  0.028400  0.034100  1.0  0.3497
  C  C41  1  0.428700  0.028400  0.465900  1.0  0.3496
  C  C42  1  0.599700  0.571300  0.465900  1.0  0.3481
  C  C43  1  0.971600  0.400300  0.465900  1.0  0.3495
  C  C44  1  0.571300  0.971600  0.965900  1.0  0.3486
  C  C45  1  0.400300  0.428700  0.965900  1.0  0.3501
  C  C46  1  0.028400  0.599700  0.965900  1.0  0.3475
  C  C47  1  0.885400  0.442700  0.361600  1.0  0.7748
  C  C48  1  0.944900  0.472450  0.432400  1.0  -0.1031
  C  C49  1  0.557300  0.442700  0.361600  1.0  0.7761
  C  C50  1  0.527550  0.472450  0.432400  1.0  -0.1025
  C  C51  1  0.557300  0.114600  0.361600  1.0  0.7728
  C  C52  1  0.527550  0.055100  0.432400  1.0  -0.105
  C  C53  1  0.114600  0.557300  0.861600  1.0  0.7752
  C  C54  1  0.055100  0.527550  0.932400  1.0  -0.1027
  C  C55  1  0.442700  0.557300  0.861600  1.0  0.7746
  C  C56  1  0.472450  0.527550  0.932400  1.0  -0.1033
  C  C57  1  0.442700  0.885400  0.861600  1.0  0.7735
  C  C58  1  0.472450  0.944900  0.932400  1.0  -0.1044
  C  C59  1  0.442700  0.885400  0.638400  1.0  0.7729
  C  C60  1  0.472450  0.944900  0.567600  1.0  -0.104
  C  C61  1  0.442700  0.557300  0.638400  1.0  0.7747
  C  C62  1  0.472450  0.527550  0.567600  1.0  -0.1028
  C  C63  1  0.114600  0.557300  0.638400  1.0  0.7748
  C  C64  1  0.055100  0.527550  0.567600  1.0  -0.102
  C  C65  1  0.557300  0.114600  0.138400  1.0  0.773
  C  C66  1  0.527550  0.055100  0.067600  1.0  -0.1045
  C  C67  1  0.557300  0.442700  0.138400  1.0  0.775
  C  C68  1  0.527550  0.472450  0.067600  1.0  -0.1019
  C  C69  1  0.885400  0.442700  0.138400  1.0  0.7743
  C  C70  1  0.944900  0.472450  0.067600  1.0  -0.1027
  C  C71  1  0.873700  0.126300  0.303300  1.0  0.183
  C  C72  1  0.873700  0.747400  0.303300  1.0  0.1837
  C  C73  1  0.252600  0.126300  0.303300  1.0  0.1835
  C  C74  1  0.126300  0.873700  0.803300  1.0  0.1834
  C  C75  1  0.126300  0.252600  0.803300  1.0  0.1835
  C  C76  1  0.747400  0.873700  0.803300  1.0  0.1827
  C  C77  1  0.126300  0.873700  0.696700  1.0  0.183
  C  C78  1  0.747400  0.873700  0.696700  1.0  0.1826
  C  C79  1  0.126300  0.252600  0.696700  1.0  0.183
  C  C80  1  0.873700  0.126300  0.196700  1.0  0.1826
  C  C81  1  0.252600  0.126300  0.196700  1.0  0.1829
  C  C82  1  0.873700  0.747400  0.196700  1.0  0.1835
  N  N83  1  0.841000  0.159000  0.250000  1.0  -0.2148
  N  N84  1  0.841000  0.682000  0.250000  1.0  -0.2197
  N  N85  1  0.318000  0.159000  0.250000  1.0  -0.2171
  N  N86  1  0.159000  0.841000  0.750000  1.0  -0.2174
  N  N87  1  0.159000  0.318000  0.750000  1.0  -0.2191
  N  N88  1  0.682000  0.841000  0.750000  1.0  -0.2151
  N  N89  1  0.927600  0.072400  0.288400  1.0  -0.3439
  N  N90  1  0.927600  0.855200  0.288400  1.0  -0.3497
  N  N91  1  0.144800  0.072400  0.288400  1.0  -0.3455
  N  N92  1  0.072400  0.927600  0.788400  1.0  -0.3455
  N  N93  1  0.072400  0.144800  0.788400  1.0  -0.3518
  N  N94  1  0.855200  0.927600  0.788400  1.0  -0.3443
  N  N95  1  0.072400  0.927600  0.711600  1.0  -0.3458
  N  N96  1  0.855200  0.927600  0.711600  1.0  -0.3455
  N  N97  1  0.072400  0.144800  0.711600  1.0  -0.3529
  N  N98  1  0.927600  0.072400  0.211600  1.0  -0.3451
  N  N99  1  0.144800  0.072400  0.211600  1.0  -0.3463
  N  N100  1  0.927600  0.855200  0.211600  1.0  -0.351
  O  O101  1  0.861000  0.349900  0.334700  1.0  -0.5921
  O  O102  1  0.944000  0.641000  0.442200  1.0  -0.4724
  O  O103  1  0.650100  0.511100  0.334700  1.0  -0.5917
  O  O104  1  0.359000  0.303000  0.442200  1.0  -0.4738
  O  O105  1  0.488900  0.139000  0.334700  1.0  -0.5922
  O  O106  1  0.697000  0.056000  0.442200  1.0  -0.4761
  O  O107  1  0.139000  0.650100  0.834700  1.0  -0.5931
  O  O108  1  0.056000  0.359000  0.942200  1.0  -0.4728
  O  O109  1  0.349900  0.488900  0.834700  1.0  -0.5916
  O  O110  1  0.641000  0.697000  0.942200  1.0  -0.473
  O  O111  1  0.511100  0.861000  0.834700  1.0  -0.5937
  O  O112  1  0.303000  0.944000  0.942200  1.0  -0.4752
  O  O113  1  0.349900  0.861000  0.665300  1.0  -0.5922
  O  O114  1  0.641000  0.944000  0.557800  1.0  -0.4767
  O  O115  1  0.511100  0.650100  0.665300  1.0  -0.5928
  O  O116  1  0.303000  0.359000  0.557800  1.0  -0.4739
  O  O117  1  0.139000  0.488900  0.665300  1.0  -0.591
  O  O118  1  0.056000  0.697000  0.557800  1.0  -0.4749
  O  O119  1  0.650100  0.139000  0.165300  1.0  -0.5928
  O  O120  1  0.359000  0.056000  0.057800  1.0  -0.4756
  O  O121  1  0.488900  0.349900  0.165300  1.0  -0.5918
  O  O122  1  0.697000  0.641000  0.057800  1.0  -0.4741
  O  O123  1  0.861000  0.511100  0.165300  1.0  -0.5917
  O  O124  1  0.944000  0.303000  0.057800  1.0  -0.4745
  O  O125  1  0.139000  0.650100  0.665300  1.0  -0.5926
  O  O126  1  0.056000  0.359000  0.557800  1.0  -0.4738
  O  O127  1  0.349900  0.488900  0.665300  1.0  -0.5915
  O  O128  1  0.641000  0.697000  0.557800  1.0  -0.4742
  O  O129  1  0.511100  0.861000  0.665300  1.0  -0.5934
  O  O130  1  0.303000  0.944000  0.557800  1.0  -0.4756
  O  O131  1  0.861000  0.349900  0.165300  1.0  -0.5919
  O  O132  1  0.944000  0.641000  0.057800  1.0  -0.4729
  O  O133  1  0.650100  0.511100  0.165300  1.0  -0.5912
  O  O134  1  0.359000  0.303000  0.057800  1.0  -0.4744
  O  O135  1  0.488900  0.139000  0.165300  1.0  -0.5917
  O  O136  1  0.697000  0.056000  0.057800  1.0  -0.4769
  O  O137  1  0.650100  0.139000  0.334700  1.0  -0.5929
  O  O138  1  0.359000  0.056000  0.442200  1.0  -0.4752
  O  O139  1  0.488900  0.349900  0.334700  1.0  -0.5923
  O  O140  1  0.697000  0.641000  0.442200  1.0  -0.4736
  O  O141  1  0.861000  0.511100  0.334700  1.0  -0.5919
  O  O142  1  0.944000  0.303000  0.442200  1.0  -0.4738
  O  O143  1  0.349900  0.861000  0.834700  1.0  -0.5929
  O  O144  1  0.641000  0.944000  0.942200  1.0  -0.476
  O  O145  1  0.511100  0.650100  0.834700  1.0  -0.593
  O  O146  1  0.303000  0.359000  0.942200  1.0  -0.4733
  O  O147  1  0.139000  0.488900  0.834700  1.0  -0.5913
  O  O148  1  0.056000  0.697000  0.942200  1.0  -0.4739
  O  O149  1  0.666667  0.333333  0.250000  1.0  -0.9797
  O  O150  1  0.333333  0.666667  0.750000  1.0  -0.9797
