# generated using pymatgen
data_In3Co2H18C30N9O13
_symmetry_space_group_name_H-M   'P 1'
_cell_length_a   13.90500000
_cell_length_b   13.90500000
_cell_length_c   18.46630000
_cell_angle_alpha   90.00000000
_cell_angle_beta   90.00000000
_cell_angle_gamma   120.00000000
_symmetry_Int_Tables_number   1
_chemical_formula_structural   In3Co2H18C30N9O13
_chemical_formula_sum   'In6 Co4 H36 C60 N18 O26'
_cell_volume   3092.09269563
_cell_formula_units_Z   2
loop_
 _symmetry_equiv_pos_site_id
 _symmetry_equiv_pos_as_xyz
  1  'x, y, z'
loop_
 _atom_site_type_symbol
 _atom_site_label
 _atom_site_symmetry_multiplicity
 _atom_site_fract_x
 _atom_site_fract_y
 _atom_site_fract_z
 _atom_site_occupancy
 _atom_site_charge
  In  In1  1  0.750950  0.249050  0.250000  1.0  1.5741
  In  In2  1  0.750950  0.501900  0.250000  1.0  1.5776
  In  In3  1  0.498100  0.249050  0.250000  1.0  1.5754
  In  In4  1  0.249050  0.750950  0.750000  1.0  1.5761
  In  In5  1  0.249050  0.498100  0.750000  1.0  1.5766
  In  In6  1  0.501900  0.750950  0.750000  1.0  1.5747
  Co  Co7  1  0.000000  0.000000  0.357380  1.0  0.6819
  Co  Co8  1  0.000000  0.000000  0.857380  1.0  0.6819
  Co  Co9  1  0.000000  0.000000  0.642620  1.0  0.6837
  Co  Co10  1  0.000000  0.000000  0.142620  1.0  0.6837
  H  H11  1  0.954900  0.620400  0.444800  1.0  0.0865
  H  H12  1  0.379600  0.334500  0.444800  1.0  0.086
  H  H13  1  0.665500  0.045100  0.444800  1.0  0.0855
  H  H14  1  0.045100  0.379600  0.944800  1.0  0.0862
  H  H15  1  0.620400  0.665500  0.944800  1.0  0.0859
  H  H16  1  0.334500  0.954900  0.944800  1.0  0.0855
  H  H17  1  0.620400  0.954900  0.555200  1.0  0.0853
  H  H18  1  0.334500  0.379600  0.555200  1.0  0.0862
  H  H19  1  0.045100  0.665500  0.555200  1.0  0.0861
  H  H20  1  0.379600  0.045100  0.055200  1.0  0.0856
  H  H21  1  0.665500  0.620400  0.055200  1.0  0.0864
  H  H22  1  0.954900  0.334500  0.055200  1.0  0.0861
  H  H23  1  0.045100  0.379600  0.555200  1.0  0.0864
  H  H24  1  0.620400  0.665500  0.555200  1.0  0.086
  H  H25  1  0.334500  0.954900  0.555200  1.0  0.0856
  H  H26  1  0.954900  0.620400  0.055200  1.0  0.0865
  H  H27  1  0.379600  0.334500  0.055200  1.0  0.0861
  H  H28  1  0.665500  0.045100  0.055200  1.0  0.0857
  H  H29  1  0.379600  0.045100  0.444800  1.0  0.0855
  H  H30  1  0.665500  0.620400  0.444800  1.0  0.0864
  H  H31  1  0.954900  0.334500  0.444800  1.0  0.086
  H  H32  1  0.620400  0.954900  0.944800  1.0  0.0853
  H  H33  1  0.334500  0.379600  0.944800  1.0  0.0862
  H  H34  1  0.045100  0.665500  0.944800  1.0  0.0861
  H  H35  1  0.863000  0.137000  0.354700  1.0  0.0708
  H  H36  1  0.863000  0.726000  0.354700  1.0  0.07
  H  H37  1  0.274000  0.137000  0.354700  1.0  0.0708
  H  H38  1  0.137000  0.863000  0.854700  1.0  0.0706
  H  H39  1  0.137000  0.274000  0.854700  1.0  0.0705
  H  H40  1  0.726000  0.863000  0.854700  1.0  0.0705
  H  H41  1  0.137000  0.863000  0.645300  1.0  0.0707
  H  H42  1  0.726000  0.863000  0.645300  1.0  0.0708
  H  H43  1  0.137000  0.274000  0.645300  1.0  0.071
  H  H44  1  0.863000  0.137000  0.145300  1.0  0.071
  H  H45  1  0.274000  0.137000  0.145300  1.0  0.0708
  H  H46  1  0.863000  0.726000  0.145300  1.0  0.0705
  C  C47  1  0.972900  0.571300  0.466800  1.0  -0.0627
  C  C48  1  0.428700  0.401600  0.466800  1.0  -0.0634
  C  C49  1  0.598400  0.027100  0.466800  1.0  -0.0648
  C  C50  1  0.027100  0.428700  0.966800  1.0  -0.0633
  C  C51  1  0.571300  0.598400  0.966800  1.0  -0.064
  C  C52  1  0.401600  0.972900  0.966800  1.0  -0.0639
  C  C53  1  0.571300  0.972900  0.533200  1.0  -0.0642
  C  C54  1  0.401600  0.428700  0.533200  1.0  -0.0622
  C  C55  1  0.027100  0.598400  0.533200  1.0  -0.0639
  C  C56  1  0.428700  0.027100  0.033200  1.0  -0.0633
  C  C57  1  0.598400  0.571300  0.033200  1.0  -0.0633
  C  C58  1  0.972900  0.401600  0.033200  1.0  -0.0629
  C  C59  1  0.027100  0.428700  0.533200  1.0  -0.063
  C  C60  1  0.571300  0.598400  0.533200  1.0  -0.0642
  C  C61  1  0.401600  0.972900  0.533200  1.0  -0.0633
  C  C62  1  0.972900  0.571300  0.033200  1.0  -0.0627
  C  C63  1  0.428700  0.401600  0.033200  1.0  -0.0628
  C  C64  1  0.598400  0.027100  0.033200  1.0  -0.0642
  C  C65  1  0.428700  0.027100  0.466800  1.0  -0.0638
  C  C66  1  0.598400  0.571300  0.466800  1.0  -0.0631
  C  C67  1  0.972900  0.401600  0.466800  1.0  -0.0633
  C  C68  1  0.571300  0.972900  0.966800  1.0  -0.0647
  C  C69  1  0.401600  0.428700  0.966800  1.0  -0.0626
  C  C70  1  0.027100  0.598400  0.966800  1.0  -0.0642
  C  C71  1  0.886100  0.443050  0.362200  1.0  0.7321
  C  C72  1  0.945800  0.472900  0.433400  1.0  -0.1334
  C  C73  1  0.556950  0.443050  0.362200  1.0  0.7321
  C  C74  1  0.527100  0.472900  0.433400  1.0  -0.1346
  C  C75  1  0.556950  0.113900  0.362200  1.0  0.7292
  C  C76  1  0.527100  0.054200  0.433400  1.0  -0.1313
  C  C77  1  0.113900  0.556950  0.862200  1.0  0.7314
  C  C78  1  0.054200  0.527100  0.933400  1.0  -0.1343
  C  C79  1  0.443050  0.556950  0.862200  1.0  0.7315
  C  C80  1  0.472900  0.527100  0.933400  1.0  -0.1331
  C  C81  1  0.443050  0.886100  0.862200  1.0  0.7297
  C  C82  1  0.472900  0.945800  0.933400  1.0  -0.1317
  C  C83  1  0.443050  0.886100  0.637800  1.0  0.7311
  C  C84  1  0.472900  0.945800  0.566600  1.0  -0.1315
  C  C85  1  0.443050  0.556950  0.637800  1.0  0.7338
  C  C86  1  0.472900  0.527100  0.566600  1.0  -0.1329
  C  C87  1  0.113900  0.556950  0.637800  1.0  0.7337
  C  C88  1  0.054200  0.527100  0.566600  1.0  -0.1345
  C  C89  1  0.556950  0.113900  0.137800  1.0  0.7315
  C  C90  1  0.527100  0.054200  0.066600  1.0  -0.131
  C  C91  1  0.556950  0.443050  0.137800  1.0  0.7333
  C  C92  1  0.527100  0.472900  0.066600  1.0  -0.1345
  C  C93  1  0.886100  0.443050  0.137800  1.0  0.7334
  C  C94  1  0.945800  0.472900  0.066600  1.0  -0.1332
  C  C95  1  0.874900  0.125100  0.306800  1.0  0.1911
  C  C96  1  0.874900  0.749800  0.306800  1.0  0.1913
  C  C97  1  0.250200  0.125100  0.306800  1.0  0.1922
  C  C98  1  0.125100  0.874900  0.806800  1.0  0.1919
  C  C99  1  0.125100  0.250200  0.806800  1.0  0.1917
  C  C100  1  0.749800  0.874900  0.806800  1.0  0.191
  C  C101  1  0.125100  0.874900  0.693200  1.0  0.1936
  C  C102  1  0.749800  0.874900  0.693200  1.0  0.1929
  C  C103  1  0.125100  0.250200  0.693200  1.0  0.193
  C  C104  1  0.874900  0.125100  0.193200  1.0  0.1928
  C  C105  1  0.250200  0.125100  0.193200  1.0  0.1937
  C  C106  1  0.874900  0.749800  0.193200  1.0  0.1932
  N  N107  1  0.840700  0.159300  0.250000  1.0  -0.3776
  N  N108  1  0.840700  0.681400  0.250000  1.0  -0.3823
  N  N109  1  0.318600  0.159300  0.250000  1.0  -0.3796
  N  N110  1  0.159300  0.840700  0.750000  1.0  -0.3801
  N  N111  1  0.159300  0.318600  0.750000  1.0  -0.381
  N  N112  1  0.681400  0.840700  0.750000  1.0  -0.3783
  N  N113  1  0.927510  0.072490  0.287400  1.0  -0.2901
  N  N114  1  0.927510  0.855020  0.287400  1.0  -0.2962
  N  N115  1  0.144980  0.072490  0.287400  1.0  -0.2932
  N  N116  1  0.072490  0.927510  0.787400  1.0  -0.293
  N  N117  1  0.072490  0.144980  0.787400  1.0  -0.2957
  N  N118  1  0.855020  0.927510  0.787400  1.0  -0.2904
  N  N119  1  0.072490  0.927510  0.712600  1.0  -0.2921
  N  N120  1  0.855020  0.927510  0.712600  1.0  -0.2907
  N  N121  1  0.072490  0.144980  0.712600  1.0  -0.2957
  N  N122  1  0.927510  0.072490  0.212600  1.0  -0.2905
  N  N123  1  0.144980  0.072490  0.212600  1.0  -0.2926
  N  N124  1  0.927510  0.855020  0.212600  1.0  -0.2957
  O  O125  1  0.863200  0.351500  0.335470  1.0  -0.6322
  O  O126  1  0.648500  0.511700  0.335470  1.0  -0.6334
  O  O127  1  0.488300  0.136800  0.335470  1.0  -0.6309
  O  O128  1  0.136800  0.648500  0.835470  1.0  -0.6336
  O  O129  1  0.351500  0.488300  0.835470  1.0  -0.6318
  O  O130  1  0.511700  0.863200  0.835470  1.0  -0.6318
  O  O131  1  0.351500  0.863200  0.664530  1.0  -0.6314
  O  O132  1  0.511700  0.648500  0.664530  1.0  -0.6326
  O  O133  1  0.136800  0.488300  0.664530  1.0  -0.6322
  O  O134  1  0.648500  0.136800  0.164530  1.0  -0.6312
  O  O135  1  0.488300  0.351500  0.164530  1.0  -0.6329
  O  O136  1  0.863200  0.511700  0.164530  1.0  -0.633
  O  O137  1  0.136800  0.648500  0.664530  1.0  -0.6336
  O  O138  1  0.351500  0.488300  0.664530  1.0  -0.6319
  O  O139  1  0.511700  0.863200  0.664530  1.0  -0.632
  O  O140  1  0.863200  0.351500  0.164530  1.0  -0.6319
  O  O141  1  0.648500  0.511700  0.164530  1.0  -0.6335
  O  O142  1  0.488300  0.136800  0.164530  1.0  -0.6307
  O  O143  1  0.648500  0.136800  0.335470  1.0  -0.6313
  O  O144  1  0.488300  0.351500  0.335470  1.0  -0.6332
  O  O145  1  0.863200  0.511700  0.335470  1.0  -0.6325
  O  O146  1  0.351500  0.863200  0.835470  1.0  -0.6313
  O  O147  1  0.511700  0.648500  0.835470  1.0  -0.6327
  O  O148  1  0.136800  0.488300  0.835470  1.0  -0.6325
  O  O149  1  0.666667  0.333333  0.250000  1.0  -1.0496
  O  O150  1  0.333333  0.666667  0.750000  1.0  -1.0496
