# generated using pymatgen
data_In3Co2H6C30N9O25
_symmetry_space_group_name_H-M   'P 1'
_cell_length_a   13.80400000
_cell_length_b   13.80400000
_cell_length_c   18.43500000
_cell_angle_alpha   90.00000000
_cell_angle_beta   90.00000000
_cell_angle_gamma   120.00000000
_symmetry_Int_Tables_number   1
_chemical_formula_structural   In3Co2H6C30N9O25
_chemical_formula_sum   'In6 Co4 H12 C60 N18 O50'
_cell_volume   3042.17137016
_cell_formula_units_Z   2
loop_
 _symmetry_equiv_pos_site_id
 _symmetry_equiv_pos_as_xyz
  1  'x, y, z'
loop_
 _atom_site_type_symbol
 _atom_site_label
 _atom_site_symmetry_multiplicity
 _atom_site_fract_x
 _atom_site_fract_y
 _atom_site_fract_z
 _atom_site_occupancy
 _atom_site_charge
  In  In1  1  0.497660  0.248830  0.250000  1.0  1.6322
  In  In2  1  0.751170  0.248830  0.250000  1.0  1.6307
  In  In3  1  0.751170  0.502340  0.250000  1.0  1.6354
  In  In4  1  0.502340  0.751170  0.750000  1.0  1.6306
  In  In5  1  0.248830  0.751170  0.750000  1.0  1.6323
  In  In6  1  0.248830  0.497660  0.750000  1.0  1.6349
  Co  Co7  1  0.000000  0.000000  0.352630  1.0  0.7477
  Co  Co8  1  0.000000  0.000000  0.852630  1.0  0.7477
  Co  Co9  1  0.000000  0.000000  0.647370  1.0  0.7478
  Co  Co10  1  0.000000  0.000000  0.147370  1.0  0.7478
  H  H11  1  0.277500  0.138750  0.352200  1.0  0.1355
  H  H12  1  0.861250  0.138750  0.352200  1.0  0.1352
  H  H13  1  0.861250  0.722500  0.352200  1.0  0.1353
  H  H14  1  0.722500  0.861250  0.852200  1.0  0.1349
  H  H15  1  0.138750  0.861250  0.852200  1.0  0.1352
  H  H16  1  0.138750  0.277500  0.852200  1.0  0.1358
  H  H17  1  0.138750  0.277500  0.647800  1.0  0.1353
  H  H18  1  0.138750  0.861250  0.647800  1.0  0.1346
  H  H19  1  0.722500  0.861250  0.647800  1.0  0.1346
  H  H20  1  0.861250  0.722500  0.147800  1.0  0.1352
  H  H21  1  0.861250  0.138750  0.147800  1.0  0.1346
  H  H22  1  0.277500  0.138750  0.147800  1.0  0.1347
  C  C23  1  0.428600  0.402200  0.466200  1.0  0.2403
  C  C24  1  0.597800  0.026400  0.466200  1.0  0.2416
  C  C25  1  0.973600  0.571400  0.466200  1.0  0.2414
  C  C26  1  0.571400  0.597800  0.966200  1.0  0.2414
  C  C27  1  0.402200  0.973600  0.966200  1.0  0.2414
  C  C28  1  0.026400  0.428600  0.966200  1.0  0.241
  C  C29  1  0.402200  0.428600  0.533800  1.0  0.241
  C  C30  1  0.026400  0.597800  0.533800  1.0  0.2411
  C  C31  1  0.571400  0.973600  0.533800  1.0  0.2411
  C  C32  1  0.597800  0.571400  0.033800  1.0  0.2411
  C  C33  1  0.973600  0.402200  0.033800  1.0  0.2415
  C  C34  1  0.428600  0.026400  0.033800  1.0  0.2417
  C  C35  1  0.571400  0.597800  0.533800  1.0  0.2414
  C  C36  1  0.402200  0.973600  0.533800  1.0  0.2414
  C  C37  1  0.026400  0.428600  0.533800  1.0  0.2412
  C  C38  1  0.428600  0.402200  0.033800  1.0  0.2405
  C  C39  1  0.597800  0.026400  0.033800  1.0  0.2416
  C  C40  1  0.973600  0.571400  0.033800  1.0  0.2414
  C  C41  1  0.597800  0.571400  0.466200  1.0  0.2412
  C  C42  1  0.973600  0.402200  0.466200  1.0  0.2413
  C  C43  1  0.428600  0.026400  0.466200  1.0  0.2417
  C  C44  1  0.402200  0.428600  0.966200  1.0  0.2409
  C  C45  1  0.026400  0.597800  0.966200  1.0  0.241
  C  C46  1  0.571400  0.973600  0.966200  1.0  0.2411
  C  C47  1  0.557000  0.443000  0.361300  1.0  0.8006
  C  C48  1  0.528700  0.471300  0.434000  1.0  -0.0879
  C  C49  1  0.557000  0.114000  0.361300  1.0  0.7981
  C  C50  1  0.528700  0.057400  0.434000  1.0  -0.0913
  C  C51  1  0.886000  0.443000  0.361300  1.0  0.7998
  C  C52  1  0.942600  0.471300  0.434000  1.0  -0.0883
  C  C53  1  0.443000  0.557000  0.861300  1.0  0.7995
  C  C54  1  0.471300  0.528700  0.934000  1.0  -0.0881
  C  C55  1  0.443000  0.886000  0.861300  1.0  0.7985
  C  C56  1  0.471300  0.942600  0.934000  1.0  -0.0916
  C  C57  1  0.114000  0.557000  0.861300  1.0  0.7997
  C  C58  1  0.057400  0.528700  0.934000  1.0  -0.0878
  C  C59  1  0.443000  0.557000  0.638700  1.0  0.7997
  C  C60  1  0.471300  0.528700  0.566000  1.0  -0.0879
  C  C61  1  0.114000  0.557000  0.638700  1.0  0.7993
  C  C62  1  0.057400  0.528700  0.566000  1.0  -0.0873
  C  C63  1  0.443000  0.886000  0.638700  1.0  0.7982
  C  C64  1  0.471300  0.942600  0.566000  1.0  -0.0912
  C  C65  1  0.557000  0.443000  0.138700  1.0  0.7998
  C  C66  1  0.528700  0.471300  0.066000  1.0  -0.0874
  C  C67  1  0.886000  0.443000  0.138700  1.0  0.7996
  C  C68  1  0.942600  0.471300  0.066000  1.0  -0.0881
  C  C69  1  0.557000  0.114000  0.138700  1.0  0.7981
  C  C70  1  0.528700  0.057400  0.066000  1.0  -0.0912
  C  C71  1  0.252100  0.126050  0.304600  1.0  0.1956
  C  C72  1  0.873950  0.126050  0.304600  1.0  0.1933
  C  C73  1  0.873950  0.747900  0.304600  1.0  0.1941
  C  C74  1  0.747900  0.873950  0.804600  1.0  0.1933
  C  C75  1  0.126050  0.873950  0.804600  1.0  0.1958
  C  C76  1  0.126050  0.252100  0.804600  1.0  0.1943
  C  C77  1  0.126050  0.252100  0.695400  1.0  0.1939
  C  C78  1  0.126050  0.873950  0.695400  1.0  0.195
  C  C79  1  0.747900  0.873950  0.695400  1.0  0.1933
  C  C80  1  0.873950  0.747900  0.195400  1.0  0.1941
  C  C81  1  0.873950  0.126050  0.195400  1.0  0.1929
  C  C82  1  0.252100  0.126050  0.195400  1.0  0.1946
  N  N83  1  0.317600  0.158800  0.250000  1.0  -0.2399
  N  N84  1  0.841200  0.158800  0.250000  1.0  -0.2404
  N  N85  1  0.841200  0.682400  0.250000  1.0  -0.2396
  N  N86  1  0.682400  0.841200  0.750000  1.0  -0.2413
  N  N87  1  0.158800  0.841200  0.750000  1.0  -0.2405
  N  N88  1  0.158800  0.317600  0.750000  1.0  -0.2381
  N  N89  1  0.145400  0.072700  0.287400  1.0  -0.2932
  N  N90  1  0.927300  0.072700  0.287400  1.0  -0.2909
  N  N91  1  0.927300  0.854600  0.287400  1.0  -0.2968
  N  N92  1  0.854600  0.927300  0.787400  1.0  -0.2909
  N  N93  1  0.072700  0.927300  0.787400  1.0  -0.2933
  N  N94  1  0.072700  0.145400  0.787400  1.0  -0.2992
  N  N95  1  0.072700  0.145400  0.712600  1.0  -0.2997
  N  N96  1  0.072700  0.927300  0.712600  1.0  -0.2932
  N  N97  1  0.854600  0.927300  0.712600  1.0  -0.2917
  N  N98  1  0.927300  0.854600  0.212600  1.0  -0.2975
  N  N99  1  0.927300  0.072700  0.212600  1.0  -0.2916
  N  N100  1  0.145400  0.072700  0.212600  1.0  -0.2934
  O  O101  1  0.488500  0.350300  0.334600  1.0  -0.5666
  O  O102  1  0.349700  0.305200  0.434900  1.0  -0.442
  O  O103  1  0.649700  0.138200  0.334600  1.0  -0.5657
  O  O104  1  0.694800  0.044500  0.434900  1.0  -0.4402
  O  O105  1  0.861800  0.511500  0.334600  1.0  -0.5661
  O  O106  1  0.955500  0.650300  0.434900  1.0  -0.4426
  O  O107  1  0.511500  0.649700  0.834600  1.0  -0.5656
  O  O108  1  0.650300  0.694800  0.934900  1.0  -0.4422
  O  O109  1  0.350300  0.861800  0.834600  1.0  -0.5662
  O  O110  1  0.305200  0.955500  0.934900  1.0  -0.4389
  O  O111  1  0.138200  0.488500  0.834600  1.0  -0.5667
  O  O112  1  0.044500  0.349700  0.934900  1.0  -0.4409
  O  O113  1  0.350300  0.488500  0.665400  1.0  -0.5659
  O  O114  1  0.305200  0.349700  0.565100  1.0  -0.4437
  O  O115  1  0.138200  0.649700  0.665400  1.0  -0.5664
  O  O116  1  0.044500  0.694800  0.565100  1.0  -0.4433
  O  O117  1  0.511500  0.861800  0.665400  1.0  -0.5665
  O  O118  1  0.650300  0.955500  0.565100  1.0  -0.44
  O  O119  1  0.649700  0.511500  0.165400  1.0  -0.5654
  O  O120  1  0.694800  0.650300  0.065100  1.0  -0.4418
  O  O121  1  0.861800  0.350300  0.165400  1.0  -0.5659
  O  O122  1  0.955500  0.305200  0.065100  1.0  -0.4423
  O  O123  1  0.488500  0.138200  0.165400  1.0  -0.5649
  O  O124  1  0.349700  0.044500  0.065100  1.0  -0.4397
  O  O125  1  0.511500  0.649700  0.665400  1.0  -0.5654
  O  O126  1  0.650300  0.694800  0.565100  1.0  -0.4424
  O  O127  1  0.350300  0.861800  0.665400  1.0  -0.5658
  O  O128  1  0.305200  0.955500  0.565100  1.0  -0.4396
  O  O129  1  0.138200  0.488500  0.665400  1.0  -0.5662
  O  O130  1  0.044500  0.349700  0.565100  1.0  -0.4415
  O  O131  1  0.488500  0.350300  0.165400  1.0  -0.5663
  O  O132  1  0.349700  0.305200  0.065100  1.0  -0.4426
  O  O133  1  0.649700  0.138200  0.165400  1.0  -0.5653
  O  O134  1  0.694800  0.044500  0.065100  1.0  -0.4405
  O  O135  1  0.861800  0.511500  0.165400  1.0  -0.5655
  O  O136  1  0.955500  0.650300  0.065100  1.0  -0.443
  O  O137  1  0.649700  0.511500  0.334600  1.0  -0.5658
  O  O138  1  0.694800  0.650300  0.434900  1.0  -0.4417
  O  O139  1  0.861800  0.350300  0.334600  1.0  -0.566
  O  O140  1  0.955500  0.305200  0.434900  1.0  -0.4417
  O  O141  1  0.488500  0.138200  0.334600  1.0  -0.5653
  O  O142  1  0.349700  0.044500  0.434900  1.0  -0.4391
  O  O143  1  0.350300  0.488500  0.834600  1.0  -0.5662
  O  O144  1  0.305200  0.349700  0.934900  1.0  -0.4428
  O  O145  1  0.138200  0.649700  0.834600  1.0  -0.5667
  O  O146  1  0.044500  0.694800  0.934900  1.0  -0.4429
  O  O147  1  0.511500  0.861800  0.834600  1.0  -0.5667
  O  O148  1  0.650300  0.955500  0.934900  1.0  -0.4398
  O  O149  1  0.666667  0.333333  0.250000  1.0  -0.9507
  O  O150  1  0.333333  0.666667  0.750000  1.0  -0.9507
