# generated using pymatgen
data_In3AgH9C21N3O13
_symmetry_space_group_name_H-M   'P 1'
_cell_length_a   13.63600000
_cell_length_b   13.63600000
_cell_length_c   14.92220000
_cell_angle_alpha   90.00000000
_cell_angle_beta   90.00000000
_cell_angle_gamma   120.00000000
_symmetry_Int_Tables_number   1
_chemical_formula_structural   In3AgH9C21N3O13
_chemical_formula_sum   'In6 Ag2 H18 C42 N6 O26'
_cell_volume   2402.90982570
_cell_formula_units_Z   2
loop_
 _symmetry_equiv_pos_site_id
 _symmetry_equiv_pos_as_xyz
  1  'x, y, z'
loop_
 _atom_site_type_symbol
 _atom_site_label
 _atom_site_symmetry_multiplicity
 _atom_site_fract_x
 _atom_site_fract_y
 _atom_site_fract_z
 _atom_site_occupancy
 _atom_site_charge
  In  In1  1  0.641270  0.172670  0.750000  1.0  1.5213
  In  In2  1  0.827330  0.468600  0.750000  1.0  1.5202
  In  In3  1  0.531400  0.358730  0.750000  1.0  1.5214
  In  In4  1  0.172670  0.641270  0.250000  1.0  1.5215
  In  In5  1  0.468600  0.827330  0.250000  1.0  1.5214
  In  In6  1  0.358730  0.531400  0.250000  1.0  1.5205
  Ag  Ag7  1  0.000000  0.000000  0.500000  1.0  0.157
  Ag  Ag8  1  0.000000  0.000000  0.000000  1.0  0.157
  H  H9  1  0.886600  0.124700  0.593700  1.0  0.0816
  H  H10  1  0.875300  0.761900  0.593700  1.0  0.0808
  H  H11  1  0.238100  0.113400  0.593700  1.0  0.081
  H  H12  1  0.886600  0.124700  0.906300  1.0  0.0805
  H  H13  1  0.875300  0.761900  0.906300  1.0  0.0801
  H  H14  1  0.238100  0.113400  0.906300  1.0  0.0803
  H  H15  1  0.124700  0.886600  0.406300  1.0  0.0802
  H  H16  1  0.761900  0.875300  0.406300  1.0  0.0809
  H  H17  1  0.113400  0.238100  0.406300  1.0  0.0798
  H  H18  1  0.124700  0.886600  0.093700  1.0  0.0812
  H  H19  1  0.761900  0.875300  0.093700  1.0  0.0816
  H  H20  1  0.113400  0.238100  0.093700  1.0  0.0807
  H  H21  1  0.000000  0.439200  0.500000  1.0  0.1171
  H  H22  1  0.560800  0.560800  0.500000  1.0  0.1165
  H  H23  1  0.439200  0.000000  0.500000  1.0  0.1158
  H  H24  1  0.000000  0.439200  0.000000  1.0  0.1171
  H  H25  1  0.560800  0.560800  0.000000  1.0  0.1165
  H  H26  1  0.439200  0.000000  0.000000  1.0  0.1158
  C  C27  1  0.928800  0.281900  0.557700  1.0  -0.1954
  C  C28  1  0.854700  0.296800  0.624300  1.0  0.7165
  C  C29  1  0.933200  0.182900  0.554900  1.0  0.1879
  C  C30  1  0.718100  0.646900  0.557700  1.0  -0.195
  C  C31  1  0.703200  0.557900  0.624300  1.0  0.716
  C  C32  1  0.817100  0.750300  0.554900  1.0  0.1875
  C  C33  1  0.353100  0.071200  0.557700  1.0  -0.1959
  C  C34  1  0.442100  0.145300  0.624300  1.0  0.7161
  C  C35  1  0.249700  0.066800  0.554900  1.0  0.1882
  C  C36  1  0.928800  0.281900  0.942300  1.0  -0.1954
  C  C37  1  0.854700  0.296800  0.875700  1.0  0.716
  C  C38  1  0.933200  0.182900  0.945100  1.0  0.1874
  C  C39  1  0.718100  0.646900  0.942300  1.0  -0.1948
  C  C40  1  0.703200  0.557900  0.875700  1.0  0.7157
  C  C41  1  0.817100  0.750300  0.945100  1.0  0.1878
  C  C42  1  0.353100  0.071200  0.942300  1.0  -0.1956
  C  C43  1  0.442100  0.145300  0.875700  1.0  0.716
  C  C44  1  0.249700  0.066800  0.945100  1.0  0.1885
  C  C45  1  0.281900  0.928800  0.442300  1.0  -0.1954
  C  C46  1  0.296800  0.854700  0.375700  1.0  0.7159
  C  C47  1  0.182900  0.933200  0.445100  1.0  0.1853
  C  C48  1  0.646900  0.718100  0.442300  1.0  -0.1954
  C  C49  1  0.557900  0.703200  0.375700  1.0  0.7158
  C  C50  1  0.750300  0.817100  0.445100  1.0  0.1851
  C  C51  1  0.071200  0.353100  0.442300  1.0  -0.1948
  C  C52  1  0.145300  0.442100  0.375700  1.0  0.7157
  C  C53  1  0.066800  0.249700  0.445100  1.0  0.1841
  C  C54  1  0.281900  0.928800  0.057700  1.0  -0.1956
  C  C55  1  0.296800  0.854700  0.124300  1.0  0.7163
  C  C56  1  0.182900  0.933200  0.054900  1.0  0.1859
  C  C57  1  0.646900  0.718100  0.057700  1.0  -0.1954
  C  C58  1  0.557900  0.703200  0.124300  1.0  0.7162
  C  C59  1  0.750300  0.817100  0.054900  1.0  0.1844
  C  C60  1  0.071200  0.353100  0.057700  1.0  -0.1951
  C  C61  1  0.145300  0.442100  0.124300  1.0  0.7155
  C  C62  1  0.066800  0.249700  0.054900  1.0  0.1847
  C  C63  1  0.000000  0.371000  0.500000  1.0  -0.0342
  C  C64  1  0.629000  0.629000  0.500000  1.0  -0.0344
  C  C65  1  0.371000  0.000000  0.500000  1.0  -0.0331
  C  C66  1  0.000000  0.371000  0.000000  1.0  -0.0342
  C  C67  1  0.629000  0.629000  0.000000  1.0  -0.0344
  C  C68  1  0.371000  0.000000  0.000000  1.0  -0.0331
  N  N69  1  0.000000  0.166000  0.500000  1.0  -0.2953
  N  N70  1  0.834000  0.834000  0.500000  1.0  -0.2977
  N  N71  1  0.166000  0.000000  0.500000  1.0  -0.2973
  N  N72  1  0.000000  0.166000  0.000000  1.0  -0.2953
  N  N73  1  0.834000  0.834000  0.000000  1.0  -0.2977
  N  N74  1  0.166000  0.000000  0.000000  1.0  -0.2973
  O  O75  1  0.885600  0.397800  0.646900  1.0  -0.6731
  O  O76  1  0.771800  0.208700  0.651500  1.0  -0.6363
  O  O77  1  0.602200  0.487800  0.646900  1.0  -0.6756
  O  O78  1  0.791300  0.563100  0.651500  1.0  -0.635
  O  O79  1  0.512200  0.114400  0.646900  1.0  -0.673
  O  O80  1  0.436900  0.228200  0.651500  1.0  -0.6368
  O  O81  1  0.885600  0.397800  0.853100  1.0  -0.6731
  O  O82  1  0.771800  0.208700  0.848500  1.0  -0.6365
  O  O83  1  0.602200  0.487800  0.853100  1.0  -0.6757
  O  O84  1  0.791300  0.563100  0.848500  1.0  -0.6352
  O  O85  1  0.512200  0.114400  0.853100  1.0  -0.6729
  O  O86  1  0.436900  0.228200  0.848500  1.0  -0.6372
  O  O87  1  0.397800  0.885600  0.353100  1.0  -0.673
  O  O88  1  0.208700  0.771800  0.348500  1.0  -0.6371
  O  O89  1  0.487800  0.602200  0.353100  1.0  -0.6741
  O  O90  1  0.563100  0.791300  0.348500  1.0  -0.6364
  O  O91  1  0.114400  0.512200  0.353100  1.0  -0.6758
  O  O92  1  0.228200  0.436900  0.348500  1.0  -0.6354
  O  O93  1  0.397800  0.885600  0.146900  1.0  -0.673
  O  O94  1  0.208700  0.771800  0.151500  1.0  -0.6371
  O  O95  1  0.487800  0.602200  0.146900  1.0  -0.6744
  O  O96  1  0.563100  0.791300  0.151500  1.0  -0.636
  O  O97  1  0.114400  0.512200  0.146900  1.0  -0.6758
  O  O98  1  0.228200  0.436900  0.151500  1.0  -0.6353
  O  O99  1  0.666667  0.333333  0.750000  1.0  -0.9422
  O  O100  1  0.333333  0.666667  0.250000  1.0  -0.9422
