# generated using pymatgen
data_Fe3Cu3H6C30N9O26
_symmetry_space_group_name_H-M   'P 1'
_cell_length_a   15.76720000
_cell_length_b   15.76720000
_cell_length_c   16.68140000
_cell_angle_alpha   90.00000000
_cell_angle_beta   90.00000000
_cell_angle_gamma   120.00000000
_symmetry_Int_Tables_number   1
_chemical_formula_structural   Fe3Cu3H6C30N9O26
_chemical_formula_sum   'Fe6 Cu6 H12 C60 N18 O52'
_cell_volume   3591.47031391
_cell_formula_units_Z   2
loop_
 _symmetry_equiv_pos_site_id
 _symmetry_equiv_pos_as_xyz
  1  'x, y, z'
loop_
 _atom_site_type_symbol
 _atom_site_label
 _atom_site_symmetry_multiplicity
 _atom_site_fract_x
 _atom_site_fract_y
 _atom_site_fract_z
 _atom_site_occupancy
 _atom_site_charge
  Fe  Fe1  1  0.742060  0.484110  0.750000  1.0  1.0167
  Fe  Fe2  1  0.515890  0.257940  0.750000  1.0  1.0159
  Fe  Fe3  1  0.742060  0.257940  0.750000  1.0  1.0209
  Fe  Fe4  1  0.257940  0.515890  0.250000  1.0  1.0168
  Fe  Fe5  1  0.484110  0.742060  0.250000  1.0  1.0133
  Fe  Fe6  1  0.257940  0.742060  0.250000  1.0  1.0239
  Cu  Cu7  1  0.074670  0.925330  0.750000  1.0  0.6217
  Cu  Cu8  1  0.074670  0.149340  0.750000  1.0  0.6204
  Cu  Cu9  1  0.850660  0.925330  0.750000  1.0  0.6223
  Cu  Cu10  1  0.925330  0.074670  0.250000  1.0  0.6232
  Cu  Cu11  1  0.925330  0.850660  0.250000  1.0  0.6209
  Cu  Cu12  1  0.149340  0.074670  0.250000  1.0  0.6225
  H  H13  1  0.953100  0.677400  0.750000  1.0  0.1466
  H  H14  1  0.322600  0.275700  0.750000  1.0  0.1467
  H  H15  1  0.724300  0.046900  0.750000  1.0  0.1471
  H  H16  1  0.046900  0.322600  0.250000  1.0  0.1478
  H  H17  1  0.677400  0.724300  0.250000  1.0  0.148
  H  H18  1  0.275700  0.953100  0.250000  1.0  0.1459
  H  H19  1  0.677400  0.953100  0.250000  1.0  0.1471
  H  H20  1  0.275700  0.322600  0.250000  1.0  0.1472
  H  H21  1  0.046900  0.724300  0.250000  1.0  0.1479
  H  H22  1  0.322600  0.046900  0.750000  1.0  0.1462
  H  H23  1  0.724300  0.677400  0.750000  1.0  0.1474
  H  H24  1  0.953100  0.275700  0.750000  1.0  0.148
  C  C25  1  0.969600  0.560700  0.532700  1.0  0.2727
  C  C26  1  0.439300  0.408900  0.532700  1.0  0.2723
  C  C27  1  0.591100  0.030400  0.532700  1.0  0.2734
  C  C28  1  0.030400  0.439300  0.032700  1.0  0.2722
  C  C29  1  0.560700  0.591100  0.032700  1.0  0.2723
  C  C30  1  0.408900  0.969600  0.032700  1.0  0.2738
  C  C31  1  0.560700  0.969600  0.467300  1.0  0.2737
  C  C32  1  0.408900  0.439300  0.467300  1.0  0.2723
  C  C33  1  0.030400  0.591100  0.467300  1.0  0.2727
  C  C34  1  0.439300  0.030400  0.967300  1.0  0.2736
  C  C35  1  0.591100  0.560700  0.967300  1.0  0.2731
  C  C36  1  0.969600  0.408900  0.967300  1.0  0.2725
  C  C37  1  0.030400  0.439300  0.467300  1.0  0.2727
  C  C38  1  0.560700  0.591100  0.467300  1.0  0.2729
  C  C39  1  0.408900  0.969600  0.467300  1.0  0.2737
  C  C40  1  0.969600  0.560700  0.967300  1.0  0.2729
  C  C41  1  0.439300  0.408900  0.967300  1.0  0.272
  C  C42  1  0.591100  0.030400  0.967300  1.0  0.2736
  C  C43  1  0.439300  0.030400  0.532700  1.0  0.2739
  C  C44  1  0.591100  0.560700  0.532700  1.0  0.2724
  C  C45  1  0.969600  0.408900  0.532700  1.0  0.2723
  C  C46  1  0.560700  0.969600  0.032700  1.0  0.2732
  C  C47  1  0.408900  0.439300  0.032700  1.0  0.2723
  C  C48  1  0.030400  0.591100  0.032700  1.0  0.2725
  C  C49  1  0.863300  0.431650  0.633300  1.0  0.8341
  C  C50  1  0.934500  0.467250  0.564400  1.0  -0.1438
  C  C51  1  0.568350  0.431650  0.633300  1.0  0.8335
  C  C52  1  0.532750  0.467250  0.564400  1.0  -0.1436
  C  C53  1  0.568350  0.136700  0.633300  1.0  0.8342
  C  C54  1  0.532750  0.065500  0.564400  1.0  -0.1445
  C  C55  1  0.136700  0.568350  0.133300  1.0  0.834
  C  C56  1  0.065500  0.532750  0.064400  1.0  -0.1434
  C  C57  1  0.431650  0.568350  0.133300  1.0  0.8344
  C  C58  1  0.467250  0.532750  0.064400  1.0  -0.1437
  C  C59  1  0.431650  0.863300  0.133300  1.0  0.8337
  C  C60  1  0.467250  0.934500  0.064400  1.0  -0.1449
  C  C61  1  0.431650  0.863300  0.366700  1.0  0.8343
  C  C62  1  0.467250  0.934500  0.435600  1.0  -0.145
  C  C63  1  0.431650  0.568350  0.366700  1.0  0.835
  C  C64  1  0.467250  0.532750  0.435600  1.0  -0.1439
  C  C65  1  0.136700  0.568350  0.366700  1.0  0.8343
  C  C66  1  0.065500  0.532750  0.435600  1.0  -0.1435
  C  C67  1  0.568350  0.136700  0.866700  1.0  0.8347
  C  C68  1  0.532750  0.065500  0.935600  1.0  -0.1447
  C  C69  1  0.568350  0.431650  0.866700  1.0  0.8338
  C  C70  1  0.532750  0.467250  0.935600  1.0  -0.1437
  C  C71  1  0.863300  0.431650  0.866700  1.0  0.8346
  C  C72  1  0.934500  0.467250  0.935600  1.0  -0.1439
  C  C73  1  0.909000  0.700200  0.750000  1.0  0.2273
  C  C74  1  0.299800  0.208800  0.750000  1.0  0.2267
  C  C75  1  0.791200  0.091000  0.750000  1.0  0.2283
  C  C76  1  0.091000  0.299800  0.250000  1.0  0.2264
  C  C77  1  0.700200  0.791200  0.250000  1.0  0.2251
  C  C78  1  0.208800  0.909000  0.250000  1.0  0.2282
  C  C79  1  0.700200  0.909000  0.250000  1.0  0.2274
  C  C80  1  0.208800  0.299800  0.250000  1.0  0.227
  C  C81  1  0.091000  0.791200  0.250000  1.0  0.2269
  C  C82  1  0.299800  0.091000  0.750000  1.0  0.2286
  C  C83  1  0.791200  0.700200  0.750000  1.0  0.2267
  C  C84  1  0.909000  0.208800  0.750000  1.0  0.2246
  N  N85  1  0.821700  0.643400  0.750000  1.0  -0.0843
  N  N86  1  0.356600  0.178300  0.750000  1.0  -0.0815
  N  N87  1  0.821700  0.178300  0.750000  1.0  -0.0798
  N  N88  1  0.178300  0.356600  0.250000  1.0  -0.0847
  N  N89  1  0.643400  0.821700  0.250000  1.0  -0.0772
  N  N90  1  0.178300  0.821700  0.250000  1.0  -0.0793
  N  N91  1  0.940400  0.794500  0.750000  1.0  -0.2265
  N  N92  1  0.205500  0.145900  0.750000  1.0  -0.2225
  N  N93  1  0.854100  0.059600  0.750000  1.0  -0.2233
  N  N94  1  0.059600  0.205500  0.250000  1.0  -0.2255
  N  N95  1  0.794500  0.854100  0.250000  1.0  -0.2219
  N  N96  1  0.145900  0.940400  0.250000  1.0  -0.2266
  N  N97  1  0.794500  0.940400  0.250000  1.0  -0.2251
  N  N98  1  0.145900  0.205500  0.250000  1.0  -0.2252
  N  N99  1  0.059600  0.854100  0.250000  1.0  -0.2225
  N  N100  1  0.205500  0.059600  0.750000  1.0  -0.2246
  N  N101  1  0.854100  0.794500  0.750000  1.0  -0.2267
  N  N102  1  0.940400  0.145900  0.750000  1.0  -0.222
  O  O103  1  0.837000  0.488300  0.659600  1.0  -0.5394
  O  O104  1  0.934000  0.620100  0.560400  1.0  -0.4062
  O  O105  1  0.511700  0.348700  0.659600  1.0  -0.5424
  O  O106  1  0.379900  0.313900  0.560400  1.0  -0.4076
  O  O107  1  0.651300  0.163000  0.659600  1.0  -0.5417
  O  O108  1  0.686100  0.066000  0.560400  1.0  -0.4051
  O  O109  1  0.163000  0.511700  0.159600  1.0  -0.5396
  O  O110  1  0.066000  0.379900  0.060400  1.0  -0.4055
  O  O111  1  0.488300  0.651300  0.159600  1.0  -0.5419
  O  O112  1  0.620100  0.686100  0.060400  1.0  -0.4087
  O  O113  1  0.348700  0.837000  0.159600  1.0  -0.5409
  O  O114  1  0.313900  0.934000  0.060400  1.0  -0.4025
  O  O115  1  0.488300  0.837000  0.340400  1.0  -0.5429
  O  O116  1  0.620100  0.934000  0.439600  1.0  -0.4041
  O  O117  1  0.348700  0.511700  0.340400  1.0  -0.5404
  O  O118  1  0.313900  0.379900  0.439600  1.0  -0.4045
  O  O119  1  0.163000  0.651300  0.340400  1.0  -0.5436
  O  O120  1  0.066000  0.686100  0.439600  1.0  -0.4096
  O  O121  1  0.511700  0.163000  0.840400  1.0  -0.5417
  O  O122  1  0.379900  0.066000  0.939600  1.0  -0.4028
  O  O123  1  0.651300  0.488300  0.840400  1.0  -0.5393
  O  O124  1  0.686100  0.620100  0.939600  1.0  -0.4056
  O  O125  1  0.837000  0.348700  0.840400  1.0  -0.5418
  O  O126  1  0.934000  0.313900  0.939600  1.0  -0.4064
  O  O127  1  0.163000  0.511700  0.340400  1.0  -0.54
  O  O128  1  0.066000  0.379900  0.439600  1.0  -0.4043
  O  O129  1  0.488300  0.651300  0.340400  1.0  -0.5426
  O  O130  1  0.620100  0.686100  0.439600  1.0  -0.4076
  O  O131  1  0.348700  0.837000  0.340400  1.0  -0.5415
  O  O132  1  0.313900  0.934000  0.439600  1.0  -0.4026
  O  O133  1  0.837000  0.488300  0.840400  1.0  -0.5396
  O  O134  1  0.934000  0.620100  0.939600  1.0  -0.4049
  O  O135  1  0.511700  0.348700  0.840400  1.0  -0.543
  O  O136  1  0.379900  0.313900  0.939600  1.0  -0.407
  O  O137  1  0.651300  0.163000  0.840400  1.0  -0.5428
  O  O138  1  0.686100  0.066000  0.939600  1.0  -0.4044
  O  O139  1  0.511700  0.163000  0.659600  1.0  -0.5411
  O  O140  1  0.379900  0.066000  0.560400  1.0  -0.403
  O  O141  1  0.651300  0.488300  0.659600  1.0  -0.5391
  O  O142  1  0.686100  0.620100  0.560400  1.0  -0.4069
  O  O143  1  0.837000  0.348700  0.659600  1.0  -0.5409
  O  O144  1  0.934000  0.313900  0.560400  1.0  -0.4072
  O  O145  1  0.488300  0.837000  0.159600  1.0  -0.5421
  O  O146  1  0.620100  0.934000  0.060400  1.0  -0.4049
  O  O147  1  0.348700  0.511700  0.159600  1.0  -0.54
  O  O148  1  0.313900  0.379900  0.060400  1.0  -0.4054
  O  O149  1  0.163000  0.651300  0.159600  1.0  -0.5434
  O  O150  1  0.066000  0.686100  0.060400  1.0  -0.4107
  O  O151  1  0.666667  0.333333  0.750000  1.0  -0.9342
  O  O152  1  0.333333  0.666667  0.250000  1.0  -0.9345
  O  O153  1  0.000000  0.000000  0.750000  1.0  -0.6909
  O  O154  1  0.000000  0.000000  0.250000  1.0  -0.691
