# generated using pymatgen
data_Mg3CuH9C21N3O13
_symmetry_space_group_name_H-M   'P 1'
_cell_length_a   13.16960000
_cell_length_b   13.16960000
_cell_length_c   14.79730000
_cell_angle_alpha   90.00000000
_cell_angle_beta   90.00000000
_cell_angle_gamma   120.00000000
_symmetry_Int_Tables_number   1
_chemical_formula_structural   Mg3CuH9C21N3O13
_chemical_formula_sum   'Mg6 Cu2 H18 C42 N6 O26'
_cell_volume   2222.58448895
_cell_formula_units_Z   2
loop_
 _symmetry_equiv_pos_site_id
 _symmetry_equiv_pos_as_xyz
  1  'x, y, z'
loop_
 _atom_site_type_symbol
 _atom_site_label
 _atom_site_symmetry_multiplicity
 _atom_site_fract_x
 _atom_site_fract_y
 _atom_site_fract_z
 _atom_site_occupancy
 _atom_site_charge
  Mg  Mg1  1  0.834000  0.364650  0.750000  1.0  1.5807
  Mg  Mg2  1  0.635350  0.469350  0.750000  1.0  1.5794
  Mg  Mg3  1  0.530650  0.166000  0.750000  1.0  1.5799
  Mg  Mg4  1  0.364650  0.834000  0.250000  1.0  1.579
  Mg  Mg5  1  0.469350  0.635350  0.250000  1.0  1.5806
  Mg  Mg6  1  0.166000  0.530650  0.250000  1.0  1.5802
  Cu  Cu7  1  0.000000  0.000000  0.500000  1.0  0.2669
  Cu  Cu8  1  0.000000  0.000000  0.000000  1.0  0.2669
  H  H9  1  0.875000  0.768100  0.590500  1.0  0.0744
  H  H10  1  0.231900  0.106900  0.590500  1.0  0.075
  H  H11  1  0.893100  0.125000  0.590500  1.0  0.0734
  H  H12  1  0.875000  0.768100  0.909500  1.0  0.0739
  H  H13  1  0.231900  0.106900  0.909500  1.0  0.0746
  H  H14  1  0.893100  0.125000  0.909500  1.0  0.0729
  H  H15  1  0.768100  0.875000  0.409500  1.0  0.0732
  H  H16  1  0.106900  0.231900  0.409500  1.0  0.0739
  H  H17  1  0.125000  0.893100  0.409500  1.0  0.0735
  H  H18  1  0.768100  0.875000  0.090500  1.0  0.0737
  H  H19  1  0.106900  0.231900  0.090500  1.0  0.0742
  H  H20  1  0.125000  0.893100  0.090500  1.0  0.0741
  H  H21  1  0.000000  0.566200  0.500000  1.0  0.1006
  H  H22  1  0.433800  0.433800  0.500000  1.0  0.1015
  H  H23  1  0.566200  0.000000  0.500000  1.0  0.0996
  H  H24  1  0.000000  0.566200  0.000000  1.0  0.1006
  H  H25  1  0.433800  0.433800  0.000000  1.0  0.1015
  H  H26  1  0.566200  0.000000  0.000000  1.0  0.0996
  C  C27  1  0.927600  0.759100  0.554300  1.0  0.1679
  C  C28  1  0.927800  0.654200  0.558700  1.0  -0.2063
  C  C29  1  0.848500  0.560100  0.626000  1.0  0.6986
  C  C30  1  0.240900  0.168500  0.554300  1.0  0.1706
  C  C31  1  0.345800  0.273600  0.558700  1.0  -0.2068
  C  C32  1  0.439900  0.288400  0.626000  1.0  0.6968
  C  C33  1  0.831500  0.072400  0.554300  1.0  0.1685
  C  C34  1  0.726400  0.072200  0.558700  1.0  -0.2072
  C  C35  1  0.711600  0.151500  0.626000  1.0  0.6973
  C  C36  1  0.927600  0.759100  0.945700  1.0  0.1686
  C  C37  1  0.927800  0.654200  0.941300  1.0  -0.2063
  C  C38  1  0.848500  0.560100  0.874000  1.0  0.6985
  C  C39  1  0.240900  0.168500  0.945700  1.0  0.1706
  C  C40  1  0.345800  0.273600  0.941300  1.0  -0.2066
  C  C41  1  0.439900  0.288400  0.874000  1.0  0.6968
  C  C42  1  0.831500  0.072400  0.945700  1.0  0.1692
  C  C43  1  0.726400  0.072200  0.941300  1.0  -0.2069
  C  C44  1  0.711600  0.151500  0.874000  1.0  0.6973
  C  C45  1  0.759100  0.927600  0.445700  1.0  0.1661
  C  C46  1  0.654200  0.927800  0.441300  1.0  -0.2073
  C  C47  1  0.560100  0.848500  0.374000  1.0  0.6973
  C  C48  1  0.168500  0.240900  0.445700  1.0  0.166
  C  C49  1  0.273600  0.345800  0.441300  1.0  -0.2057
  C  C50  1  0.288400  0.439900  0.374000  1.0  0.6985
  C  C51  1  0.072400  0.831500  0.445700  1.0  0.1677
  C  C52  1  0.072200  0.726400  0.441300  1.0  -0.2066
  C  C53  1  0.151500  0.711600  0.374000  1.0  0.6968
  C  C54  1  0.759100  0.927600  0.054300  1.0  0.1663
  C  C55  1  0.654200  0.927800  0.058700  1.0  -0.2073
  C  C56  1  0.560100  0.848500  0.126000  1.0  0.6974
  C  C57  1  0.168500  0.240900  0.054300  1.0  0.1661
  C  C58  1  0.273600  0.345800  0.058700  1.0  -0.2058
  C  C59  1  0.288400  0.439900  0.126000  1.0  0.6984
  C  C60  1  0.072400  0.831500  0.054300  1.0  0.1667
  C  C61  1  0.072200  0.726400  0.058700  1.0  -0.2067
  C  C62  1  0.151500  0.711600  0.126000  1.0  0.6968
  C  C63  1  0.000000  0.636800  0.500000  1.0  -0.0071
  C  C64  1  0.363200  0.363200  0.500000  1.0  -0.0071
  C  C65  1  0.636800  0.000000  0.500000  1.0  -0.0091
  C  C66  1  0.000000  0.636800  0.000000  1.0  -0.0071
  C  C67  1  0.363200  0.363200  0.000000  1.0  -0.0071
  C  C68  1  0.636800  0.000000  0.000000  1.0  -0.0091
  N  N69  1  0.000000  0.849000  0.500000  1.0  -0.2808
  N  N70  1  0.151000  0.151000  0.500000  1.0  -0.282
  N  N71  1  0.849000  0.000000  0.500000  1.0  -0.2799
  N  N72  1  0.000000  0.849000  0.000000  1.0  -0.2808
  N  N73  1  0.151000  0.151000  0.000000  1.0  -0.282
  N  N74  1  0.849000  0.000000  0.000000  1.0  -0.2799
  O  O75  1  0.882200  0.490100  0.647800  1.0  -0.662
  O  O76  1  0.762300  0.565100  0.652700  1.0  -0.6371
  O  O77  1  0.509900  0.392100  0.647800  1.0  -0.6603
  O  O78  1  0.434900  0.197200  0.652700  1.0  -0.6385
  O  O79  1  0.607900  0.117800  0.647800  1.0  -0.6582
  O  O80  1  0.802800  0.237700  0.652700  1.0  -0.6385
  O  O81  1  0.882200  0.490100  0.852200  1.0  -0.6614
  O  O82  1  0.762300  0.565100  0.847300  1.0  -0.6373
  O  O83  1  0.509900  0.392100  0.852200  1.0  -0.6601
  O  O84  1  0.434900  0.197200  0.847300  1.0  -0.639
  O  O85  1  0.607900  0.117800  0.852200  1.0  -0.6576
  O  O86  1  0.802800  0.237700  0.847300  1.0  -0.6386
  O  O87  1  0.490100  0.882200  0.352200  1.0  -0.6575
  O  O88  1  0.565100  0.762300  0.347300  1.0  -0.6387
  O  O89  1  0.392100  0.509900  0.352200  1.0  -0.6616
  O  O90  1  0.197200  0.434900  0.347300  1.0  -0.6375
  O  O91  1  0.117800  0.607900  0.352200  1.0  -0.6616
  O  O92  1  0.237700  0.802800  0.347300  1.0  -0.6381
  O  O93  1  0.490100  0.882200  0.147800  1.0  -0.6578
  O  O94  1  0.565100  0.762300  0.152700  1.0  -0.6385
  O  O95  1  0.392100  0.509900  0.147800  1.0  -0.6621
  O  O96  1  0.197200  0.434900  0.152700  1.0  -0.6372
  O  O97  1  0.117800  0.607900  0.147800  1.0  -0.6623
  O  O98  1  0.237700  0.802800  0.152700  1.0  -0.6377
  O  O99  1  0.666667  0.333333  0.750000  1.0  -1.049
  O  O100  1  0.333333  0.666667  0.250000  1.0  -1.049
