# generated using pymatgen
data_CuH12(C7N2)3
_symmetry_space_group_name_H-M   'P 1'
_cell_length_a   17.87290000
_cell_length_b   8.72980000
_cell_length_c   22.75240000
_cell_angle_alpha   90.00000000
_cell_angle_beta   96.07200000
_cell_angle_gamma   90.00000000
_symmetry_Int_Tables_number   1
_chemical_formula_structural   CuH12(C7N2)3
_chemical_formula_sum   'Cu4 H48 C84 N24'
_cell_volume   3530.06884606
_cell_formula_units_Z   4
loop_
 _symmetry_equiv_pos_site_id
 _symmetry_equiv_pos_as_xyz
  1  'x, y, z'
loop_
 _atom_site_type_symbol
 _atom_site_label
 _atom_site_symmetry_multiplicity
 _atom_site_fract_x
 _atom_site_fract_y
 _atom_site_fract_z
 _atom_site_occupancy
 _atom_site_charge
  Cu  Cu1  1  0.567450  0.037550  0.755200  1.0  0.6232
  Cu  Cu2  1  0.432550  0.537550  0.744800  1.0  0.623
  Cu  Cu3  1  0.432550  0.962450  0.244800  1.0  0.6231
  Cu  Cu4  1  0.567450  0.462450  0.255200  1.0  0.6233
  H  H5  1  0.702900  0.773600  0.507800  1.0  0.2069
  H  H6  1  0.693400  0.151900  0.689400  1.0  0.061
  H  H7  1  0.779300  0.071700  0.627100  1.0  0.1182
  H  H8  1  0.668900  0.672100  0.610500  1.0  0.1092
  H  H9  1  0.588900  0.760900  0.675800  1.0  0.0732
  H  H10  1  0.948100  0.663900  0.556600  1.0  0.0979
  H  H11  1  0.719600  0.627800  0.282700  1.0  0.066
  H  H12  1  0.798600  0.715200  0.361900  1.0  0.1125
  H  H13  1  0.667800  0.498500  0.468900  1.0  0.1113
  H  H14  1  0.595600  0.410100  0.386100  1.0  0.0757
  H  H15  1  0.874100  0.973000  0.464400  1.0  0.096
  H  H16  1  0.943200  0.181100  0.435600  1.0  0.0944
  H  H17  1  0.297100  0.273600  0.992200  1.0  0.2046
  H  H18  1  0.306600  0.651900  0.810600  1.0  0.0612
  H  H19  1  0.220700  0.571700  0.872900  1.0  0.1186
  H  H20  1  0.331100  0.172100  0.889500  1.0  0.1092
  H  H21  1  0.411100  0.260900  0.824200  1.0  0.0747
  H  H22  1  0.051900  0.163900  0.943400  1.0  0.0973
  H  H23  1  0.280400  0.127800  0.217300  1.0  0.0639
  H  H24  1  0.201400  0.215200  0.138100  1.0  0.113
  H  H25  1  0.332200  0.998500  0.031100  1.0  0.1113
  H  H26  1  0.404400  0.910100  0.113900  1.0  0.0762
  H  H27  1  0.125900  0.473000  0.035600  1.0  0.0943
  H  H28  1  0.056800  0.681100  0.064400  1.0  0.0946
  H  H29  1  0.297100  0.226400  0.492200  1.0  0.2049
  H  H30  1  0.306600  0.848100  0.310600  1.0  0.0627
  H  H31  1  0.220700  0.928300  0.372900  1.0  0.1179
  H  H32  1  0.331100  0.327900  0.389500  1.0  0.1088
  H  H33  1  0.411100  0.239100  0.324200  1.0  0.0735
  H  H34  1  0.051900  0.336100  0.443400  1.0  0.0978
  H  H35  1  0.280400  0.372200  0.717300  1.0  0.0646
  H  H36  1  0.201400  0.284800  0.638100  1.0  0.1127
  H  H37  1  0.332200  0.501500  0.531100  1.0  0.1111
  H  H38  1  0.404400  0.589900  0.613900  1.0  0.0767
  H  H39  1  0.125900  0.027000  0.535600  1.0  0.0944
  H  H40  1  0.056800  0.818900  0.564400  1.0  0.0952
  H  H41  1  0.702900  0.726400  0.007800  1.0  0.2068
  H  H42  1  0.693400  0.348100  0.189400  1.0  0.063
  H  H43  1  0.779300  0.428300  0.127100  1.0  0.1181
  H  H44  1  0.668900  0.827900  0.110500  1.0  0.1088
  H  H45  1  0.588900  0.739100  0.175800  1.0  0.075
  H  H46  1  0.948100  0.836100  0.056600  1.0  0.0976
  H  H47  1  0.719600  0.872200  0.782700  1.0  0.0662
  H  H48  1  0.798600  0.784800  0.861900  1.0  0.1121
  H  H49  1  0.667800  0.001500  0.968900  1.0  0.111
  H  H50  1  0.595600  0.089900  0.886100  1.0  0.0759
  H  H51  1  0.874100  0.527000  0.964400  1.0  0.0961
  H  H52  1  0.943200  0.318900  0.935600  1.0  0.0942
  C  C53  1  0.689000  0.053500  0.673700  1.0  0.1507
  C  C54  1  0.740800  0.006800  0.636000  1.0  -0.2084
  C  C55  1  0.733800  0.862500  0.612100  1.0  0.0614
  C  C56  1  0.675400  0.769600  0.626600  1.0  -0.2279
  C  C57  1  0.627100  0.824600  0.665500  1.0  0.1429
  C  C58  1  0.785500  0.803700  0.570000  1.0  0.144
  C  C59  1  0.860200  0.793000  0.582600  1.0  -0.0122
  C  C60  1  0.913000  0.739700  0.537600  1.0  -0.1135
  C  C61  1  0.865000  0.662800  0.486700  1.0  0.0031
  C  C62  1  0.789700  0.678600  0.477300  1.0  0.1405
  C  C63  1  0.709100  0.601400  0.320600  1.0  0.171
  C  C64  1  0.757200  0.655000  0.368000  1.0  -0.2042
  C  C65  1  0.742000  0.616800  0.424900  1.0  0.0036
  C  C66  1  0.679800  0.525300  0.431400  1.0  -0.2041
  C  C67  1  0.636000  0.474600  0.381500  1.0  0.1251
  C  C68  1  0.895400  0.829200  0.640200  1.0  0.3634
  C  C69  1  0.903100  0.570500  0.447300  1.0  0.3318
  C  C70  1  0.958100  0.874600  0.517100  1.0  0.0044
  C  C71  1  0.924500  0.983100  0.478800  1.0  -0.1199
  C  C72  1  0.966200  0.108600  0.461500  1.0  -0.0705
  C  C73  1  0.527600  0.236900  0.747800  1.0  0.0446
  C  C74  1  0.311000  0.553500  0.826300  1.0  0.1495
  C  C75  1  0.259200  0.506800  0.864000  1.0  -0.2089
  C  C76  1  0.266200  0.362500  0.887900  1.0  0.0611
  C  C77  1  0.324600  0.269600  0.873400  1.0  -0.2281
  C  C78  1  0.372900  0.324600  0.834500  1.0  0.1437
  C  C79  1  0.214500  0.303700  0.930000  1.0  0.1436
  C  C80  1  0.139800  0.293000  0.917400  1.0  -0.0112
  C  C81  1  0.087000  0.239700  0.962400  1.0  -0.1147
  C  C82  1  0.135000  0.162800  0.013300  1.0  0.0033
  C  C83  1  0.210300  0.178600  0.022700  1.0  0.1414
  C  C84  1  0.290900  0.101400  0.179400  1.0  0.1687
  C  C85  1  0.242800  0.155000  0.132000  1.0  -0.2044
  C  C86  1  0.258000  0.116800  0.075100  1.0  0.0045
  C  C87  1  0.320200  0.025300  0.068600  1.0  -0.2059
  C  C88  1  0.364000  0.974600  0.118500  1.0  0.1245
  C  C89  1  0.104600  0.329200  0.859800  1.0  0.3663
  C  C90  1  0.096900  0.070500  0.052700  1.0  0.3315
  C  C91  1  0.041900  0.374600  0.982900  1.0  0.0044
  C  C92  1  0.075500  0.483100  0.021200  1.0  -0.1188
  C  C93  1  0.033800  0.608600  0.038500  1.0  -0.0707
  C  C94  1  0.472400  0.736900  0.752200  1.0  0.0441
  C  C95  1  0.311000  0.946500  0.326300  1.0  0.1515
  C  C96  1  0.259200  0.993200  0.364000  1.0  -0.2063
  C  C97  1  0.266200  0.137500  0.387900  1.0  0.0609
  C  C98  1  0.324600  0.230400  0.373400  1.0  -0.2298
  C  C99  1  0.372900  0.175400  0.334500  1.0  0.1436
  C  C100  1  0.214500  0.196300  0.430000  1.0  0.1435
  C  C101  1  0.139800  0.207000  0.417400  1.0  -0.0112
  C  C102  1  0.087000  0.260300  0.462400  1.0  -0.1143
  C  C103  1  0.135000  0.337200  0.513300  1.0  0.0035
  C  C104  1  0.210300  0.321400  0.522700  1.0  0.1411
  C  C105  1  0.290900  0.398600  0.679400  1.0  0.1694
  C  C106  1  0.242800  0.345000  0.632000  1.0  -0.2029
  C  C107  1  0.258000  0.383200  0.575100  1.0  0.0048
  C  C108  1  0.320200  0.474700  0.568600  1.0  -0.2067
  C  C109  1  0.364000  0.525400  0.618500  1.0  0.1249
  C  C110  1  0.104600  0.170800  0.359800  1.0  0.3657
  C  C111  1  0.096900  0.429500  0.552700  1.0  0.3296
  C  C112  1  0.041900  0.125400  0.482900  1.0  0.0043
  C  C113  1  0.075500  0.016900  0.521200  1.0  -0.1184
  C  C114  1  0.033800  0.891400  0.538500  1.0  -0.0704
  C  C115  1  0.472400  0.763100  0.252200  1.0  0.041
  C  C116  1  0.689000  0.446500  0.173700  1.0  0.152
  C  C117  1  0.740800  0.493200  0.136000  1.0  -0.2071
  C  C118  1  0.733800  0.637500  0.112100  1.0  0.0612
  C  C119  1  0.675400  0.730400  0.126600  1.0  -0.2292
  C  C120  1  0.627100  0.675400  0.165500  1.0  0.1425
  C  C121  1  0.785500  0.696300  0.070000  1.0  0.144
  C  C122  1  0.860200  0.707000  0.082600  1.0  -0.0124
  C  C123  1  0.913000  0.760300  0.037600  1.0  -0.1139
  C  C124  1  0.865000  0.837200  0.986700  1.0  0.0045
  C  C125  1  0.789700  0.821400  0.977300  1.0  0.1405
  C  C126  1  0.709100  0.898600  0.820600  1.0  0.1712
  C  C127  1  0.757200  0.845000  0.868000  1.0  -0.2041
  C  C128  1  0.742000  0.883200  0.924900  1.0  0.004
  C  C129  1  0.679800  0.974700  0.931400  1.0  -0.206
  C  C130  1  0.636000  0.025400  0.881500  1.0  0.1235
  C  C131  1  0.895400  0.670800  0.140200  1.0  0.3633
  C  C132  1  0.903100  0.929500  0.947300  1.0  0.3317
  C  C133  1  0.958100  0.625400  0.017100  1.0  0.0043
  C  C134  1  0.924500  0.516900  0.978800  1.0  -0.1192
  C  C135  1  0.966200  0.391400  0.961500  1.0  -0.0695
  C  C136  1  0.527600  0.263100  0.247800  1.0  0.0412
  N  N137  1  0.633000  0.965000  0.688800  1.0  -0.3606
  N  N138  1  0.750100  0.755500  0.516650  1.0  -0.3695
  N  N139  1  0.649300  0.514900  0.325950  1.0  -0.3456
  N  N140  1  0.925700  0.855300  0.685800  1.0  -0.4166
  N  N141  1  0.936400  0.498500  0.416600  1.0  -0.4263
  N  N142  1  0.498400  0.355000  0.742300  1.0  -0.449
  N  N143  1  0.367000  0.465000  0.811200  1.0  -0.3638
  N  N144  1  0.249900  0.255500  0.983350  1.0  -0.3714
  N  N145  1  0.350700  0.014900  0.174050  1.0  -0.3446
  N  N146  1  0.074300  0.355300  0.814200  1.0  -0.4178
  N  N147  1  0.063600  0.998500  0.083400  1.0  -0.4255
  N  N148  1  0.501600  0.855000  0.757700  1.0  -0.4486
  N  N149  1  0.367000  0.035000  0.311200  1.0  -0.3635
  N  N150  1  0.249900  0.244500  0.483350  1.0  -0.3709
  N  N151  1  0.350700  0.485100  0.674050  1.0  -0.3451
  N  N152  1  0.074300  0.144700  0.314200  1.0  -0.418
  N  N153  1  0.063600  0.501500  0.583400  1.0  -0.427
  N  N154  1  0.501600  0.645000  0.257700  1.0  -0.4456
  N  N155  1  0.633000  0.535000  0.188800  1.0  -0.3624
  N  N156  1  0.750100  0.744500  0.016650  1.0  -0.3693
  N  N157  1  0.649300  0.985100  0.825950  1.0  -0.3442
  N  N158  1  0.925700  0.644700  0.185800  1.0  -0.4157
  N  N159  1  0.936400  0.001500  0.916600  1.0  -0.4271
  N  N160  1  0.498400  0.145000  0.242300  1.0  -0.4472
