# generated using pymatgen
data_NiH7C11O5
_symmetry_space_group_name_H-M   'P 1'
_cell_length_a   10.07000000
_cell_length_b   13.10700000
_cell_length_c   15.21600000
_cell_angle_alpha   78.42000000
_cell_angle_beta   76.52700000
_cell_angle_gamma   68.20400000
_symmetry_Int_Tables_number   1
_chemical_formula_structural   NiH7C11O5
_chemical_formula_sum   'Ni4 H28 C44 O20'
_cell_volume   1798.86324862
_cell_formula_units_Z   4
loop_
 _symmetry_equiv_pos_site_id
 _symmetry_equiv_pos_as_xyz
  1  'x, y, z'
loop_
 _atom_site_type_symbol
 _atom_site_label
 _atom_site_symmetry_multiplicity
 _atom_site_fract_x
 _atom_site_fract_y
 _atom_site_fract_z
 _atom_site_occupancy
 _atom_site_charge
  Ni  Ni1  1  0.015710  0.577770  0.340370  1.0  1.0226
  Ni  Ni2  1  0.737710  0.802450  0.260340  1.0  0.9368
  Ni  Ni3  1  0.984290  0.422230  0.659630  1.0  1.0254
  Ni  Ni4  1  0.262290  0.197550  0.739660  1.0  0.9363
  H  H5  1  0.374500  0.662700  0.032900  1.0  0.1263
  H  H6  1  0.615800  0.619700  0.968000  1.0  0.1248
  H  H7  1  0.484900  0.525100  0.275100  1.0  0.1087
  H  H8  1  0.725500  0.490500  0.212400  1.0  0.1189
  H  H9  1  0.840900  0.467300  0.932100  1.0  0.1133
  H  H10  1  0.719200  0.415300  0.413500  1.0  0.1139
  H  H11  1  0.794300  0.229700  0.482700  1.0  0.1221
  H  H12  1  0.873300  0.054300  0.442900  1.0  0.1183
  H  H13  1  0.395100  0.274800  0.446000  1.0  0.1147
  H  H14  1  0.476700  0.099500  0.403900  1.0  0.1203
  H  H15  1  0.013600  0.744500  0.259700  1.0  0.3515
  H  H16  1  0.929000  0.775500  0.341300  1.0  0.43
  H  H17  1  0.730700  0.905300  0.167300  1.0  0.2922
  H  H18  1  0.828200  0.918200  0.210100  1.0  0.2611
  H  H19  1  0.625500  0.337300  0.967100  1.0  0.1269
  H  H20  1  0.384200  0.380300  0.032000  1.0  0.1248
  H  H21  1  0.515100  0.474900  0.724900  1.0  0.1085
  H  H22  1  0.274500  0.509500  0.787600  1.0  0.119
  H  H23  1  0.159100  0.532700  0.067900  1.0  0.1126
  H  H24  1  0.280800  0.584700  0.586500  1.0  0.1137
  H  H25  1  0.205700  0.770300  0.517300  1.0  0.1223
  H  H26  1  0.126700  0.945700  0.557100  1.0  0.1184
  H  H27  1  0.604900  0.725200  0.554000  1.0  0.1138
  H  H28  1  0.523300  0.900500  0.596100  1.0  0.1206
  H  H29  1  0.986400  0.255500  0.740300  1.0  0.351
  H  H30  1  0.071000  0.224500  0.658700  1.0  0.4334
  H  H31  1  0.269300  0.094700  0.832700  1.0  0.2894
  H  H32  1  0.171800  0.081800  0.789900  1.0  0.2624
  C  C33  1  0.248000  0.629200  0.203600  1.0  0.7151
  C  C34  1  0.404800  0.599900  0.161200  1.0  -0.1018
  C  C35  1  0.445300  0.627100  0.069200  1.0  -0.0758
  C  C36  1  0.590200  0.602100  0.030500  1.0  -0.1175
  C  C37  1  0.510900  0.546500  0.213400  1.0  -0.0337
  C  C38  1  0.655100  0.524300  0.175500  1.0  -0.126
  C  C39  1  0.697000  0.551800  0.082360  1.0  0.0688
  C  C40  1  0.852400  0.527700  0.040550  1.0  0.0363
  C  C41  1  0.904900  0.480700  0.959860  1.0  -0.1127
  C  C42  1  0.950300  0.546700  0.080570  1.0  -0.0566
  C  C43  1  0.906500  0.600100  0.166130  1.0  0.7173
  C  C44  1  0.697100  0.617300  0.407700  1.0  0.6996
  C  C45  1  0.593700  0.559400  0.459450  1.0  -0.0654
  C  C46  1  0.630000  0.449700  0.448420  1.0  -0.1221
  C  C47  1  0.539400  0.388400  0.487090  1.0  -0.0089
  C  C48  1  0.585600  0.272400  0.466980  1.0  0.0653
  C  C49  1  0.729700  0.204100  0.466500  1.0  -0.1452
  C  C50  1  0.777000  0.099200  0.442400  1.0  -0.035
  C  C51  1  0.492300  0.231200  0.444400  1.0  -0.095
  C  C52  1  0.541000  0.125900  0.419500  1.0  -0.0286
  C  C53  1  0.684800  0.059700  0.417500  1.0  -0.131
  C  C54  1  0.741800  0.948400  0.383400  1.0  0.6804
  C  C55  1  0.752000  0.370800  0.796400  1.0  0.7157
  C  C56  1  0.595200  0.400100  0.838800  1.0  -0.1023
  C  C57  1  0.554700  0.372900  0.930800  1.0  -0.0765
  C  C58  1  0.409800  0.397900  0.969500  1.0  -0.1184
  C  C59  1  0.489100  0.453500  0.786600  1.0  -0.0346
  C  C60  1  0.344900  0.475700  0.824500  1.0  -0.1256
  C  C61  1  0.303000  0.448200  0.917640  1.0  0.068
  C  C62  1  0.147600  0.472300  0.959450  1.0  0.0364
  C  C63  1  0.095100  0.519300  0.040140  1.0  -0.1109
  C  C64  1  0.049700  0.453300  0.919430  1.0  -0.0583
  C  C65  1  0.093500  0.399900  0.833870  1.0  0.7162
  C  C66  1  0.302900  0.382700  0.592300  1.0  0.7006
  C  C67  1  0.406300  0.440600  0.540550  1.0  -0.065
  C  C68  1  0.370000  0.550300  0.551580  1.0  -0.1243
  C  C69  1  0.460600  0.611600  0.512910  1.0  -0.0085
  C  C70  1  0.414400  0.727600  0.533020  1.0  0.0658
  C  C71  1  0.270300  0.795900  0.533500  1.0  -0.1455
  C  C72  1  0.223000  0.900800  0.557600  1.0  -0.0343
  C  C73  1  0.507700  0.768800  0.555600  1.0  -0.0962
  C  C74  1  0.459000  0.874100  0.580500  1.0  -0.0281
  C  C75  1  0.315200  0.940300  0.582500  1.0  -0.1317
  C  C76  1  0.258200  0.051600  0.616600  1.0  0.6808
  O  O77  1  0.158400  0.710550  0.166310  1.0  -0.5544
  O  O78  1  0.218000  0.569410  0.275250  1.0  -0.5779
  O  O79  1  0.812500  0.695410  0.165060  1.0  -0.6004
  O  O80  1  0.970700  0.544180  0.229860  1.0  -0.6153
  O  O81  1  0.826500  0.569830  0.419900  1.0  -0.6089
  O  O82  1  0.649900  0.702930  0.356020  1.0  -0.6015
  O  O83  1  0.866900  0.887920  0.397690  1.0  -0.5866
  O  O84  1  0.664200  0.926240  0.342580  1.0  -0.5673
  O  O85  1  0.936370  0.742970  0.296440  1.0  -0.7732
  O  O86  1  0.811200  0.916100  0.158490  1.0  -0.7203
  O  O87  1  0.841600  0.289450  0.833690  1.0  -0.5518
  O  O88  1  0.782000  0.430590  0.724750  1.0  -0.5789
  O  O89  1  0.187500  0.304590  0.834940  1.0  -0.5992
  O  O90  1  0.029300  0.455820  0.770140  1.0  -0.6151
  O  O91  1  0.173500  0.430170  0.580100  1.0  -0.6074
  O  O92  1  0.350100  0.297070  0.643980  1.0  -0.6014
  O  O93  1  0.133100  0.112080  0.602310  1.0  -0.5875
  O  O94  1  0.335800  0.073760  0.657420  1.0  -0.568
  O  O95  1  0.063630  0.257030  0.703560  1.0  -0.7696
  O  O96  1  0.188800  0.083900  0.841510  1.0  -0.7205
