# generated using pymatgen
data_ZnH8C14N2O5
_symmetry_space_group_name_H-M   'P 1'
_cell_length_a   13.74900000
_cell_length_b   13.99000000
_cell_length_c   14.07300000
_cell_angle_alpha   110.53800000
_cell_angle_beta   90.00000000
_cell_angle_gamma   90.00000000
_symmetry_Int_Tables_number   1
_chemical_formula_structural   ZnH8C14N2O5
_chemical_formula_sum   'Zn4 H32 C56 N8 O20'
_cell_volume   2534.86794284
_cell_formula_units_Z   4
loop_
 _symmetry_equiv_pos_site_id
 _symmetry_equiv_pos_as_xyz
  1  'x, y, z'
loop_
 _atom_site_type_symbol
 _atom_site_label
 _atom_site_symmetry_multiplicity
 _atom_site_fract_x
 _atom_site_fract_y
 _atom_site_fract_z
 _atom_site_occupancy
 _atom_site_charge
  Zn  Zn1  1  0.058300  0.904920  0.957270  1.0  0.9323
  Zn  Zn2  1  0.558300  0.095080  0.542730  1.0  0.9324
  Zn  Zn3  1  0.941700  0.095080  0.042730  1.0  0.932
  Zn  Zn4  1  0.441700  0.904920  0.457270  1.0  0.9319
  H  H5  1  0.894600  0.602200  0.166600  1.0  0.297
  H  H6  1  0.916400  0.744500  0.119300  1.0  0.112
  H  H7  1  0.767500  0.003900  0.268500  1.0  0.1154
  H  H8  1  0.700600  0.740100  0.314600  1.0  0.1196
  H  H9  1  0.021200  0.306700  0.116600  1.0  0.0913
  H  H10  1  0.969700  0.474200  0.177300  1.0  0.1249
  H  H11  1  0.691800  0.373800  0.159300  1.0  0.1232
  H  H12  1  0.749700  0.207000  0.096200  1.0  0.1042
  H  H13  1  0.394600  0.397800  0.333400  1.0  0.2962
  H  H14  1  0.416400  0.255500  0.380700  1.0  0.112
  H  H15  1  0.267500  0.996100  0.231500  1.0  0.1153
  H  H16  1  0.200600  0.259900  0.185400  1.0  0.1194
  H  H17  1  0.521200  0.693300  0.383400  1.0  0.0918
  H  H18  1  0.469700  0.525800  0.322700  1.0  0.1254
  H  H19  1  0.191800  0.626200  0.340700  1.0  0.1231
  H  H20  1  0.249700  0.793000  0.403800  1.0  0.1042
  H  H21  1  0.105400  0.397800  0.833400  1.0  0.2974
  H  H22  1  0.083600  0.255500  0.880700  1.0  0.1113
  H  H23  1  0.232500  0.996100  0.731500  1.0  0.1154
  H  H24  1  0.299400  0.259900  0.685400  1.0  0.1193
  H  H25  1  0.978800  0.693300  0.883400  1.0  0.0912
  H  H26  1  0.030300  0.525800  0.822700  1.0  0.1252
  H  H27  1  0.308200  0.626200  0.840700  1.0  0.124
  H  H28  1  0.250300  0.793000  0.903800  1.0  0.1048
  H  H29  1  0.605400  0.602200  0.666667  1.0  0.2982
  H  H30  1  0.583600  0.744500  0.619300  1.0  0.1117
  H  H31  1  0.732500  0.003900  0.768500  1.0  0.1155
  H  H32  1  0.799400  0.740100  0.814600  1.0  0.1196
  H  H33  1  0.478800  0.306700  0.616600  1.0  0.0909
  H  H34  1  0.530300  0.474200  0.677300  1.0  0.1251
  H  H35  1  0.808200  0.373800  0.659300  1.0  0.1239
  H  H36  1  0.750300  0.207000  0.596200  1.0  0.1045
  C  C37  1  0.813300  0.726600  0.215200  1.0  0.2068
  C  C38  1  0.866900  0.779000  0.165700  1.0  -0.154
  C  C39  1  0.848800  0.882000  0.183500  1.0  -0.103
  C  C40  1  0.777900  0.933000  0.253300  1.0  -0.0371
  C  C41  1  0.722000  0.879600  0.300900  1.0  -0.0857
  C  C42  1  0.739000  0.776200  0.282200  1.0  -0.1113
  C  C43  1  0.781800  0.549200  0.211200  1.0  0.5109
  C  C44  1  0.953500  0.320500  0.125100  1.0  0.1664
  C  C45  1  0.923400  0.420500  0.161300  1.0  -0.1869
  C  C46  1  0.825000  0.442400  0.174400  1.0  -0.0193
  C  C47  1  0.759700  0.361300  0.150400  1.0  -0.1496
  C  C48  1  0.794700  0.262000  0.113300  1.0  0.1418
  C  C49  1  0.905500  0.935700  0.124200  1.0  0.6872
  C  C50  1  0.643000  0.933300  0.375100  1.0  0.6957
  C  C51  1  0.313300  0.273400  0.284800  1.0  0.2073
  C  C52  1  0.366900  0.221000  0.334300  1.0  -0.154
  C  C53  1  0.348800  0.118000  0.316500  1.0  -0.1035
  C  C54  1  0.277900  0.067000  0.246700  1.0  -0.0357
  C  C55  1  0.222000  0.120400  0.199100  1.0  -0.0854
  C  C56  1  0.239000  0.223800  0.217800  1.0  -0.1099
  C  C57  1  0.281800  0.450800  0.288800  1.0  0.5109
  C  C58  1  0.453500  0.679500  0.374900  1.0  0.1664
  C  C59  1  0.423400  0.579500  0.338700  1.0  -0.1879
  C  C60  1  0.325000  0.557600  0.325600  1.0  -0.0203
  C  C61  1  0.259700  0.638700  0.349600  1.0  -0.1487
  C  C62  1  0.294700  0.738000  0.386700  1.0  0.1417
  C  C63  1  0.405500  0.064300  0.375800  1.0  0.688
  C  C64  1  0.143000  0.066700  0.124900  1.0  0.6949
  C  C65  1  0.186700  0.273400  0.784800  1.0  0.2077
  C  C66  1  0.133100  0.221000  0.834300  1.0  -0.154
  C  C67  1  0.151200  0.118000  0.816500  1.0  -0.1044
  C  C68  1  0.222100  0.067000  0.746700  1.0  -0.0357
  C  C69  1  0.278000  0.120400  0.699100  1.0  -0.0856
  C  C70  1  0.261000  0.223800  0.717800  1.0  -0.1066
  C  C71  1  0.218200  0.450800  0.788800  1.0  0.5123
  C  C72  1  0.046500  0.679500  0.874900  1.0  0.1666
  C  C73  1  0.076600  0.579500  0.838700  1.0  -0.1888
  C  C74  1  0.175000  0.557600  0.825600  1.0  -0.0219
  C  C75  1  0.240300  0.638700  0.849600  1.0  -0.1487
  C  C76  1  0.205300  0.738000  0.886700  1.0  0.1421
  C  C77  1  0.094500  0.064300  0.875800  1.0  0.6871
  C  C78  1  0.357000  0.066700  0.624900  1.0  0.6944
  C  C79  1  0.686700  0.726600  0.715200  1.0  0.2072
  C  C80  1  0.633100  0.779000  0.665700  1.0  -0.1538
  C  C81  1  0.651200  0.882000  0.683500  1.0  -0.1037
  C  C82  1  0.722100  0.933000  0.753300  1.0  -0.037
  C  C83  1  0.778000  0.879600  0.800900  1.0  -0.0858
  C  C84  1  0.761000  0.776200  0.782200  1.0  -0.1081
  C  C85  1  0.718200  0.549200  0.711200  1.0  0.5125
  C  C86  1  0.546500  0.320500  0.625100  1.0  0.1667
  C  C87  1  0.576600  0.420500  0.661300  1.0  -0.1883
  C  C88  1  0.675000  0.442400  0.674400  1.0  -0.0211
  C  C89  1  0.740300  0.361300  0.650400  1.0  -0.15
  C  C90  1  0.705300  0.262000  0.613300  1.0  0.1428
  C  C91  1  0.594500  0.935700  0.624200  1.0  0.6866
  C  C92  1  0.857000  0.933300  0.875100  1.0  0.6954
  N  N93  1  0.837200  0.622000  0.194000  1.0  -0.4152
  N  N94  1  0.890900  0.241000  0.101000  1.0  -0.2866
  N  N95  1  0.337200  0.378000  0.306000  1.0  -0.4152
  N  N96  1  0.390900  0.759000  0.399000  1.0  -0.2867
  N  N97  1  0.162800  0.378000  0.806000  1.0  -0.4168
  N  N98  1  0.109100  0.759000  0.899000  1.0  -0.2875
  N  N99  1  0.662800  0.622000  0.694000  1.0  -0.4176
  N  N100  1  0.609100  0.241000  0.601000  1.0  -0.287
  O  O101  1  0.702600  0.565100  0.252600  1.0  -0.4993
  O  O102  1  0.973000  0.884500  0.069000  1.0  -0.6083
  O  O103  1  0.879700  0.024500  0.132400  1.0  -0.583
  O  O104  1  0.657000  0.024200  0.431800  1.0  -0.5835
  O  O105  1  0.567800  0.880300  0.374400  1.0  -0.6065
  O  O106  1  0.202600  0.434900  0.247400  1.0  -0.4982
  O  O107  1  0.473000  0.115500  0.431000  1.0  -0.6092
  O  O108  1  0.379700  0.975500  0.367600  1.0  -0.5828
  O  O109  1  0.157000  0.975800  0.068200  1.0  -0.5855
  O  O110  1  0.067800  0.119700  0.125600  1.0  -0.6049
  O  O111  1  0.297400  0.434900  0.747400  1.0  -0.4982
  O  O112  1  0.027000  0.115500  0.931000  1.0  -0.6097
  O  O113  1  0.120300  0.975500  0.867600  1.0  -0.5831
  O  O114  1  0.343000  0.975800  0.568200  1.0  -0.5844
  O  O115  1  0.432200  0.119700  0.625600  1.0  -0.6051
  O  O116  1  0.797400  0.565100  0.752600  1.0  -0.4987
  O  O117  1  0.527000  0.884500  0.569000  1.0  -0.6088
  O  O118  1  0.620300  0.024500  0.632400  1.0  -0.5827
  O  O119  1  0.843000  0.024200  0.931800  1.0  -0.5846
  O  O120  1  0.932200  0.880300  0.874400  1.0  -0.6063
