# generated using pymatgen
data_Zn4H27C60(NO)18
_symmetry_space_group_name_H-M   'P 1'
_cell_length_a   12.14670000
_cell_length_b   18.10910000
_cell_length_c   24.13380000
_cell_angle_alpha   107.54100000
_cell_angle_beta   98.67000000
_cell_angle_gamma   91.33200000
_symmetry_Int_Tables_number   1
_chemical_formula_structural   Zn4H27C60(NO)18
_chemical_formula_sum   'Zn8 H54 C120 N36 O36'
_cell_volume   4990.62795571
_cell_formula_units_Z   2
loop_
 _symmetry_equiv_pos_site_id
 _symmetry_equiv_pos_as_xyz
  1  'x, y, z'
loop_
 _atom_site_type_symbol
 _atom_site_label
 _atom_site_symmetry_multiplicity
 _atom_site_fract_x
 _atom_site_fract_y
 _atom_site_fract_z
 _atom_site_occupancy
 _atom_site_charge
  Zn  Zn1  1  0.555780  0.301740  0.143220  1.0  0.8066
  Zn  Zn2  1  0.654690  0.164360  0.027060  1.0  0.7782
  Zn  Zn3  1  0.955690  0.512420  0.240240  1.0  0.9818
  Zn  Zn4  1  0.236870  0.076230  0.861120  1.0  0.9029
  Zn  Zn5  1  0.444220  0.698260  0.856780  1.0  0.8071
  Zn  Zn6  1  0.345310  0.835640  0.972940  1.0  0.7785
  Zn  Zn7  1  0.044310  0.487580  0.759760  1.0  0.9821
  Zn  Zn8  1  0.763130  0.923770  0.138880  1.0  0.9034
  H  H9  1  0.892100  0.932900  0.744900  1.0  0.128
  H  H10  1  0.618100  0.930700  0.822300  1.0  0.1137
  H  H11  1  0.739300  0.641500  0.664800  1.0  0.11
  H  H12  1  0.678800  0.557400  0.569600  1.0  0.1119
  H  H13  1  0.431300  0.836600  0.497600  1.0  0.1014
  H  H14  1  0.483300  0.918200  0.593900  1.0  0.1071
  H  H15  1  0.285800  0.594500  0.386300  1.0  0.1274
  H  H16  1  0.311100  0.427500  0.234100  1.0  0.1117
  H  H17  1  0.586700  0.513000  0.357500  1.0  0.1282
  H  H18  1  0.727100  0.433100  0.213700  1.0  0.0904
  H  H19  1  0.849900  0.212300  0.986000  1.0  0.0447
  H  H20  1  0.507500  0.252900  0.241600  1.0  0.0665
  H  H21  1  0.734300  0.021900  0.057600  1.0  0.0899
  H  H22  1  0.350800  0.372300  0.115500  1.0  0.0682
  H  H23  1  0.469900  0.087500  0.925200  1.0  0.0836
  H  H24  1  0.891400  0.072700  0.911900  1.0  0.111
  H  H25  1  0.202200  0.301900  0.779400  1.0  0.1222
  H  H26  1  0.318200  0.279800  0.626900  1.0  0.1284
  H  H27  1  0.350700  0.108200  0.702700  1.0  0.1263
  H  H28  1  0.227600  0.024400  0.450100  1.0  0.1145
  H  H29  1  0.700100  0.067100  0.624600  1.0  0.1186
  H  H30  1  0.118300  0.383200  0.085900  1.0  0.312
  H  H31  1  0.078900  0.433300  0.141400  1.0  0.3312
  H  H32  1  0.071000  0.268500  0.975200  1.0  0.3242
  H  H33  1  0.111700  0.199800  0.930800  1.0  0.3306
  H  H34  1  0.617100  0.055900  0.295200  1.0  0.3379
  H  H35  1  0.669300  0.003000  0.245500  1.0  0.3181
  H  H36  1  0.107900  0.067100  0.255100  1.0  0.1283
  H  H37  1  0.381900  0.069300  0.177700  1.0  0.1137
  H  H38  1  0.260700  0.358500  0.335200  1.0  0.1111
  H  H39  1  0.321200  0.442600  0.430400  1.0  0.1126
  H  H40  1  0.568700  0.163400  0.502400  1.0  0.1022
  H  H41  1  0.516700  0.081800  0.406100  1.0  0.1068
  H  H42  1  0.714200  0.405500  0.613700  1.0  0.1269
  H  H43  1  0.688900  0.572500  0.765900  1.0  0.1113
  H  H44  1  0.413300  0.487000  0.642500  1.0  0.1277
  H  H45  1  0.272900  0.566900  0.786300  1.0  0.0915
  H  H46  1  0.150100  0.787700  0.014000  1.0  0.0433
  H  H47  1  0.492500  0.747100  0.758400  1.0  0.0659
  H  H48  1  0.265700  0.978100  0.942400  1.0  0.0896
  H  H49  1  0.649200  0.627700  0.884500  1.0  0.0675
  H  H50  1  0.530100  0.912500  0.074800  1.0  0.0833
  H  H51  1  0.108600  0.927300  0.088100  1.0  0.1115
  H  H52  1  0.797800  0.698100  0.220600  1.0  0.1218
  H  H53  1  0.681800  0.720200  0.373100  1.0  0.1277
  H  H54  1  0.649300  0.891800  0.297300  1.0  0.1264
  H  H55  1  0.772400  0.975600  0.549900  1.0  0.114
  H  H56  1  0.299900  0.932900  0.375400  1.0  0.1187
  H  H57  1  0.881700  0.616800  0.914100  1.0  0.3132
  H  H58  1  0.921100  0.566700  0.858600  1.0  0.3308
  H  H59  1  0.929000  0.731500  0.024800  1.0  0.3247
  H  H60  1  0.888300  0.800200  0.069200  1.0  0.3302
  H  H61  1  0.382900  0.944100  0.704800  1.0  0.3371
  H  H62  1  0.330700  0.997000  0.754500  1.0  0.3196
  C  C63  1  0.855500  0.951200  0.778100  1.0  -0.0965
  C  C64  1  0.746700  0.924500  0.775490  1.0  0.1611
  C  C65  1  0.691800  0.950800  0.823900  1.0  -0.0718
  C  C66  1  0.620500  0.897400  0.682660  1.0  0.482
  C  C67  1  0.577000  0.843200  0.623610  1.0  -0.0603
  C  C68  1  0.607000  0.764300  0.609350  1.0  0.0306
  C  C69  1  0.672100  0.736900  0.650750  1.0  -0.1361
  C  C70  1  0.717000  0.790900  0.710020  1.0  0.5033
  C  C71  1  0.696900  0.660200  0.636130  1.0  -0.0229
  C  C72  1  0.660100  0.609900  0.579500  1.0  -0.0249
  C  C73  1  0.596500  0.636100  0.537520  1.0  -0.1425
  C  C74  1  0.569200  0.714400  0.551860  1.0  0.045
  C  C75  1  0.506200  0.742200  0.509660  1.0  -0.105
  C  C76  1  0.475500  0.818100  0.525870  1.0  -0.0102
  C  C77  1  0.508500  0.867300  0.582960  1.0  -0.026
  C  C78  1  0.473800  0.691100  0.448620  1.0  0.5841
  C  C79  1  0.556700  0.581600  0.477960  1.0  0.4839
  C  C80  1  0.442400  0.560600  0.380010  1.0  0.2022
  C  C81  1  0.329500  0.560800  0.361530  1.0  -0.142
  C  C82  1  0.279700  0.512300  0.307250  1.0  -0.1234
  C  C83  1  0.344800  0.461700  0.271400  1.0  -0.036
  C  C84  1  0.458700  0.461600  0.290520  1.0  -0.132
  C  C85  1  0.508600  0.511900  0.344710  1.0  -0.0773
  C  C86  1  0.527400  0.407200  0.252850  1.0  0.6955
  C  C87  1  0.211000  0.379700  0.704280  1.0  0.6966
  C  C88  1  0.157100  0.514800  0.284520  1.0  0.6705
  C  C89  1  0.759900  0.404800  0.181070  1.0  0.2304
  C  C90  1  0.780700  0.319100  0.100770  1.0  0.3622
  C  C91  1  0.876700  0.369100  0.122420  1.0  -0.0266
  C  C92  1  0.966800  0.355300  0.090830  1.0  0.45
  C  C93  1  0.856300  0.252700  0.022430  1.0  0.2763
  C  C94  1  0.544900  0.208800  0.223190  1.0  0.2906
  C  C95  1  0.623300  0.139970  0.145940  1.0  0.3922
  C  C96  1  0.702500  0.050700  0.090420  1.0  0.2612
  C  C97  1  0.343700  0.329400  0.080520  1.0  0.3001
  C  C98  1  0.228000  0.255000  0.995150  1.0  0.4372
  C  C99  1  0.319800  0.210500  0.982010  1.0  -0.0002
  C  C100  1  0.418800  0.230000  0.021450  1.0  0.3459
  C  C101  1  0.437400  0.129900  0.949530  1.0  0.2227
  C  C102  1  0.683500  0.036000  0.925940  1.0  0.7021
  C  C103  1  0.746000  0.006510  0.874280  1.0  -0.1464
  C  C104  1  0.855100  0.034100  0.877320  1.0  0.0153
  C  C105  1  0.645800  0.083900  0.173490  1.0  -0.0594
  C  C106  1  0.615400  0.093800  0.229240  1.0  0.4586
  C  C107  1  0.030800  0.030600  0.832600  1.0  0.6932
  C  C108  1  0.911600  0.005500  0.830060  1.0  -0.1423
  C  C109  1  0.252900  0.168000  0.796240  1.0  0.6796
  C  C110  1  0.275300  0.200400  0.748590  1.0  -0.1412
  C  C111  1  0.238900  0.272900  0.748580  1.0  0.0167
  C  C112  1  0.255900  0.302600  0.704040  1.0  -0.1393
  C  C113  1  0.307400  0.260000  0.658060  1.0  -0.0674
  C  C114  1  0.342600  0.187900  0.658680  1.0  0.2045
  C  C115  1  0.326600  0.157900  0.703230  1.0  -0.1202
  C  C116  1  0.318200  0.103600  0.557210  1.0  0.5096
  C  C117  1  0.366700  0.046500  0.510740  1.0  -0.1014
  C  C118  1  0.302500  0.011200  0.457340  1.0  -0.0193
  C  C119  1  0.477400  0.027900  0.521810  1.0  -0.0107
  C  C120  1  0.547700  0.065500  0.576620  1.0  -0.141
  C  C121  1  0.502900  0.123500  0.623590  1.0  0.508
  C  C122  1  0.654900  0.044300  0.587180  1.0  -0.049
  C  C123  1  0.144500  0.048800  0.221900  1.0  -0.0973
  C  C124  1  0.253300  0.075500  0.224510  1.0  0.1607
  C  C125  1  0.308200  0.049200  0.176100  1.0  -0.0702
  C  C126  1  0.379500  0.102600  0.317340  1.0  0.4828
  C  C127  1  0.423000  0.156800  0.376390  1.0  -0.0603
  C  C128  1  0.393000  0.235700  0.390650  1.0  0.0301
  C  C129  1  0.327900  0.263100  0.349250  1.0  -0.1354
  C  C130  1  0.283000  0.209100  0.289980  1.0  0.5017
  C  C131  1  0.303100  0.339800  0.363870  1.0  -0.0238
  C  C132  1  0.339900  0.390100  0.420500  1.0  -0.0237
  C  C133  1  0.403500  0.363900  0.462480  1.0  -0.1434
  C  C134  1  0.430800  0.285600  0.448140  1.0  0.0448
  C  C135  1  0.493800  0.257800  0.490340  1.0  -0.1055
  C  C136  1  0.524500  0.181900  0.474130  1.0  -0.0097
  C  C137  1  0.491500  0.132700  0.417040  1.0  -0.0265
  C  C138  1  0.526200  0.308900  0.551380  1.0  0.5846
  C  C139  1  0.443300  0.418400  0.522040  1.0  0.4841
  C  C140  1  0.557600  0.439400  0.619990  1.0  0.2026
  C  C141  1  0.670500  0.439200  0.638470  1.0  -0.1391
  C  C142  1  0.720300  0.487700  0.692750  1.0  -0.1243
  C  C143  1  0.655200  0.538300  0.728600  1.0  -0.0366
  C  C144  1  0.541300  0.538400  0.709480  1.0  -0.1324
  C  C145  1  0.491400  0.488100  0.655290  1.0  -0.0774
  C  C146  1  0.472600  0.592800  0.747150  1.0  0.6952
  C  C147  1  0.789000  0.620300  0.295720  1.0  0.6957
  C  C148  1  0.842900  0.485200  0.715480  1.0  0.672
  C  C149  1  0.240100  0.595200  0.818930  1.0  0.2307
  C  C150  1  0.219300  0.680900  0.899230  1.0  0.3642
  C  C151  1  0.123300  0.630900  0.877580  1.0  -0.0275
  C  C152  1  0.033200  0.644700  0.909170  1.0  0.45
  C  C153  1  0.143700  0.747300  0.977570  1.0  0.2748
  C  C154  1  0.455100  0.791200  0.776810  1.0  0.29
  C  C155  1  0.376700  0.860030  0.854060  1.0  0.3903
  C  C156  1  0.297500  0.949300  0.909580  1.0  0.2631
  C  C157  1  0.656300  0.670600  0.919480  1.0  0.299
  C  C158  1  0.772000  0.745000  0.004850  1.0  0.4375
  C  C159  1  0.680200  0.789500  0.017990  1.0  0.0005
  C  C160  1  0.581200  0.770000  0.978550  1.0  0.3466
  C  C161  1  0.562600  0.870100  0.050470  1.0  0.2241
  C  C162  1  0.316500  0.964000  0.074060  1.0  0.7042
  C  C163  1  0.254000  0.993490  0.125720  1.0  -0.1462
  C  C164  1  0.144900  0.965900  0.122680  1.0  0.0152
  C  C165  1  0.354200  0.916100  0.826510  1.0  -0.0574
  C  C166  1  0.384600  0.906200  0.770760  1.0  0.4606
  C  C167  1  0.969200  0.969400  0.167400  1.0  0.6936
  C  C168  1  0.088400  0.994500  0.169940  1.0  -0.142
  C  C169  1  0.747100  0.832000  0.203760  1.0  0.6789
  C  C170  1  0.724700  0.799600  0.251410  1.0  -0.1395
  C  C171  1  0.761100  0.727100  0.251420  1.0  0.0173
  C  C172  1  0.744100  0.697400  0.295960  1.0  -0.1393
  C  C173  1  0.692600  0.740000  0.341940  1.0  -0.0675
  C  C174  1  0.657400  0.812100  0.341320  1.0  0.2061
  C  C175  1  0.673400  0.842100  0.296770  1.0  -0.1208
  C  C176  1  0.681800  0.896400  0.442790  1.0  0.509
  C  C177  1  0.633300  0.953500  0.489260  1.0  -0.1025
  C  C178  1  0.697500  0.988800  0.542660  1.0  -0.0223
  C  C179  1  0.522600  0.972100  0.478190  1.0  -0.0104
  C  C180  1  0.452300  0.934500  0.423380  1.0  -0.1411
  C  C181  1  0.497100  0.876500  0.376410  1.0  0.5107
  C  C182  1  0.345100  0.955700  0.412820  1.0  -0.048
  N  N183  1  0.692000  0.868400  0.721340  1.0  -0.2353
  N  N184  1  0.490600  0.612650  0.437420  1.0  -0.24
  N  N185  1  0.861600  0.423970  0.174150  1.0  -0.3972
  N  N186  1  0.705800  0.342150  0.138480  1.0  -0.3258
  N  N187  1  0.767600  0.257700  0.050780  1.0  -0.2451
  N  N188  1  0.951700  0.297270  0.039140  1.0  -0.4913
  N  N189  1  0.065800  0.395070  0.107990  1.0  -0.6997
  N  N190  1  0.660100  0.119360  0.092920  1.0  -0.4427
  N  N191  1  0.571200  0.206160  0.169620  1.0  -0.3589
  N  N192  1  0.434300  0.288820  0.072570  1.0  -0.2535
  N  N193  1  0.245600  0.316840  0.045480  1.0  -0.446
  N  N194  1  0.125200  0.239310  0.963440  1.0  -0.6792
  N  N195  1  0.495200  0.178660  0.000060  1.0  -0.4114
  N  N196  1  0.332500  0.145230  0.936110  1.0  -0.4227
  N  N197  1  0.697400  0.025370  0.136280  1.0  -0.4265
  N  N198  1  0.636200  0.045600  0.260020  1.0  -0.6735
  N  N199  1  0.563800  0.159710  0.252690  1.0  -0.3374
  N  N200  1  0.391700  0.139960  0.610140  1.0  -0.2445
  N  N201  1  0.308000  0.131600  0.278660  1.0  -0.2355
  N  N202  1  0.509400  0.387350  0.562580  1.0  -0.2401
  N  N203  1  0.138400  0.576030  0.825850  1.0  -0.3978
  N  N204  1  0.294200  0.657850  0.861520  1.0  -0.3263
  N  N205  1  0.232400  0.742300  0.949220  1.0  -0.2456
  N  N206  1  0.048300  0.702730  0.960860  1.0  -0.4889
  N  N207  1  0.934200  0.604930  0.892010  1.0  -0.6986
  N  N208  1  0.339900  0.880640  0.907080  1.0  -0.4422
  N  N209  1  0.428800  0.793840  0.830380  1.0  -0.3596
  N  N210  1  0.565700  0.711180  0.927430  1.0  -0.2516
  N  N211  1  0.754400  0.683160  0.954520  1.0  -0.4482
  N  N212  1  0.874800  0.760690  0.036560  1.0  -0.6789
  N  N213  1  0.504800  0.821340  0.999940  1.0  -0.4114
  N  N214  1  0.667500  0.854770  0.063890  1.0  -0.4207
  N  N215  1  0.302600  0.974630  0.863720  1.0  -0.4274
  N  N216  1  0.363800  0.954400  0.739980  1.0  -0.6733
  N  N217  1  0.436200  0.840290  0.747310  1.0  -0.3346
  N  N218  1  0.608300  0.860040  0.389860  1.0  -0.2449
  O  O219  1  0.777000  0.771100  0.746970  1.0  -0.4652
  O  O220  1  0.599100  0.964620  0.697390  1.0  -0.4729
  O  O221  1  0.432300  0.716710  0.409020  1.0  -0.494
  O  O222  1  0.577800  0.513890  0.463340  1.0  -0.4685
  O  O223  1  0.481740  0.375220  0.199810  1.0  -0.585
  O  O224  1  0.621300  0.395180  0.274220  1.0  -0.5381
  O  O225  1  0.158800  0.410060  0.746500  1.0  -0.618
  O  O226  1  0.227200  0.407980  0.665020  1.0  -0.4817
  O  O227  1  0.107000  0.570440  0.309310  1.0  -0.5858
  O  O228  1  0.110280  0.459940  0.240500  1.0  -0.5962
  O  O229  1  0.723750  0.101930  0.962470  1.0  -0.5905
  O  O230  1  0.601300  0.998160  0.928790  1.0  -0.5498
  O  O231  1  0.195800  0.201560  0.833990  1.0  -0.6326
  O  O232  1  0.295700  0.103150  0.796850  1.0  -0.6263
  O  O233  1  0.076900  0.006790  0.788820  1.0  -0.6265
  O  O234  1  0.082940  0.074390  0.881490  1.0  -0.5814
  O  O235  1  0.557500  0.156970  0.671690  1.0  -0.4741
  O  O236  1  0.222600  0.119800  0.550650  1.0  -0.455
  O  O237  1  0.223000  0.228900  0.253030  1.0  -0.465
  O  O238  1  0.400900  0.035380  0.302610  1.0  -0.4744
  O  O239  1  0.567700  0.283290  0.590980  1.0  -0.4948
  O  O240  1  0.422200  0.486110  0.536660  1.0  -0.468
  O  O241  1  0.518260  0.624780  0.800190  1.0  -0.5824
  O  O242  1  0.378700  0.604820  0.725780  1.0  -0.5382
  O  O243  1  0.841200  0.589940  0.253500  1.0  -0.6169
  O  O244  1  0.772800  0.592020  0.334980  1.0  -0.4859
  O  O245  1  0.893000  0.429560  0.690690  1.0  -0.5881
  O  O246  1  0.889720  0.540060  0.759500  1.0  -0.5952
  O  O247  1  0.276250  0.898070  0.037530  1.0  -0.5917
  O  O248  1  0.398700  0.001840  0.071210  1.0  -0.5481
  O  O249  1  0.804200  0.798440  0.166010  1.0  -0.6337
  O  O250  1  0.704300  0.896850  0.203150  1.0  -0.6259
  O  O251  1  0.923100  0.993210  0.211180  1.0  -0.6289
  O  O252  1  0.917060  0.925610  0.118510  1.0  -0.5829
  O  O253  1  0.442500  0.843030  0.328310  1.0  -0.4741
  O  O254  1  0.777400  0.880200  0.449350  1.0  -0.4539
