# generated using pymatgen
data_Ho2Cu3H30C24(NO4)6
_symmetry_space_group_name_H-M   'P 1'
_cell_length_a   13.32380000
_cell_length_b   13.32380000
_cell_length_c   14.33680000
_cell_angle_alpha   90.00000000
_cell_angle_beta   90.00000000
_cell_angle_gamma   120.00000000
_symmetry_Int_Tables_number   1
_chemical_formula_structural   Ho2Cu3H30C24(NO4)6
_chemical_formula_sum   'Ho4 Cu6 H60 C48 N12 O48'
_cell_volume   2204.13945407
_cell_formula_units_Z   2
loop_
 _symmetry_equiv_pos_site_id
 _symmetry_equiv_pos_as_xyz
  1  'x, y, z'
loop_
 _atom_site_type_symbol
 _atom_site_label
 _atom_site_symmetry_multiplicity
 _atom_site_fract_x
 _atom_site_fract_y
 _atom_site_fract_z
 _atom_site_occupancy
 _atom_site_charge
  Ho  Ho1  1  0.666667  0.333333  0.167340  1.0  2.2296
  Ho  Ho2  1  0.333333  0.666667  0.332660  1.0  2.2296
  Ho  Ho3  1  0.333333  0.666667  0.832660  1.0  2.2296
  Ho  Ho4  1  0.666667  0.333333  0.667340  1.0  2.2296
  Cu  Cu5  1  0.500000  0.000000  0.000000  1.0  0.8585
  Cu  Cu6  1  0.500000  0.500000  0.000000  1.0  0.8585
  Cu  Cu7  1  0.000000  0.500000  0.000000  1.0  0.8585
  Cu  Cu8  1  0.500000  0.000000  0.500000  1.0  0.8585
  Cu  Cu9  1  0.000000  0.500000  0.500000  1.0  0.8585
  Cu  Cu10  1  0.500000  0.500000  0.500000  1.0  0.8585
  H  H11  1  0.650000  0.977000  0.921000  1.0  0.256
  H  H12  1  0.820600  0.139500  0.979400  1.0  0.1059
  H  H13  1  0.746500  0.041000  0.051300  1.0  0.1218
  H  H14  1  0.686200  0.085100  0.805500  1.0  0.1389
  H  H15  1  0.733500  0.193800  0.870900  1.0  0.1284
  H  H16  1  0.327000  0.350000  0.921000  1.0  0.2574
  H  H17  1  0.318900  0.179400  0.979400  1.0  0.1055
  H  H18  1  0.294500  0.253500  0.051300  1.0  0.1226
  H  H19  1  0.398900  0.313800  0.805500  1.0  0.1387
  H  H20  1  0.460300  0.266500  0.870900  1.0  0.128
  H  H21  1  0.023000  0.673000  0.921000  1.0  0.2559
  H  H22  1  0.860500  0.681100  0.979400  1.0  0.1049
  H  H23  1  0.959000  0.705500  0.051300  1.0  0.1224
  H  H24  1  0.914900  0.601100  0.805500  1.0  0.1389
  H  H25  1  0.806200  0.539700  0.870900  1.0  0.131
  H  H26  1  0.673000  0.023000  0.579000  1.0  0.2559
  H  H27  1  0.681100  0.860500  0.520600  1.0  0.1058
  H  H28  1  0.705500  0.959000  0.448700  1.0  0.1217
  H  H29  1  0.601100  0.914900  0.694500  1.0  0.1398
  H  H30  1  0.539700  0.806200  0.629100  1.0  0.1285
  H  H31  1  0.977000  0.650000  0.579000  1.0  0.2572
  H  H32  1  0.139500  0.820600  0.520600  1.0  0.1061
  H  H33  1  0.041000  0.746500  0.448700  1.0  0.1224
  H  H34  1  0.085100  0.686200  0.694500  1.0  0.1402
  H  H35  1  0.193800  0.733500  0.629100  1.0  0.1268
  H  H36  1  0.350000  0.327000  0.579000  1.0  0.2565
  H  H37  1  0.179400  0.318900  0.520600  1.0  0.1052
  H  H38  1  0.253500  0.294500  0.448700  1.0  0.1221
  H  H39  1  0.313800  0.398900  0.694500  1.0  0.1401
  H  H40  1  0.266500  0.460300  0.629100  1.0  0.131
  H  H41  1  0.350000  0.023000  0.079000  1.0  0.2562
  H  H42  1  0.179400  0.860500  0.020600  1.0  0.1061
  H  H43  1  0.253500  0.959000  0.948700  1.0  0.1197
  H  H44  1  0.313800  0.914900  0.194500  1.0  0.1392
  H  H45  1  0.266500  0.806200  0.129100  1.0  0.1287
  H  H46  1  0.673000  0.650000  0.079000  1.0  0.2565
  H  H47  1  0.681100  0.820600  0.020600  1.0  0.1055
  H  H48  1  0.705500  0.746500  0.948700  1.0  0.12
  H  H49  1  0.601100  0.686200  0.194500  1.0  0.1389
  H  H50  1  0.539700  0.733500  0.129100  1.0  0.1283
  H  H51  1  0.977000  0.327000  0.079000  1.0  0.2566
  H  H52  1  0.139500  0.318900  0.020600  1.0  0.1055
  H  H53  1  0.041000  0.294500  0.948700  1.0  0.1196
  H  H54  1  0.085100  0.398900  0.194500  1.0  0.1385
  H  H55  1  0.193800  0.460300  0.129100  1.0  0.132
  H  H56  1  0.327000  0.977000  0.421000  1.0  0.2558
  H  H57  1  0.318900  0.139500  0.479400  1.0  0.1058
  H  H58  1  0.294500  0.041000  0.551300  1.0  0.1199
  H  H59  1  0.398900  0.085100  0.305500  1.0  0.1389
  H  H60  1  0.460300  0.193800  0.370900  1.0  0.1288
  H  H61  1  0.023000  0.350000  0.421000  1.0  0.2568
  H  H62  1  0.860500  0.179400  0.479400  1.0  0.1063
  H  H63  1  0.959000  0.253500  0.551300  1.0  0.1201
  H  H64  1  0.914900  0.313800  0.305500  1.0  0.139
  H  H65  1  0.806200  0.266500  0.370900  1.0  0.1286
  H  H66  1  0.650000  0.673000  0.421000  1.0  0.2562
  H  H67  1  0.820600  0.681100  0.479400  1.0  0.1055
  H  H68  1  0.746500  0.705500  0.551300  1.0  0.1199
  H  H69  1  0.686200  0.601100  0.305500  1.0  0.1388
  H  H70  1  0.733500  0.539700  0.370900  1.0  0.1322
  C  C71  1  0.731600  0.185000  0.069700  1.0  0.7007
  C  C72  1  0.746500  0.099600  0.011200  1.0  -0.1899
  C  C73  1  0.668200  0.116900  0.859600  1.0  -0.2264
  C  C74  1  0.563000  0.126200  0.839300  1.0  0.7516
  C  C75  1  0.453400  0.268400  0.069700  1.0  0.6991
  C  C76  1  0.353100  0.253500  0.011200  1.0  -0.1881
  C  C77  1  0.448700  0.331800  0.859600  1.0  -0.2271
  C  C78  1  0.563200  0.437000  0.839300  1.0  0.7537
  C  C79  1  0.815000  0.546600  0.069700  1.0  0.7
  C  C80  1  0.900400  0.646900  0.011200  1.0  -0.1892
  C  C81  1  0.883100  0.551300  0.859600  1.0  -0.2268
  C  C82  1  0.873800  0.436800  0.839300  1.0  0.7528
  C  C83  1  0.546600  0.815000  0.430300  1.0  0.6995
  C  C84  1  0.646900  0.900400  0.488800  1.0  -0.1897
  C  C85  1  0.551300  0.883100  0.640400  1.0  -0.2267
  C  C86  1  0.436800  0.873800  0.660700  1.0  0.752
  C  C87  1  0.185000  0.731600  0.430300  1.0  0.6977
  C  C88  1  0.099600  0.746500  0.488800  1.0  -0.1878
  C  C89  1  0.116900  0.668200  0.640400  1.0  -0.2269
  C  C90  1  0.126200  0.563000  0.660700  1.0  0.7545
  C  C91  1  0.268400  0.453400  0.430300  1.0  0.6995
  C  C92  1  0.253500  0.353100  0.488800  1.0  -0.1888
  C  C93  1  0.331800  0.448700  0.640400  1.0  -0.2275
  C  C94  1  0.437000  0.563200  0.660700  1.0  0.7541
  C  C95  1  0.268400  0.815000  0.930300  1.0  0.6989
  C  C96  1  0.253500  0.900400  0.988800  1.0  -0.1896
  C  C97  1  0.331800  0.883100  0.140400  1.0  -0.2277
  C  C98  1  0.437000  0.873800  0.160700  1.0  0.7519
  C  C99  1  0.546600  0.731600  0.930300  1.0  0.6977
  C  C100  1  0.646900  0.746500  0.988800  1.0  -0.188
  C  C101  1  0.551300  0.668200  0.140400  1.0  -0.2263
  C  C102  1  0.436800  0.563000  0.160700  1.0  0.7538
  C  C103  1  0.185000  0.453400  0.930300  1.0  0.6994
  C  C104  1  0.099600  0.353100  0.988800  1.0  -0.1891
  C  C105  1  0.116900  0.448700  0.140400  1.0  -0.2264
  C  C106  1  0.126200  0.563200  0.160700  1.0  0.7536
  C  C107  1  0.453400  0.185000  0.569700  1.0  0.7005
  C  C108  1  0.353100  0.099600  0.511200  1.0  -0.1895
  C  C109  1  0.448700  0.116900  0.359600  1.0  -0.2269
  C  C110  1  0.563200  0.126200  0.339300  1.0  0.7513
  C  C111  1  0.815000  0.268400  0.569700  1.0  0.6981
  C  C112  1  0.900400  0.253500  0.511200  1.0  -0.1881
  C  C113  1  0.883100  0.331800  0.359600  1.0  -0.2266
  C  C114  1  0.873800  0.437000  0.339300  1.0  0.7532
  C  C115  1  0.731600  0.546600  0.569700  1.0  0.7008
  C  C116  1  0.746500  0.646900  0.511200  1.0  -0.1889
  C  C117  1  0.668200  0.551300  0.359600  1.0  -0.2262
  C  C118  1  0.563000  0.436800  0.339300  1.0  0.7525
  N  N119  1  0.652400  0.042900  0.941200  1.0  -0.2803
  N  N120  1  0.390500  0.347600  0.941200  1.0  -0.2789
  N  N121  1  0.957100  0.609500  0.941200  1.0  -0.28
  N  N122  1  0.609500  0.957100  0.558800  1.0  -0.28
  N  N123  1  0.042900  0.652400  0.558800  1.0  -0.2786
  N  N124  1  0.347600  0.390500  0.558800  1.0  -0.2806
  N  N125  1  0.347600  0.957100  0.058800  1.0  -0.2793
  N  N126  1  0.609500  0.652400  0.058800  1.0  -0.2791
  N  N127  1  0.042900  0.390500  0.058800  1.0  -0.28
  N  N128  1  0.390500  0.042900  0.441200  1.0  -0.2793
  N  N129  1  0.957100  0.347600  0.441200  1.0  -0.2792
  N  N130  1  0.652400  0.609500  0.441200  1.0  -0.2793
  O  O131  1  0.639400  0.189500  0.059400  1.0  -0.7349
  O  O132  1  0.806800  0.246100  0.128200  1.0  -0.6462
  O  O133  1  0.565600  0.185200  0.770600  1.0  -0.7271
  O  O134  1  0.475800  0.073800  0.891100  1.0  -0.5668
  O  O135  1  0.550100  0.360600  0.059400  1.0  -0.7373
  O  O136  1  0.439300  0.193200  0.128200  1.0  -0.6477
  O  O137  1  0.619600  0.434400  0.770600  1.0  -0.7279
  O  O138  1  0.598000  0.524200  0.891100  1.0  -0.5678
  O  O139  1  0.810500  0.449900  0.059400  1.0  -0.7388
  O  O140  1  0.753900  0.560700  0.128200  1.0  -0.645
  O  O141  1  0.814800  0.380400  0.770600  1.0  -0.729
  O  O142  1  0.926200  0.402000  0.891100  1.0  -0.5673
  O  O143  1  0.449900  0.810500  0.440600  1.0  -0.7365
  O  O144  1  0.560700  0.753900  0.371800  1.0  -0.6467
  O  O145  1  0.380400  0.814800  0.729400  1.0  -0.7293
  O  O146  1  0.402000  0.926200  0.608900  1.0  -0.5675
  O  O147  1  0.189500  0.639400  0.440600  1.0  -0.7381
  O  O148  1  0.246100  0.806800  0.371800  1.0  -0.6478
  O  O149  1  0.185200  0.565600  0.729400  1.0  -0.73
  O  O150  1  0.073800  0.475800  0.608900  1.0  -0.5688
  O  O151  1  0.360600  0.550100  0.440600  1.0  -0.7398
  O  O152  1  0.193200  0.439300  0.371800  1.0  -0.6452
  O  O153  1  0.434400  0.619600  0.729400  1.0  -0.7314
  O  O154  1  0.524200  0.598000  0.608900  1.0  -0.5687
  O  O155  1  0.360600  0.810500  0.940600  1.0  -0.7369
  O  O156  1  0.193200  0.753900  0.871800  1.0  -0.647
  O  O157  1  0.434400  0.814800  0.229400  1.0  -0.7298
  O  O158  1  0.524200  0.926200  0.108900  1.0  -0.5671
  O  O159  1  0.449900  0.639400  0.940600  1.0  -0.7381
  O  O160  1  0.560700  0.806800  0.871800  1.0  -0.6477
  O  O161  1  0.380400  0.565600  0.229400  1.0  -0.7287
  O  O162  1  0.402000  0.475800  0.108900  1.0  -0.5684
  O  O163  1  0.189500  0.550100  0.940600  1.0  -0.7399
  O  O164  1  0.246100  0.439300  0.871800  1.0  -0.6447
  O  O165  1  0.185200  0.619600  0.229400  1.0  -0.7326
  O  O166  1  0.073800  0.598000  0.108900  1.0  -0.5689
  O  O167  1  0.550100  0.189500  0.559400  1.0  -0.7357
  O  O168  1  0.439300  0.246100  0.628200  1.0  -0.6467
  O  O169  1  0.619600  0.185200  0.270600  1.0  -0.7268
  O  O170  1  0.598000  0.073800  0.391100  1.0  -0.5664
  O  O171  1  0.810500  0.360600  0.559400  1.0  -0.7372
  O  O172  1  0.753900  0.193200  0.628200  1.0  -0.6477
  O  O173  1  0.814800  0.434400  0.270600  1.0  -0.7271
  O  O174  1  0.926200  0.524200  0.391100  1.0  -0.5677
  O  O175  1  0.639400  0.449900  0.559400  1.0  -0.739
  O  O176  1  0.806800  0.560700  0.628200  1.0  -0.6446
  O  O177  1  0.565600  0.380400  0.270600  1.0  -0.7302
  O  O178  1  0.475800  0.402000  0.391100  1.0  -0.5677
