# generated using pymatgen
data_Ce2Cu3H30C24(NO4)6
_symmetry_space_group_name_H-M   'P 1'
_cell_length_a   13.43770000
_cell_length_b   13.43770000
_cell_length_c   14.85300000
_cell_angle_alpha   90.00000000
_cell_angle_beta   90.00000000
_cell_angle_gamma   120.00000000
_symmetry_Int_Tables_number   1
_chemical_formula_structural   Ce2Cu3H30C24(NO4)6
_chemical_formula_sum   'Ce4 Cu6 H60 C48 N12 O48'
_cell_volume   2322.70842384
_cell_formula_units_Z   2
loop_
 _symmetry_equiv_pos_site_id
 _symmetry_equiv_pos_as_xyz
  1  'x, y, z'
loop_
 _atom_site_type_symbol
 _atom_site_label
 _atom_site_symmetry_multiplicity
 _atom_site_fract_x
 _atom_site_fract_y
 _atom_site_fract_z
 _atom_site_occupancy
 _atom_site_charge
  Ce  Ce1  1  0.666667  0.333333  0.169220  1.0  2.2581
  Ce  Ce2  1  0.333333  0.666667  0.330780  1.0  2.258
  Ce  Ce3  1  0.333333  0.666667  0.830780  1.0  2.258
  Ce  Ce4  1  0.666667  0.333333  0.669220  1.0  2.2581
  Cu  Cu5  1  0.500000  0.000000  0.000000  1.0  0.8067
  Cu  Cu6  1  0.500000  0.500000  0.000000  1.0  0.8067
  Cu  Cu7  1  0.000000  0.500000  0.000000  1.0  0.8067
  Cu  Cu8  1  0.500000  0.000000  0.500000  1.0  0.8067
  Cu  Cu9  1  0.000000  0.500000  0.500000  1.0  0.8067
  Cu  Cu10  1  0.500000  0.500000  0.500000  1.0  0.8067
  H  H11  1  0.647800  0.973900  0.922900  1.0  0.2556
  H  H12  1  0.817300  0.136300  0.979000  1.0  0.1095
  H  H13  1  0.744500  0.037600  0.047700  1.0  0.1274
  H  H14  1  0.729600  0.189800  0.872800  1.0  0.1325
  H  H15  1  0.683000  0.082000  0.810000  1.0  0.1373
  H  H16  1  0.326100  0.352200  0.922900  1.0  0.2555
  H  H17  1  0.319000  0.182700  0.979000  1.0  0.1092
  H  H18  1  0.293100  0.255500  0.047700  1.0  0.1284
  H  H19  1  0.460200  0.270400  0.872800  1.0  0.1315
  H  H20  1  0.399000  0.317000  0.810000  1.0  0.1372
  H  H21  1  0.026100  0.673900  0.922900  1.0  0.2547
  H  H22  1  0.863700  0.681000  0.979000  1.0  0.1091
  H  H23  1  0.962400  0.706900  0.047700  1.0  0.1269
  H  H24  1  0.810200  0.539800  0.872800  1.0  0.1345
  H  H25  1  0.918000  0.601000  0.810000  1.0  0.1366
  H  H26  1  0.673900  0.026100  0.577100  1.0  0.2549
  H  H27  1  0.681000  0.863700  0.521000  1.0  0.1095
  H  H28  1  0.706900  0.962400  0.452300  1.0  0.1273
  H  H29  1  0.539800  0.810200  0.627200  1.0  0.1321
  H  H30  1  0.601000  0.918000  0.690000  1.0  0.1364
  H  H31  1  0.973900  0.647800  0.577100  1.0  0.2559
  H  H32  1  0.136300  0.817300  0.521000  1.0  0.1093
  H  H33  1  0.037600  0.744500  0.452300  1.0  0.128
  H  H34  1  0.189800  0.729600  0.627200  1.0  0.1309
  H  H35  1  0.082000  0.683000  0.690000  1.0  0.1371
  H  H36  1  0.352200  0.326100  0.577100  1.0  0.2548
  H  H37  1  0.182700  0.319000  0.521000  1.0  0.1088
  H  H38  1  0.255500  0.293100  0.452300  1.0  0.1277
  H  H39  1  0.270400  0.460200  0.627200  1.0  0.1349
  H  H40  1  0.317000  0.399000  0.690000  1.0  0.1367
  H  H41  1  0.352200  0.026100  0.077100  1.0  0.2554
  H  H42  1  0.182700  0.863700  0.021000  1.0  0.1095
  H  H43  1  0.255500  0.962400  0.952300  1.0  0.1257
  H  H44  1  0.270400  0.810200  0.127200  1.0  0.1324
  H  H45  1  0.317000  0.918000  0.190000  1.0  0.1373
  H  H46  1  0.673900  0.647800  0.077100  1.0  0.2555
  H  H47  1  0.681000  0.817300  0.021000  1.0  0.1087
  H  H48  1  0.706900  0.744500  0.952300  1.0  0.1257
  H  H49  1  0.539800  0.729600  0.127200  1.0  0.1313
  H  H50  1  0.601000  0.683000  0.190000  1.0  0.1368
  H  H51  1  0.973900  0.326100  0.077100  1.0  0.2548
  H  H52  1  0.136300  0.319000  0.021000  1.0  0.1092
  H  H53  1  0.037600  0.293100  0.952300  1.0  0.1256
  H  H54  1  0.189800  0.460200  0.127200  1.0  0.1357
  H  H55  1  0.082000  0.399000  0.190000  1.0  0.1365
  H  H56  1  0.326100  0.973900  0.422900  1.0  0.2557
  H  H57  1  0.319000  0.136300  0.479000  1.0  0.1094
  H  H58  1  0.293100  0.037600  0.547700  1.0  0.1256
  H  H59  1  0.460200  0.189800  0.372800  1.0  0.1327
  H  H60  1  0.399000  0.082000  0.310000  1.0  0.1374
  H  H61  1  0.026100  0.352200  0.422900  1.0  0.2558
  H  H62  1  0.863700  0.182700  0.479000  1.0  0.1098
  H  H63  1  0.962400  0.255500  0.547700  1.0  0.1257
  H  H64  1  0.810200  0.270400  0.372800  1.0  0.131
  H  H65  1  0.918000  0.317000  0.310000  1.0  0.1369
  H  H66  1  0.647800  0.673900  0.422900  1.0  0.2551
  H  H67  1  0.817300  0.681000  0.479000  1.0  0.1096
  H  H68  1  0.744500  0.706900  0.547700  1.0  0.1249
  H  H69  1  0.729600  0.539800  0.372800  1.0  0.1358
  H  H70  1  0.683000  0.601000  0.310000  1.0  0.1369
  C  C71  1  0.728300  0.179800  0.067600  1.0  0.7014
  C  C72  1  0.743800  0.095800  0.009600  1.0  -0.1824
  C  C73  1  0.665100  0.113300  0.862300  1.0  -0.2243
  C  C74  1  0.562300  0.121900  0.843000  1.0  0.7605
  C  C75  1  0.451500  0.271700  0.067600  1.0  0.6999
  C  C76  1  0.352000  0.256200  0.009600  1.0  -0.1813
  C  C77  1  0.448200  0.334900  0.862300  1.0  -0.2247
  C  C78  1  0.559600  0.437700  0.843000  1.0  0.7611
  C  C79  1  0.820200  0.548500  0.067600  1.0  0.701
  C  C80  1  0.904200  0.648000  0.009600  1.0  -0.1822
  C  C81  1  0.886700  0.551800  0.862300  1.0  -0.2238
  C  C82  1  0.878100  0.440400  0.843000  1.0  0.7604
  C  C83  1  0.548500  0.820200  0.432400  1.0  0.7021
  C  C84  1  0.648000  0.904200  0.490400  1.0  -0.182
  C  C85  1  0.551800  0.886700  0.637700  1.0  -0.2241
  C  C86  1  0.440400  0.878100  0.657000  1.0  0.76
  C  C87  1  0.179800  0.728300  0.432400  1.0  0.7
  C  C88  1  0.095800  0.743800  0.490400  1.0  -0.181
  C  C89  1  0.113300  0.665100  0.637700  1.0  -0.224
  C  C90  1  0.121900  0.562300  0.657000  1.0  0.7602
  C  C91  1  0.271700  0.451500  0.432400  1.0  0.702
  C  C92  1  0.256200  0.352000  0.490400  1.0  -0.1819
  C  C93  1  0.334900  0.448200  0.637700  1.0  -0.2238
  C  C94  1  0.437700  0.559600  0.657000  1.0  0.7614
  C  C95  1  0.271700  0.820200  0.932400  1.0  0.7017
  C  C96  1  0.256200  0.904200  0.990400  1.0  -0.1826
  C  C97  1  0.334900  0.886700  0.137700  1.0  -0.224
  C  C98  1  0.437700  0.878100  0.157000  1.0  0.759
  C  C99  1  0.548500  0.728300  0.932400  1.0  0.6998
  C  C100  1  0.648000  0.743800  0.990400  1.0  -0.1817
  C  C101  1  0.551800  0.665100  0.137700  1.0  -0.2237
  C  C102  1  0.440400  0.562300  0.157000  1.0  0.7604
  C  C103  1  0.179800  0.451500  0.932400  1.0  0.7016
  C  C104  1  0.095800  0.352000  0.990400  1.0  -0.1832
  C  C105  1  0.113300  0.448200  0.137700  1.0  -0.2238
  C  C106  1  0.121900  0.559600  0.157000  1.0  0.7614
  C  C107  1  0.451500  0.179800  0.567600  1.0  0.7013
  C  C108  1  0.352000  0.095800  0.509600  1.0  -0.1825
  C  C109  1  0.448200  0.113300  0.362300  1.0  -0.224
  C  C110  1  0.559600  0.121900  0.343000  1.0  0.7591
  C  C111  1  0.820200  0.271700  0.567600  1.0  0.6988
  C  C112  1  0.904200  0.256200  0.509600  1.0  -0.1818
  C  C113  1  0.886700  0.334900  0.362300  1.0  -0.2242
  C  C114  1  0.878100  0.437700  0.343000  1.0  0.7618
  C  C115  1  0.728300  0.548500  0.567600  1.0  0.7014
  C  C116  1  0.743800  0.648000  0.509600  1.0  -0.1829
  C  C117  1  0.665100  0.551800  0.362300  1.0  -0.2239
  C  C118  1  0.562300  0.440400  0.343000  1.0  0.7609
  N  N119  1  0.651000  0.039800  0.942100  1.0  -0.2836
  N  N120  1  0.388800  0.349000  0.942100  1.0  -0.2814
  N  N121  1  0.960200  0.611200  0.942100  1.0  -0.2828
  N  N122  1  0.611200  0.960200  0.557900  1.0  -0.2834
  N  N123  1  0.039800  0.651000  0.557900  1.0  -0.2812
  N  N124  1  0.349000  0.388800  0.557900  1.0  -0.2829
  N  N125  1  0.349000  0.960200  0.057900  1.0  -0.2826
  N  N126  1  0.611200  0.651000  0.057900  1.0  -0.2824
  N  N127  1  0.039800  0.388800  0.057900  1.0  -0.283
  N  N128  1  0.388800  0.039800  0.442100  1.0  -0.2826
  N  N129  1  0.960200  0.349000  0.442100  1.0  -0.2824
  N  N130  1  0.651000  0.611200  0.442100  1.0  -0.2826
  O  O131  1  0.637300  0.184600  0.057200  1.0  -0.7312
  O  O132  1  0.802700  0.240800  0.124300  1.0  -0.6644
  O  O133  1  0.563900  0.177900  0.775400  1.0  -0.7239
  O  O134  1  0.476400  0.073800  0.894600  1.0  -0.5671
  O  O135  1  0.547300  0.362700  0.057200  1.0  -0.732
  O  O136  1  0.438100  0.197300  0.124300  1.0  -0.666
  O  O137  1  0.614000  0.436100  0.775400  1.0  -0.7235
  O  O138  1  0.597400  0.523600  0.894600  1.0  -0.567
  O  O139  1  0.815400  0.452700  0.057200  1.0  -0.7331
  O  O140  1  0.759200  0.561900  0.124300  1.0  -0.6653
  O  O141  1  0.822100  0.386000  0.775400  1.0  -0.7253
  O  O142  1  0.926200  0.402600  0.894600  1.0  -0.5672
  O  O143  1  0.452700  0.815400  0.442800  1.0  -0.732
  O  O144  1  0.561900  0.759200  0.375700  1.0  -0.6644
  O  O145  1  0.386000  0.822100  0.724600  1.0  -0.7256
  O  O146  1  0.402600  0.926200  0.605400  1.0  -0.5668
  O  O147  1  0.184600  0.637300  0.442800  1.0  -0.7326
  O  O148  1  0.240800  0.802700  0.375700  1.0  -0.6654
  O  O149  1  0.177900  0.563900  0.724600  1.0  -0.7246
  O  O150  1  0.073800  0.476400  0.605400  1.0  -0.5676
  O  O151  1  0.362700  0.547300  0.442800  1.0  -0.7343
  O  O152  1  0.197300  0.438100  0.375700  1.0  -0.6649
  O  O153  1  0.436100  0.614000  0.724600  1.0  -0.727
  O  O154  1  0.523600  0.597400  0.605400  1.0  -0.5677
  O  O155  1  0.362700  0.815400  0.942800  1.0  -0.732
  O  O156  1  0.197300  0.759200  0.875700  1.0  -0.6647
  O  O157  1  0.436100  0.822100  0.224600  1.0  -0.7251
  O  O158  1  0.523600  0.926200  0.105400  1.0  -0.5665
  O  O159  1  0.452700  0.637300  0.942800  1.0  -0.7326
  O  O160  1  0.561900  0.802700  0.875700  1.0  -0.6651
  O  O161  1  0.386000  0.563900  0.224600  1.0  -0.7243
  O  O162  1  0.402600  0.476400  0.105400  1.0  -0.5673
  O  O163  1  0.184600  0.547300  0.942800  1.0  -0.7342
  O  O164  1  0.240800  0.438100  0.875700  1.0  -0.6646
  O  O165  1  0.177900  0.614000  0.224600  1.0  -0.728
  O  O166  1  0.073800  0.597400  0.105400  1.0  -0.5678
  O  O167  1  0.547300  0.184600  0.557200  1.0  -0.7313
  O  O168  1  0.438100  0.240800  0.624300  1.0  -0.6652
  O  O169  1  0.614000  0.177900  0.275400  1.0  -0.7232
  O  O170  1  0.597400  0.073800  0.394600  1.0  -0.5666
  O  O171  1  0.815400  0.362700  0.557200  1.0  -0.7322
  O  O172  1  0.759200  0.197300  0.624300  1.0  -0.6658
  O  O173  1  0.822100  0.436100  0.275400  1.0  -0.7231
  O  O174  1  0.926200  0.523600  0.394600  1.0  -0.567
  O  O175  1  0.637300  0.452700  0.557200  1.0  -0.733
  O  O176  1  0.802700  0.561900  0.624300  1.0  -0.6652
  O  O177  1  0.563900  0.386000  0.275400  1.0  -0.7262
  O  O178  1  0.476400  0.402600  0.394600  1.0  -0.5678
