# generated using pymatgen
data_Cu3H16(C19O8)2
_symmetry_space_group_name_H-M   'P 1'
_cell_length_a   20.01570000
_cell_length_b   26.89320000
_cell_length_c   26.98900000
_cell_angle_alpha   90.00000000
_cell_angle_beta   90.00000000
_cell_angle_gamma   90.00000000
_symmetry_Int_Tables_number   1
_chemical_formula_structural   Cu3H16(C19O8)2
_chemical_formula_sum   'Cu24 H128 C304 O128'
_cell_volume   14527.80687902
_cell_formula_units_Z   8
loop_
 _symmetry_equiv_pos_site_id
 _symmetry_equiv_pos_as_xyz
  1  'x, y, z'
loop_
 _atom_site_type_symbol
 _atom_site_label
 _atom_site_symmetry_multiplicity
 _atom_site_fract_x
 _atom_site_fract_y
 _atom_site_fract_z
 _atom_site_occupancy
 _atom_site_charge
  Cu  Cu1  1  0.956010  0.463240  0.499860  1.0  0.9457
  Cu  Cu2  1  0.543990  0.536760  0.999860  1.0  0.945
  Cu  Cu3  1  0.043990  0.963240  0.500140  1.0  0.9448
  Cu  Cu4  1  0.456010  0.036760  0.000140  1.0  0.9446
  Cu  Cu5  1  0.043990  0.536760  0.500140  1.0  0.9452
  Cu  Cu6  1  0.456010  0.463240  0.000140  1.0  0.9453
  Cu  Cu7  1  0.956010  0.036760  0.499860  1.0  0.9451
  Cu  Cu8  1  0.543990  0.963240  0.999860  1.0  0.9448
  Cu  Cu9  1  0.053790  0.250000  0.232760  1.0  0.9142
  Cu  Cu10  1  0.968720  0.250000  0.308650  1.0  0.9096
  Cu  Cu11  1  0.446210  0.750000  0.732760  1.0  0.9158
  Cu  Cu12  1  0.531280  0.750000  0.808650  1.0  0.9102
  Cu  Cu13  1  0.946210  0.750000  0.767240  1.0  0.9154
  Cu  Cu14  1  0.031280  0.750000  0.691350  1.0  0.9106
  Cu  Cu15  1  0.553790  0.250000  0.267240  1.0  0.9148
  Cu  Cu16  1  0.468720  0.250000  0.191350  1.0  0.9113
  Cu  Cu17  1  0.446760  0.750000  0.267360  1.0  0.9286
  Cu  Cu18  1  0.533010  0.750000  0.193660  1.0  0.9031
  Cu  Cu19  1  0.053240  0.250000  0.767360  1.0  0.9283
  Cu  Cu20  1  0.966990  0.250000  0.693660  1.0  0.9033
  Cu  Cu21  1  0.553240  0.250000  0.732640  1.0  0.9286
  Cu  Cu22  1  0.466990  0.250000  0.806340  1.0  0.9033
  Cu  Cu23  1  0.946760  0.750000  0.232640  1.0  0.9305
  Cu  Cu24  1  0.033010  0.750000  0.306340  1.0  0.9042
  H  H25  1  0.328200  0.422700  0.484200  1.0  0.3464
  H  H26  1  0.087100  0.628800  0.018700  1.0  0.3412
  H  H27  1  0.078100  0.674500  0.131300  1.0  0.1312
  H  H28  1  0.214200  0.561300  0.131000  1.0  0.1126
  H  H29  1  0.145400  0.616100  0.260400  1.0  0.119
  H  H30  1  0.354500  0.477700  0.224500  1.0  0.1024
  H  H31  1  0.137700  0.520100  0.266000  1.0  0.1271
  H  H32  1  0.165300  0.378600  0.273600  1.0  0.1033
  H  H33  1  0.048300  0.375000  0.393500  1.0  0.1185
  H  H34  1  0.159500  0.498000  0.375300  1.0  0.1304
  H  H35  1  0.355300  0.383000  0.240200  1.0  0.1201
  H  H36  1  0.296500  0.444900  0.370200  1.0  0.1329
  H  H37  1  0.438400  0.337300  0.370500  1.0  0.1233
  H  H38  1  0.457400  0.634800  0.110700  1.0  0.1169
  H  H39  1  0.344300  0.506000  0.132600  1.0  0.1226
  H  H40  1  0.319200  0.620100  0.222800  1.0  0.1193
  H  H41  1  0.171800  0.577300  0.984200  1.0  0.3461
  H  H42  1  0.412900  0.371200  0.518700  1.0  0.3414
  H  H43  1  0.421900  0.325500  0.631300  1.0  0.1313
  H  H44  1  0.285800  0.438700  0.631000  1.0  0.1126
  H  H45  1  0.354600  0.383900  0.760400  1.0  0.1192
  H  H46  1  0.145500  0.522300  0.724500  1.0  0.1032
  H  H47  1  0.362300  0.479900  0.766000  1.0  0.1269
  H  H48  1  0.334700  0.621400  0.773600  1.0  0.1033
  H  H49  1  0.451700  0.625000  0.893500  1.0  0.1178
  H  H50  1  0.340500  0.502000  0.875300  1.0  0.1309
  H  H51  1  0.144700  0.617000  0.740200  1.0  0.1199
  H  H52  1  0.203500  0.555100  0.870200  1.0  0.1332
  H  H53  1  0.061600  0.662700  0.870500  1.0  0.1238
  H  H54  1  0.042600  0.365200  0.610700  1.0  0.1163
  H  H55  1  0.155700  0.494000  0.632600  1.0  0.1225
  H  H56  1  0.180800  0.379900  0.722800  1.0  0.1195
  H  H57  1  0.671800  0.922700  0.515800  1.0  0.3451
  H  H58  1  0.912900  0.128800  0.981300  1.0  0.3413
  H  H59  1  0.921900  0.174500  0.868700  1.0  0.131
  H  H60  1  0.785800  0.061300  0.869000  1.0  0.1128
  H  H61  1  0.854600  0.116100  0.739600  1.0  0.1196
  H  H62  1  0.645500  0.977700  0.775500  1.0  0.1031
  H  H63  1  0.862300  0.020100  0.734000  1.0  0.1272
  H  H64  1  0.834700  0.878600  0.726400  1.0  0.1029
  H  H65  1  0.951700  0.875000  0.606500  1.0  0.1178
  H  H66  1  0.840500  0.998000  0.624700  1.0  0.1303
  H  H67  1  0.644700  0.883000  0.759800  1.0  0.1193
  H  H68  1  0.703500  0.944900  0.629800  1.0  0.1329
  H  H69  1  0.561600  0.837300  0.629500  1.0  0.1235
  H  H70  1  0.542600  0.134800  0.889300  1.0  0.1169
  H  H71  1  0.655700  0.006000  0.867400  1.0  0.123
  H  H72  1  0.680800  0.120100  0.777200  1.0  0.1196
  H  H73  1  0.828200  0.077300  0.015800  1.0  0.3458
  H  H74  1  0.587100  0.871200  0.481300  1.0  0.3425
  H  H75  1  0.578100  0.825500  0.368700  1.0  0.1312
  H  H76  1  0.714200  0.938700  0.369000  1.0  0.1125
  H  H77  1  0.645400  0.883900  0.239600  1.0  0.1192
  H  H78  1  0.854500  0.022300  0.275500  1.0  0.1028
  H  H79  1  0.637700  0.979900  0.234000  1.0  0.1275
  H  H80  1  0.665300  0.121400  0.226400  1.0  0.1029
  H  H81  1  0.548300  0.125000  0.106500  1.0  0.1182
  H  H82  1  0.659500  0.002000  0.124700  1.0  0.1303
  H  H83  1  0.855300  0.117000  0.259800  1.0  0.1195
  H  H84  1  0.796500  0.055100  0.129800  1.0  0.1329
  H  H85  1  0.938400  0.162700  0.129500  1.0  0.1235
  H  H86  1  0.957400  0.865200  0.389300  1.0  0.1163
  H  H87  1  0.844300  0.994000  0.367400  1.0  0.1223
  H  H88  1  0.819200  0.879900  0.277200  1.0  0.1189
  H  H89  1  0.671800  0.577300  0.515800  1.0  0.3452
  H  H90  1  0.912900  0.371200  0.981300  1.0  0.3416
  H  H91  1  0.921900  0.325500  0.868700  1.0  0.1309
  H  H92  1  0.785800  0.438700  0.869000  1.0  0.1127
  H  H93  1  0.854600  0.383900  0.739600  1.0  0.1194
  H  H94  1  0.645500  0.522300  0.775500  1.0  0.103
  H  H95  1  0.862300  0.479900  0.734000  1.0  0.1272
  H  H96  1  0.834700  0.621400  0.726400  1.0  0.1031
  H  H97  1  0.951700  0.625000  0.606500  1.0  0.1178
  H  H98  1  0.840500  0.502000  0.624700  1.0  0.1305
  H  H99  1  0.644700  0.617000  0.759800  1.0  0.1191
  H  H100  1  0.703500  0.555100  0.629800  1.0  0.1333
  H  H101  1  0.561600  0.662700  0.629500  1.0  0.1234
  H  H102  1  0.542600  0.365200  0.889300  1.0  0.1164
  H  H103  1  0.655700  0.494000  0.867400  1.0  0.1224
  H  H104  1  0.680800  0.379900  0.777200  1.0  0.1194
  H  H105  1  0.828200  0.422700  0.015800  1.0  0.3464
  H  H106  1  0.587100  0.628800  0.481300  1.0  0.3415
  H  H107  1  0.578100  0.674500  0.368700  1.0  0.1311
  H  H108  1  0.714200  0.561300  0.369000  1.0  0.1129
  H  H109  1  0.645400  0.616100  0.239600  1.0  0.1194
  H  H110  1  0.854500  0.477700  0.275500  1.0  0.1024
  H  H111  1  0.637700  0.520100  0.234000  1.0  0.1274
  H  H112  1  0.665300  0.378600  0.226400  1.0  0.1029
  H  H113  1  0.548300  0.375000  0.106500  1.0  0.1182
  H  H114  1  0.659500  0.498000  0.124700  1.0  0.1297
  H  H115  1  0.855300  0.383000  0.259800  1.0  0.1196
  H  H116  1  0.796500  0.444900  0.129800  1.0  0.1329
  H  H117  1  0.938400  0.337300  0.129500  1.0  0.1233
  H  H118  1  0.957400  0.634800  0.389300  1.0  0.1166
  H  H119  1  0.844300  0.506000  0.367400  1.0  0.1229
  H  H120  1  0.819200  0.620100  0.277200  1.0  0.1193
  H  H121  1  0.328200  0.077300  0.484200  1.0  0.3466
  H  H122  1  0.087100  0.871200  0.018700  1.0  0.3415
  H  H123  1  0.078100  0.825500  0.131300  1.0  0.1311
  H  H124  1  0.214200  0.938700  0.131000  1.0  0.1124
  H  H125  1  0.145400  0.883900  0.260400  1.0  0.1191
  H  H126  1  0.354500  0.022300  0.224500  1.0  0.103
  H  H127  1  0.137700  0.979900  0.266000  1.0  0.1273
  H  H128  1  0.165300  0.121400  0.273600  1.0  0.1033
  H  H129  1  0.048300  0.125000  0.393500  1.0  0.1184
  H  H130  1  0.159500  0.002000  0.375300  1.0  0.1304
  H  H131  1  0.355300  0.117000  0.240200  1.0  0.1202
  H  H132  1  0.296500  0.055100  0.370200  1.0  0.1328
  H  H133  1  0.438400  0.162700  0.370500  1.0  0.1233
  H  H134  1  0.457400  0.865200  0.110700  1.0  0.1164
  H  H135  1  0.344300  0.994000  0.132600  1.0  0.1222
  H  H136  1  0.319200  0.879900  0.222800  1.0  0.1192
  H  H137  1  0.171800  0.922700  0.984200  1.0  0.3456
  H  H138  1  0.412900  0.128800  0.518700  1.0  0.3414
  H  H139  1  0.421900  0.174500  0.631300  1.0  0.1313
  H  H140  1  0.285800  0.061300  0.631000  1.0  0.1125
  H  H141  1  0.354600  0.116100  0.760400  1.0  0.1191
  H  H142  1  0.145500  0.977700  0.724500  1.0  0.1029
  H  H143  1  0.362300  0.020100  0.766000  1.0  0.1268
  H  H144  1  0.334700  0.878600  0.773600  1.0  0.1032
  H  H145  1  0.451700  0.875000  0.893500  1.0  0.1179
  H  H146  1  0.340500  0.998000  0.875300  1.0  0.1311
  H  H147  1  0.144700  0.883000  0.740200  1.0  0.1198
  H  H148  1  0.203500  0.944900  0.870200  1.0  0.133
  H  H149  1  0.061600  0.837300  0.870500  1.0  0.124
  H  H150  1  0.042600  0.134800  0.610700  1.0  0.1171
  H  H151  1  0.155700  0.006000  0.632600  1.0  0.1229
  H  H152  1  0.180800  0.120100  0.722800  1.0  0.1195
  C  C153  1  0.429700  0.678400  0.187600  1.0  0.6291
  C  C154  1  0.077400  0.319500  0.307000  1.0  0.7148
  C  C155  1  0.104200  0.365300  0.328300  1.0  -0.025
  C  C156  1  0.058600  0.462800  0.432000  1.0  0.5737
  C  C157  1  0.431900  0.545100  0.066400  1.0  0.6758
  C  C158  1  0.059300  0.684800  0.225700  1.0  0.6903
  C  C159  1  0.103900  0.645100  0.201500  1.0  -0.0784
  C  C160  1  0.101300  0.648400  0.147600  1.0  -0.0881
  C  C161  1  0.134300  0.611700  0.121400  1.0  0.0668
  C  C162  1  0.183200  0.581400  0.148600  1.0  -0.0634
  C  C163  1  0.183900  0.582200  0.200300  1.0  0.0869
  C  C164  1  0.143900  0.615100  0.225300  1.0  -0.0499
  C  C165  1  0.219200  0.540100  0.227000  1.0  0.0047
  C  C166  1  0.286900  0.529300  0.216100  1.0  0.0715
  C  C167  1  0.312300  0.488500  0.236600  1.0  -0.0875
  C  C168  1  0.282200  0.458500  0.275700  1.0  0.0328
  C  C169  1  0.216700  0.472800  0.285700  1.0  -0.0576
  C  C170  1  0.183500  0.512900  0.259900  1.0  -0.1314
  C  C171  1  0.166100  0.444200  0.317300  1.0  -0.1123
  C  C172  1  0.146400  0.392400  0.302800  1.0  -0.0599
  C  C173  1  0.080100  0.392200  0.373700  1.0  -0.0266
  C  C174  1  0.144200  0.466600  0.363800  1.0  -0.052
  C  C175  1  0.439600  0.314100  0.271300  1.0  0.7285
  C  C176  1  0.320100  0.420900  0.300600  1.0  0.0634
  C  C177  1  0.358600  0.384000  0.275300  1.0  -0.032
  C  C178  1  0.402300  0.347800  0.298800  1.0  -0.0391
  C  C179  1  0.321500  0.421200  0.351800  1.0  -0.0478
  C  C180  1  0.405700  0.354400  0.351500  1.0  -0.0296
  C  C181  1  0.359600  0.386500  0.374800  1.0  -0.0846
  C  C182  1  0.363700  0.391200  0.434400  1.0  0.3536
  C  C183  1  0.130900  0.609600  0.072900  1.0  0.5151
  C  C184  1  0.097700  0.436800  0.389600  1.0  -0.1108
  C  C185  1  0.396500  0.631400  0.171100  1.0  -0.1238
  C  C186  1  0.426000  0.615500  0.128600  1.0  -0.0706
  C  C187  1  0.405000  0.566200  0.113200  1.0  -0.1527
  C  C188  1  0.325100  0.560700  0.179900  1.0  0.1923
  C  C189  1  0.355300  0.539100  0.141500  1.0  -0.0876
  C  C190  1  0.342000  0.605300  0.195700  1.0  -0.0463
  C  C191  1  0.070300  0.321600  0.687600  1.0  0.6284
  C  C192  1  0.422600  0.680500  0.807000  1.0  0.715
  C  C193  1  0.395800  0.634700  0.828300  1.0  -0.0245
  C  C194  1  0.441400  0.537200  0.932000  1.0  0.5737
  C  C195  1  0.068100  0.454900  0.566400  1.0  0.6756
  C  C196  1  0.440700  0.315200  0.725700  1.0  0.6901
  C  C197  1  0.396100  0.354900  0.701500  1.0  -0.0777
  C  C198  1  0.398700  0.351600  0.647600  1.0  -0.0853
  C  C199  1  0.365700  0.388300  0.621400  1.0  0.0666
  C  C200  1  0.316800  0.418600  0.648600  1.0  -0.0644
  C  C201  1  0.316100  0.417800  0.700300  1.0  0.0866
  C  C202  1  0.356100  0.384900  0.725300  1.0  -0.0484
  C  C203  1  0.280800  0.459900  0.727000  1.0  0.0049
  C  C204  1  0.213100  0.470700  0.716100  1.0  0.0715
  C  C205  1  0.187700  0.511500  0.736600  1.0  -0.0865
  C  C206  1  0.217800  0.541500  0.775700  1.0  0.0323
  C  C207  1  0.283300  0.527200  0.785700  1.0  -0.0572
  C  C208  1  0.316500  0.487100  0.759900  1.0  -0.1339
  C  C209  1  0.333900  0.555800  0.817300  1.0  -0.1137
  C  C210  1  0.353600  0.607600  0.802800  1.0  -0.0597
  C  C211  1  0.419900  0.607800  0.873700  1.0  -0.0264
  C  C212  1  0.355800  0.533400  0.863800  1.0  -0.052
  C  C213  1  0.060400  0.685900  0.771300  1.0  0.7281
  C  C214  1  0.179900  0.579100  0.800600  1.0  0.0648
  C  C215  1  0.141400  0.616000  0.775300  1.0  -0.0333
  C  C216  1  0.097700  0.652200  0.798800  1.0  -0.0382
  C  C217  1  0.178500  0.578800  0.851800  1.0  -0.0477
  C  C218  1  0.094300  0.645600  0.851500  1.0  -0.0314
  C  C219  1  0.140400  0.613500  0.874800  1.0  -0.0845
  C  C220  1  0.136300  0.608800  0.934400  1.0  0.3523
  C  C221  1  0.369100  0.390400  0.572900  1.0  0.5143
  C  C222  1  0.402300  0.563200  0.889600  1.0  -0.1101
  C  C223  1  0.103500  0.368600  0.671100  1.0  -0.1228
  C  C224  1  0.074000  0.384500  0.628600  1.0  -0.071
  C  C225  1  0.095000  0.433800  0.613200  1.0  -0.1525
  C  C226  1  0.174900  0.439300  0.679900  1.0  0.1924
  C  C227  1  0.144700  0.460900  0.641500  1.0  -0.0885
  C  C228  1  0.158000  0.394700  0.695700  1.0  -0.0454
  C  C229  1  0.570300  0.178400  0.812400  1.0  0.6287
  C  C230  1  0.922600  0.819500  0.693000  1.0  0.7148
  C  C231  1  0.895800  0.865300  0.671700  1.0  -0.0242
  C  C232  1  0.941400  0.962800  0.568000  1.0  0.5739
  C  C233  1  0.568100  0.045100  0.933600  1.0  0.6759
  C  C234  1  0.940700  0.184800  0.774300  1.0  0.69
  C  C235  1  0.896100  0.145100  0.798500  1.0  -0.0784
  C  C236  1  0.898700  0.148400  0.852400  1.0  -0.0867
  C  C237  1  0.865700  0.111700  0.878600  1.0  0.0657
  C  C238  1  0.816800  0.081400  0.851400  1.0  -0.0645
  C  C239  1  0.816100  0.082200  0.799700  1.0  0.0867
  C  C240  1  0.856100  0.115100  0.774700  1.0  -0.0491
  C  C241  1  0.780800  0.040100  0.773000  1.0  0.0047
  C  C242  1  0.713100  0.029300  0.783900  1.0  0.0717
  C  C243  1  0.687700  0.988500  0.763400  1.0  -0.0861
  C  C244  1  0.717800  0.958500  0.724300  1.0  0.0317
  C  C245  1  0.783300  0.972800  0.714300  1.0  -0.0563
  C  C246  1  0.816500  0.012900  0.740100  1.0  -0.1339
  C  C247  1  0.833900  0.944200  0.682700  1.0  -0.1141
  C  C248  1  0.853600  0.892400  0.697200  1.0  -0.0598
  C  C249  1  0.919900  0.892200  0.626300  1.0  -0.0282
  C  C250  1  0.855800  0.966600  0.636200  1.0  -0.0528
  C  C251  1  0.560400  0.814100  0.728700  1.0  0.7283
  C  C252  1  0.679900  0.920900  0.699400  1.0  0.0646
  C  C253  1  0.641400  0.884000  0.724700  1.0  -0.0357
  C  C254  1  0.597700  0.847800  0.701200  1.0  -0.0379
  C  C255  1  0.678500  0.921200  0.648200  1.0  -0.0471
  C  C256  1  0.594300  0.854400  0.648500  1.0  -0.0301
  C  C257  1  0.640400  0.886500  0.625200  1.0  -0.086
  C  C258  1  0.636300  0.891200  0.565600  1.0  0.3512
  C  C259  1  0.869100  0.109600  0.927100  1.0  0.5156
  C  C260  1  0.902300  0.936800  0.610400  1.0  -0.111
  C  C261  1  0.603500  0.131400  0.828900  1.0  -0.1227
  C  C262  1  0.574000  0.115500  0.871400  1.0  -0.072
  C  C263  1  0.595000  0.066200  0.886800  1.0  -0.1513
  C  C264  1  0.674900  0.060700  0.820100  1.0  0.1925
  C  C265  1  0.644700  0.039100  0.858500  1.0  -0.087
  C  C266  1  0.658000  0.105300  0.804300  1.0  -0.0446
  C  C267  1  0.929700  0.821600  0.312400  1.0  0.6293
  C  C268  1  0.577400  0.180500  0.193000  1.0  0.7146
  C  C269  1  0.604200  0.134700  0.171700  1.0  -0.0246
  C  C270  1  0.558600  0.037200  0.068000  1.0  0.5732
  C  C271  1  0.931900  0.954900  0.433600  1.0  0.6756
  C  C272  1  0.559300  0.815200  0.274300  1.0  0.6902
  C  C273  1  0.603900  0.854900  0.298500  1.0  -0.0776
  C  C274  1  0.601300  0.851600  0.352400  1.0  -0.0863
  C  C275  1  0.634300  0.888300  0.378600  1.0  0.066
  C  C276  1  0.683200  0.918600  0.351400  1.0  -0.0641
  C  C277  1  0.683900  0.917800  0.299700  1.0  0.0872
  C  C278  1  0.643900  0.884900  0.274700  1.0  -0.0494
  C  C279  1  0.719200  0.959900  0.273000  1.0  0.0047
  C  C280  1  0.786900  0.970700  0.283900  1.0  0.0708
  C  C281  1  0.812300  0.011500  0.263400  1.0  -0.0873
  C  C282  1  0.782200  0.041500  0.224300  1.0  0.0326
  C  C283  1  0.716700  0.027200  0.214300  1.0  -0.0577
  C  C284  1  0.683500  0.987100  0.240100  1.0  -0.1313
  C  C285  1  0.666100  0.055800  0.182700  1.0  -0.1125
  C  C286  1  0.646400  0.107600  0.197200  1.0  -0.0586
  C  C287  1  0.580100  0.107800  0.126300  1.0  -0.0277
  C  C288  1  0.644200  0.033400  0.136200  1.0  -0.052
  C  C289  1  0.939600  0.185900  0.228700  1.0  0.7285
  C  C290  1  0.820100  0.079100  0.199400  1.0  0.0633
  C  C291  1  0.858600  0.116000  0.224700  1.0  -0.0352
  C  C292  1  0.902300  0.152200  0.201200  1.0  -0.0391
  C  C293  1  0.821500  0.078800  0.148200  1.0  -0.0474
  C  C294  1  0.905700  0.145600  0.148500  1.0  -0.0304
  C  C295  1  0.859600  0.113500  0.125200  1.0  -0.0853
  C  C296  1  0.863700  0.108800  0.065600  1.0  0.3526
  C  C297  1  0.630900  0.890400  0.427100  1.0  0.5153
  C  C298  1  0.597700  0.063200  0.110400  1.0  -0.1102
  C  C299  1  0.896500  0.868600  0.328900  1.0  -0.1236
  C  C300  1  0.926000  0.884500  0.371400  1.0  -0.0719
  C  C301  1  0.905000  0.933800  0.386800  1.0  -0.1506
  C  C302  1  0.825100  0.939300  0.320100  1.0  0.1921
  C  C303  1  0.855300  0.960900  0.358500  1.0  -0.0903
  C  C304  1  0.842000  0.894700  0.304300  1.0  -0.0448
  C  C305  1  0.570300  0.321600  0.812400  1.0  0.6284
  C  C306  1  0.922600  0.680500  0.693000  1.0  0.7149
  C  C307  1  0.895800  0.634700  0.671700  1.0  -0.0242
  C  C308  1  0.941400  0.537200  0.568000  1.0  0.5735
  C  C309  1  0.568100  0.454900  0.933600  1.0  0.6761
  C  C310  1  0.940700  0.315200  0.774300  1.0  0.6899
  C  C311  1  0.896100  0.354900  0.798500  1.0  -0.0774
  C  C312  1  0.898700  0.351600  0.852400  1.0  -0.0848
  C  C313  1  0.865700  0.388300  0.878600  1.0  0.0654
  C  C314  1  0.816800  0.418600  0.851400  1.0  -0.0648
  C  C315  1  0.816100  0.417800  0.799700  1.0  0.0868
  C  C316  1  0.856100  0.384900  0.774700  1.0  -0.0487
  C  C317  1  0.780800  0.459900  0.773000  1.0  0.0048
  C  C318  1  0.713100  0.470700  0.783900  1.0  0.0712
  C  C319  1  0.687700  0.511500  0.763400  1.0  -0.0863
  C  C320  1  0.717800  0.541500  0.724300  1.0  0.0319
  C  C321  1  0.783300  0.527200  0.714300  1.0  -0.0568
  C  C322  1  0.816500  0.487100  0.740100  1.0  -0.1338
  C  C323  1  0.833900  0.555800  0.682700  1.0  -0.1141
  C  C324  1  0.853600  0.607600  0.697200  1.0  -0.0594
  C  C325  1  0.919900  0.607800  0.626300  1.0  -0.0276
  C  C326  1  0.855800  0.533400  0.636200  1.0  -0.0528
  C  C327  1  0.560400  0.685900  0.728700  1.0  0.7282
  C  C328  1  0.679900  0.579100  0.699400  1.0  0.0647
  C  C329  1  0.641400  0.616000  0.724700  1.0  -0.0359
  C  C330  1  0.597700  0.652200  0.701200  1.0  -0.0381
  C  C331  1  0.678500  0.578800  0.648200  1.0  -0.0471
  C  C332  1  0.594300  0.645600  0.648500  1.0  -0.0313
  C  C333  1  0.640400  0.613500  0.625200  1.0  -0.085
  C  C334  1  0.636300  0.608800  0.565600  1.0  0.3514
  C  C335  1  0.869100  0.390400  0.927100  1.0  0.5158
  C  C336  1  0.902300  0.563200  0.610400  1.0  -0.1106
  C  C337  1  0.603500  0.368600  0.828900  1.0  -0.1226
  C  C338  1  0.574000  0.384500  0.871400  1.0  -0.0717
  C  C339  1  0.595000  0.433800  0.886800  1.0  -0.1512
  C  C340  1  0.674900  0.439300  0.820100  1.0  0.1924
  C  C341  1  0.644700  0.460900  0.858500  1.0  -0.0893
  C  C342  1  0.658000  0.394700  0.804300  1.0  -0.0453
  C  C343  1  0.929700  0.678400  0.312400  1.0  0.6293
  C  C344  1  0.577400  0.319500  0.193000  1.0  0.7146
  C  C345  1  0.604200  0.365300  0.171700  1.0  -0.025
  C  C346  1  0.558600  0.462800  0.068000  1.0  0.5735
  C  C347  1  0.931900  0.545100  0.433600  1.0  0.6753
  C  C348  1  0.559300  0.684800  0.274300  1.0  0.6902
  C  C349  1  0.603900  0.645100  0.298500  1.0  -0.0784
  C  C350  1  0.601300  0.648400  0.352400  1.0  -0.0886
  C  C351  1  0.634300  0.611700  0.378600  1.0  0.066
  C  C352  1  0.683200  0.581400  0.351400  1.0  -0.0639
  C  C353  1  0.683900  0.582200  0.299700  1.0  0.0871
  C  C354  1  0.643900  0.615100  0.274700  1.0  -0.0498
  C  C355  1  0.719200  0.540100  0.273000  1.0  0.0046
  C  C356  1  0.786900  0.529300  0.283900  1.0  0.0713
  C  C357  1  0.812300  0.488500  0.263400  1.0  -0.0871
  C  C358  1  0.782200  0.458500  0.224300  1.0  0.0324
  C  C359  1  0.716700  0.472800  0.214300  1.0  -0.0572
  C  C360  1  0.683500  0.512900  0.240100  1.0  -0.1312
  C  C361  1  0.666100  0.444200  0.182700  1.0  -0.1126
  C  C362  1  0.646400  0.392400  0.197200  1.0  -0.0587
  C  C363  1  0.580100  0.392200  0.126300  1.0  -0.0278
  C  C364  1  0.644200  0.466600  0.136200  1.0  -0.0521
  C  C365  1  0.939600  0.314100  0.228700  1.0  0.7286
  C  C366  1  0.820100  0.420900  0.199400  1.0  0.0631
  C  C367  1  0.858600  0.384000  0.224700  1.0  -0.035
  C  C368  1  0.902300  0.347800  0.201200  1.0  -0.039
  C  C369  1  0.821500  0.421200  0.148200  1.0  -0.0477
  C  C370  1  0.905700  0.354400  0.148500  1.0  -0.0297
  C  C371  1  0.859600  0.386500  0.125200  1.0  -0.0864
  C  C372  1  0.863700  0.391200  0.065600  1.0  0.3524
  C  C373  1  0.630900  0.609600  0.427100  1.0  0.5152
  C  C374  1  0.597700  0.436800  0.110400  1.0  -0.1105
  C  C375  1  0.896500  0.631400  0.328900  1.0  -0.1237
  C  C376  1  0.926000  0.615500  0.371400  1.0  -0.0717
  C  C377  1  0.905000  0.566200  0.386800  1.0  -0.1506
  C  C378  1  0.825100  0.560700  0.320100  1.0  0.1924
  C  C379  1  0.855300  0.539100  0.358500  1.0  -0.0877
  C  C380  1  0.842000  0.605300  0.304300  1.0  -0.0452
  C  C381  1  0.429700  0.821600  0.187600  1.0  0.6292
  C  C382  1  0.077400  0.180500  0.307000  1.0  0.7147
  C  C383  1  0.104200  0.134700  0.328300  1.0  -0.0249
  C  C384  1  0.058600  0.037200  0.432000  1.0  0.5734
  C  C385  1  0.431900  0.954900  0.066400  1.0  0.6755
  C  C386  1  0.059300  0.815200  0.225700  1.0  0.6902
  C  C387  1  0.103900  0.854900  0.201500  1.0  -0.0775
  C  C388  1  0.101300  0.851600  0.147600  1.0  -0.0861
  C  C389  1  0.134300  0.888300  0.121400  1.0  0.067
  C  C390  1  0.183200  0.918600  0.148600  1.0  -0.0641
  C  C391  1  0.183900  0.917800  0.200300  1.0  0.087
  C  C392  1  0.143900  0.884900  0.225300  1.0  -0.0492
  C  C393  1  0.219200  0.959900  0.227000  1.0  0.0049
  C  C394  1  0.286900  0.970700  0.216100  1.0  0.0709
  C  C395  1  0.312300  0.011500  0.236600  1.0  -0.0875
  C  C396  1  0.282200  0.041500  0.275700  1.0  0.0329
  C  C397  1  0.216700  0.027200  0.285700  1.0  -0.058
  C  C398  1  0.183500  0.987100  0.259900  1.0  -0.1315
  C  C399  1  0.166100  0.055800  0.317300  1.0  -0.1122
  C  C400  1  0.146400  0.107600  0.302800  1.0  -0.0595
  C  C401  1  0.080100  0.107800  0.373700  1.0  -0.027
  C  C402  1  0.144200  0.033400  0.363800  1.0  -0.0512
  C  C403  1  0.439600  0.185900  0.271300  1.0  0.7285
  C  C404  1  0.320100  0.079100  0.300600  1.0  0.0635
  C  C405  1  0.358600  0.116000  0.275300  1.0  -0.0327
  C  C406  1  0.402300  0.152200  0.298800  1.0  -0.0392
  C  C407  1  0.321500  0.078800  0.351800  1.0  -0.0477
  C  C408  1  0.405700  0.145600  0.351500  1.0  -0.03
  C  C409  1  0.359600  0.113500  0.374800  1.0  -0.0848
  C  C410  1  0.363700  0.108800  0.434400  1.0  0.3538
  C  C411  1  0.130900  0.890400  0.072900  1.0  0.5151
  C  C412  1  0.097700  0.063200  0.389600  1.0  -0.1098
  C  C413  1  0.396500  0.868600  0.171100  1.0  -0.1239
  C  C414  1  0.426000  0.884500  0.128600  1.0  -0.0713
  C  C415  1  0.405000  0.933800  0.113200  1.0  -0.1523
  C  C416  1  0.325100  0.939300  0.179900  1.0  0.1921
  C  C417  1  0.355300  0.960900  0.141500  1.0  -0.0894
  C  C418  1  0.342000  0.894700  0.195700  1.0  -0.045
  C  C419  1  0.070300  0.178400  0.687600  1.0  0.6285
  C  C420  1  0.422600  0.819500  0.807000  1.0  0.7151
  C  C421  1  0.395800  0.865300  0.828300  1.0  -0.0244
  C  C422  1  0.441400  0.962800  0.932000  1.0  0.5742
  C  C423  1  0.068100  0.045100  0.566400  1.0  0.6758
  C  C424  1  0.440700  0.184800  0.725700  1.0  0.69
  C  C425  1  0.396100  0.145100  0.701500  1.0  -0.0787
  C  C426  1  0.398700  0.148400  0.647600  1.0  -0.0867
  C  C427  1  0.365700  0.111700  0.621400  1.0  0.0667
  C  C428  1  0.316800  0.081400  0.648600  1.0  -0.0635
  C  C429  1  0.316100  0.082200  0.700300  1.0  0.0866
  C  C430  1  0.356100  0.115100  0.725300  1.0  -0.049
  C  C431  1  0.280800  0.040100  0.727000  1.0  0.0048
  C  C432  1  0.213100  0.029300  0.716100  1.0  0.072
  C  C433  1  0.187700  0.988500  0.736600  1.0  -0.0864
  C  C434  1  0.217800  0.958500  0.775700  1.0  0.0321
  C  C435  1  0.283300  0.972800  0.785700  1.0  -0.0567
  C  C436  1  0.316500  0.012900  0.759900  1.0  -0.1341
  C  C437  1  0.333900  0.944200  0.817300  1.0  -0.1137
  C  C438  1  0.353600  0.892400  0.802800  1.0  -0.0606
  C  C439  1  0.419900  0.892200  0.873700  1.0  -0.0266
  C  C440  1  0.355800  0.966600  0.863800  1.0  -0.0529
  C  C441  1  0.060400  0.814100  0.771300  1.0  0.7282
  C  C442  1  0.179900  0.920900  0.800600  1.0  0.0647
  C  C443  1  0.141400  0.884000  0.775300  1.0  -0.0328
  C  C444  1  0.097700  0.847800  0.798800  1.0  -0.038
  C  C445  1  0.178500  0.921200  0.851800  1.0  -0.0476
  C  C446  1  0.094300  0.854400  0.851500  1.0  -0.0305
  C  C447  1  0.140400  0.886500  0.874800  1.0  -0.0843
  C  C448  1  0.136300  0.891200  0.934400  1.0  0.3521
  C  C449  1  0.369100  0.109600  0.572900  1.0  0.5141
  C  C450  1  0.402300  0.936800  0.889600  1.0  -0.1112
  C  C451  1  0.103500  0.131400  0.671100  1.0  -0.1228
  C  C452  1  0.074000  0.115500  0.628600  1.0  -0.0709
  C  C453  1  0.095000  0.066200  0.613200  1.0  -0.153
  C  C454  1  0.174900  0.060700  0.679900  1.0  0.1925
  C  C455  1  0.144700  0.039100  0.641500  1.0  -0.087
  C  C456  1  0.158000  0.105300  0.695700  1.0  -0.0458
  O  O457  1  0.401500  0.696500  0.229500  1.0  -0.5637
  O  O458  1  0.475600  0.698100  0.164400  1.0  -0.5625
  O  O459  1  0.007200  0.699200  0.206800  1.0  -0.5496
  O  O460  1  0.081500  0.697400  0.269600  1.0  -0.5728
  O  O461  1  0.026900  0.300800  0.332400  1.0  -0.5875
  O  O462  1  0.101400  0.302200  0.269400  1.0  -0.5417
  O  O463  1  0.423000  0.300200  0.229500  1.0  -0.5596
  O  O464  1  0.492400  0.298700  0.293700  1.0  -0.6072
  O  O465  1  0.016000  0.434200  0.449400  1.0  -0.5822
  O  O466  1  0.487400  0.562800  0.051100  1.0  -0.6005
  O  O467  1  0.412800  0.503100  0.051800  1.0  -0.5925
  O  O468  1  0.334100  0.428100  0.453800  1.0  -0.5015
  O  O469  1  0.397500  0.354300  0.452900  1.0  -0.5031
  O  O470  1  0.184400  0.590500  0.045600  1.0  -0.5258
  O  O471  1  0.077100  0.623200  0.048400  1.0  -0.471
  O  O472  1  0.085900  0.495800  0.447500  1.0  -0.5652
  O  O473  1  0.098500  0.303500  0.729500  1.0  -0.5627
  O  O474  1  0.024400  0.301900  0.664400  1.0  -0.5616
  O  O475  1  0.492800  0.300800  0.706800  1.0  -0.5506
  O  O476  1  0.418500  0.302600  0.769600  1.0  -0.5728
  O  O477  1  0.473100  0.699200  0.832400  1.0  -0.5865
  O  O478  1  0.398600  0.697800  0.769400  1.0  -0.5413
  O  O479  1  0.077000  0.699800  0.729500  1.0  -0.5593
  O  O480  1  0.007600  0.701300  0.793700  1.0  -0.6062
  O  O481  1  0.484000  0.565800  0.949400  1.0  -0.582
  O  O482  1  0.012600  0.437200  0.551100  1.0  -0.5989
  O  O483  1  0.087200  0.496900  0.551800  1.0  -0.5928
  O  O484  1  0.165900  0.571900  0.953800  1.0  -0.502
  O  O485  1  0.102500  0.645700  0.952900  1.0  -0.5007
  O  O486  1  0.315600  0.409500  0.545600  1.0  -0.5226
  O  O487  1  0.422900  0.376800  0.548400  1.0  -0.4727
  O  O488  1  0.414100  0.504200  0.947500  1.0  -0.5624
  O  O489  1  0.598500  0.196500  0.770500  1.0  -0.5641
  O  O490  1  0.524400  0.198100  0.835600  1.0  -0.5616
  O  O491  1  0.992800  0.199200  0.793200  1.0  -0.5504
  O  O492  1  0.918500  0.197400  0.730400  1.0  -0.5714
  O  O493  1  0.973100  0.800800  0.667600  1.0  -0.5877
  O  O494  1  0.898600  0.802200  0.730600  1.0  -0.5415
  O  O495  1  0.577000  0.800200  0.770500  1.0  -0.5594
  O  O496  1  0.507600  0.798700  0.706300  1.0  -0.6069
  O  O497  1  0.984000  0.934200  0.550600  1.0  -0.5823
  O  O498  1  0.512600  0.062800  0.948900  1.0  -0.5997
  O  O499  1  0.587200  0.003100  0.948200  1.0  -0.5929
  O  O500  1  0.665900  0.928100  0.546200  1.0  -0.4995
  O  O501  1  0.602500  0.854300  0.547100  1.0  -0.502
  O  O502  1  0.815600  0.090500  0.954400  1.0  -0.5221
  O  O503  1  0.922900  0.123200  0.951600  1.0  -0.4741
  O  O504  1  0.914100  0.995800  0.552500  1.0  -0.5643
  O  O505  1  0.901500  0.803500  0.270500  1.0  -0.5643
  O  O506  1  0.975600  0.801900  0.335600  1.0  -0.5613
  O  O507  1  0.507200  0.800800  0.293200  1.0  -0.5496
  O  O508  1  0.581500  0.802600  0.230400  1.0  -0.5711
  O  O509  1  0.526900  0.199200  0.167600  1.0  -0.5884
  O  O510  1  0.601400  0.197800  0.230600  1.0  -0.542
  O  O511  1  0.923000  0.199800  0.270500  1.0  -0.5596
  O  O512  1  0.992400  0.201300  0.206300  1.0  -0.6075
  O  O513  1  0.516000  0.065800  0.050600  1.0  -0.5825
  O  O514  1  0.987400  0.937200  0.448900  1.0  -0.5995
  O  O515  1  0.912800  0.996900  0.448200  1.0  -0.5938
  O  O516  1  0.834100  0.071900  0.046200  1.0  -0.5014
  O  O517  1  0.897500  0.145700  0.047100  1.0  -0.5008
  O  O518  1  0.684400  0.909500  0.454400  1.0  -0.5247
  O  O519  1  0.577100  0.876800  0.451600  1.0  -0.4748
  O  O520  1  0.585900  0.004200  0.052500  1.0  -0.5635
  O  O521  1  0.598500  0.303500  0.770500  1.0  -0.564
  O  O522  1  0.524400  0.301900  0.835600  1.0  -0.5613
  O  O523  1  0.992800  0.300800  0.793200  1.0  -0.5483
  O  O524  1  0.918500  0.302600  0.730400  1.0  -0.5708
  O  O525  1  0.973100  0.699200  0.667600  1.0  -0.5863
  O  O526  1  0.898600  0.697800  0.730600  1.0  -0.5417
  O  O527  1  0.577000  0.699800  0.770500  1.0  -0.5594
  O  O528  1  0.507600  0.701300  0.706300  1.0  -0.6066
  O  O529  1  0.984000  0.565800  0.550600  1.0  -0.5823
  O  O530  1  0.512600  0.437200  0.948900  1.0  -0.5994
  O  O531  1  0.587200  0.496900  0.948200  1.0  -0.5927
  O  O532  1  0.665900  0.571900  0.546200  1.0  -0.5001
  O  O533  1  0.602500  0.645700  0.547100  1.0  -0.5012
  O  O534  1  0.815600  0.409500  0.954400  1.0  -0.5217
  O  O535  1  0.922900  0.376800  0.951600  1.0  -0.4743
  O  O536  1  0.914100  0.504200  0.552500  1.0  -0.5627
  O  O537  1  0.901500  0.696500  0.270500  1.0  -0.5642
  O  O538  1  0.975600  0.698100  0.335600  1.0  -0.5613
  O  O539  1  0.507200  0.699200  0.293200  1.0  -0.5471
  O  O540  1  0.581500  0.697400  0.230400  1.0  -0.5711
  O  O541  1  0.526900  0.300800  0.167600  1.0  -0.5868
  O  O542  1  0.601400  0.302200  0.230600  1.0  -0.5421
  O  O543  1  0.923000  0.300200  0.270500  1.0  -0.5601
  O  O544  1  0.992400  0.298700  0.206300  1.0  -0.6079
  O  O545  1  0.516000  0.434200  0.050600  1.0  -0.5822
  O  O546  1  0.987400  0.562800  0.448900  1.0  -0.6011
  O  O547  1  0.912800  0.503100  0.448200  1.0  -0.5924
  O  O548  1  0.834100  0.428100  0.046200  1.0  -0.5005
  O  O549  1  0.897500  0.354300  0.047100  1.0  -0.5029
  O  O550  1  0.684400  0.590500  0.454400  1.0  -0.525
  O  O551  1  0.577100  0.623200  0.451600  1.0  -0.4747
  O  O552  1  0.585900  0.495800  0.052500  1.0  -0.5646
  O  O553  1  0.401500  0.803500  0.229500  1.0  -0.5624
  O  O554  1  0.475600  0.801900  0.164400  1.0  -0.5622
  O  O555  1  0.007200  0.800800  0.206800  1.0  -0.5488
  O  O556  1  0.081500  0.802600  0.269600  1.0  -0.5724
  O  O557  1  0.026900  0.199200  0.332400  1.0  -0.5875
  O  O558  1  0.101400  0.197800  0.269400  1.0  -0.5414
  O  O559  1  0.423000  0.199800  0.229500  1.0  -0.5592
  O  O560  1  0.492400  0.201300  0.293700  1.0  -0.607
  O  O561  1  0.016000  0.065800  0.449400  1.0  -0.5822
  O  O562  1  0.487400  0.937200  0.051100  1.0  -0.5991
  O  O563  1  0.412800  0.996900  0.051800  1.0  -0.5935
  O  O564  1  0.334100  0.071900  0.453800  1.0  -0.5027
  O  O565  1  0.397500  0.145700  0.452900  1.0  -0.5005
  O  O566  1  0.184400  0.909500  0.045600  1.0  -0.5257
  O  O567  1  0.077100  0.876800  0.048400  1.0  -0.4715
  O  O568  1  0.085900  0.004200  0.447500  1.0  -0.5639
  O  O569  1  0.098500  0.196500  0.729500  1.0  -0.5628
  O  O570  1  0.024400  0.198100  0.664400  1.0  -0.5617
  O  O571  1  0.492800  0.199200  0.706800  1.0  -0.5499
  O  O572  1  0.418500  0.197400  0.769600  1.0  -0.573
  O  O573  1  0.473100  0.800800  0.832400  1.0  -0.5869
  O  O574  1  0.398600  0.802200  0.769400  1.0  -0.5421
  O  O575  1  0.077000  0.800200  0.729500  1.0  -0.5595
  O  O576  1  0.007600  0.798700  0.793700  1.0  -0.6063
  O  O577  1  0.484000  0.934200  0.949400  1.0  -0.5822
  O  O578  1  0.012600  0.062800  0.551100  1.0  -0.5992
  O  O579  1  0.087200  0.003100  0.551800  1.0  -0.5931
  O  O580  1  0.165900  0.928100  0.953800  1.0  -0.5013
  O  O581  1  0.102500  0.854300  0.952900  1.0  -0.502
  O  O582  1  0.315600  0.090500  0.545600  1.0  -0.5226
  O  O583  1  0.422900  0.123200  0.548400  1.0  -0.4727
  O  O584  1  0.414100  0.995800  0.947500  1.0  -0.5646
