# generated using pymatgen
data_Er(C2O3)2
_symmetry_space_group_name_H-M   'P 1'
_cell_length_a   6.17300000
_cell_length_b   9.04500000
_cell_length_c   14.65400000
_cell_angle_alpha   90.00000000
_cell_angle_beta   93.92000000
_cell_angle_gamma   90.00000000
_symmetry_Int_Tables_number   1
_chemical_formula_structural   Er(C2O3)2
_chemical_formula_sum   'Er4 C16 O24'
_cell_volume   816.28873417
_cell_formula_units_Z   4
loop_
 _symmetry_equiv_pos_site_id
 _symmetry_equiv_pos_as_xyz
  1  'x, y, z'
loop_
 _atom_site_type_symbol
 _atom_site_label
 _atom_site_symmetry_multiplicity
 _atom_site_fract_x
 _atom_site_fract_y
 _atom_site_fract_z
 _atom_site_occupancy
 _atom_site_charge
  Er  Er1  1  0.076600  0.080000  0.114400  1.0  1.4742
  Er  Er2  1  0.923400  0.580000  0.385600  1.0  1.4739
  Er  Er3  1  0.923400  0.920000  0.885600  1.0  1.4736
  Er  Er4  1  0.076600  0.420000  0.614400  1.0  1.4739
  C  C5  1  0.903500  0.768900  0.185900  1.0  0.617
  C  C6  1  0.885300  0.752100  0.081500  1.0  0.2534
  C  C7  1  0.592800  0.219200  0.105700  1.0  0.7187
  C  C8  1  0.715600  0.355400  0.084200  1.0  0.1091
  C  C9  1  0.096500  0.268900  0.314100  1.0  0.6147
  C  C10  1  0.114700  0.252100  0.418500  1.0  0.2537
  C  C11  1  0.407200  0.719200  0.394300  1.0  0.7175
  C  C12  1  0.284400  0.855400  0.415800  1.0  0.1091
  C  C13  1  0.096500  0.231100  0.814100  1.0  0.6151
  C  C14  1  0.114700  0.247900  0.918500  1.0  0.2554
  C  C15  1  0.407200  0.780800  0.894300  1.0  0.7166
  C  C16  1  0.284400  0.644600  0.915800  1.0  0.1113
  C  C17  1  0.903500  0.731100  0.685900  1.0  0.6159
  C  C18  1  0.885300  0.747900  0.581500  1.0  0.2544
  C  C19  1  0.592800  0.280800  0.605700  1.0  0.7191
  C  C20  1  0.715600  0.144600  0.584200  1.0  0.1113
  O  O21  1  0.860400  0.659400  0.234400  1.0  -0.5938
  O  O22  1  0.967500  0.893000  0.215100  1.0  -0.5005
  O  O23  1  0.955200  0.877500  0.036400  1.0  -0.5377
  O  O24  1  0.392600  0.226700  0.101800  1.0  -0.625
  O  O25  1  0.706000  0.115000  0.124700  1.0  -0.5864
  O  O26  1  0.945500  0.338800  0.106400  1.0  -0.3278
  O  O27  1  0.139600  0.159400  0.265600  1.0  -0.587
  O  O28  1  0.032500  0.393000  0.284900  1.0  -0.4995
  O  O29  1  0.044800  0.377500  0.463600  1.0  -0.5404
  O  O30  1  0.607400  0.726700  0.398200  1.0  -0.626
  O  O31  1  0.294000  0.615000  0.375300  1.0  -0.5868
  O  O32  1  0.054500  0.838800  0.393600  1.0  -0.3301
  O  O33  1  0.139600  0.340600  0.765600  1.0  -0.5842
  O  O34  1  0.032500  0.107000  0.784900  1.0  -0.4989
  O  O35  1  0.044800  0.122500  0.963600  1.0  -0.5432
  O  O36  1  0.607400  0.773300  0.898200  1.0  -0.6261
  O  O37  1  0.294000  0.885000  0.875300  1.0  -0.5875
  O  O38  1  0.054500  0.661200  0.893600  1.0  -0.3322
  O  O39  1  0.860400  0.840600  0.734400  1.0  -0.5901
  O  O40  1  0.967500  0.607000  0.715100  1.0  -0.5018
  O  O41  1  0.955200  0.622500  0.536400  1.0  -0.5402
  O  O42  1  0.392600  0.273300  0.601800  1.0  -0.625
  O  O43  1  0.706000  0.385000  0.624700  1.0  -0.5873
  O  O44  1  0.945500  0.161200  0.606400  1.0  -0.3301
