# generated using pymatgen
data_Ti6Cu2P2H43C34I2(N2O9)2
_symmetry_space_group_name_H-M   'P 1'
_cell_length_a   13.52700000
_cell_length_b   25.84700000
_cell_length_c   26.65700000
_cell_angle_alpha   98.87000000
_cell_angle_beta   103.89200000
_cell_angle_gamma   103.72500000
_symmetry_Int_Tables_number   1
_chemical_formula_structural   Ti6Cu2P2H43C34I2(N2O9)2
_chemical_formula_sum   'Ti24 Cu8 P8 H172 C136 I8 N16 O72'
_cell_volume   8566.02232335
_cell_formula_units_Z   4
loop_
 _symmetry_equiv_pos_site_id
 _symmetry_equiv_pos_as_xyz
  1  'x, y, z'
loop_
 _atom_site_type_symbol
 _atom_site_label
 _atom_site_symmetry_multiplicity
 _atom_site_fract_x
 _atom_site_fract_y
 _atom_site_fract_z
 _atom_site_occupancy
 _atom_site_charge
  Ti  Ti1  1  0.516850  0.121400  0.549750  1.0  1.7575
  Ti  Ti2  1  0.100390  0.081170  0.085260  1.0  1.7339
  Ti  Ti3  1  0.662890  0.075590  0.491560  1.0  1.7954
  Ti  Ti4  1  0.366420  0.035100  0.450320  1.0  1.5676
  Ti  Ti5  1  0.383130  0.425960  0.429860  1.0  1.5875
  Ti  Ti6  1  0.846500  0.967940  0.030290  1.0  1.5705
  Ti  Ti7  1  0.361350  0.555520  0.503300  1.0  1.7508
  Ti  Ti8  1  0.052950  0.963740  0.108560  1.0  1.8129
  Ti  Ti9  1  0.292310  0.438330  0.525590  1.0  1.694
  Ti  Ti10  1  0.490270  0.472510  0.081360  1.0  1.5977
  Ti  Ti11  1  0.501000  0.403250  0.949330  1.0  1.7241
  Ti  Ti12  1  0.690820  0.457970  0.052490  1.0  1.759
  Ti  Ti13  1  0.483150  0.878600  0.450250  1.0  1.7522
  Ti  Ti14  1  0.899610  0.918830  0.914740  1.0  1.7289
  Ti  Ti15  1  0.337110  0.924410  0.508440  1.0  1.8023
  Ti  Ti16  1  0.633580  0.964900  0.549680  1.0  1.5609
  Ti  Ti17  1  0.616870  0.574040  0.570140  1.0  1.576
  Ti  Ti18  1  0.153500  0.032060  0.969710  1.0  1.549
  Ti  Ti19  1  0.638650  0.444480  0.496700  1.0  1.748
  Ti  Ti20  1  0.947050  0.036260  0.891440  1.0  1.8143
  Ti  Ti21  1  0.707690  0.561670  0.474410  1.0  1.6929
  Ti  Ti22  1  0.509730  0.527490  0.918640  1.0  1.6031
  Ti  Ti23  1  0.499000  0.596750  0.050670  1.0  1.7339
  Ti  Ti24  1  0.309180  0.542030  0.947510  1.0  1.7778
  Cu  Cu25  1  0.672070  0.241260  0.293690  1.0  0.1122
  Cu  Cu26  1  0.683090  0.242880  0.196200  1.0  0.1164
  Cu  Cu27  1  0.814340  0.200750  0.255200  1.0  0.137
  Cu  Cu28  1  0.843580  0.304950  0.283910  1.0  0.1492
  Cu  Cu29  1  0.327930  0.758740  0.706310  1.0  0.1123
  Cu  Cu30  1  0.316910  0.757120  0.803800  1.0  0.1164
  Cu  Cu31  1  0.185660  0.799250  0.744800  1.0  0.1359
  Cu  Cu32  1  0.156420  0.695050  0.716090  1.0  0.1486
  P  P33  1  0.289600  0.420460  0.977460  1.0  1.5304
  P  P34  1  0.508000  0.982750  0.388600  1.0  1.4965
  P  P35  1  0.461900  0.544400  0.404210  1.0  1.5431
  P  P36  1  0.888500  0.085850  0.001070  1.0  1.5086
  P  P37  1  0.710400  0.579540  0.022540  1.0  1.5306
  P  P38  1  0.492000  0.017250  0.611400  1.0  1.4948
  P  P39  1  0.538100  0.455600  0.595790  1.0  1.5422
  P  P40  1  0.111500  0.914150  0.998930  1.0  1.5082
  H  H41  1  0.889500  0.407700  0.250100  1.0  0.0686
  H  H42  1  0.992900  0.496300  0.280400  1.0  0.0749
  H  H43  1  0.836500  0.024900  0.296800  1.0  0.0862
  H  H44  1  0.019300  0.373800  0.384200  1.0  0.0701
  H  H45  1  0.558000  0.581500  0.327300  1.0  0.0677
  H  H46  1  0.505500  0.613300  0.252000  1.0  0.0976
  H  H47  1  0.332700  0.607600  0.218600  1.0  0.0759
  H  H48  1  0.212400  0.578700  0.259500  1.0  0.0938
  H  H49  1  0.265700  0.554100  0.344100  1.0  0.1035
  H  H50  1  0.313800  0.582500  0.604900  1.0  0.0723
  H  H51  1  0.321100  0.489700  0.647700  1.0  0.1027
  H  H52  1  0.333400  0.548700  0.681700  1.0  0.1038
  H  H53  1  0.420500  0.540100  0.652400  1.0  0.0988
  H  H54  1  0.129900  0.496100  0.583200  1.0  0.0914
  H  H55  1  0.141400  0.551900  0.563100  1.0  0.0902
  H  H56  1  0.155100  0.552800  0.624600  1.0  0.0884
  H  H57  1  0.321000  0.313900  0.437800  1.0  0.0743
  H  H58  1  0.365700  0.330700  0.542900  1.0  0.0968
  H  H59  1  0.426800  0.310700  0.502600  1.0  0.0925
  H  H60  1  0.323700  0.269200  0.508400  1.0  0.0796
  H  H61  1  0.160400  0.259100  0.452900  1.0  0.0999
  H  H62  1  0.156000  0.292900  0.407300  1.0  0.1105
  H  H63  1  0.136700  0.317100  0.462000  1.0  0.1096
  H  H64  1  0.659300  0.317900  0.123600  1.0  0.0735
  H  H65  1  0.390800  0.170400  0.028000  1.0  0.0558
  H  H66  1  0.495300  0.166500  0.107200  1.0  0.0723
  H  H67  1  0.098200  0.374100  0.890100  1.0  0.089
  H  H68  1  0.942600  0.303200  0.874200  1.0  0.0836
  H  H69  1  0.918400  0.254700  0.939700  1.0  0.0852
  H  H70  1  0.049900  0.277200  0.021000  1.0  0.0874
  H  H71  1  0.205600  0.348100  0.037000  1.0  0.0954
  H  H72  1  0.785600  0.521500  0.161900  1.0  0.0724
  H  H73  1  0.694000  0.563700  0.222600  1.0  0.0818
  H  H74  1  0.639200  0.567900  0.163700  1.0  0.0868
  H  H75  1  0.765400  0.591100  0.188400  1.0  0.0966
  H  H76  1  0.781700  0.487700  0.232500  1.0  0.083
  H  H77  1  0.736700  0.439300  0.180400  1.0  0.0907
  H  H78  1  0.656600  0.458600  0.209400  1.0  0.0905
  H  H79  1  0.824100  0.472700  0.940900  1.0  0.1349
  H  H80  1  0.702900  0.454500  0.905200  1.0  0.1149
  H  H81  1  0.782200  0.420700  0.892100  1.0  0.107
  H  H82  1  0.769200  0.344100  0.917300  1.0  0.0972
  H  H83  1  0.672900  0.330400  0.942800  1.0  0.1066
  H  H84  1  0.792800  0.352700  0.980300  1.0  0.1126
  H  H85  1  0.796400  0.106100  0.302700  1.0  0.0626
  H  H86  1  0.941600  0.143300  0.196700  1.0  0.0932
  H  H87  1  0.752800  0.115400  0.920300  1.0  0.0781
  H  H88  1  0.654900  0.179800  0.914900  1.0  0.1035
  H  H89  1  0.664400  0.237900  0.991600  1.0  0.0878
  H  H90  1  0.767500  0.234000  0.070500  1.0  0.0869
  H  H91  1  0.866000  0.171300  0.075200  1.0  0.0796
  H  H92  1  0.303100  0.082200  0.144100  1.0  0.0636
  H  H93  1  0.291300  0.032400  0.224900  1.0  0.0999
  H  H94  1  0.248700  0.083500  0.214000  1.0  0.0806
  H  H95  1  0.372400  0.088400  0.224300  1.0  0.0668
  H  H96  1  0.417400  0.045300  0.143200  1.0  0.0851
  H  H97  1  0.321100  0.025000  0.089600  1.0  0.0878
  H  H98  1  0.334400  0.986100  0.130500  1.0  0.0863
  H  H99  1  0.916000  0.861000  0.100400  1.0  0.0981
  H  H100  1  0.739500  0.838500  0.114300  1.0  0.0865
  H  H101  1  0.795600  0.902900  0.133100  1.0  0.0994
  H  H102  1  0.858000  0.861200  0.153400  1.0  0.0917
  H  H103  1  0.845100  0.793000  0.054600  1.0  0.1079
  H  H104  1  0.907000  0.836200  0.027500  1.0  0.1033
  H  H105  1  0.535300  0.303000  0.339300  1.0  0.086
  H  H106  1  0.470200  0.307900  0.411300  1.0  0.0698
  H  H107  1  0.632500  0.176900  0.374700  1.0  0.0659
  H  H108  1  0.556800  0.048500  0.314000  1.0  0.0881
  H  H109  1  0.567900  0.029000  0.229300  1.0  0.0772
  H  H110  1  0.542600  0.943400  0.186000  1.0  0.0946
  H  H111  1  0.477500  0.871000  0.220900  1.0  0.1003
  H  H112  1  0.483700  0.888700  0.311900  1.0  0.0885
  H  H113  1  0.310000  0.119400  0.565200  1.0  0.0515
  H  H114  1  0.228400  0.141700  0.469600  1.0  0.0868
  H  H115  1  0.317400  0.181100  0.521000  1.0  0.0815
  H  H116  1  0.197200  0.159800  0.522500  1.0  0.078
  H  H117  1  0.148000  0.068100  0.545400  1.0  0.0973
  H  H118  1  0.237600  0.036900  0.554400  1.0  0.0864
  H  H119  1  0.166200  0.032300  0.495700  1.0  0.1061
  H  H120  1  0.814700  0.142800  0.587400  1.0  0.0587
  H  H121  1  0.750000  0.234600  0.592200  1.0  0.0826
  H  H122  1  0.820800  0.213100  0.558300  1.0  0.0822
  H  H123  1  0.868000  0.234300  0.621200  1.0  0.0973
  H  H124  1  0.698600  0.138600  0.653200  1.0  0.0929
  H  H125  1  0.820700  0.174000  0.675200  1.0  0.0901
  H  H126  1  0.789900  0.111100  0.645600  1.0  0.09
  H  H127  1  0.110500  0.592300  0.749900  1.0  0.0691
  H  H128  1  0.007100  0.503700  0.719600  1.0  0.0749
  H  H129  1  0.163500  0.975100  0.703200  1.0  0.0861
  H  H130  1  0.980700  0.626200  0.615800  1.0  0.0701
  H  H131  1  0.442000  0.418500  0.672700  1.0  0.0675
  H  H132  1  0.494500  0.386700  0.748000  1.0  0.0983
  H  H133  1  0.667300  0.392400  0.781400  1.0  0.0763
  H  H134  1  0.787600  0.421300  0.740500  1.0  0.0945
  H  H135  1  0.734300  0.445900  0.655900  1.0  0.1038
  H  H136  1  0.686200  0.417500  0.395100  1.0  0.0706
  H  H137  1  0.678900  0.510300  0.352300  1.0  0.1031
  H  H138  1  0.666667  0.451300  0.318300  1.0  0.1036
  H  H139  1  0.579500  0.459900  0.347600  1.0  0.0982
  H  H140  1  0.870100  0.503900  0.416800  1.0  0.0939
  H  H141  1  0.858600  0.448100  0.436900  1.0  0.0897
  H  H142  1  0.844900  0.447200  0.375400  1.0  0.0878
  H  H143  1  0.679000  0.686100  0.562200  1.0  0.0729
  H  H144  1  0.634300  0.669300  0.457100  1.0  0.0968
  H  H145  1  0.573200  0.689300  0.497400  1.0  0.0916
  H  H146  1  0.676300  0.730800  0.491600  1.0  0.0788
  H  H147  1  0.839600  0.740900  0.547100  1.0  0.1021
  H  H148  1  0.844000  0.707100  0.592700  1.0  0.1111
  H  H149  1  0.863300  0.682900  0.538000  1.0  0.1091
  H  H150  1  0.340700  0.682100  0.876400  1.0  0.074
  H  H151  1  0.609200  0.829600  0.972000  1.0  0.0553
  H  H152  1  0.504700  0.833500  0.892800  1.0  0.0728
  H  H153  1  0.901800  0.625900  0.109900  1.0  0.0887
  H  H154  1  0.057400  0.696800  0.125800  1.0  0.0847
  H  H155  1  0.081600  0.745300  0.060300  1.0  0.0851
  H  H156  1  0.950100  0.722800  0.979000  1.0  0.0881
  H  H157  1  0.794400  0.651900  0.963000  1.0  0.0951
  H  H158  1  0.214400  0.478500  0.838100  1.0  0.0729
  H  H159  1  0.306000  0.436300  0.777400  1.0  0.081
  H  H160  1  0.360800  0.432100  0.836300  1.0  0.0834
  H  H161  1  0.234600  0.408900  0.811600  1.0  0.0939
  H  H162  1  0.218300  0.512300  0.767500  1.0  0.0825
  H  H163  1  0.263300  0.560700  0.819600  1.0  0.0927
  H  H164  1  0.343400  0.541400  0.790600  1.0  0.0906
  H  H165  1  0.175900  0.527300  0.059100  1.0  0.1325
  H  H166  1  0.297100  0.545500  0.094800  1.0  0.1145
  H  H167  1  0.217800  0.579300  0.107900  1.0  0.1084
  H  H168  1  0.230800  0.655900  0.082700  1.0  0.0988
  H  H169  1  0.327100  0.669600  0.057200  1.0  0.1055
  H  H170  1  0.207200  0.647300  0.019700  1.0  0.1117
  H  H171  1  0.203600  0.893900  0.697300  1.0  0.0618
  H  H172  1  0.058400  0.856700  0.803300  1.0  0.0936
  H  H173  1  0.247200  0.884600  0.079700  1.0  0.0774
  H  H174  1  0.345100  0.820200  0.085100  1.0  0.1029
  H  H175  1  0.335600  0.762100  0.008400  1.0  0.0883
  H  H176  1  0.232500  0.766000  0.929500  1.0  0.0857
  H  H177  1  0.134000  0.828700  0.924800  1.0  0.0787
  H  H178  1  0.696900  0.917800  0.855900  1.0  0.0639
  H  H179  1  0.708700  0.967600  0.775100  1.0  0.0989
  H  H180  1  0.751300  0.916500  0.786000  1.0  0.0812
  H  H181  1  0.627600  0.911600  0.775700  1.0  0.0671
  H  H182  1  0.582600  0.954700  0.856800  1.0  0.0858
  H  H183  1  0.678900  0.975000  0.910400  1.0  0.0888
  H  H184  1  0.665600  0.013900  0.869500  1.0  0.0904
  H  H185  1  0.084000  0.139000  0.899600  1.0  0.0944
  H  H186  1  0.260500  0.161500  0.885700  1.0  0.0876
  H  H187  1  0.204400  0.097100  0.866900  1.0  0.0958
  H  H188  1  0.142000  0.138800  0.846600  1.0  0.091
  H  H189  1  0.154900  0.207000  0.945400  1.0  0.112
  H  H190  1  0.093000  0.163800  0.972500  1.0  0.1033
  H  H191  1  0.464700  0.697000  0.660700  1.0  0.0863
  H  H192  1  0.529800  0.692100  0.588700  1.0  0.0698
  H  H193  1  0.367500  0.823100  0.625300  1.0  0.0656
  H  H194  1  0.443200  0.951500  0.686000  1.0  0.0884
  H  H195  1  0.432100  0.971000  0.770700  1.0  0.0773
  H  H196  1  0.457400  0.056600  0.814000  1.0  0.0944
  H  H197  1  0.522500  0.129000  0.779100  1.0  0.1
  H  H198  1  0.516300  0.111300  0.688100  1.0  0.0894
  H  H199  1  0.690000  0.880600  0.434800  1.0  0.0472
  H  H200  1  0.771600  0.858300  0.530400  1.0  0.0862
  H  H201  1  0.682600  0.818900  0.479000  1.0  0.0813
  H  H202  1  0.802800  0.840200  0.477500  1.0  0.0814
  H  H203  1  0.852000  0.931900  0.454600  1.0  0.1016
  H  H204  1  0.762400  0.963100  0.445600  1.0  0.089
  H  H205  1  0.833800  0.967700  0.504300  1.0  0.1066
  H  H206  1  0.185300  0.857200  0.412600  1.0  0.0572
  H  H207  1  0.250000  0.765400  0.407800  1.0  0.0812
  H  H208  1  0.179200  0.786900  0.441700  1.0  0.0812
  H  H209  1  0.132000  0.765700  0.378800  1.0  0.0943
  H  H210  1  0.301400  0.861400  0.346800  1.0  0.0915
  H  H211  1  0.179300  0.826000  0.324800  1.0  0.0889
  H  H212  1  0.210100  0.888900  0.354400  1.0  0.092
  C  C213  1  0.937700  0.418300  0.284700  1.0  0.1116
  C  C214  1  0.998900  0.471600  0.303100  1.0  0.0836
  C  C215  1  0.072500  0.451900  0.380800  1.0  0.1217
  C  C216  1  0.857100  0.048400  0.274700  1.0  0.0881
  C  C217  1  0.012200  0.399000  0.362100  1.0  0.1404
  C  C218  1  0.154700  0.471100  0.434300  1.0  0.6556
  C  C219  1  0.420400  0.566300  0.344300  1.0  -0.1128
  C  C220  1  0.486400  0.582300  0.315400  1.0  -0.083
  C  C221  1  0.455000  0.599600  0.269800  1.0  -0.1452
  C  C222  1  0.355000  0.597000  0.251100  1.0  -0.1259
  C  C223  1  0.285000  0.580600  0.274800  1.0  -0.1427
  C  C224  1  0.315600  0.564800  0.325200  1.0  -0.1002
  C  C225  1  0.281800  0.542500  0.601300  1.0  0.167
  C  C226  1  0.344700  0.529100  0.650100  1.0  -0.3695
  C  C227  1  0.167600  0.535200  0.592300  1.0  -0.3353
  C  C228  1  0.293200  0.323600  0.468500  1.0  0.1472
  C  C229  1  0.357100  0.307300  0.508600  1.0  -0.3667
  C  C230  1  0.176500  0.295800  0.445700  1.0  -0.3514
  C  C231  1  0.602000  0.286600  0.104400  1.0  0.1562
  C  C232  1  0.535200  0.288800  0.056900  1.0  0.1016
  C  C233  1  0.446200  0.202300  0.047900  1.0  0.1167
  C  C234  1  0.508900  0.199400  0.095000  1.0  0.0867
  C  C235  1  0.556700  0.341100  0.036600  1.0  0.6666
  C  C236  1  0.166600  0.367800  0.965000  1.0  -0.2881
  C  C237  1  0.088400  0.354400  0.916700  1.0  -0.0793
  C  C238  1  0.996000  0.312300  0.907200  1.0  -0.1224
  C  C239  1  0.981600  0.283500  0.946100  1.0  -0.0959
  C  C240  1  0.059700  0.296900  0.994500  1.0  -0.1292
  C  C241  1  0.152200  0.339000  0.003900  1.0  -0.0676
  C  C242  1  0.713000  0.511000  0.166800  1.0  0.1435
  C  C243  1  0.702000  0.562300  0.186900  1.0  -0.3459
  C  C244  1  0.722900  0.470700  0.200100  1.0  -0.3433
  C  C245  1  0.738000  0.410500  0.951300  1.0  0.2581
  C  C246  1  0.763000  0.441400  0.920600  1.0  -0.4112
  C  C247  1  0.744000  0.355000  0.947600  1.0  -0.3748
  C  C248  1  0.835100  0.097300  0.278900  1.0  0.1114
  C  C249  1  0.918300  0.118800  0.217500  1.0  0.1239
  C  C250  1  0.939400  0.068300  0.212800  1.0  0.0883
  C  C251  1  0.994500  0.052800  0.172500  1.0  0.6639
  C  C252  1  0.815500  0.135900  0.998700  1.0  -0.0742
  C  C253  1  0.755800  0.139400  0.951700  1.0  -0.0914
  C  C254  1  0.697500  0.178000  0.948100  1.0  -0.1747
  C  C255  1  0.703700  0.211900  0.993100  1.0  -0.0775
  C  C256  1  0.764000  0.209600  0.039100  1.0  -0.1254
  C  C257  1  0.821400  0.171700  0.041800  1.0  -0.0859
  C  C258  1  0.282700  0.045100  0.151800  1.0  0.1663
  C  C259  1  0.300200  0.063900  0.208400  1.0  -0.3258
  C  C260  1  0.342800  0.024000  0.127200  1.0  -0.353
  C  C261  1  0.848500  0.865400  0.078500  1.0  0.0629
  C  C262  1  0.807000  0.867100  0.123400  1.0  -0.3301
  C  C263  1  0.844000  0.825400  0.039900  1.0  -0.1742
  C  C264  1  0.542000  0.277300  0.360900  1.0  0.0908
  C  C265  1  0.502900  0.280100  0.403800  1.0  0.1225
  C  C266  1  0.557700  0.206600  0.423300  1.0  0.08
  C  C267  1  0.597800  0.204200  0.381200  1.0  0.1297
  C  C268  1  0.569100  0.167600  0.459400  1.0  0.6797
  C  C269  1  0.543000  0.011500  0.296400  1.0  -0.1389
  C  C270  1  0.549700  0.999800  0.246200  1.0  -0.1308
  C  C271  1  0.532100  0.949700  0.220100  1.0  -0.1486
  C  C272  1  0.499000  0.907500  0.241400  1.0  -0.1414
  C  C273  1  0.497800  0.918000  0.294700  1.0  -0.0917
  C  C274  1  0.275400  0.102400  0.526700  1.0  0.1608
  C  C275  1  0.252800  0.150200  0.508400  1.0  -0.3128
  C  C276  1  0.201300  0.056500  0.530800  1.0  -0.3281
  C  C277  1  0.762300  0.159900  0.598700  1.0  0.1375
  C  C278  1  0.803600  0.215000  0.592100  1.0  -0.3134
  C  C279  1  0.768000  0.144800  0.646700  1.0  -0.3516
  C  C280  1  0.516600  0.970900  0.321800  1.0  -0.1984
  C  C281  1  0.062300  0.581700  0.715300  1.0  0.111
  C  C282  1  0.001100  0.528400  0.696900  1.0  0.0853
  C  C283  1  0.927500  0.548100  0.619200  1.0  0.1214
  C  C284  1  0.142900  0.951600  0.725300  1.0  0.0871
  C  C285  1  0.987800  0.601000  0.637900  1.0  0.1396
  C  C286  1  0.845300  0.528900  0.565700  1.0  0.6559
  C  C287  1  0.579600  0.433700  0.655700  1.0  -0.1129
  C  C288  1  0.513600  0.417700  0.684600  1.0  -0.0824
  C  C289  1  0.545000  0.400400  0.730200  1.0  -0.1471
  C  C290  1  0.645000  0.403000  0.748900  1.0  -0.1279
  C  C291  1  0.715000  0.419400  0.725200  1.0  -0.1458
  C  C292  1  0.684400  0.435200  0.674800  1.0  -0.0981
  C  C293  1  0.718200  0.457500  0.398700  1.0  0.1668
  C  C294  1  0.655300  0.470900  0.349900  1.0  -0.3702
  C  C295  1  0.832400  0.464800  0.407700  1.0  -0.3354
  C  C296  1  0.706800  0.676400  0.531500  1.0  0.1449
  C  C297  1  0.642900  0.692700  0.491400  1.0  -0.3682
  C  C298  1  0.823500  0.704200  0.554300  1.0  -0.3539
  C  C299  1  0.398000  0.713400  0.895600  1.0  0.1557
  C  C300  1  0.464800  0.711200  0.943100  1.0  0.1028
  C  C301  1  0.553800  0.797700  0.952100  1.0  0.1171
  C  C302  1  0.491100  0.800600  0.905000  1.0  0.0854
  C  C303  1  0.443300  0.658900  0.963400  1.0  0.6667
  C  C304  1  0.833400  0.632200  0.035000  1.0  -0.2879
  C  C305  1  0.911600  0.645600  0.083300  1.0  -0.0782
  C  C306  1  0.004000  0.687700  0.092800  1.0  -0.123
  C  C307  1  0.018400  0.716500  0.053900  1.0  -0.0952
  C  C308  1  0.940300  0.703100  0.005500  1.0  -0.1292
  C  C309  1  0.847800  0.661000  0.996100  1.0  -0.0691
  C  C310  1  0.287000  0.489000  0.833200  1.0  0.1434
  C  C311  1  0.298000  0.437700  0.813100  1.0  -0.3451
  C  C312  1  0.277100  0.529300  0.799900  1.0  -0.3454
  C  C313  1  0.262000  0.589500  0.048700  1.0  0.2605
  C  C314  1  0.237000  0.558600  0.079400  1.0  -0.4114
  C  C315  1  0.256000  0.645000  0.052400  1.0  -0.3733
  C  C316  1  0.164900  0.902700  0.721100  1.0  0.1112
  C  C317  1  0.081700  0.881200  0.782500  1.0  0.1272
  C  C318  1  0.060600  0.931700  0.787200  1.0  0.0882
  C  C319  1  0.005500  0.947200  0.827500  1.0  0.6633
  C  C320  1  0.184500  0.864100  0.001300  1.0  -0.0739
  C  C321  1  0.244200  0.860600  0.048300  1.0  -0.0911
  C  C322  1  0.302500  0.822000  0.051900  1.0  -0.1716
  C  C323  1  0.296300  0.788100  0.006900  1.0  -0.0786
  C  C324  1  0.236000  0.790400  0.960900  1.0  -0.1229
  C  C325  1  0.178600  0.828300  0.958200  1.0  -0.0862
  C  C326  1  0.717300  0.954900  0.848200  1.0  0.1693
  C  C327  1  0.699800  0.936100  0.791600  1.0  -0.3227
  C  C328  1  0.657200  0.976000  0.872800  1.0  -0.3542
  C  C329  1  0.151500  0.134600  0.921500  1.0  0.0594
  C  C330  1  0.193000  0.132900  0.876600  1.0  -0.3265
  C  C331  1  0.156000  0.174600  0.960100  1.0  -0.1837
  C  C332  1  0.458000  0.722700  0.639100  1.0  0.0902
  C  C333  1  0.497100  0.719900  0.596200  1.0  0.1217
  C  C334  1  0.442300  0.793400  0.576700  1.0  0.082
  C  C335  1  0.402200  0.795800  0.618800  1.0  0.1297
  C  C336  1  0.430900  0.832400  0.540600  1.0  0.6803
  C  C337  1  0.457000  0.988500  0.703600  1.0  -0.1383
  C  C338  1  0.450300  0.000200  0.753800  1.0  -0.129
  C  C339  1  0.467900  0.050300  0.779900  1.0  -0.149
  C  C340  1  0.501000  0.092500  0.758600  1.0  -0.1387
  C  C341  1  0.502200  0.082000  0.705300  1.0  -0.0912
  C  C342  1  0.724600  0.897600  0.473300  1.0  0.1629
  C  C343  1  0.747200  0.849800  0.491600  1.0  -0.3115
  C  C344  1  0.798700  0.943500  0.469200  1.0  -0.3334
  C  C345  1  0.237700  0.840100  0.401300  1.0  0.1361
  C  C346  1  0.196400  0.785000  0.407900  1.0  -0.3124
  C  C347  1  0.232000  0.855200  0.353300  1.0  -0.3485
  C  C348  1  0.483400  0.029100  0.678200  1.0  -0.2011
  I  I349  1  0.870940  0.247910  0.357720  1.0  -0.264
  I  I350  1  0.654730  0.329390  0.256210  1.0  -0.2774
  I  I351  1  0.599840  0.149570  0.220260  1.0  -0.2501
  I  I352  1  0.885920  0.263640  0.194490  1.0  -0.2652
  I  I353  1  0.129060  0.752090  0.642280  1.0  -0.2649
  I  I354  1  0.345270  0.670610  0.743790  1.0  -0.2772
  I  I355  1  0.400160  0.850430  0.779740  1.0  -0.2502
  I  I356  1  0.114080  0.736360  0.805510  1.0  -0.2633
  N  N357  1  0.588000  0.241800  0.123800  1.0  -0.307
  N  N358  1  0.590800  0.238200  0.348400  1.0  -0.3497
  N  N359  1  0.943000  0.381200  0.313300  1.0  -0.3106
  N  N360  1  0.865300  0.133000  0.251300  1.0  -0.307
  N  N361  1  0.509000  0.245100  0.435200  1.0  -0.5009
  N  N362  1  0.457000  0.246800  0.027300  1.0  -0.4316
  N  N363  1  0.908400  0.032200  0.239100  1.0  -0.4696
  N  N364  1  0.067000  0.490000  0.351900  1.0  -0.4831
  N  N365  1  0.412000  0.758200  0.876200  1.0  -0.3116
  N  N366  1  0.409200  0.761800  0.651600  1.0  -0.3512
  N  N367  1  0.057000  0.618800  0.686700  1.0  -0.3093
  N  N368  1  0.134700  0.867000  0.748700  1.0  -0.305
  N  N369  1  0.491000  0.754900  0.564800  1.0  -0.5
  N  N370  1  0.543000  0.753200  0.972700  1.0  -0.4354
  N  N371  1  0.091600  0.967800  0.760900  1.0  -0.4744
  N  N372  1  0.933000  0.510000  0.648100  1.0  -0.4798
  O  O373  1  0.365100  0.091200  0.512400  1.0  -0.6915
  O  O374  1  0.372900  0.479300  0.484500  1.0  -0.8191
  O  O375  1  0.308500  0.974700  0.468400  1.0  -0.8392
  O  O376  1  0.524700  0.171000  0.495200  1.0  -0.5939
  O  O377  1  0.989900  0.009000  0.063100  1.0  -0.8867
  O  O378  1  0.512100  0.063700  0.490100  1.0  -0.8521
  O  O379  1  0.668800  0.129200  0.557400  1.0  -0.7208
  O  O380  1  0.835500  0.929000  0.968600  1.0  -0.8286
  O  O381  1  0.414500  0.005100  0.390800  1.0  -0.7981
  O  O382  1  0.904100  0.920200  0.077000  1.0  -0.7692
  O  O383  1  0.158900  0.435800  0.462700  1.0  -0.6155
  O  O384  1  0.992300  0.110500  0.044600  1.0  -0.8388
  O  O385  1  0.170400  0.031100  0.123100  1.0  -0.7629
  O  O386  1  0.027300  0.088500  0.149500  1.0  -0.6211
  O  O387  1  0.626500  0.137700  0.451300  1.0  -0.6241
  O  O388  1  0.612400  0.024100  0.422600  1.0  -0.8353
  O  O389  1  0.414600  0.482900  0.390800  1.0  -0.8475
  O  O390  1  0.312400  0.381500  0.474900  1.0  -0.7038
  O  O391  1  0.004000  0.004800  0.167000  1.0  -0.6073
  O  O392  1  0.300300  0.515300  0.553200  1.0  -0.7793
  O  O393  1  0.820200  0.034600  0.011100  1.0  -0.8434
  O  O394  1  0.538800  0.449800  0.023000  1.0  -0.8583
  O  O395  1  0.582000  0.560600  0.419700  1.0  -0.8137
  O  O396  1  0.491300  0.586300  0.554800  1.0  -0.7867
  O  O397  1  0.491300  0.927000  0.402900  1.0  -0.8373
  O  O398  1  0.419900  0.572200  0.445600  1.0  -0.861
  O  O399  1  0.352400  0.397300  0.944700  1.0  -0.8363
  O  O400  1  0.496400  0.339900  0.992700  1.0  -0.6142
  O  O401  1  0.904500  0.074000  0.946400  1.0  -0.8493
  O  O402  1  0.213400  0.518000  0.445300  1.0  -0.6093
  O  O403  1  0.259200  0.469000  0.958000  1.0  -0.9056
  O  O404  1  0.485100  0.540800  0.086500  1.0  -0.8723
  O  O405  1  0.345200  0.434700  0.036100  1.0  -0.8465
  O  O406  1  0.649100  0.485700  0.114100  1.0  -0.7219
  O  O407  1  0.635800  0.379400  0.065900  1.0  -0.6018
  O  O408  1  0.663300  0.421100  0.978000  1.0  -0.6994
  O  O409  1  0.634900  0.908800  0.487600  1.0  -0.6911
  O  O410  1  0.627100  0.520700  0.515500  1.0  -0.8194
  O  O411  1  0.691500  0.025300  0.531600  1.0  -0.8354
  O  O412  1  0.475300  0.829000  0.504800  1.0  -0.5955
  O  O413  1  0.010100  0.991000  0.936900  1.0  -0.8874
  O  O414  1  0.487900  0.936300  0.509900  1.0  -0.8515
  O  O415  1  0.331200  0.870800  0.442600  1.0  -0.7191
  O  O416  1  0.164500  0.071000  0.031400  1.0  -0.829
  O  O417  1  0.585500  0.994900  0.609200  1.0  -0.799
  O  O418  1  0.095900  0.079800  0.923000  1.0  -0.7697
  O  O419  1  0.841100  0.564200  0.537300  1.0  -0.6141
  O  O420  1  0.007700  0.889500  0.955400  1.0  -0.8392
  O  O421  1  0.829600  0.968900  0.876900  1.0  -0.7607
  O  O422  1  0.972700  0.911500  0.850500  1.0  -0.6207
  O  O423  1  0.373500  0.862300  0.548700  1.0  -0.6233
  O  O424  1  0.387600  0.975900  0.577400  1.0  -0.834
  O  O425  1  0.585400  0.517100  0.609200  1.0  -0.8448
  O  O426  1  0.687600  0.618500  0.525100  1.0  -0.7054
  O  O427  1  0.996000  0.995200  0.833000  1.0  -0.6064
  O  O428  1  0.699700  0.484700  0.446800  1.0  -0.7795
  O  O429  1  0.179800  0.965400  0.988900  1.0  -0.844
  O  O430  1  0.461200  0.550200  0.977000  1.0  -0.8577
  O  O431  1  0.418000  0.439400  0.580300  1.0  -0.8135
  O  O432  1  0.508700  0.413700  0.445200  1.0  -0.7866
  O  O433  1  0.508700  0.073000  0.597100  1.0  -0.8377
  O  O434  1  0.580100  0.427800  0.554400  1.0  -0.8583
  O  O435  1  0.647600  0.602700  0.055300  1.0  -0.8383
  O  O436  1  0.503600  0.660100  0.007300  1.0  -0.6137
  O  O437  1  0.095500  0.926000  0.053600  1.0  -0.8507
  O  O438  1  0.786600  0.482000  0.554700  1.0  -0.6081
  O  O439  1  0.740800  0.531000  0.042000  1.0  -0.9035
  O  O440  1  0.514900  0.459200  0.913500  1.0  -0.8718
  O  O441  1  0.654800  0.565300  0.963900  1.0  -0.844
  O  O442  1  0.350900  0.514300  0.885900  1.0  -0.7219
  O  O443  1  0.364200  0.620600  0.934100  1.0  -0.6009
  O  O444  1  0.336700  0.578900  0.022000  1.0  -0.6992
