# generated using pymatgen
data_Ti6Cu2P2H43C36I2(NO9)2
_symmetry_space_group_name_H-M   'P 1'
_cell_length_a   13.54300000
_cell_length_b   25.77800000
_cell_length_c   26.75300000
_cell_angle_alpha   98.78600000
_cell_angle_beta   103.60900000
_cell_angle_gamma   103.99100000
_symmetry_Int_Tables_number   1
_chemical_formula_structural   Ti6Cu2P2H43C36I2(NO9)2
_chemical_formula_sum   'Ti24 Cu8 P8 H172 C144 I8 N8 O72'
_cell_volume   8587.89823230
_cell_formula_units_Z   4
loop_
 _symmetry_equiv_pos_site_id
 _symmetry_equiv_pos_as_xyz
  1  'x, y, z'
loop_
 _atom_site_type_symbol
 _atom_site_label
 _atom_site_symmetry_multiplicity
 _atom_site_fract_x
 _atom_site_fract_y
 _atom_site_fract_z
 _atom_site_occupancy
 _atom_site_charge
  Ti  Ti1  1  0.481720  0.377930  0.450770  1.0  1.7945
  Ti  Ti2  1  0.337080  0.424120  0.509160  1.0  1.7428
  Ti  Ti3  1  0.632950  0.465130  0.548830  1.0  1.5639
  Ti  Ti4  1  0.310130  0.041860  0.947560  1.0  1.7937
  Ti  Ti5  1  0.510380  0.026890  0.918680  1.0  1.5796
  Ti  Ti6  1  0.498900  0.096940  0.049510  1.0  1.7401
  Ti  Ti7  1  0.616650  0.074970  0.570240  1.0  1.5705
  Ti  Ti8  1  0.712830  0.057820  0.477300  1.0  1.7256
  Ti  Ti9  1  0.636480  0.942380  0.501070  1.0  1.7508
  Ti  Ti10  1  0.940910  0.532940  0.890690  1.0  1.8395
  Ti  Ti11  1  0.150620  0.532510  0.968110  1.0  1.5543
  Ti  Ti12  1  0.899210  0.416680  0.916860  1.0  1.7444
  Ti  Ti13  1  0.518280  0.622070  0.549230  1.0  1.8086
  Ti  Ti14  1  0.662920  0.575880  0.490840  1.0  1.7221
  Ti  Ti15  1  0.367050  0.534870  0.451170  1.0  1.5704
  Ti  Ti16  1  0.689870  0.958140  0.052440  1.0  1.7722
  Ti  Ti17  1  0.489620  0.973110  0.081320  1.0  1.5757
  Ti  Ti18  1  0.501100  0.903060  0.950490  1.0  1.7306
  Ti  Ti19  1  0.383350  0.925030  0.429760  1.0  1.5775
  Ti  Ti20  1  0.287170  0.942180  0.522700  1.0  1.7253
  Ti  Ti21  1  0.363520  0.057620  0.498930  1.0  1.7553
  Ti  Ti22  1  0.059090  0.467060  0.109310  1.0  1.8348
  Ti  Ti23  1  0.849380  0.467490  0.031890  1.0  1.5754
  Ti  Ti24  1  0.100790  0.583320  0.083140  1.0  1.7464
  Cu  Cu25  1  0.329280  0.259040  0.707570  1.0  0.1115
  Cu  Cu26  1  0.316280  0.257600  0.805090  1.0  0.1181
  Cu  Cu27  1  0.158830  0.192600  0.717010  1.0  0.1517
  Cu  Cu28  1  0.181110  0.296450  0.745030  1.0  0.1419
  Cu  Cu29  1  0.670720  0.740960  0.292430  1.0  0.1113
  Cu  Cu30  1  0.683720  0.742400  0.194910  1.0  0.119
  Cu  Cu31  1  0.841170  0.807400  0.282990  1.0  0.1532
  Cu  Cu32  1  0.818890  0.703550  0.254970  1.0  0.1424
  P  P33  1  0.492700  0.517990  0.610710  1.0  1.517
  P  P34  1  0.711000  0.079780  0.021940  1.0  1.5387
  P  P35  1  0.114500  0.415630  0.000070  1.0  1.5133
  P  P36  1  0.530100  0.957590  0.597060  1.0  1.5449
  P  P37  1  0.507300  0.482010  0.389290  1.0  1.5179
  P  P38  1  0.289000  0.920220  0.978060  1.0  1.5376
  P  P39  1  0.885500  0.584370  0.999930  1.0  1.5129
  P  P40  1  0.469900  0.042410  0.402940  1.0  1.5457
  H  H41  1  0.361700  0.320200  0.624400  1.0  0.057
  H  H42  1  0.540000  0.260500  0.545000  1.0  0.0783
  H  H43  1  0.549000  0.195800  0.599300  1.0  0.1048
  H  H44  1  0.478100  0.203000  0.669400  1.0  0.073
  H  H45  1  0.528500  0.613500  0.690400  1.0  0.0874
  H  H46  1  0.528700  0.629300  0.777800  1.0  0.0939
  H  H47  1  0.460300  0.556700  0.813400  1.0  0.0898
  H  H48  1  0.435000  0.471700  0.770400  1.0  0.0814
  H  H49  1  0.441600  0.452400  0.683700  1.0  0.0727
  H  H50  1  0.132900  0.264500  0.376700  1.0  0.104
  H  H51  1  0.182100  0.281400  0.439500  1.0  0.1187
  H  H52  1  0.252800  0.265700  0.402700  1.0  0.1221
  H  H53  1  0.270200  0.398400  0.363200  1.0  0.1134
  H  H54  1  0.158500  0.352900  0.335400  1.0  0.1074
  H  H55  1  0.266800  0.338200  0.335300  1.0  0.0956
  H  H56  1  0.807600  0.344200  0.479800  1.0  0.0913
  H  H57  1  0.684700  0.318600  0.474900  1.0  0.1035
  H  H58  1  0.762500  0.359100  0.528600  1.0  0.0842
  H  H59  1  0.755700  0.469100  0.456700  1.0  0.1217
  H  H60  1  0.825000  0.431700  0.438200  1.0  0.1093
  H  H61  1  0.848400  0.458100  0.499400  1.0  0.1044
  H  H62  1  0.511900  0.333700  0.888200  1.0  0.0457
  H  H63  1  0.631200  0.331900  0.962500  1.0  0.0913
  H  H64  1  0.606700  0.251800  0.997300  1.0  0.0991
  H  H65  1  0.341900  0.183600  0.878100  1.0  0.0693
  H  H66  1  0.812300  0.151400  0.966600  1.0  0.0594
  H  H67  1  0.963300  0.221000  0.981400  1.0  0.0653
  H  H68  1  0.020200  0.223700  0.123700  1.0  0.0791
  H  H69  1  0.892600  0.134500  0.106100  1.0  0.0669
  H  H70  1  0.302500  0.916700  0.844800  1.0  0.1228
  H  H71  1  0.354600  0.939100  0.801600  1.0  0.0892
  H  H72  1  0.228500  0.915000  0.788000  1.0  0.1003
  H  H73  1  0.237000  0.007100  0.765200  1.0  0.0879
  H  H74  1  0.352200  0.045200  0.800100  1.0  0.09
  H  H75  1  0.248600  0.053800  0.814900  1.0  0.1024
  H  H76  1  0.203800  0.151200  0.070500  1.0  0.1134
  H  H77  1  0.232800  0.152400  0.016000  1.0  0.1172
  H  H78  1  0.325200  0.171200  0.070500  1.0  0.1226
  H  H79  1  0.258900  0.020800  0.069100  1.0  0.134
  H  H80  1  0.160700  0.043900  0.073000  1.0  0.1252
  H  H81  1  0.274800  0.072700  0.114600  1.0  0.1124
  H  H82  1  0.112800  0.092700  0.754000  1.0  0.0624
  H  H83  1  0.015600  0.000700  0.726100  1.0  0.0953
  H  H84  1  0.894300  0.970600  0.642100  1.0  0.0881
  H  H85  1  0.984400  0.122900  0.619300  1.0  0.0534
  H  H86  1  0.717900  0.955900  0.670900  1.0  0.0917
  H  H87  1  0.747100  0.931000  0.756500  1.0  0.0906
  H  H88  1  0.609600  0.884400  0.778700  1.0  0.0828
  H  H89  1  0.448500  0.886500  0.739900  1.0  0.0865
  H  H90  1  0.412300  0.911500  0.661800  1.0  0.0628
  H  H91  1  0.682700  0.911400  0.400700  1.0  0.0553
  H  H92  1  0.581700  0.958100  0.352600  1.0  0.1056
  H  H93  1  0.661800  0.941100  0.322300  1.0  0.0997
  H  H94  1  0.687200  0.003100  0.353400  1.0  0.0991
  H  H95  1  0.840000  0.935900  0.380100  1.0  0.0805
  H  H96  1  0.855600  0.941600  0.442000  1.0  0.0807
  H  H97  1  0.869100  0.995100  0.417900  1.0  0.0912
  H  H98  1  0.687900  0.187700  0.560600  1.0  0.0611
  H  H99  1  0.582800  0.168000  0.478700  1.0  0.0845
  H  H100  1  0.684300  0.180000  0.456700  1.0  0.0879
  H  H101  1  0.664500  0.228300  0.494800  1.0  0.0697
  H  H102  1  0.845400  0.243400  0.555100  1.0  0.1016
  H  H103  1  0.870000  0.190200  0.527700  1.0  0.0975
  H  H104  1  0.861000  0.196700  0.586800  1.0  0.1041
  H  H105  1  0.054200  0.354000  0.802500  1.0  0.0841
  H  H106  1  0.083400  0.500900  0.764500  1.0  0.0943
  H  H107  1  0.173400  0.475000  0.704500  1.0  0.0946
  H  H108  1  0.197500  0.388300  0.695000  1.0  0.0601
  H  H109  1  0.146400  0.336400  0.924600  1.0  0.0681
  H  H110  1  0.231800  0.268700  0.927600  1.0  0.0848
  H  H111  1  0.343300  0.266800  0.004000  1.0  0.075
  H  H112  1  0.344400  0.318700  0.083900  1.0  0.0973
  H  H113  1  0.244100  0.382000  0.080500  1.0  0.0737
  H  H114  1  0.217900  0.668000  0.870300  1.0  0.1079
  H  H115  1  0.121200  0.614500  0.840000  1.0  0.0966
  H  H116  1  0.230300  0.608500  0.874100  1.0  0.1257
  H  H117  1  0.121600  0.660500  0.982400  1.0  0.1115
  H  H118  1  0.087900  0.691700  0.936800  1.0  0.101
  H  H119  1  0.210700  0.701400  0.965600  1.0  0.1102
  H  H120  1  0.688500  0.410600  0.857600  1.0  0.0765
  H  H121  1  0.674500  0.482900  0.910500  1.0  0.082
  H  H122  1  0.578000  0.459800  0.857600  1.0  0.0755
  H  H123  1  0.669000  0.515100  0.863800  1.0  0.077
  H  H124  1  0.739900  0.407500  0.785300  1.0  0.0745
  H  H125  1  0.722200  0.465900  0.780100  1.0  0.0935
  H  H126  1  0.623100  0.414700  0.774900  1.0  0.0818
  H  H127  1  0.638300  0.679800  0.375600  1.0  0.0572
  H  H128  1  0.460000  0.739500  0.455000  1.0  0.0778
  H  H129  1  0.451000  0.804200  0.400700  1.0  0.1047
  H  H130  1  0.521900  0.797000  0.330600  1.0  0.0737
  H  H131  1  0.471500  0.386500  0.309600  1.0  0.0877
  H  H132  1  0.471300  0.370700  0.222200  1.0  0.0959
  H  H133  1  0.539700  0.443300  0.186600  1.0  0.0892
  H  H134  1  0.565000  0.528300  0.229600  1.0  0.0808
  H  H135  1  0.558400  0.547600  0.316300  1.0  0.0727
  H  H136  1  0.867100  0.735500  0.623300  1.0  0.1052
  H  H137  1  0.817900  0.718600  0.560500  1.0  0.1175
  H  H138  1  0.747200  0.734300  0.597300  1.0  0.1215
  H  H139  1  0.729800  0.601600  0.636800  1.0  0.1096
  H  H140  1  0.841500  0.647100  0.664600  1.0  0.1082
  H  H141  1  0.733200  0.661800  0.664700  1.0  0.0985
  H  H142  1  0.192400  0.655800  0.520200  1.0  0.0922
  H  H143  1  0.315300  0.681400  0.525100  1.0  0.1027
  H  H144  1  0.237500  0.640900  0.471400  1.0  0.0851
  H  H145  1  0.244300  0.530900  0.543300  1.0  0.119
  H  H146  1  0.175000  0.568300  0.561800  1.0  0.1078
  H  H147  1  0.151600  0.541900  0.500600  1.0  0.1034
  H  H148  1  0.488100  0.666300  0.111800  1.0  0.0448
  H  H149  1  0.368800  0.668100  0.037500  1.0  0.0911
  H  H150  1  0.393300  0.748200  0.002700  1.0  0.0984
  H  H151  1  0.658100  0.816400  0.121900  1.0  0.0686
  H  H152  1  0.187700  0.848600  0.033400  1.0  0.0592
  H  H153  1  0.036700  0.779000  0.018600  1.0  0.0649
  H  H154  1  0.979800  0.776300  0.876300  1.0  0.0796
  H  H155  1  0.107400  0.865500  0.893900  1.0  0.067
  H  H156  1  0.697500  0.083300  0.155200  1.0  0.1224
  H  H157  1  0.645400  0.060900  0.198400  1.0  0.0901
  H  H158  1  0.771500  0.085000  0.212000  1.0  0.1002
  H  H159  1  0.763000  0.992900  0.234800  1.0  0.0891
  H  H160  1  0.647800  0.954800  0.199900  1.0  0.0894
  H  H161  1  0.751400  0.946200  0.185100  1.0  0.1019
  H  H162  1  0.796200  0.848800  0.929500  1.0  0.1116
  H  H163  1  0.767200  0.847600  0.984000  1.0  0.1171
  H  H164  1  0.674800  0.828800  0.929500  1.0  0.1189
  H  H165  1  0.741100  0.979200  0.930900  1.0  0.1383
  H  H166  1  0.839300  0.956100  0.927000  1.0  0.1236
  H  H167  1  0.725200  0.927300  0.885400  1.0  0.1094
  H  H168  1  0.887200  0.907300  0.246000  1.0  0.0626
  H  H169  1  0.984400  0.999300  0.273900  1.0  0.0946
  H  H170  1  0.105700  0.029400  0.357900  1.0  0.0877
  H  H171  1  0.015600  0.877100  0.380700  1.0  0.053
  H  H172  1  0.282100  0.044100  0.329100  1.0  0.0911
  H  H173  1  0.252900  0.069000  0.243500  1.0  0.0925
  H  H174  1  0.390400  0.115600  0.221300  1.0  0.0815
  H  H175  1  0.551500  0.113500  0.260100  1.0  0.0866
  H  H176  1  0.587700  0.088500  0.338200  1.0  0.0629
  H  H177  1  0.317300  0.088600  0.599300  1.0  0.0582
  H  H178  1  0.418300  0.041900  0.647400  1.0  0.1065
  H  H179  1  0.338200  0.058900  0.677700  1.0  0.1003
  H  H180  1  0.312800  0.996900  0.646600  1.0  0.0976
  H  H181  1  0.160000  0.064100  0.619900  1.0  0.0815
  H  H182  1  0.144400  0.058400  0.558000  1.0  0.0811
  H  H183  1  0.130900  0.004900  0.582100  1.0  0.089
  H  H184  1  0.312100  0.812300  0.439400  1.0  0.0617
  H  H185  1  0.417200  0.832000  0.521300  1.0  0.0853
  H  H186  1  0.315700  0.820000  0.543300  1.0  0.0893
  H  H187  1  0.335500  0.771700  0.505200  1.0  0.0653
  H  H188  1  0.154600  0.756600  0.444900  1.0  0.0996
  H  H189  1  0.130000  0.809800  0.472300  1.0  0.0977
  H  H190  1  0.139000  0.803300  0.413200  1.0  0.1029
  H  H191  1  0.945800  0.646000  0.197500  1.0  0.0846
  H  H192  1  0.916600  0.499100  0.235500  1.0  0.0941
  H  H193  1  0.826600  0.525000  0.295500  1.0  0.0951
  H  H194  1  0.802500  0.611700  0.305000  1.0  0.0608
  H  H195  1  0.853600  0.663600  0.075400  1.0  0.0681
  H  H196  1  0.768200  0.731300  0.072400  1.0  0.0854
  H  H197  1  0.656700  0.733200  0.996000  1.0  0.075
  H  H198  1  0.655600  0.681300  0.916100  1.0  0.0968
  H  H199  1  0.755900  0.618000  0.919500  1.0  0.0741
  H  H200  1  0.782100  0.332000  0.129700  1.0  0.1047
  H  H201  1  0.878800  0.385500  0.160000  1.0  0.0987
  H  H202  1  0.769700  0.391500  0.125900  1.0  0.1213
  H  H203  1  0.878400  0.339500  0.017600  1.0  0.1124
  H  H204  1  0.912100  0.308300  0.063200  1.0  0.1012
  H  H205  1  0.789300  0.298600  0.034400  1.0  0.1095
  H  H206  1  0.311500  0.589400  0.142400  1.0  0.0803
  H  H207  1  0.325500  0.517100  0.089500  1.0  0.0828
  H  H208  1  0.422000  0.540200  0.142400  1.0  0.077
  H  H209  1  0.331000  0.484900  0.136200  1.0  0.0776
  H  H210  1  0.260100  0.592500  0.214700  1.0  0.0765
  H  H211  1  0.277800  0.534100  0.219900  1.0  0.0942
  H  H212  1  0.376900  0.585300  0.225100  1.0  0.0807
  C  C213  1  0.403800  0.296100  0.620600  1.0  0.143
  C  C214  1  0.449800  0.296600  0.579800  1.0  -0.1566
  C  C215  1  0.506100  0.260500  0.572400  1.0  -0.0352
  C  C216  1  0.514000  0.223000  0.605300  1.0  -0.1838
  C  C217  1  0.470000  0.227000  0.646000  1.0  0.1184
  C  C218  1  0.431200  0.332600  0.542300  1.0  0.6942
  C  C219  1  0.485800  0.529500  0.677200  1.0  -0.0889
  C  C220  1  0.509800  0.583500  0.706300  1.0  -0.0959
  C  C221  1  0.506000  0.592800  0.757400  1.0  -0.1627
  C  C222  1  0.471100  0.550100  0.779400  1.0  -0.1821
  C  C223  1  0.452800  0.501200  0.753700  1.0  -0.1299
  C  C224  1  0.458100  0.489500  0.701700  1.0  -0.1146
  C  C225  1  0.234800  0.342500  0.402800  1.0  0.1
  C  C226  1  0.197400  0.283400  0.405700  1.0  -0.3834
  C  C227  1  0.232000  0.359200  0.355700  1.0  -0.4026
  C  C228  1  0.722900  0.397100  0.470800  1.0  0.0954
  C  C229  1  0.746300  0.351100  0.490000  1.0  -0.3633
  C  C230  1  0.793000  0.442100  0.465900  1.0  -0.4087
  C  C231  1  0.500200  0.301500  0.901800  1.0  0.1397
  C  C232  1  0.571400  0.300900  0.945700  1.0  -0.1656
  C  C233  1  0.556500  0.253700  0.966600  1.0  -0.0501
  C  C234  1  0.468200  0.210700  0.941900  1.0  -0.2103
  C  C235  1  0.400900  0.214500  0.896300  1.0  0.1564
  C  C236  1  0.443200  0.159900  0.962500  1.0  0.6869
  C  C237  1  0.833800  0.131300  0.032100  1.0  0.0633
  C  C238  1  0.862000  0.159800  0.000500  1.0  -0.1047
  C  C239  1  0.955000  0.201900  0.008500  1.0  -0.1014
  C  C240  1  0.025000  0.214200  0.050200  1.0  0.3897
  C  C241  1  0.989000  0.201500  0.089100  1.0  -0.1108
  C  C242  1  0.901000  0.152200  0.078000  1.0  -0.131
  C  C243  1  0.286600  0.988000  0.834500  1.0  0.1258
  C  C244  1  0.294000  0.935800  0.815800  1.0  -0.3941
  C  C245  1  0.280600  0.026600  0.801000  1.0  -0.354
  C  C246  1  0.261400  0.086500  0.047000  1.0  0.1793
  C  C247  1  0.255000  0.145700  0.051400  1.0  -0.3907
  C  C248  1  0.237000  0.053900  0.077800  1.0  -0.4095
  C  C249  1  0.065400  0.080100  0.719400  1.0  0.1345
  C  C250  1  0.007000  0.025400  0.703500  1.0  -0.1612
  C  C251  1  0.936200  0.007800  0.654000  1.0  -0.0372
  C  C252  1  0.925700  0.044500  0.621300  1.0  -0.19
  C  C253  1  0.989600  0.097300  0.641200  1.0  0.1451
  C  C254  1  0.846400  0.026700  0.569300  1.0  0.6902
  C  C255  1  0.558900  0.935000  0.656500  1.0  -0.0377
  C  C256  1  0.660000  0.941200  0.683900  1.0  -0.1294
  C  C257  1  0.677000  0.924400  0.734600  1.0  -0.148
  C  C258  1  0.598000  0.900900  0.749200  1.0  -0.1329
  C  C259  1  0.505000  0.899100  0.725200  1.0  -0.1299
  C  C260  1  0.484000  0.914900  0.679200  1.0  -0.0827
  C  C261  1  0.717200  0.951000  0.403300  1.0  0.1536
  C  C262  1  0.657000  0.964600  0.353400  1.0  -0.3668
  C  C263  1  0.829600  0.956400  0.411500  1.0  -0.3459
  C  C264  1  0.717300  0.175300  0.531400  1.0  0.1166
  C  C265  1  0.657600  0.188900  0.487000  1.0  -0.3913
  C  C266  1  0.833400  0.203800  0.552000  1.0  -0.3389
  C  C267  1  0.078600  0.379000  0.782300  1.0  0.139
  C  C268  1  0.059700  0.429600  0.788900  1.0  -0.1702
  C  C269  1  0.095100  0.465800  0.760200  1.0  -0.0292
  C  C270  1  0.147800  0.450600  0.724900  1.0  -0.1503
  C  C271  1  0.162600  0.399100  0.720000  1.0  0.1328
  C  C272  1  0.003400  0.444500  0.829000  1.0  0.6681
  C  C273  1  0.188100  0.366500  0.001500  1.0  -0.0979
  C  C274  1  0.185900  0.333100  0.957800  1.0  -0.0943
  C  C275  1  0.239300  0.293800  0.959200  1.0  -0.148
  C  C276  1  0.300400  0.291100  0.004100  1.0  -0.146
  C  C277  1  0.303900  0.322400  0.051200  1.0  -0.177
  C  C278  1  0.244800  0.360200  0.048600  1.0  -0.0721
  C  C279  1  0.142700  0.633100  0.917100  1.0  0.2111
  C  C280  1  0.181000  0.630900  0.871900  1.0  -0.3997
  C  C281  1  0.141000  0.674400  0.952800  1.0  -0.4035
  C  C282  1  0.714000  0.447100  0.849200  1.0  0.1734
  C  C283  1  0.654000  0.478800  0.872100  1.0  -0.3545
  C  C284  1  0.698500  0.432600  0.792800  1.0  -0.3501
  C  C285  1  0.596200  0.703900  0.379400  1.0  0.1423
  C  C286  1  0.550200  0.703400  0.420200  1.0  -0.1554
  C  C287  1  0.493900  0.739500  0.427600  1.0  -0.035
  C  C288  1  0.486000  0.777000  0.394700  1.0  -0.1824
  C  C289  1  0.530000  0.773000  0.354000  1.0  0.1196
  C  C290  1  0.568800  0.667400  0.457700  1.0  0.692
  C  C291  1  0.514200  0.470500  0.322800  1.0  -0.0898
  C  C292  1  0.490200  0.416500  0.293700  1.0  -0.0957
  C  C293  1  0.494000  0.407200  0.242600  1.0  -0.1638
  C  C294  1  0.528900  0.449900  0.220600  1.0  -0.1816
  C  C295  1  0.547200  0.498800  0.246300  1.0  -0.1318
  C  C296  1  0.541900  0.510500  0.298300  1.0  -0.1127
  C  C297  1  0.765200  0.657500  0.597200  1.0  0.0988
  C  C298  1  0.802600  0.716600  0.594300  1.0  -0.385
  C  C299  1  0.768000  0.640800  0.644300  1.0  -0.4029
  C  C300  1  0.277100  0.602900  0.529200  1.0  0.0897
  C  C301  1  0.253700  0.648900  0.510000  1.0  -0.3614
  C  C302  1  0.207000  0.557900  0.534100  1.0  -0.4084
  C  C303  1  0.499800  0.698500  0.098200  1.0  0.1413
  C  C304  1  0.428600  0.699100  0.054300  1.0  -0.166
  C  C305  1  0.443500  0.746300  0.033400  1.0  -0.0507
  C  C306  1  0.531800  0.789300  0.058100  1.0  -0.2089
  C  C307  1  0.599100  0.785500  0.103700  1.0  0.1562
  C  C308  1  0.556800  0.840100  0.037500  1.0  0.6863
  C  C309  1  0.166200  0.868700  0.967900  1.0  0.0615
  C  C310  1  0.138000  0.840200  0.999500  1.0  -0.1071
  C  C311  1  0.045000  0.798100  0.991500  1.0  -0.1023
  C  C312  1  0.975000  0.785800  0.949800  1.0  0.3865
  C  C313  1  0.011000  0.798500  0.910900  1.0  -0.113
  C  C314  1  0.099000  0.847800  0.922000  1.0  -0.1297
  C  C315  1  0.713400  0.012000  0.165500  1.0  0.1255
  C  C316  1  0.706000  0.064200  0.184200  1.0  -0.3974
  C  C317  1  0.719400  0.973400  0.199000  1.0  -0.3516
  C  C318  1  0.738600  0.913500  0.953000  1.0  0.1795
  C  C319  1  0.745000  0.854300  0.948600  1.0  -0.3908
  C  C320  1  0.763000  0.946100  0.922200  1.0  -0.4102
  C  C321  1  0.934600  0.919900  0.280600  1.0  0.1336
  C  C322  1  0.993000  0.974600  0.296500  1.0  -0.1604
  C  C323  1  0.063800  0.992200  0.346000  1.0  -0.0345
  C  C324  1  0.074300  0.955500  0.378700  1.0  -0.1889
  C  C325  1  0.010400  0.902700  0.358800  1.0  0.1469
  C  C326  1  0.153600  0.973300  0.430700  1.0  0.6908
  C  C327  1  0.441100  0.065000  0.343500  1.0  -0.0351
  C  C328  1  0.340000  0.058800  0.316100  1.0  -0.1278
  C  C329  1  0.323000  0.075600  0.265400  1.0  -0.1466
  C  C330  1  0.402000  0.099100  0.250800  1.0  -0.1359
  C  C331  1  0.495000  0.100900  0.274800  1.0  -0.1288
  C  C332  1  0.516000  0.085100  0.320800  1.0  -0.0835
  C  C333  1  0.282800  0.049000  0.596700  1.0  0.1549
  C  C334  1  0.343000  0.035400  0.646600  1.0  -0.3667
  C  C335  1  0.170400  0.043600  0.588500  1.0  -0.3476
  C  C336  1  0.282700  0.824700  0.468600  1.0  0.1178
  C  C337  1  0.342400  0.811100  0.513000  1.0  -0.39
  C  C338  1  0.166600  0.796200  0.448000  1.0  -0.3368
  C  C339  1  0.921400  0.621000  0.217700  1.0  0.1385
  C  C340  1  0.940300  0.570400  0.211100  1.0  -0.1719
  C  C341  1  0.904900  0.534200  0.239800  1.0  -0.032
  C  C342  1  0.852200  0.549400  0.275100  1.0  -0.149
  C  C343  1  0.837400  0.600900  0.280000  1.0  0.133
  C  C344  1  0.996600  0.555500  0.171000  1.0  0.6678
  C  C345  1  0.811900  0.633500  0.998500  1.0  -0.0964
  C  C346  1  0.814100  0.666900  0.042200  1.0  -0.0949
  C  C347  1  0.760700  0.706200  0.040800  1.0  -0.1483
  C  C348  1  0.699600  0.708900  0.995900  1.0  -0.1479
  C  C349  1  0.696100  0.677600  0.948800  1.0  -0.1773
  C  C350  1  0.755200  0.639800  0.951400  1.0  -0.0724
  C  C351  1  0.857300  0.366900  0.082900  1.0  0.2095
  C  C352  1  0.819000  0.369100  0.128100  1.0  -0.4004
  C  C353  1  0.859000  0.325600  0.047200  1.0  -0.4034
  C  C354  1  0.286000  0.552900  0.150800  1.0  0.1726
  C  C355  1  0.346000  0.521200  0.127900  1.0  -0.3548
  C  C356  1  0.301500  0.567400  0.207200  1.0  -0.351
  I  I357  1  0.348210  0.171210  0.745690  1.0  -0.2865
  I  I358  1  0.130380  0.249000  0.642960  1.0  -0.2814
  I  I359  1  0.396550  0.351160  0.780290  1.0  -0.2946
  I  I360  1  0.112910  0.233620  0.806110  1.0  -0.3086
  I  I361  1  0.651790  0.828790  0.254310  1.0  -0.2866
  I  I362  1  0.869620  0.751000  0.357040  1.0  -0.2806
  I  I363  1  0.603450  0.648840  0.219710  1.0  -0.2943
  I  I364  1  0.887090  0.766380  0.193890  1.0  -0.3101
  N  N365  1  0.414100  0.264000  0.655000  1.0  -0.3429
  N  N366  1  0.413800  0.259900  0.875800  1.0  -0.3174
  N  N367  1  0.058900  0.115400  0.689300  1.0  -0.3131
  N  N368  1  0.130500  0.364100  0.748200  1.0  -0.3026
  N  N369  1  0.585900  0.736000  0.345000  1.0  -0.3411
  N  N370  1  0.586200  0.740100  0.124200  1.0  -0.3177
  N  N371  1  0.941100  0.884600  0.310700  1.0  -0.3139
  N  N372  1  0.869500  0.635900  0.251800  1.0  -0.3045
  O  O373  1  0.473300  0.329300  0.505700  1.0  -0.6037
  O  O374  1  0.374200  0.362900  0.550300  1.0  -0.6293
  O  O375  1  0.587000  0.496300  0.608400  1.0  -0.8074
  O  O376  1  0.388800  0.477600  0.577300  1.0  -0.8403
  O  O377  1  0.633000  0.408300  0.486600  1.0  -0.7334
  O  O378  1  0.509500  0.574400  0.597100  1.0  -0.8725
  O  O379  1  0.330300  0.370700  0.443900  1.0  -0.7254
  O  O380  1  0.308500  0.474600  0.469200  1.0  -0.8115
  O  O381  1  0.488100  0.436500  0.510000  1.0  -0.8621
  O  O382  1  0.365300  0.120300  0.934900  1.0  -0.6154
  O  O383  1  0.504700  0.160400  0.006100  1.0  -0.63
  O  O384  1  0.656500  0.065200  0.963500  1.0  -0.8291
  O  O385  1  0.647500  0.104400  0.053800  1.0  -0.8439
  O  O386  1  0.353200  0.013500  0.886600  1.0  -0.688
  O  O387  1  0.338700  0.079500  0.021600  1.0  -0.6871
  O  O388  1  0.485100  0.040800  0.085600  1.0  -0.8344
  O  O389  1  0.461700  0.050900  0.977100  1.0  -0.8677
  O  O390  1  0.739900  0.031300  0.040800  1.0  -0.9007
  O  O391  1  0.493400  0.087500  0.550400  1.0  -0.7824
  O  O392  1  0.785600  0.979000  0.559000  1.0  -0.6324
  O  O393  1  0.843200  0.061100  0.540500  1.0  -0.607
  O  O394  1  0.410600  0.942900  0.577500  1.0  -0.8285
  O  O395  1  0.581400  0.019200  0.610400  1.0  -0.8444
  O  O396  1  0.576500  0.927900  0.559100  1.0  -0.8472
  O  O397  1  0.692800  0.117000  0.526000  1.0  -0.7266
  O  O398  1  0.701500  0.980400  0.450600  1.0  -0.7314
  O  O399  1  0.629800  0.019300  0.518900  1.0  -0.8249
  O  O400  1  0.972600  0.408900  0.853300  1.0  -0.6348
  O  O401  1  0.991300  0.491300  0.833500  1.0  -0.6122
  O  O402  1  0.102800  0.427700  0.055300  1.0  -0.889
  O  O403  1  0.180200  0.466900  0.988300  1.0  -0.846
  O  O404  1  0.009100  0.389900  0.958400  1.0  -0.8437
  O  O405  1  0.826200  0.464600  0.878100  1.0  -0.7666
  O  O406  1  0.090100  0.578900  0.921200  1.0  -0.6866
  O  O407  1  0.166000  0.573300  0.029600  1.0  -0.8159
  O  O408  1  0.007200  0.490700  0.937500  1.0  -0.9017
  O  O409  1  0.526700  0.670700  0.494300  1.0  -0.6036
  O  O410  1  0.625800  0.637100  0.449700  1.0  -0.6315
  O  O411  1  0.413000  0.503700  0.391600  1.0  -0.8048
  O  O412  1  0.611200  0.522400  0.422700  1.0  -0.8398
  O  O413  1  0.367000  0.591700  0.513400  1.0  -0.7351
  O  O414  1  0.490500  0.425600  0.402900  1.0  -0.8701
  O  O415  1  0.669700  0.629300  0.556100  1.0  -0.7251
  O  O416  1  0.691500  0.525400  0.530800  1.0  -0.8127
  O  O417  1  0.511900  0.563500  0.490000  1.0  -0.8629
  O  O418  1  0.634700  0.879700  0.065100  1.0  -0.6165
  O  O419  1  0.495300  0.839600  0.993900  1.0  -0.6297
  O  O420  1  0.343500  0.934800  0.036500  1.0  -0.8304
  O  O421  1  0.352500  0.895600  0.946200  1.0  -0.843
  O  O422  1  0.646800  0.986500  0.113400  1.0  -0.6883
  O  O423  1  0.661300  0.920500  0.978400  1.0  -0.6862
  O  O424  1  0.514900  0.959200  0.914400  1.0  -0.8313
  O  O425  1  0.538300  0.949100  0.022900  1.0  -0.8674
  O  O426  1  0.260100  0.968700  0.959200  1.0  -0.9009
  O  O427  1  0.506600  0.912500  0.449600  1.0  -0.7827
  O  O428  1  0.214400  0.021000  0.441000  1.0  -0.6324
  O  O429  1  0.156800  0.938900  0.459500  1.0  -0.608
  O  O430  1  0.589400  0.057100  0.422500  1.0  -0.8292
  O  O431  1  0.418600  0.980800  0.389600  1.0  -0.8437
  O  O432  1  0.423500  0.072100  0.440900  1.0  -0.8481
  O  O433  1  0.307200  0.883000  0.474000  1.0  -0.7246
  O  O434  1  0.298500  0.019600  0.549400  1.0  -0.7324
  O  O435  1  0.370200  0.980700  0.481100  1.0  -0.8235
  O  O436  1  0.027400  0.591100  0.146700  1.0  -0.6353
  O  O437  1  0.008700  0.508700  0.166500  1.0  -0.613
  O  O438  1  0.897200  0.572300  0.944700  1.0  -0.8864
  O  O439  1  0.819800  0.533100  0.011700  1.0  -0.8455
  O  O440  1  0.990900  0.610100  0.041600  1.0  -0.8433
  O  O441  1  0.173800  0.535400  0.121900  1.0  -0.7716
  O  O442  1  0.909900  0.421100  0.078800  1.0  -0.6865
  O  O443  1  0.834000  0.426700  0.970400  1.0  -0.8167
  O  O444  1  0.992800  0.509300  0.062500  1.0  -0.9011
