# generated using pymatgen
data_Mn3H8C15N6O7
_symmetry_space_group_name_H-M   'P 1'
_cell_length_a   14.20800000
_cell_length_b   14.09500000
_cell_length_c   15.11700000
_cell_angle_alpha   90.00000000
_cell_angle_beta   105.31000000
_cell_angle_gamma   90.00000000
_symmetry_Int_Tables_number   1
_chemical_formula_structural   Mn3H8C15N6O7
_chemical_formula_sum   'Mn12 H32 C60 N24 O28'
_cell_volume   2919.92020968
_cell_formula_units_Z   4
loop_
 _symmetry_equiv_pos_site_id
 _symmetry_equiv_pos_as_xyz
  1  'x, y, z'
loop_
 _atom_site_type_symbol
 _atom_site_label
 _atom_site_symmetry_multiplicity
 _atom_site_fract_x
 _atom_site_fract_y
 _atom_site_fract_z
 _atom_site_occupancy
 _atom_site_charge
  Mn  Mn1  1  0.669750  0.854960  0.159560  1.0  1.1479
  Mn  Mn2  1  0.752030  0.024150  0.016570  1.0  1.1147
  Mn  Mn3  1  0.330250  0.354960  0.340440  1.0  1.1491
  Mn  Mn4  1  0.247970  0.524150  0.483430  1.0  1.1146
  Mn  Mn5  1  0.330250  0.145040  0.840440  1.0  1.1461
  Mn  Mn6  1  0.247970  0.975850  0.983430  1.0  1.1149
  Mn  Mn7  1  0.669750  0.645040  0.659560  1.0  1.1464
  Mn  Mn8  1  0.752030  0.475850  0.516570  1.0  1.115
  Mn  Mn9  1  0.500000  0.000000  0.000000  1.0  1.0641
  Mn  Mn10  1  0.500000  0.500000  0.500000  1.0  1.0666
  Mn  Mn11  1  0.000000  0.000000  0.000000  1.0  1.0212
  Mn  Mn12  1  0.000000  0.500000  0.500000  1.0  1.0212
  H  H13  1  0.644000  0.894000  0.981000  1.0  0.4261
  H  H14  1  0.202200  0.748200  0.072800  1.0  0.1193
  H  H15  1  0.230100  0.617500  0.170300  1.0  0.1008
  H  H16  1  0.519500  0.683300  0.266400  1.0  0.1236
  H  H17  1  0.140800  0.861200  0.183000  1.0  0.1202
  H  H18  1  0.180800  0.751400  0.302500  1.0  0.0951
  H  H19  1  0.898800  0.740100  0.319900  1.0  0.1109
  H  H20  1  0.834500  0.924300  0.817100  1.0  0.0616
  H  H21  1  0.356000  0.394000  0.519000  1.0  0.4268
  H  H22  1  0.797800  0.248200  0.427200  1.0  0.1195
  H  H23  1  0.769900  0.117500  0.329700  1.0  0.1017
  H  H24  1  0.480500  0.183300  0.233600  1.0  0.1236
  H  H25  1  0.859200  0.361200  0.317000  1.0  0.1213
  H  H26  1  0.819200  0.251400  0.197500  1.0  0.0962
  H  H27  1  0.101200  0.240100  0.180100  1.0  0.1115
  H  H28  1  0.165500  0.424300  0.682900  1.0  0.0624
  H  H29  1  0.356000  0.106000  0.019000  1.0  0.4271
  H  H30  1  0.797800  0.251800  0.927200  1.0  0.1192
  H  H31  1  0.769900  0.382500  0.829700  1.0  0.1016
  H  H32  1  0.480500  0.316700  0.733600  1.0  0.1236
  H  H33  1  0.859200  0.138800  0.817000  1.0  0.1215
  H  H34  1  0.819200  0.248600  0.697500  1.0  0.096
  H  H35  1  0.101200  0.259900  0.680100  1.0  0.1115
  H  H36  1  0.165500  0.075700  0.182900  1.0  0.0626
  H  H37  1  0.644000  0.606000  0.481000  1.0  0.427
  H  H38  1  0.202200  0.751800  0.572800  1.0  0.1194
  H  H39  1  0.230100  0.882500  0.670300  1.0  0.1013
  H  H40  1  0.519500  0.816700  0.766400  1.0  0.1236
  H  H41  1  0.140800  0.638800  0.683000  1.0  0.1207
  H  H42  1  0.180800  0.748600  0.802500  1.0  0.0953
  H  H43  1  0.898800  0.759900  0.819900  1.0  0.111
  H  H44  1  0.834500  0.575700  0.317100  1.0  0.0619
  C  C45  1  0.440200  0.769800  0.163200  1.0  0.0846
  C  C46  1  0.346500  0.790700  0.108900  1.0  0.0907
  C  C47  1  0.265600  0.734600  0.110600  1.0  -0.1408
  C  C48  1  0.282400  0.659200  0.169500  1.0  -0.0559
  C  C49  1  0.376400  0.641400  0.229800  1.0  -0.0869
  C  C50  1  0.456600  0.695600  0.227100  1.0  -0.0693
  C  C51  1  0.386700  0.563600  0.300000  1.0  0.7247
  C  C52  1  0.922600  0.828500  0.218600  1.0  0.0633
  C  C53  1  0.994600  0.864300  0.178700  1.0  0.0824
  C  C54  1  0.092400  0.836700  0.209700  1.0  -0.1617
  C  C55  1  0.115300  0.772500  0.280600  1.0  -0.0368
  C  C56  1  0.043700  0.736700  0.322100  1.0  -0.1152
  C  C57  1  0.946700  0.763900  0.292200  1.0  -0.086
  C  C58  1  0.075300  0.663000  0.396000  1.0  0.7229
  C  C59  1  0.802000  0.939400  0.862700  1.0  0.689
  C  C60  1  0.559800  0.269800  0.336800  1.0  0.0865
  C  C61  1  0.653500  0.290700  0.391100  1.0  0.0895
  C  C62  1  0.734400  0.234600  0.389400  1.0  -0.1412
  C  C63  1  0.717600  0.159200  0.330500  1.0  -0.0562
  C  C64  1  0.623600  0.141400  0.270200  1.0  -0.0866
  C  C65  1  0.543400  0.195600  0.272900  1.0  -0.0702
  C  C66  1  0.613300  0.063600  0.200000  1.0  0.7234
  C  C67  1  0.077400  0.328500  0.281400  1.0  0.0622
  C  C68  1  0.005400  0.364300  0.321300  1.0  0.083
  C  C69  1  0.907600  0.336700  0.290300  1.0  -0.1627
  C  C70  1  0.884700  0.272500  0.219400  1.0  -0.0365
  C  C71  1  0.956300  0.236700  0.177900  1.0  -0.1153
  C  C72  1  0.053300  0.263900  0.207800  1.0  -0.0873
  C  C73  1  0.924700  0.163000  0.104000  1.0  0.724
  C  C74  1  0.198000  0.439400  0.637300  1.0  0.6889
  C  C75  1  0.559800  0.230200  0.836800  1.0  0.0868
  C  C76  1  0.653500  0.209300  0.891100  1.0  0.0897
  C  C77  1  0.734400  0.265400  0.889400  1.0  -0.1417
  C  C78  1  0.717600  0.340800  0.830500  1.0  -0.0549
  C  C79  1  0.623600  0.358600  0.770200  1.0  -0.0863
  C  C80  1  0.543400  0.304400  0.772900  1.0  -0.0704
  C  C81  1  0.613300  0.436400  0.700000  1.0  0.7235
  C  C82  1  0.077400  0.171500  0.781400  1.0  0.062
  C  C83  1  0.005400  0.135700  0.821300  1.0  0.0831
  C  C84  1  0.907600  0.163300  0.790300  1.0  -0.1631
  C  C85  1  0.884700  0.227500  0.719400  1.0  -0.0361
  C  C86  1  0.956300  0.263300  0.677900  1.0  -0.1152
  C  C87  1  0.053300  0.236100  0.707800  1.0  -0.0876
  C  C88  1  0.924700  0.337000  0.604000  1.0  0.7246
  C  C89  1  0.198000  0.060600  0.137300  1.0  0.6875
  C  C90  1  0.440200  0.730200  0.663200  1.0  0.0849
  C  C91  1  0.346500  0.709300  0.608900  1.0  0.0909
  C  C92  1  0.265600  0.765400  0.610600  1.0  -0.1407
  C  C93  1  0.282400  0.840800  0.669500  1.0  -0.0561
  C  C94  1  0.376400  0.858600  0.729800  1.0  -0.0866
  C  C95  1  0.456600  0.804400  0.727100  1.0  -0.0697
  C  C96  1  0.386700  0.936400  0.800000  1.0  0.7242
  C  C97  1  0.922600  0.671500  0.718600  1.0  0.0631
  C  C98  1  0.994600  0.635700  0.678700  1.0  0.0826
  C  C99  1  0.092400  0.663300  0.709700  1.0  -0.1621
  C  C100  1  0.115300  0.727500  0.780600  1.0  -0.0365
  C  C101  1  0.043700  0.763300  0.822100  1.0  -0.1151
  C  C102  1  0.946700  0.736100  0.792200  1.0  -0.0855
  C  C103  1  0.075300  0.837000  0.896000  1.0  0.7235
  C  C104  1  0.802000  0.560600  0.362700  1.0  0.6888
  N  N105  1  0.353700  0.869500  0.058100  1.0  -0.3186
  N  N106  1  0.448100  0.891800  0.079700  1.0  -0.1053
  N  N107  1  0.503400  0.834500  0.141500  1.0  -0.3336
  N  N108  1  0.835100  0.867400  0.171600  1.0  -0.3047
  N  N109  1  0.854800  0.924200  0.108700  1.0  -0.087
  N  N110  1  0.949400  0.923900  0.110200  1.0  -0.3001
  N  N111  1  0.646300  0.369500  0.441900  1.0  -0.3173
  N  N112  1  0.551900  0.391800  0.420300  1.0  -0.1051
  N  N113  1  0.496600  0.334500  0.358500  1.0  -0.3304
  N  N114  1  0.164900  0.367400  0.328400  1.0  -0.3063
  N  N115  1  0.145200  0.424200  0.391300  1.0  -0.0876
  N  N116  1  0.050600  0.423900  0.389800  1.0  -0.3004
  N  N117  1  0.646300  0.130500  0.941900  1.0  -0.3179
  N  N118  1  0.551900  0.108200  0.920300  1.0  -0.1053
  N  N119  1  0.496600  0.165500  0.858500  1.0  -0.3306
  N  N120  1  0.164900  0.132600  0.828400  1.0  -0.3064
  N  N121  1  0.145200  0.075800  0.891300  1.0  -0.0885
  N  N122  1  0.050600  0.076100  0.889800  1.0  -0.3014
  N  N123  1  0.353700  0.630500  0.558100  1.0  -0.3187
  N  N124  1  0.448100  0.608200  0.579700  1.0  -0.1056
  N  N125  1  0.503400  0.665500  0.641500  1.0  -0.3341
  N  N126  1  0.835100  0.632600  0.671600  1.0  -0.3051
  N  N127  1  0.854800  0.575800  0.608700  1.0  -0.0873
  N  N128  1  0.949400  0.576100  0.610200  1.0  -0.3004
  O  O129  1  0.641100  0.927200  0.027100  1.0  -0.9896
  O  O130  1  0.840900  0.002200  0.922900  1.0  -0.6809
  O  O131  1  0.725600  0.897600  0.860300  1.0  -0.5107
  O  O132  1  0.162700  0.635300  0.412000  1.0  -0.6118
  O  O133  1  0.012800  0.633900  0.435600  1.0  -0.6278
  O  O134  1  0.449200  0.578400  0.375400  1.0  -0.6344
  O  O135  1  0.332400  0.491700  0.278500  1.0  -0.665
  O  O136  1  0.358900  0.427200  0.472900  1.0  -0.9907
  O  O137  1  0.159100  0.502200  0.577100  1.0  -0.6804
  O  O138  1  0.274400  0.397600  0.639700  1.0  -0.5106
  O  O139  1  0.837300  0.135300  0.088000  1.0  -0.6105
  O  O140  1  0.987200  0.133900  0.064400  1.0  -0.6275
  O  O141  1  0.550800  0.078400  0.124600  1.0  -0.6343
  O  O142  1  0.667600  0.991700  0.221500  1.0  -0.6651
  O  O143  1  0.358900  0.072800  0.972900  1.0  -0.9909
  O  O144  1  0.159100  0.997800  0.077100  1.0  -0.6806
  O  O145  1  0.274400  0.102400  0.139700  1.0  -0.5111
  O  O146  1  0.837300  0.364700  0.588000  1.0  -0.6105
  O  O147  1  0.987200  0.366100  0.564400  1.0  -0.628
  O  O148  1  0.550800  0.421600  0.624600  1.0  -0.6342
  O  O149  1  0.667600  0.508300  0.721500  1.0  -0.6651
  O  O150  1  0.641100  0.572800  0.527100  1.0  -0.99
  O  O151  1  0.840900  0.497800  0.422900  1.0  -0.6814
  O  O152  1  0.725600  0.602400  0.360300  1.0  -0.5115
  O  O153  1  0.162700  0.864700  0.912000  1.0  -0.612
  O  O154  1  0.012800  0.866100  0.935600  1.0  -0.6277
  O  O155  1  0.449200  0.921600  0.875400  1.0  -0.6342
  O  O156  1  0.332400  0.008300  0.778500  1.0  -0.6661
