# generated using pymatgen
data_Zn2H24C37(N2O3)3
_symmetry_space_group_name_H-M   'P 1'
_cell_length_a   11.38150000
_cell_length_b   20.06760000
_cell_length_c   29.43710000
_cell_angle_alpha   90.00000000
_cell_angle_beta   98.78200000
_cell_angle_gamma   90.00000000
_symmetry_Int_Tables_number   1
_chemical_formula_structural   Zn2H24C37(N2O3)3
_chemical_formula_sum   'Zn8 H96 C148 N24 O36'
_cell_volume   6644.59299348
_cell_formula_units_Z   4
loop_
 _symmetry_equiv_pos_site_id
 _symmetry_equiv_pos_as_xyz
  1  'x, y, z'
loop_
 _atom_site_type_symbol
 _atom_site_label
 _atom_site_symmetry_multiplicity
 _atom_site_fract_x
 _atom_site_fract_y
 _atom_site_fract_z
 _atom_site_occupancy
 _atom_site_charge
  Zn  Zn1  1  0.540990  0.923350  0.547220  1.0  0.9195
  Zn  Zn2  1  0.527070  0.578230  0.455790  1.0  0.933
  Zn  Zn3  1  0.459010  0.423350  0.952780  1.0  0.917
  Zn  Zn4  1  0.472930  0.078230  0.044210  1.0  0.9323
  Zn  Zn5  1  0.459010  0.076650  0.452780  1.0  0.9173
  Zn  Zn6  1  0.472930  0.421770  0.544210  1.0  0.9326
  Zn  Zn7  1  0.540990  0.576650  0.047220  1.0  0.919
  Zn  Zn8  1  0.527070  0.921770  0.955790  1.0  0.9333
  H  H9  1  0.385400  0.615300  0.707600  1.0  0.2552
  H  H10  1  0.359000  0.622200  0.775100  1.0  0.2448
  H  H11  1  0.550100  0.694700  0.548500  1.0  0.116
  H  H12  1  0.459600  0.569500  0.645300  1.0  0.1237
  H  H13  1  0.482000  0.771000  0.670300  1.0  0.1248
  H  H14  1  0.436900  0.570900  0.847100  1.0  0.1263
  H  H15  1  0.522900  0.694700  0.956100  1.0  0.1147
  H  H16  1  0.457400  0.771300  0.826600  1.0  0.13
  H  H17  1  0.300800  0.887600  0.483600  1.0  0.0859
  H  H18  1  0.101500  0.888900  0.484000  1.0  0.1216
  H  H19  1  0.166000  0.961200  0.613900  1.0  0.1277
  H  H20  1  0.362600  0.959300  0.609600  1.0  0.0991
  H  H21  1  0.931500  0.845500  0.506200  1.0  0.1215
  H  H22  1  0.732600  0.850000  0.507600  1.0  0.0912
  H  H23  1  0.773600  0.996200  0.597600  1.0  0.0999
  H  H24  1  0.971400  0.999100  0.596200  1.0  0.1186
  H  H25  1  0.295100  0.514200  0.403600  1.0  0.0974
  H  H26  1  0.095800  0.509900  0.404300  1.0  0.1349
  H  H27  1  0.141200  0.645500  0.507500  1.0  0.1264
  H  H28  1  0.343300  0.647800  0.502700  1.0  0.0897
  H  H29  1  0.931700  0.484300  0.430600  1.0  0.1258
  H  H30  1  0.727100  0.487800  0.430500  1.0  0.0941
  H  H31  1  0.746800  0.666300  0.481700  1.0  0.0811
  H  H32  1  0.953800  0.664400  0.487700  1.0  0.1337
  H  H33  1  0.614600  0.115300  0.792400  1.0  0.255
  H  H34  1  0.641000  0.122200  0.724900  1.0  0.2458
  H  H35  1  0.449900  0.194700  0.951500  1.0  0.1165
  H  H36  1  0.540400  0.069500  0.854700  1.0  0.1242
  H  H37  1  0.518000  0.271000  0.829700  1.0  0.1245
  H  H38  1  0.563100  0.070900  0.652900  1.0  0.1265
  H  H39  1  0.477100  0.194700  0.543900  1.0  0.1143
  H  H40  1  0.542600  0.271300  0.673400  1.0  0.1299
  H  H41  1  0.699200  0.387600  0.016400  1.0  0.0858
  H  H42  1  0.898500  0.388900  0.016000  1.0  0.1222
  H  H43  1  0.834000  0.461200  0.886100  1.0  0.1279
  H  H44  1  0.637400  0.459300  0.890400  1.0  0.1003
  H  H45  1  0.068500  0.345500  0.993800  1.0  0.1215
  H  H46  1  0.267400  0.350000  0.992400  1.0  0.0909
  H  H47  1  0.226400  0.496200  0.902400  1.0  0.0992
  H  H48  1  0.028600  0.499100  0.903800  1.0  0.1182
  H  H49  1  0.704900  0.014200  0.096400  1.0  0.0977
  H  H50  1  0.904200  0.009900  0.095700  1.0  0.137
  H  H51  1  0.858800  0.145500  0.992500  1.0  0.126
  H  H52  1  0.656700  0.147800  0.997300  1.0  0.0893
  H  H53  1  0.068300  0.984300  0.069400  1.0  0.1262
  H  H54  1  0.272900  0.987800  0.069500  1.0  0.0941
  H  H55  1  0.253200  0.166300  0.018300  1.0  0.0814
  H  H56  1  0.046200  0.164400  0.012300  1.0  0.1338
  H  H57  1  0.614600  0.384700  0.292400  1.0  0.2546
  H  H58  1  0.641000  0.377800  0.224900  1.0  0.2459
  H  H59  1  0.449900  0.305300  0.451500  1.0  0.1166
  H  H60  1  0.540400  0.430500  0.354700  1.0  0.1233
  H  H61  1  0.518000  0.229000  0.329700  1.0  0.1244
  H  H62  1  0.563100  0.429100  0.152900  1.0  0.1271
  H  H63  1  0.477100  0.305300  0.043900  1.0  0.1142
  H  H64  1  0.542600  0.228700  0.173400  1.0  0.13
  H  H65  1  0.699200  0.112400  0.516400  1.0  0.0855
  H  H66  1  0.898500  0.111100  0.516000  1.0  0.1223
  H  H67  1  0.834000  0.038800  0.386100  1.0  0.1275
  H  H68  1  0.637400  0.040700  0.390400  1.0  0.1
  H  H69  1  0.068500  0.154500  0.493800  1.0  0.1214
  H  H70  1  0.267400  0.150000  0.492400  1.0  0.0907
  H  H71  1  0.226400  0.003800  0.402400  1.0  0.0993
  H  H72  1  0.028600  0.000900  0.403800  1.0  0.1173
  H  H73  1  0.704900  0.485800  0.596400  1.0  0.0975
  H  H74  1  0.904200  0.490100  0.595700  1.0  0.1366
  H  H75  1  0.858800  0.354500  0.492500  1.0  0.1256
  H  H76  1  0.656700  0.352200  0.497300  1.0  0.0897
  H  H77  1  0.068300  0.515700  0.569400  1.0  0.1262
  H  H78  1  0.272900  0.512200  0.569500  1.0  0.0934
  H  H79  1  0.253200  0.333700  0.518300  1.0  0.0814
  H  H80  1  0.046200  0.335600  0.512300  1.0  0.1334
  H  H81  1  0.385400  0.884700  0.207600  1.0  0.2552
  H  H82  1  0.359000  0.877800  0.275100  1.0  0.2451
  H  H83  1  0.550100  0.805300  0.048500  1.0  0.1157
  H  H84  1  0.459600  0.930500  0.145300  1.0  0.1236
  H  H85  1  0.482000  0.729000  0.170300  1.0  0.1247
  H  H86  1  0.436900  0.929100  0.347100  1.0  0.1261
  H  H87  1  0.522900  0.805300  0.456100  1.0  0.1153
  H  H88  1  0.457400  0.728700  0.326600  1.0  0.1299
  H  H89  1  0.300800  0.612400  0.983600  1.0  0.0853
  H  H90  1  0.101500  0.611100  0.984000  1.0  0.1222
  H  H91  1  0.166000  0.538800  0.113900  1.0  0.1275
  H  H92  1  0.362600  0.540700  0.109600  1.0  0.0994
  H  H93  1  0.931500  0.654500  0.006200  1.0  0.1217
  H  H94  1  0.732600  0.650000  0.007600  1.0  0.0916
  H  H95  1  0.773600  0.503800  0.097600  1.0  0.1002
  H  H96  1  0.971400  0.500900  0.096200  1.0  0.1188
  H  H97  1  0.295100  0.985800  0.903600  1.0  0.0973
  H  H98  1  0.095800  0.990100  0.904300  1.0  0.1357
  H  H99  1  0.141200  0.854500  0.007500  1.0  0.126
  H  H100  1  0.343300  0.852200  0.002700  1.0  0.0907
  H  H101  1  0.931700  0.015700  0.930600  1.0  0.1259
  H  H102  1  0.727100  0.012200  0.930500  1.0  0.094
  H  H103  1  0.746800  0.833700  0.981700  1.0  0.0815
  H  H104  1  0.953800  0.835600  0.987700  1.0  0.1339
  C  C105  1  0.529100  0.812800  0.590200  1.0  0.7142
  C  C106  1  0.512100  0.742900  0.605900  1.0  -0.1307
  C  C107  1  0.525200  0.688200  0.577500  1.0  -0.0504
  C  C108  1  0.502000  0.625500  0.591900  1.0  -0.1139
  C  C109  1  0.471800  0.613700  0.635400  1.0  -0.1492
  C  C110  1  0.459900  0.668200  0.664600  1.0  0.1462
  C  C111  1  0.484400  0.734100  0.650200  1.0  -0.0512
  C  C112  1  0.515300  0.565100  0.562000  1.0  0.6745
  C  C113  1  0.449000  0.687600  0.746600  1.0  0.2735
  C  C114  1  0.445700  0.668900  0.829600  1.0  0.2175
  C  C115  1  0.451400  0.614600  0.859100  1.0  -0.1022
  C  C116  1  0.478500  0.624800  0.906400  1.0  -0.1412
  C  C117  1  0.500800  0.688300  0.923900  1.0  -0.0086
  C  C118  1  0.490700  0.742300  0.894400  1.0  -0.1197
  C  C119  1  0.463500  0.734000  0.846700  1.0  -0.0469
  C  C120  1  0.488100  0.564100  0.937500  1.0  0.6613
  C  C121  1  0.507800  0.811500  0.912000  1.0  0.6696
  C  C122  1  0.272100  0.904200  0.510100  1.0  0.1669
  C  C123  1  0.153600  0.903800  0.510400  1.0  -0.2064
  C  C124  1  0.107200  0.924700  0.549000  1.0  0.0665
  C  C125  1  0.191800  0.946300  0.586500  1.0  -0.2014
  C  C126  1  0.308100  0.945700  0.583500  1.0  0.1651
  C  C127  1  0.979600  0.922200  0.551000  1.0  0.0684
  C  C128  1  0.901200  0.877800  0.525000  1.0  -0.2121
  C  C129  1  0.782500  0.880300  0.526400  1.0  0.164
  C  C130  1  0.805900  0.965500  0.578300  1.0  0.1627
  C  C131  1  0.924300  0.967000  0.577900  1.0  -0.202
  C  C132  1  0.262600  0.541200  0.425100  1.0  0.1783
  C  C133  1  0.144200  0.538700  0.424900  1.0  -0.2107
  C  C134  1  0.094500  0.578400  0.454800  1.0  0.0438
  C  C135  1  0.171800  0.618700  0.485400  1.0  -0.1687
  C  C136  1  0.292700  0.618900  0.483000  1.0  0.1596
  C  C137  1  0.962300  0.575900  0.456000  1.0  0.0335
  C  C138  1  0.896300  0.523000  0.441300  1.0  -0.2033
  C  C139  1  0.772000  0.525700  0.442000  1.0  0.1739
  C  C140  1  0.783000  0.627300  0.471900  1.0  0.1771
  C  C141  1  0.908200  0.628000  0.473900  1.0  -0.1831
  C  C142  1  0.470900  0.312800  0.909800  1.0  0.7146
  C  C143  1  0.487900  0.242900  0.894100  1.0  -0.1316
  C  C144  1  0.474800  0.188200  0.922500  1.0  -0.0513
  C  C145  1  0.498000  0.125500  0.908100  1.0  -0.1143
  C  C146  1  0.528200  0.113700  0.864600  1.0  -0.1483
  C  C147  1  0.540100  0.168200  0.835400  1.0  0.1458
  C  C148  1  0.515600  0.234100  0.849800  1.0  -0.051
  C  C149  1  0.484700  0.065100  0.938000  1.0  0.6734
  C  C150  1  0.551000  0.187600  0.753400  1.0  0.2719
  C  C151  1  0.554300  0.168900  0.670400  1.0  0.2172
  C  C152  1  0.548600  0.114600  0.640900  1.0  -0.1034
  C  C153  1  0.521500  0.124800  0.593600  1.0  -0.1398
  C  C154  1  0.499200  0.188300  0.576100  1.0  -0.0101
  C  C155  1  0.509300  0.242300  0.605600  1.0  -0.1191
  C  C156  1  0.536500  0.234000  0.653300  1.0  -0.0487
  C  C157  1  0.511900  0.064100  0.562500  1.0  0.6608
  C  C158  1  0.492200  0.311500  0.588000  1.0  0.6695
  C  C159  1  0.727900  0.404200  0.989900  1.0  0.1663
  C  C160  1  0.846400  0.403800  0.989600  1.0  -0.207
  C  C161  1  0.892800  0.424700  0.951000  1.0  0.0682
  C  C162  1  0.808200  0.446300  0.913500  1.0  -0.1998
  C  C163  1  0.691900  0.445700  0.916500  1.0  0.1627
  C  C164  1  0.020400  0.422200  0.949000  1.0  0.0698
  C  C165  1  0.098800  0.377800  0.975000  1.0  -0.212
  C  C166  1  0.217500  0.380300  0.973600  1.0  0.1639
  C  C167  1  0.194100  0.465500  0.921700  1.0  0.1652
  C  C168  1  0.075700  0.467000  0.922100  1.0  -0.2016
  C  C169  1  0.737400  0.041200  0.074900  1.0  0.1771
  C  C170  1  0.855800  0.038700  0.075100  1.0  -0.2113
  C  C171  1  0.905500  0.078400  0.045200  1.0  0.046
  C  C172  1  0.828200  0.118700  0.014600  1.0  -0.1686
  C  C173  1  0.707300  0.118900  0.017000  1.0  0.1599
  C  C174  1  0.037700  0.075900  0.044000  1.0  0.0302
  C  C175  1  0.103700  0.023000  0.058700  1.0  -0.2047
  C  C176  1  0.228000  0.025700  0.058000  1.0  0.1772
  C  C177  1  0.217000  0.127300  0.028100  1.0  0.1779
  C  C178  1  0.091800  0.128000  0.026100  1.0  -0.184
  C  C179  1  0.470900  0.187200  0.409800  1.0  0.7152
  C  C180  1  0.487900  0.257100  0.394100  1.0  -0.1327
  C  C181  1  0.474800  0.311800  0.422500  1.0  -0.0514
  C  C182  1  0.498000  0.374500  0.408100  1.0  -0.114
  C  C183  1  0.528200  0.386300  0.364600  1.0  -0.1507
  C  C184  1  0.540100  0.331800  0.335400  1.0  0.1455
  C  C185  1  0.515600  0.265900  0.349800  1.0  -0.0518
  C  C186  1  0.484700  0.434900  0.438000  1.0  0.6733
  C  C187  1  0.551000  0.312400  0.253400  1.0  0.273
  C  C188  1  0.554300  0.331100  0.170400  1.0  0.2171
  C  C189  1  0.548600  0.385400  0.140900  1.0  -0.1024
  C  C190  1  0.521500  0.375200  0.093600  1.0  -0.1395
  C  C191  1  0.499200  0.311700  0.076100  1.0  -0.01
  C  C192  1  0.509300  0.257700  0.105600  1.0  -0.1198
  C  C193  1  0.536500  0.266000  0.153300  1.0  -0.0476
  C  C194  1  0.511900  0.435900  0.062500  1.0  0.6611
  C  C195  1  0.492200  0.188500  0.088000  1.0  0.6695
  C  C196  1  0.727900  0.095800  0.489900  1.0  0.1659
  C  C197  1  0.846400  0.096200  0.489600  1.0  -0.208
  C  C198  1  0.892800  0.075300  0.451000  1.0  0.068
  C  C199  1  0.808200  0.053700  0.413500  1.0  -0.1994
  C  C200  1  0.691900  0.054300  0.416500  1.0  0.1626
  C  C201  1  0.020400  0.077800  0.449000  1.0  0.0698
  C  C202  1  0.098800  0.122200  0.475000  1.0  -0.2134
  C  C203  1  0.217500  0.119700  0.473600  1.0  0.1636
  C  C204  1  0.194100  0.034500  0.421700  1.0  0.1654
  C  C205  1  0.075700  0.033000  0.422100  1.0  -0.2017
  C  C206  1  0.737400  0.458800  0.574900  1.0  0.1767
  C  C207  1  0.855800  0.461300  0.575100  1.0  -0.211
  C  C208  1  0.905500  0.421600  0.545200  1.0  0.0471
  C  C209  1  0.828200  0.381300  0.514600  1.0  -0.1675
  C  C210  1  0.707300  0.381100  0.517000  1.0  0.1594
  C  C211  1  0.037700  0.424100  0.544000  1.0  0.0299
  C  C212  1  0.103700  0.477000  0.558700  1.0  -0.2048
  C  C213  1  0.228000  0.474300  0.558000  1.0  0.1771
  C  C214  1  0.217000  0.372700  0.528100  1.0  0.1771
  C  C215  1  0.091800  0.372000  0.526100  1.0  -0.1839
  C  C216  1  0.529100  0.687200  0.090200  1.0  0.7142
  C  C217  1  0.512100  0.757100  0.105900  1.0  -0.1314
  C  C218  1  0.525200  0.811800  0.077500  1.0  -0.0503
  C  C219  1  0.502000  0.874500  0.091900  1.0  -0.114
  C  C220  1  0.471800  0.886300  0.135400  1.0  -0.1507
  C  C221  1  0.459900  0.831800  0.164600  1.0  0.1461
  C  C222  1  0.484400  0.765900  0.150200  1.0  -0.0521
  C  C223  1  0.515300  0.934900  0.062000  1.0  0.6744
  C  C224  1  0.449000  0.812400  0.246600  1.0  0.2745
  C  C225  1  0.445700  0.831100  0.329600  1.0  0.2172
  C  C226  1  0.451400  0.885400  0.359100  1.0  -0.1022
  C  C227  1  0.478500  0.875200  0.406400  1.0  -0.1407
  C  C228  1  0.500800  0.811700  0.423900  1.0  -0.0085
  C  C229  1  0.490700  0.757700  0.394400  1.0  -0.1205
  C  C230  1  0.463500  0.766000  0.346700  1.0  -0.0457
  C  C231  1  0.488100  0.935900  0.437500  1.0  0.6615
  C  C232  1  0.507800  0.688500  0.412000  1.0  0.6702
  C  C233  1  0.272100  0.595800  0.010100  1.0  0.1675
  C  C234  1  0.153600  0.596200  0.010400  1.0  -0.2072
  C  C235  1  0.107200  0.575300  0.049000  1.0  0.0667
  C  C236  1  0.191800  0.553700  0.086500  1.0  -0.2011
  C  C237  1  0.308100  0.554300  0.083500  1.0  0.1651
  C  C238  1  0.979600  0.577800  0.051000  1.0  0.0685
  C  C239  1  0.901200  0.622200  0.025000  1.0  -0.2127
  C  C240  1  0.782500  0.619700  0.026400  1.0  0.1642
  C  C241  1  0.805900  0.534500  0.078300  1.0  0.1633
  C  C242  1  0.924300  0.533000  0.077900  1.0  -0.2015
  C  C243  1  0.262600  0.958800  0.925100  1.0  0.1781
  C  C244  1  0.144200  0.961300  0.924900  1.0  -0.2118
  C  C245  1  0.094500  0.921600  0.954800  1.0  0.0426
  C  C246  1  0.171800  0.881300  0.985400  1.0  -0.1665
  C  C247  1  0.292700  0.881100  0.983000  1.0  0.1594
  C  C248  1  0.962300  0.924100  0.956000  1.0  0.0332
  C  C249  1  0.896300  0.977000  0.941300  1.0  -0.2045
  C  C250  1  0.772000  0.974300  0.942000  1.0  0.1746
  C  C251  1  0.783000  0.872700  0.971900  1.0  0.1776
  C  C252  1  0.908200  0.872000  0.973900  1.0  -0.1843
  N  N253  1  0.426200  0.652400  0.706600  1.0  -0.3024
  N  N254  1  0.410300  0.654800  0.782200  1.0  -0.4082
  N  N255  1  0.352000  0.927000  0.545200  1.0  -0.2967
  N  N256  1  0.730600  0.923200  0.552900  1.0  -0.3297
  N  N257  1  0.339600  0.580200  0.454300  1.0  -0.3388
  N  N258  1  0.711300  0.575900  0.457200  1.0  -0.3011
  N  N259  1  0.573800  0.152400  0.793400  1.0  -0.3021
  N  N260  1  0.589700  0.154800  0.717800  1.0  -0.4087
  N  N261  1  0.648000  0.427000  0.954800  1.0  -0.2978
  N  N262  1  0.269400  0.423200  0.947100  1.0  -0.331
  N  N263  1  0.660400  0.080200  0.045700  1.0  -0.3378
  N  N264  1  0.288700  0.075900  0.042800  1.0  -0.3004
  N  N265  1  0.573800  0.347600  0.293400  1.0  -0.304
  N  N266  1  0.589700  0.345200  0.217800  1.0  -0.4092
  N  N267  1  0.648000  0.073000  0.454800  1.0  -0.2975
  N  N268  1  0.269400  0.076800  0.447100  1.0  -0.3313
  N  N269  1  0.660400  0.419800  0.545700  1.0  -0.338
  N  N270  1  0.288700  0.424100  0.542800  1.0  -0.3001
  N  N271  1  0.426200  0.847600  0.206600  1.0  -0.3032
  N  N272  1  0.410300  0.845200  0.282200  1.0  -0.4076
  N  N273  1  0.352000  0.573000  0.045200  1.0  -0.297
  N  N274  1  0.730600  0.576800  0.052900  1.0  -0.3297
  N  N275  1  0.339600  0.919800  0.954300  1.0  -0.338
  N  N276  1  0.711300  0.924100  0.957200  1.0  -0.3011
  O  O277  1  0.536900  0.860000  0.617800  1.0  -0.6616
  O  O278  1  0.537500  0.820500  0.547300  1.0  -0.5756
  O  O279  1  0.535600  0.571900  0.978100  1.0  -0.6317
  O  O280  1  0.445400  0.510900  0.919100  1.0  -0.6011
  O  O281  1  0.558700  0.574100  0.525700  1.0  -0.6194
  O  O282  1  0.479300  0.510300  0.575700  1.0  -0.5973
  O  O283  1  0.528600  0.819300  0.956400  1.0  -0.5713
  O  O284  1  0.500000  0.860100  0.885700  1.0  -0.595
  O  O285  1  0.496800  0.741000  0.749900  1.0  -0.4182
  O  O286  1  0.463100  0.360000  0.882200  1.0  -0.6607
  O  O287  1  0.462500  0.320500  0.952700  1.0  -0.5739
  O  O288  1  0.464400  0.071900  0.521900  1.0  -0.6308
  O  O289  1  0.554600  0.010900  0.580900  1.0  -0.6015
  O  O290  1  0.441300  0.074100  0.974300  1.0  -0.6215
  O  O291  1  0.520700  0.010300  0.924300  1.0  -0.5984
  O  O292  1  0.471400  0.319300  0.543600  1.0  -0.5704
  O  O293  1  0.500000  0.360100  0.614300  1.0  -0.5939
  O  O294  1  0.503200  0.241000  0.750100  1.0  -0.4191
  O  O295  1  0.463100  0.140000  0.382200  1.0  -0.6603
  O  O296  1  0.462500  0.179500  0.452700  1.0  -0.5729
  O  O297  1  0.464400  0.428100  0.021900  1.0  -0.6306
  O  O298  1  0.554600  0.489100  0.080900  1.0  -0.6004
  O  O299  1  0.441300  0.425900  0.474300  1.0  -0.6215
  O  O300  1  0.520700  0.489700  0.424300  1.0  -0.5983
  O  O301  1  0.471400  0.180700  0.043600  1.0  -0.5729
  O  O302  1  0.500000  0.139900  0.114300  1.0  -0.5952
  O  O303  1  0.503200  0.259000  0.250100  1.0  -0.4184
  O  O304  1  0.536900  0.640000  0.117800  1.0  -0.6623
  O  O305  1  0.537500  0.679500  0.047300  1.0  -0.5748
  O  O306  1  0.535600  0.928100  0.478100  1.0  -0.6313
  O  O307  1  0.445400  0.989100  0.419100  1.0  -0.6009
  O  O308  1  0.558700  0.925900  0.025700  1.0  -0.6198
  O  O309  1  0.479300  0.989700  0.075700  1.0  -0.5976
  O  O310  1  0.528600  0.680700  0.456400  1.0  -0.5734
  O  O311  1  0.500000  0.639900  0.385700  1.0  -0.594
  O  O312  1  0.496800  0.759000  0.249900  1.0  -0.417
