# generated using pymatgen
data_Ti6Cu2P2H43C36Br2(NO9)2
_symmetry_space_group_name_H-M   'P 1'
_cell_length_a   13.56000000
_cell_length_b   25.68300000
_cell_length_c   26.59000000
_cell_angle_alpha   99.18500000
_cell_angle_beta   104.31400000
_cell_angle_gamma   104.89500000
_symmetry_Int_Tables_number   1
_chemical_formula_structural   Ti6Cu2P2H43C36Br2(NO9)2
_chemical_formula_sum   'Ti24 Cu8 P8 H172 C144 Br8 N8 O72'
_cell_volume   8421.41535822
_cell_formula_units_Z   4
loop_
 _symmetry_equiv_pos_site_id
 _symmetry_equiv_pos_as_xyz
  1  'x, y, z'
loop_
 _atom_site_type_symbol
 _atom_site_label
 _atom_site_symmetry_multiplicity
 _atom_site_fract_x
 _atom_site_fract_y
 _atom_site_fract_z
 _atom_site_occupancy
 _atom_site_charge
  Ti  Ti1  1  0.476690  0.376300  0.447990  1.0  1.8145
  Ti  Ti2  1  0.334550  0.423300  0.507170  1.0  1.7081
  Ti  Ti3  1  0.632780  0.464730  0.548640  1.0  1.5693
  Ti  Ti4  1  0.310370  0.041190  0.944730  1.0  1.7291
  Ti  Ti5  1  0.512810  0.027100  0.918460  1.0  1.5495
  Ti  Ti6  1  0.500460  0.098100  0.050120  1.0  1.7575
  Ti  Ti7  1  0.628490  0.077060  0.569650  1.0  1.5939
  Ti  Ti8  1  0.706800  0.056620  0.470410  1.0  1.7598
  Ti  Ti9  1  0.631620  0.940580  0.495780  1.0  1.7625
  Ti  Ti10  1  0.932990  0.530950  0.889170  1.0  1.7801
  Ti  Ti11  1  0.147870  0.532650  0.966280  1.0  1.5704
  Ti  Ti12  1  0.892580  0.414440  0.916360  1.0  1.7411
  Ti  Ti13  1  0.523310  0.623700  0.552010  1.0  1.828
  Ti  Ti14  1  0.665450  0.576700  0.492830  1.0  1.6916
  Ti  Ti15  1  0.367220  0.535270  0.451360  1.0  1.5768
  Ti  Ti16  1  0.689630  0.958810  0.055270  1.0  1.7053
  Ti  Ti17  1  0.487190  0.972900  0.081540  1.0  1.5446
  Ti  Ti18  1  0.499540  0.901900  0.949880  1.0  1.7477
  Ti  Ti19  1  0.371510  0.922940  0.430350  1.0  1.6043
  Ti  Ti20  1  0.293200  0.943380  0.529590  1.0  1.7607
  Ti  Ti21  1  0.368380  0.059420  0.504220  1.0  1.7655
  Ti  Ti22  1  0.067010  0.469050  0.110830  1.0  1.7753
  Ti  Ti23  1  0.852130  0.467350  0.033720  1.0  1.5907
  Ti  Ti24  1  0.107420  0.585560  0.083640  1.0  1.7429
  Cu  Cu25  1  0.353190  0.271260  0.716620  1.0  0.1672
  Cu  Cu26  1  0.309960  0.260690  0.807470  1.0  0.1981
  Cu  Cu27  1  0.174870  0.195050  0.707840  1.0  0.1899
  Cu  Cu28  1  0.165110  0.292400  0.741500  1.0  0.1909
  Cu  Cu29  1  0.646810  0.728740  0.283380  1.0  0.1677
  Cu  Cu30  1  0.690040  0.739310  0.192530  1.0  0.1986
  Cu  Cu31  1  0.825130  0.804950  0.292160  1.0  0.192
  Cu  Cu32  1  0.834890  0.707600  0.258500  1.0  0.1911
  P  P33  1  0.496180  0.518560  0.611880  1.0  1.5198
  P  P34  1  0.714190  0.081870  0.025280  1.0  1.5218
  P  P35  1  0.113130  0.415240  0.999190  1.0  1.5208
  P  P36  1  0.543290  0.958930  0.598260  1.0  1.5108
  P  P37  1  0.503820  0.481440  0.388120  1.0  1.5214
  P  P38  1  0.285810  0.918130  0.974720  1.0  1.521
  P  P39  1  0.886870  0.584760  0.000810  1.0  1.5206
  P  P40  1  0.456710  0.041070  0.401740  1.0  1.511
  H  H41  1  0.375800  0.328000  0.630100  1.0  0.06
  H  H42  1  0.537500  0.258300  0.545300  1.0  0.0779
  H  H43  1  0.561300  0.202300  0.606600  1.0  0.102
  H  H44  1  0.493800  0.213400  0.678300  1.0  0.0632
  H  H45  1  0.522000  0.611400  0.693700  1.0  0.0882
  H  H46  1  0.501900  0.622900  0.779500  1.0  0.0887
  H  H47  1  0.462800  0.547800  0.816000  1.0  0.0894
  H  H48  1  0.429200  0.460700  0.766600  1.0  0.0868
  H  H49  1  0.450200  0.448000  0.681800  1.0  0.0754
  H  H50  1  0.120800  0.262100  0.374400  1.0  0.0974
  H  H51  1  0.171200  0.282500  0.438000  1.0  0.0955
  H  H52  1  0.239900  0.262400  0.402300  1.0  0.1129
  H  H53  1  0.249100  0.397200  0.366100  1.0  0.1101
  H  H54  1  0.133400  0.351600  0.342600  1.0  0.1182
  H  H55  1  0.234800  0.338200  0.329800  1.0  0.1061
  H  H56  1  0.802600  0.343200  0.474100  1.0  0.101
  H  H57  1  0.678200  0.316600  0.467500  1.0  0.108
  H  H58  1  0.757800  0.355200  0.523700  1.0  0.1117
  H  H59  1  0.744700  0.464600  0.445900  1.0  0.1342
  H  H60  1  0.801400  0.422000  0.424500  1.0  0.1238
  H  H61  1  0.846600  0.456500  0.485500  1.0  0.1171
  H  H62  1  0.513300  0.336800  0.890100  1.0  0.0551
  H  H63  1  0.640600  0.333900  0.963200  1.0  0.0868
  H  H64  1  0.613800  0.254500  0.997300  1.0  0.0977
  H  H65  1  0.338300  0.184900  0.878500  1.0  0.0764
  H  H66  1  0.819000  0.147400  0.966600  1.0  0.0635
  H  H67  1  0.981300  0.214100  0.982900  1.0  0.038
  H  H68  1  0.055500  0.215800  0.129500  1.0  0.0562
  H  H69  1  0.890400  0.142300  0.115500  1.0  0.087
  H  H70  1  0.293200  0.918900  0.844900  1.0  0.1276
  H  H71  1  0.340800  0.933600  0.797700  1.0  0.0989
  H  H72  1  0.214200  0.914900  0.787700  1.0  0.1054
  H  H73  1  0.233900  0.005900  0.760200  1.0  0.0864
  H  H74  1  0.349400  0.046900  0.795900  1.0  0.0988
  H  H75  1  0.244700  0.051800  0.811300  1.0  0.1006
  H  H76  1  0.201600  0.149100  0.068800  1.0  0.1062
  H  H77  1  0.226900  0.147300  0.013000  1.0  0.105
  H  H78  1  0.322400  0.172300  0.067900  1.0  0.1084
  H  H79  1  0.242300  0.013600  0.055100  1.0  0.1171
  H  H80  1  0.139400  0.034000  0.051600  1.0  0.1108
  H  H81  1  0.236900  0.054400  0.105800  1.0  0.1103
  H  H82  1  0.123500  0.096400  0.747900  1.0  0.0554
  H  H83  1  0.018400  0.004400  0.721500  1.0  0.0942
  H  H84  1  0.900500  0.971700  0.634500  1.0  0.0881
  H  H85  1  0.994400  0.124600  0.610500  1.0  0.0644
  H  H86  1  0.737200  0.950800  0.664200  1.0  0.0871
  H  H87  1  0.783100  0.924700  0.745500  1.0  0.0729
  H  H88  1  0.667100  0.897500  0.788100  1.0  0.0882
  H  H89  1  0.499300  0.899500  0.755100  1.0  0.0728
  H  H90  1  0.440600  0.919000  0.672700  1.0  0.0812
  H  H91  1  0.663800  0.905900  0.393600  1.0  0.0671
  H  H92  1  0.555000  0.946200  0.348600  1.0  0.085
  H  H93  1  0.628800  0.927800  0.315200  1.0  0.078
  H  H94  1  0.655500  0.991700  0.343700  1.0  0.0856
  H  H95  1  0.817300  0.932300  0.366900  1.0  0.0825
  H  H96  1  0.842200  0.940400  0.430200  1.0  0.0982
  H  H97  1  0.848400  0.992900  0.404500  1.0  0.0984
  H  H98  1  0.700600  0.189900  0.558100  1.0  0.0643
  H  H99  1  0.584800  0.169300  0.478600  1.0  0.0876
  H  H100  1  0.680700  0.183700  0.453000  1.0  0.0901
  H  H101  1  0.666500  0.230900  0.495200  1.0  0.0715
  H  H102  1  0.863100  0.244300  0.553900  1.0  0.105
  H  H103  1  0.880400  0.189000  0.525400  1.0  0.1071
  H  H104  1  0.870600  0.196100  0.584700  1.0  0.105
  H  H105  1  0.040500  0.349600  0.798100  1.0  0.0776
  H  H106  1  0.082200  0.500500  0.766700  1.0  0.0946
  H  H107  1  0.173900  0.475000  0.707600  1.0  0.0909
  H  H108  1  0.200300  0.390100  0.698400  1.0  0.0507
  H  H109  1  0.131600  0.333000  0.919000  1.0  0.0813
  H  H110  1  0.222300  0.267100  0.920000  1.0  0.0746
  H  H111  1  0.334100  0.262200  0.997000  1.0  0.0811
  H  H112  1  0.349400  0.319300  0.076500  1.0  0.0818
  H  H113  1  0.254500  0.382700  0.078000  1.0  0.0833
  H  H114  1  0.206000  0.667200  0.864100  1.0  0.1028
  H  H115  1  0.103600  0.613700  0.835500  1.0  0.1011
  H  H116  1  0.215400  0.606600  0.865500  1.0  0.1101
  H  H117  1  0.108500  0.663100  0.978200  1.0  0.1147
  H  H118  1  0.070100  0.687900  0.928000  1.0  0.096
  H  H119  1  0.194400  0.706300  0.961000  1.0  0.1246
  H  H120  1  0.675400  0.405800  0.859100  1.0  0.0751
  H  H121  1  0.669500  0.481500  0.912000  1.0  0.0835
  H  H122  1  0.571100  0.460400  0.858200  1.0  0.0918
  H  H123  1  0.670000  0.513800  0.865300  1.0  0.0804
  H  H124  1  0.723000  0.401700  0.782600  1.0  0.1009
  H  H125  1  0.705600  0.460300  0.778300  1.0  0.1069
  H  H126  1  0.605900  0.408100  0.772900  1.0  0.096
  H  H127  1  0.624200  0.672000  0.369900  1.0  0.0599
  H  H128  1  0.462500  0.741700  0.454700  1.0  0.0783
  H  H129  1  0.438700  0.797700  0.393400  1.0  0.1025
  H  H130  1  0.506200  0.786600  0.321700  1.0  0.0631
  H  H131  1  0.478000  0.388600  0.306300  1.0  0.0876
  H  H132  1  0.498100  0.377100  0.220500  1.0  0.0903
  H  H133  1  0.537200  0.452200  0.184000  1.0  0.0894
  H  H134  1  0.570800  0.539300  0.233400  1.0  0.086
  H  H135  1  0.549800  0.552000  0.318200  1.0  0.0751
  H  H136  1  0.879200  0.737900  0.625600  1.0  0.0991
  H  H137  1  0.828800  0.717500  0.562000  1.0  0.097
  H  H138  1  0.760100  0.737600  0.597700  1.0  0.1109
  H  H139  1  0.750900  0.602800  0.633900  1.0  0.107
  H  H140  1  0.866600  0.648400  0.657400  1.0  0.1167
  H  H141  1  0.765200  0.661800  0.670200  1.0  0.1099
  H  H142  1  0.197400  0.656800  0.525900  1.0  0.0998
  H  H143  1  0.321800  0.683400  0.532500  1.0  0.11
  H  H144  1  0.242200  0.644800  0.476300  1.0  0.1118
  H  H145  1  0.255300  0.535400  0.554100  1.0  0.1307
  H  H146  1  0.198600  0.578000  0.575500  1.0  0.1226
  H  H147  1  0.153400  0.543500  0.514500  1.0  0.1156
  H  H148  1  0.486700  0.663200  0.109900  1.0  0.0546
  H  H149  1  0.359400  0.666100  0.036800  1.0  0.0867
  H  H150  1  0.386200  0.745500  0.002700  1.0  0.0966
  H  H151  1  0.661700  0.815100  0.121500  1.0  0.0764
  H  H152  1  0.181000  0.852600  0.033400  1.0  0.0645
  H  H153  1  0.018700  0.785900  0.017100  1.0  0.0371
  H  H154  1  0.944500  0.784200  0.870500  1.0  0.0548
  H  H155  1  0.109600  0.857700  0.884500  1.0  0.0867
  H  H156  1  0.706800  0.081100  0.155100  1.0  0.1305
  H  H157  1  0.659200  0.066400  0.202300  1.0  0.0994
  H  H158  1  0.785800  0.085100  0.212300  1.0  0.1067
  H  H159  1  0.766100  0.994100  0.239800  1.0  0.0876
  H  H160  1  0.650600  0.953100  0.204100  1.0  0.0968
  H  H161  1  0.755300  0.948200  0.188700  1.0  0.1005
  H  H162  1  0.798400  0.850900  0.931200  1.0  0.1063
  H  H163  1  0.773100  0.852700  0.987000  1.0  0.1043
  H  H164  1  0.677600  0.827700  0.932100  1.0  0.1074
  H  H165  1  0.757700  0.986400  0.944900  1.0  0.1191
  H  H166  1  0.860600  0.966000  0.948400  1.0  0.109
  H  H167  1  0.763100  0.945600  0.894200  1.0  0.111
  H  H168  1  0.876500  0.903600  0.252100  1.0  0.0553
  H  H169  1  0.981600  0.995600  0.278500  1.0  0.094
  H  H170  1  0.099500  0.028300  0.365500  1.0  0.0879
  H  H171  1  0.005600  0.875400  0.389500  1.0  0.0647
  H  H172  1  0.262800  0.049200  0.335800  1.0  0.0864
  H  H173  1  0.216900  0.075300  0.254500  1.0  0.0639
  H  H174  1  0.332900  0.102500  0.211900  1.0  0.0852
  H  H175  1  0.500700  0.100500  0.244900  1.0  0.0725
  H  H176  1  0.559400  0.081000  0.327300  1.0  0.0819
  H  H177  1  0.336200  0.094100  0.606400  1.0  0.0693
  H  H178  1  0.445000  0.053800  0.651400  1.0  0.0839
  H  H179  1  0.371200  0.072200  0.684800  1.0  0.0786
  H  H180  1  0.344500  0.008300  0.656300  1.0  0.0845
  H  H181  1  0.182700  0.067700  0.633100  1.0  0.0827
  H  H182  1  0.157800  0.059600  0.569800  1.0  0.0983
  H  H183  1  0.151600  0.007100  0.595500  1.0  0.0972
  H  H184  1  0.299400  0.810100  0.441900  1.0  0.0656
  H  H185  1  0.415200  0.830700  0.521400  1.0  0.0891
  H  H186  1  0.319300  0.816300  0.547000  1.0  0.0908
  H  H187  1  0.333500  0.769100  0.504800  1.0  0.0688
  H  H188  1  0.136900  0.755700  0.446100  1.0  0.1022
  H  H189  1  0.119600  0.811000  0.474600  1.0  0.1073
  H  H190  1  0.129400  0.803900  0.415300  1.0  0.1053
  H  H191  1  0.959500  0.650400  0.201900  1.0  0.0787
  H  H192  1  0.917800  0.499500  0.233300  1.0  0.0943
  H  H193  1  0.826100  0.525000  0.292400  1.0  0.0913
  H  H194  1  0.799700  0.609900  0.301600  1.0  0.0506
  H  H195  1  0.868400  0.667000  0.081000  1.0  0.0811
  H  H196  1  0.777700  0.732900  0.080000  1.0  0.0754
  H  H197  1  0.665900  0.737800  0.003000  1.0  0.0812
  H  H198  1  0.650600  0.680700  0.923500  1.0  0.0817
  H  H199  1  0.745500  0.617300  0.922000  1.0  0.0831
  H  H200  1  0.794000  0.332800  0.135900  1.0  0.0995
  H  H201  1  0.896400  0.386300  0.164500  1.0  0.1038
  H  H202  1  0.784600  0.393400  0.134500  1.0  0.1057
  H  H203  1  0.891500  0.336900  0.021800  1.0  0.1148
  H  H204  1  0.929900  0.312100  0.072000  1.0  0.0912
  H  H205  1  0.805600  0.293700  0.039000  1.0  0.1241
  H  H206  1  0.324600  0.594200  0.140900  1.0  0.0783
  H  H207  1  0.330500  0.518500  0.088000  1.0  0.0853
  H  H208  1  0.428900  0.539600  0.141800  1.0  0.0935
  H  H209  1  0.330000  0.486200  0.134700  1.0  0.0808
  H  H210  1  0.277000  0.598300  0.217400  1.0  0.1027
  H  H211  1  0.294400  0.539700  0.221700  1.0  0.1075
  H  H212  1  0.394100  0.591900  0.227100  1.0  0.0956
  C  C213  1  0.415200  0.302830  0.625630  1.0  0.1533
  C  C214  1  0.455100  0.299550  0.582040  1.0  -0.2374
  C  C215  1  0.509900  0.261670  0.574820  1.0  -0.0209
  C  C216  1  0.524400  0.228710  0.610940  1.0  -0.1399
  C  C217  1  0.483600  0.235620  0.653290  1.0  0.1209
  C  C218  1  0.431500  0.333370  0.542640  1.0  0.6943
  C  C219  1  0.487000  0.528250  0.678700  1.0  -0.1826
  C  C220  1  0.503200  0.579990  0.708120  1.0  -0.0911
  C  C221  1  0.492100  0.586900  0.759440  1.0  -0.1368
  C  C222  1  0.467500  0.542600  0.780610  1.0  -0.1102
  C  C223  1  0.449700  0.491870  0.752090  1.0  -0.1284
  C  C224  1  0.460900  0.484340  0.701330  1.0  -0.093
  C  C225  1  0.228500  0.338240  0.398960  1.0  0.1904
  C  C226  1  0.186700  0.281700  0.403800  1.0  -0.3654
  C  C227  1  0.210400  0.357500  0.356900  1.0  -0.4158
  C  C228  1  0.719600  0.398640  0.468260  1.0  0.1972
  C  C229  1  0.741400  0.349200  0.484800  1.0  -0.3632
  C  C230  1  0.781800  0.437800  0.455300  1.0  -0.4208
  C  C231  1  0.502600  0.304000  0.902900  1.0  0.1307
  C  C232  1  0.578100  0.302930  0.946560  1.0  -0.1835
  C  C233  1  0.562500  0.256170  0.966450  1.0  -0.0445
  C  C234  1  0.473000  0.212530  0.941460  1.0  -0.1756
  C  C235  1  0.400200  0.215860  0.896350  1.0  0.1555
  C  C236  1  0.449600  0.161040  0.962050  1.0  0.6574
  C  C237  1  0.840000  0.135080  0.037650  1.0  0.1241
  C  C238  1  0.867500  0.158600  0.001800  1.0  -0.0909
  C  C239  1  0.965800  0.200000  0.011900  1.0  -0.0444
  C  C240  1  0.032500  0.219000  0.056200  1.0  0.3529
  C  C241  1  0.007600  0.200500  0.094300  1.0  -0.0617
  C  C242  1  0.906400  0.155600  0.086200  1.0  -0.1453
  C  C243  1  0.288900  0.987300  0.829380  1.0  0.197
  C  C244  1  0.284000  0.935400  0.813900  1.0  -0.4052
  C  C245  1  0.278400  0.026000  0.796590  1.0  -0.3461
  C  C246  1  0.264800  0.090200  0.049100  1.0  0.1219
  C  C247  1  0.253000  0.143900  0.049700  1.0  -0.4073
  C  C248  1  0.217300  0.044700  0.066700  1.0  -0.4239
  C  C249  1  0.074000  0.083110  0.712960  1.0  0.1452
  C  C250  1  0.012600  0.028340  0.697820  1.0  -0.1348
  C  C251  1  0.942400  0.009690  0.646950  1.0  -0.0208
  C  C252  1  0.932000  0.045230  0.613850  1.0  -0.208
  C  C253  1  0.998600  0.099580  0.633090  1.0  0.1622
  C  C254  1  0.849200  0.026560  0.560800  1.0  0.6834
  C  C255  1  0.582500  0.938490  0.659560  1.0  -0.0606
  C  C256  1  0.684400  0.939600  0.681400  1.0  -0.1279
  C  C257  1  0.711200  0.923700  0.730600  1.0  -0.1154
  C  C258  1  0.645900  0.908600  0.755700  1.0  -0.1385
  C  C259  1  0.548800  0.908700  0.735700  1.0  -0.113
  C  C260  1  0.513900  0.921800  0.686900  1.0  -0.1073
  C  C261  1  0.694900  0.945720  0.393630  1.0  0.1635
  C  C262  1  0.628400  0.953500  0.346600  1.0  -0.3863
  C  C263  1  0.810700  0.953500  0.399300  1.0  -0.3554
  C  C264  1  0.725700  0.177550  0.527190  1.0  0.1813
  C  C265  1  0.659400  0.191380  0.485300  1.0  -0.3611
  C  C266  1  0.845400  0.204040  0.549800  1.0  -0.3235
  C  C267  1  0.068900  0.375920  0.779890  1.0  0.1459
  C  C268  1  0.052000  0.426900  0.788460  1.0  -0.2257
  C  C269  1  0.092000  0.464960  0.761630  1.0  -0.0402
  C  C270  1  0.146600  0.449970  0.727230  1.0  -0.1538
  C  C271  1  0.161100  0.399320  0.721710  1.0  0.1369
  C  C272  1  0.994400  0.441170  0.827030  1.0  0.6655
  C  C273  1  0.183900  0.365100  0.997900  1.0  -0.1609
  C  C274  1  0.175500  0.330710  0.952020  1.0  -0.1124
  C  C275  1  0.230900  0.291680  0.952640  1.0  -0.1281
  C  C276  1  0.295100  0.288110  0.997510  1.0  -0.1549
  C  C277  1  0.304200  0.321740  0.043960  1.0  -0.1756
  C  C278  1  0.248400  0.359840  0.044810  1.0  -0.1019
  C  C279  1  0.139500  0.632990  0.915400  1.0  0.1441
  C  C280  1  0.168500  0.629900  0.866100  1.0  -0.3607
  C  C281  1  0.127300  0.675500  0.947900  1.0  -0.4181
  C  C282  1  0.701900  0.441950  0.849760  1.0  0.1709
  C  C283  1  0.648800  0.477300  0.873220  1.0  -0.358
  C  C284  1  0.682500  0.426710  0.790830  1.0  -0.3323
  C  C285  1  0.584800  0.697170  0.374370  1.0  0.1542
  C  C286  1  0.544900  0.700450  0.417960  1.0  -0.2378
  C  C287  1  0.490100  0.738330  0.425180  1.0  -0.0212
  C  C288  1  0.475600  0.771290  0.389060  1.0  -0.1411
  C  C289  1  0.516400  0.764380  0.346710  1.0  0.1196
  C  C290  1  0.568500  0.666667  0.457360  1.0  0.6966
  C  C291  1  0.513000  0.471750  0.321300  1.0  -0.1809
  C  C292  1  0.496800  0.420010  0.291880  1.0  -0.0908
  C  C293  1  0.507900  0.413100  0.240560  1.0  -0.1383
  C  C294  1  0.532500  0.457400  0.219390  1.0  -0.1115
  C  C295  1  0.550300  0.508130  0.247910  1.0  -0.1277
  C  C296  1  0.539100  0.515660  0.298670  1.0  -0.0923
  C  C297  1  0.771500  0.661760  0.601040  1.0  0.1925
  C  C298  1  0.813300  0.718300  0.596200  1.0  -0.3654
  C  C299  1  0.789600  0.642500  0.643100  1.0  -0.4175
  C  C300  1  0.280400  0.601360  0.531740  1.0  0.1956
  C  C301  1  0.258600  0.650800  0.515200  1.0  -0.3631
  C  C302  1  0.218200  0.562200  0.544700  1.0  -0.4218
  C  C303  1  0.497400  0.696000  0.097100  1.0  0.1328
  C  C304  1  0.421900  0.697070  0.053440  1.0  -0.1832
  C  C305  1  0.437500  0.743830  0.033550  1.0  -0.0466
  C  C306  1  0.527000  0.787470  0.058540  1.0  -0.177
  C  C307  1  0.599800  0.784140  0.103650  1.0  0.1551
  C  C308  1  0.550400  0.838960  0.037950  1.0  0.6572
  C  C309  1  0.160000  0.864920  0.962350  1.0  0.1233
  C  C310  1  0.132500  0.841400  0.998200  1.0  -0.0949
  C  C311  1  0.034200  0.800000  0.988100  1.0  -0.0451
  C  C312  1  0.967500  0.781000  0.943800  1.0  0.3502
  C  C313  1  0.992400  0.799500  0.905700  1.0  -0.0623
  C  C314  1  0.093600  0.844400  0.913800  1.0  -0.1432
  C  C315  1  0.711100  0.012700  0.170620  1.0  0.1969
  C  C316  1  0.716000  0.064600  0.186100  1.0  -0.4077
  C  C317  1  0.721600  0.974000  0.203410  1.0  -0.3458
  C  C318  1  0.735200  0.909800  0.950900  1.0  0.1222
  C  C319  1  0.747000  0.856100  0.950300  1.0  -0.4076
  C  C320  1  0.782700  0.955300  0.933300  1.0  -0.4249
  C  C321  1  0.926000  0.916890  0.287040  1.0  0.145
  C  C322  1  0.987400  0.971660  0.302180  1.0  -0.1361
  C  C323  1  0.057600  0.990310  0.353050  1.0  -0.0199
  C  C324  1  0.068000  0.954770  0.386150  1.0  -0.2064
  C  C325  1  0.001400  0.900420  0.366910  1.0  0.1639
  C  C326  1  0.150800  0.973440  0.439200  1.0  0.6836
  C  C327  1  0.417500  0.061510  0.340440  1.0  -0.0592
  C  C328  1  0.315600  0.060400  0.318600  1.0  -0.1281
  C  C329  1  0.288800  0.076300  0.269400  1.0  -0.1157
  C  C330  1  0.354100  0.091400  0.244300  1.0  -0.1387
  C  C331  1  0.451200  0.091300  0.264300  1.0  -0.1111
  C  C332  1  0.486100  0.078200  0.313100  1.0  -0.1057
  C  C333  1  0.305100  0.054280  0.606370  1.0  0.1646
  C  C334  1  0.371600  0.046500  0.653400  1.0  -0.3866
  C  C335  1  0.189300  0.046500  0.600700  1.0  -0.3562
  C  C336  1  0.274300  0.822450  0.472810  1.0  0.1825
  C  C337  1  0.340600  0.808620  0.514700  1.0  -0.3607
  C  C338  1  0.154600  0.795960  0.450200  1.0  -0.3237
  C  C339  1  0.931100  0.624080  0.220110  1.0  0.1455
  C  C340  1  0.948000  0.573100  0.211540  1.0  -0.2249
  C  C341  1  0.908000  0.535040  0.238370  1.0  -0.042
  C  C342  1  0.853400  0.550030  0.272770  1.0  -0.1555
  C  C343  1  0.838900  0.600680  0.278290  1.0  0.1369
  C  C344  1  0.005600  0.558830  0.172970  1.0  0.6657
  C  C345  1  0.816100  0.634900  0.002100  1.0  -0.1579
  C  C346  1  0.824500  0.669290  0.047980  1.0  -0.1124
  C  C347  1  0.769100  0.708320  0.047360  1.0  -0.1272
  C  C348  1  0.704900  0.711890  0.002490  1.0  -0.1575
  C  C349  1  0.695800  0.678260  0.956040  1.0  -0.1767
  C  C350  1  0.751600  0.640160  0.955190  1.0  -0.1016
  C  C351  1  0.860500  0.367010  0.084600  1.0  0.1416
  C  C352  1  0.831500  0.370100  0.133900  1.0  -0.3607
  C  C353  1  0.872700  0.324500  0.052100  1.0  -0.4181
  C  C354  1  0.298100  0.558050  0.150240  1.0  0.1713
  C  C355  1  0.351200  0.522700  0.126780  1.0  -0.3578
  C  C356  1  0.317500  0.573290  0.209170  1.0  -0.3351
  Br  Br357  1  0.349270  0.181180  0.746020  1.0  -0.3667
  Br  Br358  1  0.146130  0.254340  0.647110  1.0  -0.373
  Br  Br359  1  0.383790  0.350920  0.785710  1.0  -0.3943
  Br  Br360  1  0.117770  0.231660  0.798870  1.0  -0.3787
  Br  Br361  1  0.650730  0.818820  0.253980  1.0  -0.3671
  Br  Br362  1  0.853870  0.745660  0.352890  1.0  -0.3728
  Br  Br363  1  0.616210  0.649080  0.214290  1.0  -0.3937
  Br  Br364  1  0.882230  0.768340  0.201130  1.0  -0.3792
  N  N365  1  0.429800  0.272330  0.661180  1.0  -0.3246
  N  N366  1  0.414100  0.261560  0.876800  1.0  -0.3169
  N  N367  1  0.068700  0.118290  0.682410  1.0  -0.3197
  N  N368  1  0.123600  0.361870  0.747020  1.0  -0.3043
  N  N369  1  0.570200  0.727670  0.338820  1.0  -0.3228
  N  N370  1  0.585900  0.738440  0.123200  1.0  -0.3168
  N  N371  1  0.931300  0.881710  0.317590  1.0  -0.3219
  N  N372  1  0.876400  0.638130  0.252980  1.0  -0.3061
  O  O373  1  0.471590  0.328290  0.504290  1.0  -0.6105
  O  O374  1  0.374660  0.363450  0.549840  1.0  -0.6229
  O  O375  1  0.587910  0.495500  0.609170  1.0  -0.8084
  O  O376  1  0.389080  0.478740  0.575630  1.0  -0.8448
  O  O377  1  0.630580  0.408300  0.483970  1.0  -0.6858
  O  O378  1  0.518620  0.576360  0.601210  1.0  -0.8605
  O  O379  1  0.324710  0.368030  0.441170  1.0  -0.6835
  O  O380  1  0.304940  0.473440  0.466680  1.0  -0.8532
  O  O381  1  0.485940  0.436220  0.507450  1.0  -0.8424
  O  O382  1  0.367250  0.120470  0.932470  1.0  -0.6329
  O  O383  1  0.509310  0.161650  0.006020  1.0  -0.6233
  O  O384  1  0.658880  0.066700  0.965270  1.0  -0.8419
  O  O385  1  0.650510  0.106420  0.056870  1.0  -0.8513
  O  O386  1  0.354180  0.013150  0.883720  1.0  -0.6844
  O  O387  1  0.338990  0.079130  0.020170  1.0  -0.7457
  O  O388  1  0.485890  0.041900  0.086290  1.0  -0.8382
  O  O389  1  0.462680  0.050690  0.976560  1.0  -0.8752
  O  O390  1  0.741090  0.033030  0.044440  1.0  -0.9106
  O  O391  1  0.505030  0.090330  0.552520  1.0  -0.7822
  O  O392  1  0.787360  0.978140  0.550530  1.0  -0.6296
  O  O393  1  0.844500  0.060010  0.531410  1.0  -0.6125
  O  O394  1  0.421820  0.943970  0.581780  1.0  -0.8545
  O  O395  1  0.596530  0.021290  0.610560  1.0  -0.8476
  O  O396  1  0.581400  0.927280  0.557750  1.0  -0.8434
  O  O397  1  0.698790  0.118040  0.522230  1.0  -0.7424
  O  O398  1  0.687510  0.977370  0.442320  1.0  -0.729
  O  O399  1  0.630710  0.019030  0.515350  1.0  -0.8176
  O  O400  1  0.963500  0.406130  0.851880  1.0  -0.6274
  O  O401  1  0.981750  0.488930  0.831480  1.0  -0.6167
  O  O402  1  0.106770  0.428520  0.055850  1.0  -0.8732
  O  O403  1  0.176750  0.466910  0.986470  1.0  -0.8479
  O  O404  1  0.003320  0.388420  0.957880  1.0  -0.8506
  O  O405  1  0.816590  0.460850  0.876700  1.0  -0.7372
  O  O406  1  0.083320  0.577860  0.919130  1.0  -0.7603
  O  O407  1  0.169700  0.575460  0.029440  1.0  -0.8138
  O  O408  1  0.001140  0.489310  0.936260  1.0  -0.8818
  O  O409  1  0.528410  0.671710  0.495710  1.0  -0.61
  O  O410  1  0.625340  0.636550  0.450160  1.0  -0.6242
  O  O411  1  0.412090  0.504500  0.390830  1.0  -0.8071
  O  O412  1  0.610920  0.521260  0.424370  1.0  -0.8439
  O  O413  1  0.369420  0.591700  0.516030  1.0  -0.6867
  O  O414  1  0.481380  0.423640  0.398790  1.0  -0.8602
  O  O415  1  0.675290  0.631970  0.558830  1.0  -0.6847
  O  O416  1  0.695060  0.526560  0.533320  1.0  -0.8527
  O  O417  1  0.514060  0.563780  0.492550  1.0  -0.8428
  O  O418  1  0.632750  0.879530  0.067530  1.0  -0.632
  O  O419  1  0.490690  0.838350  0.993980  1.0  -0.6235
  O  O420  1  0.341120  0.933300  0.034730  1.0  -0.8406
  O  O421  1  0.349490  0.893580  0.943130  1.0  -0.8502
  O  O422  1  0.645820  0.986850  0.116280  1.0  -0.6833
  O  O423  1  0.661010  0.920870  0.979830  1.0  -0.7446
  O  O424  1  0.514110  0.958100  0.913710  1.0  -0.8354
  O  O425  1  0.537320  0.949310  0.023440  1.0  -0.8754
  O  O426  1  0.258910  0.966970  0.955560  1.0  -0.9089
  O  O427  1  0.494970  0.909670  0.447480  1.0  -0.7827
  O  O428  1  0.212640  0.021860  0.449470  1.0  -0.6293
  O  O429  1  0.155500  0.939990  0.468590  1.0  -0.6125
  O  O430  1  0.578180  0.056030  0.418220  1.0  -0.8544
  O  O431  1  0.403470  0.978710  0.389440  1.0  -0.846
  O  O432  1  0.418600  0.072720  0.442250  1.0  -0.8436
  O  O433  1  0.301210  0.881960  0.477770  1.0  -0.7415
  O  O434  1  0.312490  0.022630  0.557680  1.0  -0.7297
  O  O435  1  0.369290  0.980970  0.484650  1.0  -0.8159
  O  O436  1  0.036500  0.593870  0.148120  1.0  -0.6288
  O  O437  1  0.018250  0.511070  0.168520  1.0  -0.6156
  O  O438  1  0.893230  0.571480  0.944150  1.0  -0.8728
  O  O439  1  0.823250  0.533090  0.013530  1.0  -0.8489
  O  O440  1  0.996680  0.611580  0.042120  1.0  -0.8502
  O  O441  1  0.183410  0.539150  0.123300  1.0  -0.7411
  O  O442  1  0.916680  0.422140  0.080870  1.0  -0.7608
  O  O443  1  0.830300  0.424540  0.970560  1.0  -0.8159
  O  O444  1  0.998860  0.510690  0.063740  1.0  -0.8814
