# generated using pymatgen
data_TmH7C14(NO3)2
_symmetry_space_group_name_H-M   'P 1'
_cell_length_a   21.89470000
_cell_length_b   8.30620000
_cell_length_c   23.20340000
_cell_angle_alpha   90.00000000
_cell_angle_beta   100.05300000
_cell_angle_gamma   90.00000000
_symmetry_Int_Tables_number   1
_chemical_formula_structural   TmH7C14(NO3)2
_chemical_formula_sum   'Tm8 H56 C112 N16 O48'
_cell_volume   4155.02308208
_cell_formula_units_Z   8
loop_
 _symmetry_equiv_pos_site_id
 _symmetry_equiv_pos_as_xyz
  1  'x, y, z'
loop_
 _atom_site_type_symbol
 _atom_site_label
 _atom_site_symmetry_multiplicity
 _atom_site_fract_x
 _atom_site_fract_y
 _atom_site_fract_z
 _atom_site_occupancy
 _atom_site_charge
  Tm  Tm1  1  0.252450  0.965250  0.271620  1.0  2.145
  Tm  Tm2  1  0.752450  0.465250  0.271620  1.0  2.145
  Tm  Tm3  1  0.747550  0.965250  0.228380  1.0  2.1458
  Tm  Tm4  1  0.247550  0.465250  0.228380  1.0  2.1458
  Tm  Tm5  1  0.747550  0.034750  0.728380  1.0  2.1465
  Tm  Tm6  1  0.247550  0.534750  0.728380  1.0  2.1465
  Tm  Tm7  1  0.252450  0.034750  0.771620  1.0  2.1457
  Tm  Tm8  1  0.752450  0.534750  0.771620  1.0  2.1457
  H  H9  1  0.073400  0.731800  0.166900  1.0  0.0993
  H  H10  1  0.095700  0.218800  0.079100  1.0  0.1001
  H  H11  1  0.015800  0.785900  0.077600  1.0  0.109
  H  H12  1  0.130700  0.749000  0.957300  1.0  0.1123
  H  H13  1  0.161700  0.994600  0.929100  1.0  0.1004
  H  H14  1  0.263600  0.062000  0.087600  1.0  0.0902
  H  H15  1  0.169600  0.590500  0.089400  1.0  0.3721
  H  H16  1  0.573400  0.231800  0.166900  1.0  0.0993
  H  H17  1  0.595700  0.718800  0.079100  1.0  0.1001
  H  H18  1  0.515800  0.285900  0.077600  1.0  0.109
  H  H19  1  0.630700  0.249000  0.957300  1.0  0.1123
  H  H20  1  0.661700  0.494600  0.929100  1.0  0.1004
  H  H21  1  0.763600  0.562000  0.087600  1.0  0.0902
  H  H22  1  0.669600  0.090500  0.089400  1.0  0.3721
  H  H23  1  0.926600  0.731800  0.333100  1.0  0.0984
  H  H24  1  0.904300  0.218800  0.420900  1.0  0.0996
  H  H25  1  0.984200  0.785900  0.422400  1.0  0.1094
  H  H26  1  0.869300  0.749000  0.542700  1.0  0.1125
  H  H27  1  0.838300  0.994600  0.570900  1.0  0.0998
  H  H28  1  0.736400  0.062000  0.412400  1.0  0.0899
  H  H29  1  0.830400  0.590500  0.410600  1.0  0.3715
  H  H30  1  0.426600  0.231800  0.333100  1.0  0.0984
  H  H31  1  0.404300  0.718800  0.420900  1.0  0.0996
  H  H32  1  0.484200  0.285900  0.422400  1.0  0.1094
  H  H33  1  0.369300  0.249000  0.542700  1.0  0.1125
  H  H34  1  0.338300  0.494600  0.570900  1.0  0.0998
  H  H35  1  0.236400  0.562000  0.412400  1.0  0.0899
  H  H36  1  0.330400  0.090500  0.410600  1.0  0.3715
  H  H37  1  0.926600  0.268200  0.833100  1.0  0.0988
  H  H38  1  0.904300  0.781200  0.920900  1.0  0.1003
  H  H39  1  0.984200  0.214100  0.922400  1.0  0.1098
  H  H40  1  0.869300  0.251000  0.042700  1.0  0.1128
  H  H41  1  0.838300  0.005400  0.070900  1.0  0.0992
  H  H42  1  0.736400  0.938000  0.912400  1.0  0.0894
  H  H43  1  0.830400  0.409500  0.910600  1.0  0.3714
  H  H44  1  0.426600  0.768200  0.833100  1.0  0.0988
  H  H45  1  0.404300  0.281200  0.920900  1.0  0.1003
  H  H46  1  0.484200  0.714100  0.922400  1.0  0.1098
  H  H47  1  0.369300  0.751000  0.042700  1.0  0.1128
  H  H48  1  0.338300  0.505400  0.070900  1.0  0.0992
  H  H49  1  0.236400  0.438000  0.912400  1.0  0.0894
  H  H50  1  0.330400  0.909500  0.910600  1.0  0.3714
  H  H51  1  0.073400  0.268200  0.666900  1.0  0.0988
  H  H52  1  0.095700  0.781200  0.579100  1.0  0.1008
  H  H53  1  0.015800  0.214100  0.577600  1.0  0.1101
  H  H54  1  0.130700  0.251000  0.457300  1.0  0.113
  H  H55  1  0.161700  0.005400  0.429100  1.0  0.1
  H  H56  1  0.263600  0.938000  0.587600  1.0  0.0899
  H  H57  1  0.169600  0.409500  0.589400  1.0  0.3714
  H  H58  1  0.573400  0.768200  0.666900  1.0  0.0988
  H  H59  1  0.595700  0.281200  0.579100  1.0  0.1008
  H  H60  1  0.515800  0.714100  0.577600  1.0  0.1101
  H  H61  1  0.630700  0.751000  0.457300  1.0  0.113
  H  H62  1  0.661700  0.505400  0.429100  1.0  0.1
  H  H63  1  0.763600  0.438000  0.587600  1.0  0.0899
  H  H64  1  0.669600  0.909500  0.589400  1.0  0.3714
  C  C65  1  0.078800  0.830000  0.149200  1.0  -0.2361
  C  C66  1  0.122500  0.938800  0.178700  1.0  0.3137
  C  C67  1  0.127900  0.087400  0.151500  1.0  -0.1908
  C  C68  1  0.170900  0.216000  0.176800  1.0  0.681
  C  C69  1  0.091700  0.119700  0.096700  1.0  -0.0468
  C  C70  1  0.050600  0.009800  0.068400  1.0  0.1926
  C  C71  1  0.044000  0.861900  0.095800  1.0  -0.1157
  C  C72  1  0.240100  0.797400  0.141800  1.0  0.71
  C  C73  1  0.219200  0.850800  0.079600  1.0  -0.1993
  C  C74  1  0.179100  0.753700  0.039800  1.0  0.3085
  C  C75  1  0.157800  0.811100  0.983600  1.0  -0.2394
  C  C76  1  0.176400  0.958100  0.966800  1.0  -0.1371
  C  C77  1  0.216900  0.054400  0.005000  1.0  0.1639
  C  C78  1  0.237100  0.998200  0.061360  1.0  -0.0095
  C  C79  1  0.578800  0.330000  0.149200  1.0  -0.2361
  C  C80  1  0.622500  0.438800  0.178700  1.0  0.3137
  C  C81  1  0.627900  0.587400  0.151500  1.0  -0.1908
  C  C82  1  0.670900  0.716000  0.176800  1.0  0.681
  C  C83  1  0.591700  0.619700  0.096700  1.0  -0.0468
  C  C84  1  0.550600  0.509800  0.068400  1.0  0.1926
  C  C85  1  0.544000  0.361900  0.095800  1.0  -0.1157
  C  C86  1  0.740100  0.297400  0.141800  1.0  0.71
  C  C87  1  0.719200  0.350800  0.079600  1.0  -0.1993
  C  C88  1  0.679100  0.253700  0.039800  1.0  0.3085
  C  C89  1  0.657800  0.311100  0.983600  1.0  -0.2394
  C  C90  1  0.676400  0.458100  0.966800  1.0  -0.1371
  C  C91  1  0.716900  0.554400  0.005000  1.0  0.1639
  C  C92  1  0.737100  0.498200  0.061360  1.0  -0.0095
  C  C93  1  0.921200  0.830000  0.350800  1.0  -0.2382
  C  C94  1  0.877500  0.938800  0.321300  1.0  0.3119
  C  C95  1  0.872100  0.087400  0.348500  1.0  -0.1895
  C  C96  1  0.829100  0.216000  0.323200  1.0  0.682
  C  C97  1  0.908300  0.119700  0.403300  1.0  -0.0479
  C  C98  1  0.949400  0.009800  0.431600  1.0  0.1909
  C  C99  1  0.956000  0.861900  0.404200  1.0  -0.1166
  C  C100  1  0.759900  0.797400  0.358200  1.0  0.7092
  C  C101  1  0.780800  0.850800  0.420400  1.0  -0.1991
  C  C102  1  0.820900  0.753700  0.460200  1.0  0.3093
  C  C103  1  0.842200  0.811100  0.516400  1.0  -0.2381
  C  C104  1  0.823600  0.958100  0.533200  1.0  -0.138
  C  C105  1  0.783100  0.054400  0.495000  1.0  0.163
  C  C106  1  0.762900  0.998200  0.438640  1.0  -0.0104
  C  C107  1  0.421200  0.330000  0.350800  1.0  -0.2382
  C  C108  1  0.377500  0.438800  0.321300  1.0  0.3119
  C  C109  1  0.372100  0.587400  0.348500  1.0  -0.1895
  C  C110  1  0.329100  0.716000  0.323200  1.0  0.682
  C  C111  1  0.408300  0.619700  0.403300  1.0  -0.0479
  C  C112  1  0.449400  0.509800  0.431600  1.0  0.1909
  C  C113  1  0.456000  0.361900  0.404200  1.0  -0.1166
  C  C114  1  0.259900  0.297400  0.358200  1.0  0.7092
  C  C115  1  0.280800  0.350800  0.420400  1.0  -0.1991
  C  C116  1  0.320900  0.253700  0.460200  1.0  0.3093
  C  C117  1  0.342200  0.311100  0.516400  1.0  -0.2381
  C  C118  1  0.323600  0.458100  0.533200  1.0  -0.138
  C  C119  1  0.283100  0.554400  0.495000  1.0  0.163
  C  C120  1  0.262900  0.498200  0.438640  1.0  -0.0104
  C  C121  1  0.921200  0.170000  0.850800  1.0  -0.2373
  C  C122  1  0.877500  0.061200  0.821300  1.0  0.311
  C  C123  1  0.872100  0.912600  0.848500  1.0  -0.1911
  C  C124  1  0.829100  0.784000  0.823200  1.0  0.6827
  C  C125  1  0.908300  0.880300  0.903300  1.0  -0.0475
  C  C126  1  0.949400  0.990200  0.931600  1.0  0.2011
  C  C127  1  0.956000  0.138100  0.904200  1.0  -0.1154
  C  C128  1  0.759900  0.202600  0.858200  1.0  0.7091
  C  C129  1  0.780800  0.149200  0.920400  1.0  -0.1987
  C  C130  1  0.820900  0.246300  0.960200  1.0  0.3105
  C  C131  1  0.842200  0.188900  0.016400  1.0  -0.2381
  C  C132  1  0.823600  0.041900  0.033200  1.0  -0.1383
  C  C133  1  0.783100  0.945600  0.995000  1.0  0.1623
  C  C134  1  0.762900  0.001800  0.938640  1.0  -0.0097
  C  C135  1  0.421200  0.670000  0.850800  1.0  -0.2373
  C  C136  1  0.377500  0.561200  0.821300  1.0  0.311
  C  C137  1  0.372100  0.412600  0.848500  1.0  -0.1911
  C  C138  1  0.329100  0.284000  0.823200  1.0  0.6827
  C  C139  1  0.408300  0.380300  0.903300  1.0  -0.0475
  C  C140  1  0.449400  0.490200  0.931600  1.0  0.2011
  C  C141  1  0.456000  0.638100  0.904200  1.0  -0.1154
  C  C142  1  0.259900  0.702600  0.858200  1.0  0.7091
  C  C143  1  0.280800  0.649200  0.920400  1.0  -0.1987
  C  C144  1  0.320900  0.746300  0.960200  1.0  0.3105
  C  C145  1  0.342200  0.688900  0.016400  1.0  -0.2381
  C  C146  1  0.323600  0.541900  0.033200  1.0  -0.1383
  C  C147  1  0.283100  0.445600  0.995000  1.0  0.1623
  C  C148  1  0.262900  0.501800  0.938640  1.0  -0.0097
  C  C149  1  0.078800  0.170000  0.649200  1.0  -0.2354
  C  C150  1  0.122500  0.061200  0.678700  1.0  0.3136
  C  C151  1  0.127900  0.912600  0.651500  1.0  -0.1902
  C  C152  1  0.170900  0.784000  0.676800  1.0  0.6831
  C  C153  1  0.091700  0.880300  0.596700  1.0  -0.0472
  C  C154  1  0.050600  0.990200  0.568400  1.0  0.2011
  C  C155  1  0.044000  0.138100  0.595800  1.0  -0.117
  C  C156  1  0.240100  0.202600  0.641800  1.0  0.7092
  C  C157  1  0.219200  0.149200  0.579600  1.0  -0.1994
  C  C158  1  0.179100  0.246300  0.539800  1.0  0.3094
  C  C159  1  0.157800  0.188900  0.483600  1.0  -0.2398
  C  C160  1  0.176400  0.041900  0.466800  1.0  -0.1366
  C  C161  1  0.216900  0.945600  0.505000  1.0  0.1612
  C  C162  1  0.237100  0.001800  0.561360  1.0  -0.0088
  C  C163  1  0.578800  0.670000  0.649200  1.0  -0.2354
  C  C164  1  0.622500  0.561200  0.678700  1.0  0.3136
  C  C165  1  0.627900  0.412600  0.651500  1.0  -0.1902
  C  C166  1  0.670900  0.284000  0.676800  1.0  0.6831
  C  C167  1  0.591700  0.380300  0.596700  1.0  -0.0472
  C  C168  1  0.550600  0.490200  0.568400  1.0  0.2011
  C  C169  1  0.544000  0.638100  0.595800  1.0  -0.117
  C  C170  1  0.740100  0.702600  0.641800  1.0  0.7092
  C  C171  1  0.719200  0.649200  0.579600  1.0  -0.1994
  C  C172  1  0.679100  0.746300  0.539800  1.0  0.3094
  C  C173  1  0.657800  0.688900  0.483600  1.0  -0.2398
  C  C174  1  0.676400  0.541900  0.466800  1.0  -0.1366
  C  C175  1  0.716900  0.445600  0.505000  1.0  0.1612
  C  C176  1  0.737100  0.501800  0.561360  1.0  -0.0088
  N  N177  1  0.235000  0.203500  0.981870  1.0  -0.1773
  N  N178  1  0.017900  0.053700  0.012300  1.0  -0.1917
  N  N179  1  0.735000  0.703500  0.981870  1.0  -0.1773
  N  N180  1  0.517900  0.553700  0.012300  1.0  -0.1917
  N  N181  1  0.765000  0.203500  0.518130  1.0  -0.1792
  N  N182  1  0.982100  0.053700  0.487700  1.0  -0.1906
  N  N183  1  0.265000  0.703500  0.518130  1.0  -0.1792
  N  N184  1  0.482100  0.553700  0.487700  1.0  -0.1906
  N  N185  1  0.765000  0.796500  0.018130  1.0  -0.1792
  N  N186  1  0.982100  0.946300  0.987700  1.0  -0.1908
  N  N187  1  0.265000  0.296500  0.018130  1.0  -0.1792
  N  N188  1  0.482100  0.446300  0.987700  1.0  -0.1908
  N  N189  1  0.235000  0.796500  0.481870  1.0  -0.1779
  N  N190  1  0.017900  0.946300  0.512300  1.0  -0.1915
  N  N191  1  0.735000  0.296500  0.481870  1.0  -0.1779
  N  N192  1  0.517900  0.446300  0.512300  1.0  -0.1915
  O  O193  1  0.265560  0.901100  0.176980  1.0  -0.7295
  O  O194  1  0.229100  0.654600  0.154820  1.0  -0.6625
  O  O195  1  0.169510  0.352800  0.153880  1.0  -0.65
  O  O196  1  0.210810  0.191500  0.224310  1.0  -0.7375
  O  O197  1  0.155840  0.896100  0.229500  1.0  -0.6458
  O  O198  1  0.159200  0.605600  0.052790  1.0  -0.5304
  O  O199  1  0.765560  0.401100  0.176980  1.0  -0.7295
  O  O200  1  0.729100  0.154600  0.154820  1.0  -0.6625
  O  O201  1  0.669510  0.852800  0.153880  1.0  -0.65
  O  O202  1  0.710810  0.691500  0.224310  1.0  -0.7375
  O  O203  1  0.655840  0.396100  0.229500  1.0  -0.6458
  O  O204  1  0.659200  0.105600  0.052790  1.0  -0.5304
  O  O205  1  0.734440  0.901100  0.323020  1.0  -0.7341
  O  O206  1  0.770900  0.654600  0.345180  1.0  -0.6619
  O  O207  1  0.830490  0.352800  0.346120  1.0  -0.6478
  O  O208  1  0.789190  0.191500  0.275690  1.0  -0.7399
  O  O209  1  0.844160  0.896100  0.270500  1.0  -0.643
  O  O210  1  0.840800  0.605600  0.447210  1.0  -0.529
  O  O211  1  0.234440  0.401100  0.323020  1.0  -0.7341
  O  O212  1  0.270900  0.154600  0.345180  1.0  -0.6619
  O  O213  1  0.330490  0.852800  0.346120  1.0  -0.6478
  O  O214  1  0.289190  0.691500  0.275690  1.0  -0.7399
  O  O215  1  0.344160  0.396100  0.270500  1.0  -0.643
  O  O216  1  0.340800  0.105600  0.447210  1.0  -0.529
  O  O217  1  0.734440  0.098900  0.823020  1.0  -0.7341
  O  O218  1  0.770900  0.345400  0.845180  1.0  -0.6615
  O  O219  1  0.830490  0.647200  0.846120  1.0  -0.648
  O  O220  1  0.789190  0.808500  0.775690  1.0  -0.7397
  O  O221  1  0.844160  0.103900  0.770500  1.0  -0.6449
  O  O222  1  0.840800  0.394400  0.947210  1.0  -0.5299
  O  O223  1  0.234440  0.598900  0.823020  1.0  -0.7341
  O  O224  1  0.270900  0.845400  0.845180  1.0  -0.6615
  O  O225  1  0.330490  0.147200  0.846120  1.0  -0.648
  O  O226  1  0.289190  0.308500  0.775690  1.0  -0.7397
  O  O227  1  0.344160  0.603900  0.770500  1.0  -0.6449
  O  O228  1  0.340800  0.894400  0.947210  1.0  -0.5299
  O  O229  1  0.265560  0.098900  0.676980  1.0  -0.7287
  O  O230  1  0.229100  0.345400  0.654820  1.0  -0.6615
  O  O231  1  0.169510  0.647200  0.653880  1.0  -0.6485
  O  O232  1  0.210810  0.808500  0.724310  1.0  -0.7371
  O  O233  1  0.155840  0.103900  0.729500  1.0  -0.646
  O  O234  1  0.159200  0.394400  0.552790  1.0  -0.5312
  O  O235  1  0.765560  0.598900  0.676980  1.0  -0.7287
  O  O236  1  0.729100  0.845400  0.654820  1.0  -0.6615
  O  O237  1  0.669510  0.147200  0.653880  1.0  -0.6485
  O  O238  1  0.710810  0.308500  0.724310  1.0  -0.7371
  O  O239  1  0.655840  0.603900  0.729500  1.0  -0.646
  O  O240  1  0.659200  0.894400  0.552790  1.0  -0.5312
