# generated using pymatgen
data_ErH7C14(NO3)2
_symmetry_space_group_name_H-M   'P 1'
_cell_length_a   21.89470000
_cell_length_b   8.30620000
_cell_length_c   23.20340000
_cell_angle_alpha   90.00000000
_cell_angle_beta   100.05300000
_cell_angle_gamma   90.00000000
_symmetry_Int_Tables_number   1
_chemical_formula_structural   ErH7C14(NO3)2
_chemical_formula_sum   'Er8 H56 C112 N16 O48'
_cell_volume   4155.02308208
_cell_formula_units_Z   8
loop_
 _symmetry_equiv_pos_site_id
 _symmetry_equiv_pos_as_xyz
  1  'x, y, z'
loop_
 _atom_site_type_symbol
 _atom_site_label
 _atom_site_symmetry_multiplicity
 _atom_site_fract_x
 _atom_site_fract_y
 _atom_site_fract_z
 _atom_site_occupancy
 _atom_site_charge
  Er  Er1  1  0.247550  0.465260  0.228380  1.0  1.5543
  Er  Er2  1  0.747550  0.965260  0.228380  1.0  1.5543
  Er  Er3  1  0.752450  0.465260  0.271620  1.0  1.5542
  Er  Er4  1  0.252450  0.965260  0.271620  1.0  1.5542
  Er  Er5  1  0.752450  0.534740  0.771620  1.0  1.5544
  Er  Er6  1  0.252450  0.034740  0.771620  1.0  1.5544
  Er  Er7  1  0.247550  0.534740  0.728380  1.0  1.5545
  Er  Er8  1  0.747550  0.034740  0.728380  1.0  1.5545
  H  H9  1  0.095900  0.218800  0.079100  1.0  0.1217
  H  H10  1  0.015700  0.785900  0.077700  1.0  0.1318
  H  H11  1  0.073500  0.731700  0.166900  1.0  0.1219
  H  H12  1  0.369300  0.248900  0.542700  1.0  0.134
  H  H13  1  0.338300  0.494300  0.571000  1.0  0.1186
  H  H14  1  0.236400  0.562700  0.412400  1.0  0.1128
  H  H15  1  0.332000  0.092000  0.410300  1.0  0.3926
  H  H16  1  0.595900  0.718800  0.079100  1.0  0.1217
  H  H17  1  0.515700  0.285900  0.077700  1.0  0.1318
  H  H18  1  0.573500  0.231700  0.166900  1.0  0.1219
  H  H19  1  0.869300  0.748900  0.542700  1.0  0.134
  H  H20  1  0.838300  0.994300  0.571000  1.0  0.1186
  H  H21  1  0.736400  0.062700  0.412400  1.0  0.1128
  H  H22  1  0.832000  0.592000  0.410300  1.0  0.3926
  H  H23  1  0.904100  0.218800  0.420900  1.0  0.1213
  H  H24  1  0.984300  0.785900  0.422300  1.0  0.1321
  H  H25  1  0.926500  0.731700  0.333100  1.0  0.1212
  H  H26  1  0.630700  0.248900  0.957300  1.0  0.1339
  H  H27  1  0.661700  0.494300  0.929000  1.0  0.1191
  H  H28  1  0.763600  0.562700  0.087600  1.0  0.1129
  H  H29  1  0.668000  0.092000  0.089700  1.0  0.3942
  H  H30  1  0.404100  0.718800  0.420900  1.0  0.1213
  H  H31  1  0.484300  0.285900  0.422300  1.0  0.1321
  H  H32  1  0.426500  0.231700  0.333100  1.0  0.1212
  H  H33  1  0.130700  0.748900  0.957300  1.0  0.1339
  H  H34  1  0.161700  0.994300  0.929000  1.0  0.1191
  H  H35  1  0.263600  0.062700  0.087600  1.0  0.1129
  H  H36  1  0.168000  0.592000  0.089700  1.0  0.3942
  H  H37  1  0.904100  0.781200  0.920900  1.0  0.1219
  H  H38  1  0.984300  0.214100  0.922300  1.0  0.1325
  H  H39  1  0.926500  0.268300  0.833100  1.0  0.1215
  H  H40  1  0.630700  0.751100  0.457300  1.0  0.1346
  H  H41  1  0.661700  0.505700  0.429000  1.0  0.1187
  H  H42  1  0.763600  0.437300  0.587600  1.0  0.1128
  H  H43  1  0.668000  0.908000  0.589700  1.0  0.3932
  H  H44  1  0.404100  0.281200  0.920900  1.0  0.1219
  H  H45  1  0.484300  0.714100  0.922300  1.0  0.1325
  H  H46  1  0.426500  0.768300  0.833100  1.0  0.1215
  H  H47  1  0.130700  0.251100  0.457300  1.0  0.1346
  H  H48  1  0.161700  0.005700  0.429000  1.0  0.1187
  H  H49  1  0.263600  0.937300  0.587600  1.0  0.1128
  H  H50  1  0.168000  0.408000  0.589700  1.0  0.3932
  H  H51  1  0.095900  0.781200  0.579100  1.0  0.1224
  H  H52  1  0.015700  0.214100  0.577700  1.0  0.1329
  H  H53  1  0.073500  0.268300  0.666900  1.0  0.1213
  H  H54  1  0.369300  0.751100  0.042700  1.0  0.1343
  H  H55  1  0.338300  0.505700  0.071000  1.0  0.1182
  H  H56  1  0.236400  0.437300  0.912400  1.0  0.1124
  H  H57  1  0.332000  0.908000  0.910300  1.0  0.3938
  H  H58  1  0.595900  0.281200  0.579100  1.0  0.1224
  H  H59  1  0.515700  0.714100  0.577700  1.0  0.1329
  H  H60  1  0.573500  0.768300  0.666900  1.0  0.1213
  H  H61  1  0.869300  0.251100  0.042700  1.0  0.1343
  H  H62  1  0.838300  0.005700  0.071000  1.0  0.1182
  H  H63  1  0.736400  0.937300  0.912400  1.0  0.1124
  H  H64  1  0.832000  0.408000  0.910300  1.0  0.3938
  C  C65  1  0.171000  0.216000  0.176800  1.0  0.703
  C  C66  1  0.127900  0.087200  0.151400  1.0  -0.1645
  C  C67  1  0.091800  0.119800  0.096700  1.0  -0.0201
  C  C68  1  0.050600  0.009800  0.068400  1.0  0.2398
  C  C69  1  0.043900  0.861900  0.095800  1.0  -0.083
  C  C70  1  0.078800  0.829900  0.149200  1.0  -0.2148
  C  C71  1  0.122500  0.938800  0.178700  1.0  0.3376
  C  C72  1  0.260000  0.297300  0.358200  1.0  0.7349
  C  C73  1  0.280800  0.350900  0.420400  1.0  -0.2219
  C  C74  1  0.321000  0.253700  0.460200  1.0  0.3309
  C  C75  1  0.342200  0.311100  0.516400  1.0  -0.2171
  C  C76  1  0.323600  0.457900  0.533200  1.0  -0.1192
  C  C77  1  0.283100  0.554400  0.495000  1.0  0.1865
  C  C78  1  0.262800  0.498700  0.438600  1.0  0.0128
  C  C79  1  0.671000  0.716000  0.176800  1.0  0.703
  C  C80  1  0.627900  0.587200  0.151400  1.0  -0.1645
  C  C81  1  0.591800  0.619800  0.096700  1.0  -0.0201
  C  C82  1  0.550600  0.509800  0.068400  1.0  0.2398
  C  C83  1  0.543900  0.361900  0.095800  1.0  -0.083
  C  C84  1  0.578800  0.329900  0.149200  1.0  -0.2148
  C  C85  1  0.622500  0.438800  0.178700  1.0  0.3376
  C  C86  1  0.760000  0.797300  0.358200  1.0  0.7349
  C  C87  1  0.780800  0.850900  0.420400  1.0  -0.2219
  C  C88  1  0.821000  0.753700  0.460200  1.0  0.3309
  C  C89  1  0.842200  0.811100  0.516400  1.0  -0.2171
  C  C90  1  0.823600  0.957900  0.533200  1.0  -0.1192
  C  C91  1  0.783100  0.054400  0.495000  1.0  0.1865
  C  C92  1  0.762800  0.998700  0.438600  1.0  0.0128
  C  C93  1  0.829000  0.216000  0.323200  1.0  0.7035
  C  C94  1  0.872100  0.087200  0.348600  1.0  -0.1633
  C  C95  1  0.908200  0.119800  0.403300  1.0  -0.0212
  C  C96  1  0.949400  0.009800  0.431600  1.0  0.2383
  C  C97  1  0.956100  0.861900  0.404200  1.0  -0.0838
  C  C98  1  0.921200  0.829900  0.350800  1.0  -0.2169
  C  C99  1  0.877500  0.938800  0.321300  1.0  0.3366
  C  C100  1  0.740000  0.297300  0.141800  1.0  0.7356
  C  C101  1  0.719200  0.350900  0.079600  1.0  -0.2224
  C  C102  1  0.679000  0.253700  0.039800  1.0  0.3301
  C  C103  1  0.657800  0.311100  0.983600  1.0  -0.2184
  C  C104  1  0.676400  0.457900  0.966800  1.0  -0.1184
  C  C105  1  0.716900  0.554400  0.005000  1.0  0.1873
  C  C106  1  0.737200  0.498700  0.061400  1.0  0.0142
  C  C107  1  0.329000  0.716000  0.323200  1.0  0.7035
  C  C108  1  0.372100  0.587200  0.348600  1.0  -0.1633
  C  C109  1  0.408200  0.619800  0.403300  1.0  -0.0212
  C  C110  1  0.449400  0.509800  0.431600  1.0  0.2383
  C  C111  1  0.456100  0.361900  0.404200  1.0  -0.0838
  C  C112  1  0.421200  0.329900  0.350800  1.0  -0.2169
  C  C113  1  0.377500  0.438800  0.321300  1.0  0.3366
  C  C114  1  0.240000  0.797300  0.141800  1.0  0.7356
  C  C115  1  0.219200  0.850900  0.079600  1.0  -0.2224
  C  C116  1  0.179000  0.753700  0.039800  1.0  0.3301
  C  C117  1  0.157800  0.811100  0.983600  1.0  -0.2184
  C  C118  1  0.176400  0.957900  0.966800  1.0  -0.1184
  C  C119  1  0.216900  0.054400  0.005000  1.0  0.1873
  C  C120  1  0.237200  0.998700  0.061400  1.0  0.0142
  C  C121  1  0.829000  0.784000  0.823200  1.0  0.7046
  C  C122  1  0.872100  0.912800  0.848600  1.0  -0.1655
  C  C123  1  0.908200  0.880200  0.903300  1.0  -0.0208
  C  C124  1  0.949400  0.990200  0.931600  1.0  0.2389
  C  C125  1  0.956100  0.138100  0.904200  1.0  -0.0827
  C  C126  1  0.921200  0.170100  0.850800  1.0  -0.2164
  C  C127  1  0.877500  0.061200  0.821300  1.0  0.3356
  C  C128  1  0.740000  0.702700  0.641800  1.0  0.7346
  C  C129  1  0.719200  0.649100  0.579600  1.0  -0.2229
  C  C130  1  0.679000  0.746300  0.539800  1.0  0.3311
  C  C131  1  0.657800  0.688900  0.483600  1.0  -0.2191
  C  C132  1  0.676400  0.542100  0.466800  1.0  -0.1181
  C  C133  1  0.716900  0.445600  0.505000  1.0  0.1845
  C  C134  1  0.737200  0.501300  0.561400  1.0  0.0149
  C  C135  1  0.329000  0.284000  0.823200  1.0  0.7046
  C  C136  1  0.372100  0.412800  0.848600  1.0  -0.1655
  C  C137  1  0.408200  0.380200  0.903300  1.0  -0.0208
  C  C138  1  0.449400  0.490200  0.931600  1.0  0.2389
  C  C139  1  0.456100  0.638100  0.904200  1.0  -0.0827
  C  C140  1  0.421200  0.670100  0.850800  1.0  -0.2164
  C  C141  1  0.377500  0.561200  0.821300  1.0  0.3356
  C  C142  1  0.240000  0.202700  0.641800  1.0  0.7346
  C  C143  1  0.219200  0.149100  0.579600  1.0  -0.2229
  C  C144  1  0.179000  0.246300  0.539800  1.0  0.3311
  C  C145  1  0.157800  0.188900  0.483600  1.0  -0.2191
  C  C146  1  0.176400  0.042100  0.466800  1.0  -0.1181
  C  C147  1  0.216900  0.945600  0.505000  1.0  0.1845
  C  C148  1  0.237200  0.001300  0.561400  1.0  0.0149
  C  C149  1  0.171000  0.784000  0.676800  1.0  0.7053
  C  C150  1  0.127900  0.912800  0.651400  1.0  -0.1643
  C  C151  1  0.091800  0.880200  0.596700  1.0  -0.0205
  C  C152  1  0.050600  0.990200  0.568400  1.0  0.2388
  C  C153  1  0.043900  0.138100  0.595800  1.0  -0.0839
  C  C154  1  0.078800  0.170100  0.649200  1.0  -0.2145
  C  C155  1  0.122500  0.061200  0.678700  1.0  0.3375
  C  C156  1  0.260000  0.702700  0.858200  1.0  0.7347
  C  C157  1  0.280800  0.649100  0.920400  1.0  -0.2218
  C  C158  1  0.321000  0.746300  0.960200  1.0  0.3323
  C  C159  1  0.342200  0.688900  0.016400  1.0  -0.2172
  C  C160  1  0.323600  0.542100  0.033200  1.0  -0.1195
  C  C161  1  0.283100  0.445600  0.995000  1.0  0.1855
  C  C162  1  0.262800  0.501300  0.938600  1.0  0.0136
  C  C163  1  0.671000  0.284000  0.676800  1.0  0.7053
  C  C164  1  0.627900  0.412800  0.651400  1.0  -0.1643
  C  C165  1  0.591800  0.380200  0.596700  1.0  -0.0205
  C  C166  1  0.550600  0.490200  0.568400  1.0  0.2388
  C  C167  1  0.543900  0.638100  0.595800  1.0  -0.0839
  C  C168  1  0.578800  0.670100  0.649200  1.0  -0.2145
  C  C169  1  0.622500  0.561200  0.678700  1.0  0.3375
  C  C170  1  0.760000  0.202700  0.858200  1.0  0.7347
  C  C171  1  0.780800  0.149100  0.920400  1.0  -0.2218
  C  C172  1  0.821000  0.246300  0.960200  1.0  0.3323
  C  C173  1  0.842200  0.188900  0.016400  1.0  -0.2172
  C  C174  1  0.823600  0.042100  0.033200  1.0  -0.1195
  C  C175  1  0.783100  0.945600  0.995000  1.0  0.1855
  C  C176  1  0.762800  0.001300  0.938600  1.0  0.0136
  N  N177  1  0.017900  0.053800  0.012300  1.0  -0.1679
  N  N178  1  0.265000  0.703400  0.518170  1.0  -0.1647
  N  N179  1  0.517900  0.553800  0.012300  1.0  -0.1679
  N  N180  1  0.765000  0.203400  0.518170  1.0  -0.1647
  N  N181  1  0.982100  0.053800  0.487700  1.0  -0.1669
  N  N182  1  0.735000  0.703400  0.981830  1.0  -0.163
  N  N183  1  0.482100  0.553800  0.487700  1.0  -0.1669
  N  N184  1  0.235000  0.203400  0.981830  1.0  -0.163
  N  N185  1  0.982100  0.946200  0.987700  1.0  -0.167
  N  N186  1  0.735000  0.296600  0.481830  1.0  -0.1634
  N  N187  1  0.482100  0.446200  0.987700  1.0  -0.167
  N  N188  1  0.235000  0.796600  0.481830  1.0  -0.1634
  N  N189  1  0.017900  0.946200  0.512300  1.0  -0.1673
  N  N190  1  0.265000  0.296600  0.018170  1.0  -0.1647
  N  N191  1  0.517900  0.446200  0.512300  1.0  -0.1673
  N  N192  1  0.765000  0.796600  0.018170  1.0  -0.1647
  O  O193  1  0.169530  0.352800  0.153880  1.0  -0.6713
  O  O194  1  0.210770  0.191400  0.224330  1.0  -0.7215
  O  O195  1  0.270860  0.154600  0.345140  1.0  -0.6275
  O  O196  1  0.155840  0.896300  0.229530  1.0  -0.6247
  O  O197  1  0.234430  0.401200  0.322990  1.0  -0.7143
  O  O198  1  0.340700  0.105500  0.447120  1.0  -0.5028
  O  O199  1  0.669530  0.852800  0.153880  1.0  -0.6713
  O  O200  1  0.710770  0.691400  0.224330  1.0  -0.7215
  O  O201  1  0.770860  0.654600  0.345140  1.0  -0.6275
  O  O202  1  0.655840  0.396300  0.229530  1.0  -0.6247
  O  O203  1  0.734430  0.901200  0.322990  1.0  -0.7143
  O  O204  1  0.840700  0.605500  0.447120  1.0  -0.5028
  O  O205  1  0.830470  0.352800  0.346120  1.0  -0.6704
  O  O206  1  0.789230  0.191400  0.275670  1.0  -0.7231
  O  O207  1  0.729140  0.154600  0.154860  1.0  -0.6294
  O  O208  1  0.844160  0.896300  0.270470  1.0  -0.6221
  O  O209  1  0.765570  0.401200  0.177010  1.0  -0.7104
  O  O210  1  0.659300  0.105500  0.052880  1.0  -0.5042
  O  O211  1  0.330470  0.852800  0.346120  1.0  -0.6704
  O  O212  1  0.289230  0.691400  0.275670  1.0  -0.7231
  O  O213  1  0.229140  0.654600  0.154860  1.0  -0.6294
  O  O214  1  0.344160  0.396300  0.270470  1.0  -0.6221
  O  O215  1  0.265570  0.901200  0.177010  1.0  -0.7104
  O  O216  1  0.159300  0.605500  0.052880  1.0  -0.5042
  O  O217  1  0.830470  0.647200  0.846120  1.0  -0.6694
  O  O218  1  0.789230  0.808600  0.775670  1.0  -0.723
  O  O219  1  0.729140  0.845400  0.654860  1.0  -0.6273
  O  O220  1  0.844160  0.103700  0.770470  1.0  -0.6241
  O  O221  1  0.765570  0.598800  0.677010  1.0  -0.7097
  O  O222  1  0.659300  0.894500  0.552880  1.0  -0.5047
  O  O223  1  0.330470  0.147200  0.846120  1.0  -0.6694
  O  O224  1  0.289230  0.308600  0.775670  1.0  -0.723
  O  O225  1  0.229140  0.345400  0.654860  1.0  -0.6273
  O  O226  1  0.344160  0.603700  0.770470  1.0  -0.6241
  O  O227  1  0.265570  0.098800  0.677010  1.0  -0.7097
  O  O228  1  0.159300  0.394500  0.552880  1.0  -0.5047
  O  O229  1  0.169530  0.647200  0.653880  1.0  -0.6699
  O  O230  1  0.210770  0.808600  0.724330  1.0  -0.721
  O  O231  1  0.270860  0.845400  0.845140  1.0  -0.6283
  O  O232  1  0.155840  0.103700  0.729530  1.0  -0.6248
  O  O233  1  0.234430  0.598800  0.822990  1.0  -0.7142
  O  O234  1  0.340700  0.894500  0.947120  1.0  -0.5039
  O  O235  1  0.669530  0.147200  0.653880  1.0  -0.6699
  O  O236  1  0.710770  0.308600  0.724330  1.0  -0.721
  O  O237  1  0.770860  0.345400  0.845140  1.0  -0.6283
  O  O238  1  0.655840  0.603700  0.729530  1.0  -0.6248
  O  O239  1  0.734430  0.098800  0.822990  1.0  -0.7142
  O  O240  1  0.840700  0.394500  0.947120  1.0  -0.5039
