# generated using pymatgen
data_LuH6C14(NO3)2
_symmetry_space_group_name_H-M   'P 1'
_cell_length_a   21.61700000
_cell_length_b   8.23780000
_cell_length_c   23.15800000
_cell_angle_alpha   90.00000000
_cell_angle_beta   99.42600000
_cell_angle_gamma   90.00000000
_symmetry_Int_Tables_number   1
_chemical_formula_structural   LuH6C14(NO3)2
_chemical_formula_sum   'Lu8 H48 C112 N16 O48'
_cell_volume   4068.21503852
_cell_formula_units_Z   8
loop_
 _symmetry_equiv_pos_site_id
 _symmetry_equiv_pos_as_xyz
  1  'x, y, z'
loop_
 _atom_site_type_symbol
 _atom_site_label
 _atom_site_symmetry_multiplicity
 _atom_site_fract_x
 _atom_site_fract_y
 _atom_site_fract_z
 _atom_site_occupancy
 _atom_site_charge
  Lu  Lu1  1  0.247900  0.536930  0.228550  1.0  1.9258
  Lu  Lu2  1  0.747900  0.036930  0.228550  1.0  1.9258
  Lu  Lu3  1  0.752100  0.536930  0.271450  1.0  1.9248
  Lu  Lu4  1  0.252100  0.036930  0.271450  1.0  1.9248
  Lu  Lu5  1  0.752100  0.463070  0.771450  1.0  1.9247
  Lu  Lu6  1  0.252100  0.963070  0.771450  1.0  1.9247
  Lu  Lu7  1  0.247900  0.463070  0.728550  1.0  1.9258
  Lu  Lu8  1  0.747900  0.963070  0.728550  1.0  1.9258
  H  H9  1  0.098800  0.786300  0.078600  1.0  0.1274
  H  H10  1  0.236200  0.438900  0.412700  1.0  0.1236
  H  H11  1  0.341600  0.498200  0.569900  1.0  0.1368
  H  H12  1  0.016500  0.218600  0.075900  1.0  0.136
  H  H13  1  0.369500  0.758300  0.543900  1.0  0.1379
  H  H14  1  0.071400  0.269100  0.168600  1.0  0.1228
  H  H15  1  0.598800  0.286300  0.078600  1.0  0.1274
  H  H16  1  0.736200  0.938900  0.412700  1.0  0.1236
  H  H17  1  0.841600  0.998200  0.569900  1.0  0.1368
  H  H18  1  0.516500  0.718600  0.075900  1.0  0.136
  H  H19  1  0.869500  0.258300  0.543900  1.0  0.1379
  H  H20  1  0.571400  0.769100  0.168600  1.0  0.1228
  H  H21  1  0.901200  0.786300  0.421400  1.0  0.1263
  H  H22  1  0.763800  0.438900  0.087300  1.0  0.1242
  H  H23  1  0.658400  0.498200  0.930100  1.0  0.1371
  H  H24  1  0.983500  0.218600  0.424100  1.0  0.1357
  H  H25  1  0.630500  0.758300  0.956100  1.0  0.1379
  H  H26  1  0.928600  0.269100  0.331400  1.0  0.1239
  H  H27  1  0.401200  0.286300  0.421400  1.0  0.1263
  H  H28  1  0.263800  0.938900  0.087300  1.0  0.1242
  H  H29  1  0.158400  0.998200  0.930100  1.0  0.1371
  H  H30  1  0.483500  0.718600  0.424100  1.0  0.1357
  H  H31  1  0.130500  0.258300  0.956100  1.0  0.1379
  H  H32  1  0.428600  0.769100  0.331400  1.0  0.1239
  H  H33  1  0.901200  0.213700  0.921400  1.0  0.1249
  H  H34  1  0.763800  0.561100  0.587300  1.0  0.1241
  H  H35  1  0.658400  0.501800  0.430100  1.0  0.1372
  H  H36  1  0.983500  0.781400  0.924100  1.0  0.1353
  H  H37  1  0.630500  0.241700  0.456100  1.0  0.1375
  H  H38  1  0.928600  0.730900  0.831400  1.0  0.1225
  H  H39  1  0.401200  0.713700  0.921400  1.0  0.1249
  H  H40  1  0.263800  0.061100  0.587300  1.0  0.1241
  H  H41  1  0.158400  0.001800  0.430100  1.0  0.1372
  H  H42  1  0.483500  0.281400  0.924100  1.0  0.1353
  H  H43  1  0.130500  0.741700  0.456100  1.0  0.1375
  H  H44  1  0.428600  0.230900  0.831400  1.0  0.1225
  H  H45  1  0.098800  0.213700  0.578600  1.0  0.1264
  H  H46  1  0.236200  0.561100  0.912700  1.0  0.1239
  H  H47  1  0.341600  0.501800  0.069900  1.0  0.1368
  H  H48  1  0.016500  0.781400  0.575900  1.0  0.1352
  H  H49  1  0.369500  0.241700  0.043900  1.0  0.1381
  H  H50  1  0.071400  0.730900  0.668600  1.0  0.1228
  H  H51  1  0.598800  0.713700  0.578600  1.0  0.1264
  H  H52  1  0.736200  0.061100  0.912700  1.0  0.1239
  H  H53  1  0.841600  0.001800  0.069900  1.0  0.1368
  H  H54  1  0.516500  0.281400  0.575900  1.0  0.1352
  H  H55  1  0.869500  0.741700  0.043900  1.0  0.1381
  H  H56  1  0.571400  0.230900  0.668600  1.0  0.1228
  C  C57  1  0.172300  0.785100  0.178000  1.0  0.691
  C  C58  1  0.049200  0.992400  0.070200  1.0  0.1895
  C  C59  1  0.092400  0.883000  0.097500  1.0  -0.0879
  C  C60  1  0.259700  0.703100  0.358800  1.0  0.6659
  C  C61  1  0.263000  0.502800  0.438800  1.0  0.0084
  C  C62  1  0.325400  0.539100  0.533100  1.0  -0.1558
  C  C63  1  0.126900  0.913200  0.152600  1.0  -0.1419
  C  C64  1  0.281600  0.652200  0.421500  1.0  -0.1619
  C  C65  1  0.284000  0.446900  0.495200  1.0  0.228
  C  C66  1  0.043200  0.140300  0.095200  1.0  -0.1102
  C  C67  1  0.322500  0.751400  0.459600  1.0  0.3495
  C  C68  1  0.343700  0.693900  0.517000  1.0  -0.1289
  C  C69  1  0.077900  0.171800  0.150100  1.0  -0.1169
  C  C70  1  0.121700  0.063700  0.178300  1.0  0.3401
  C  C71  1  0.672300  0.285100  0.178000  1.0  0.691
  C  C72  1  0.549200  0.492400  0.070200  1.0  0.1895
  C  C73  1  0.592400  0.383000  0.097500  1.0  -0.0879
  C  C74  1  0.759700  0.203100  0.358800  1.0  0.6659
  C  C75  1  0.763000  0.002800  0.438800  1.0  0.0084
  C  C76  1  0.825400  0.039100  0.533100  1.0  -0.1558
  C  C77  1  0.626900  0.413200  0.152600  1.0  -0.1419
  C  C78  1  0.781600  0.152200  0.421500  1.0  -0.1619
  C  C79  1  0.784000  0.946900  0.495200  1.0  0.228
  C  C80  1  0.543200  0.640300  0.095200  1.0  -0.1102
  C  C81  1  0.822500  0.251400  0.459600  1.0  0.3495
  C  C82  1  0.843700  0.193900  0.517000  1.0  -0.1289
  C  C83  1  0.577900  0.671800  0.150100  1.0  -0.1169
  C  C84  1  0.621700  0.563700  0.178300  1.0  0.3401
  C  C85  1  0.827700  0.785100  0.322000  1.0  0.69
  C  C86  1  0.950800  0.992400  0.429800  1.0  0.1886
  C  C87  1  0.907600  0.883000  0.402500  1.0  -0.0884
  C  C88  1  0.740300  0.703100  0.141200  1.0  0.6657
  C  C89  1  0.737000  0.502800  0.061200  1.0  0.01
  C  C90  1  0.674600  0.539100  0.966900  1.0  -0.1532
  C  C91  1  0.873100  0.913200  0.347400  1.0  -0.1442
  C  C92  1  0.718400  0.652200  0.078500  1.0  -0.1623
  C  C93  1  0.716000  0.446900  0.004800  1.0  0.2273
  C  C94  1  0.956800  0.140300  0.404800  1.0  -0.1073
  C  C95  1  0.677500  0.751400  0.040400  1.0  0.3508
  C  C96  1  0.656300  0.693900  0.983000  1.0  -0.1305
  C  C97  1  0.922100  0.171800  0.349900  1.0  -0.1173
  C  C98  1  0.878300  0.063700  0.321700  1.0  0.3393
  C  C99  1  0.327700  0.285100  0.322000  1.0  0.69
  C  C100  1  0.450800  0.492400  0.429800  1.0  0.1886
  C  C101  1  0.407600  0.383000  0.402500  1.0  -0.0884
  C  C102  1  0.240300  0.203100  0.141200  1.0  0.6657
  C  C103  1  0.237000  0.002800  0.061200  1.0  0.01
  C  C104  1  0.174600  0.039100  0.966900  1.0  -0.1532
  C  C105  1  0.373100  0.413200  0.347400  1.0  -0.1442
  C  C106  1  0.218400  0.152200  0.078500  1.0  -0.1623
  C  C107  1  0.216000  0.946900  0.004800  1.0  0.2273
  C  C108  1  0.456800  0.640300  0.404800  1.0  -0.1073
  C  C109  1  0.177500  0.251400  0.040400  1.0  0.3508
  C  C110  1  0.156300  0.193900  0.983000  1.0  -0.1305
  C  C111  1  0.422100  0.671800  0.349900  1.0  -0.1173
  C  C112  1  0.378300  0.563700  0.321700  1.0  0.3393
  C  C113  1  0.827700  0.214900  0.822000  1.0  0.6904
  C  C114  1  0.950800  0.007600  0.929800  1.0  0.1897
  C  C115  1  0.907600  0.117000  0.902500  1.0  -0.0891
  C  C116  1  0.740300  0.296900  0.641200  1.0  0.6659
  C  C117  1  0.737000  0.497200  0.561200  1.0  0.0093
  C  C118  1  0.674600  0.460900  0.466900  1.0  -0.1536
  C  C119  1  0.873100  0.086800  0.847400  1.0  -0.1431
  C  C120  1  0.718400  0.347800  0.578500  1.0  -0.1628
  C  C121  1  0.716000  0.553100  0.504800  1.0  0.2308
  C  C122  1  0.956800  0.859700  0.904800  1.0  -0.1074
  C  C123  1  0.677500  0.248600  0.540400  1.0  0.3515
  C  C124  1  0.656300  0.306100  0.483000  1.0  -0.1308
  C  C125  1  0.922100  0.828200  0.849900  1.0  -0.1186
  C  C126  1  0.878300  0.936300  0.821700  1.0  0.3396
  C  C127  1  0.327700  0.714900  0.822000  1.0  0.6904
  C  C128  1  0.450800  0.507600  0.929800  1.0  0.1897
  C  C129  1  0.407600  0.617000  0.902500  1.0  -0.0891
  C  C130  1  0.240300  0.796900  0.641200  1.0  0.6659
  C  C131  1  0.237000  0.997200  0.561200  1.0  0.0093
  C  C132  1  0.174600  0.960900  0.466900  1.0  -0.1536
  C  C133  1  0.373100  0.586800  0.847400  1.0  -0.1431
  C  C134  1  0.218400  0.847800  0.578500  1.0  -0.1628
  C  C135  1  0.216000  0.053100  0.504800  1.0  0.2308
  C  C136  1  0.456800  0.359700  0.904800  1.0  -0.1074
  C  C137  1  0.177500  0.748600  0.540400  1.0  0.3515
  C  C138  1  0.156300  0.806100  0.483000  1.0  -0.1308
  C  C139  1  0.422100  0.328200  0.849900  1.0  -0.1186
  C  C140  1  0.378300  0.436300  0.821700  1.0  0.3396
  C  C141  1  0.172300  0.214900  0.678000  1.0  0.69
  C  C142  1  0.049200  0.007600  0.570200  1.0  0.1917
  C  C143  1  0.092400  0.117000  0.597500  1.0  -0.0866
  C  C144  1  0.259700  0.296900  0.858800  1.0  0.6648
  C  C145  1  0.263000  0.497200  0.938800  1.0  0.0081
  C  C146  1  0.325400  0.460900  0.033100  1.0  -0.1555
  C  C147  1  0.126900  0.086800  0.652600  1.0  -0.1425
  C  C148  1  0.281600  0.347800  0.921500  1.0  -0.1626
  C  C149  1  0.284000  0.553100  0.995200  1.0  0.2304
  C  C150  1  0.043200  0.859700  0.595200  1.0  -0.1096
  C  C151  1  0.322500  0.248600  0.959600  1.0  0.3508
  C  C152  1  0.343700  0.306100  0.017000  1.0  -0.1295
  C  C153  1  0.077900  0.828200  0.650100  1.0  -0.1162
  C  C154  1  0.121700  0.936300  0.678300  1.0  0.3393
  C  C155  1  0.672300  0.714900  0.678000  1.0  0.69
  C  C156  1  0.549200  0.507600  0.570200  1.0  0.1917
  C  C157  1  0.592400  0.617000  0.597500  1.0  -0.0866
  C  C158  1  0.759700  0.796900  0.858800  1.0  0.6648
  C  C159  1  0.763000  0.997200  0.938800  1.0  0.0081
  C  C160  1  0.825400  0.960900  0.033100  1.0  -0.1555
  C  C161  1  0.626900  0.586800  0.652600  1.0  -0.1425
  C  C162  1  0.781600  0.847800  0.921500  1.0  -0.1626
  C  C163  1  0.784000  0.053100  0.995200  1.0  0.2304
  C  C164  1  0.543200  0.359700  0.595200  1.0  -0.1096
  C  C165  1  0.822500  0.748600  0.959600  1.0  0.3508
  C  C166  1  0.843700  0.806100  0.017000  1.0  -0.1295
  C  C167  1  0.577900  0.328200  0.650100  1.0  -0.1162
  C  C168  1  0.621700  0.436300  0.678300  1.0  0.3393
  N  N169  1  0.018100  0.948300  0.012900  1.0  -0.1441
  N  N170  1  0.264600  0.301000  0.518400  1.0  -0.2769
  N  N171  1  0.518100  0.448300  0.012900  1.0  -0.1441
  N  N172  1  0.764600  0.801000  0.518400  1.0  -0.2769
  N  N173  1  0.981900  0.948300  0.487100  1.0  -0.1456
  N  N174  1  0.735400  0.301000  0.981600  1.0  -0.2788
  N  N175  1  0.481900  0.448300  0.487100  1.0  -0.1456
  N  N176  1  0.235400  0.801000  0.981600  1.0  -0.2788
  N  N177  1  0.981900  0.051700  0.987100  1.0  -0.1454
  N  N178  1  0.735400  0.699000  0.481600  1.0  -0.2788
  N  N179  1  0.481900  0.551700  0.987100  1.0  -0.1454
  N  N180  1  0.235400  0.199000  0.481600  1.0  -0.2788
  N  N181  1  0.018100  0.051700  0.512900  1.0  -0.1447
  N  N182  1  0.264600  0.699000  0.018400  1.0  -0.2771
  N  N183  1  0.518100  0.551700  0.512900  1.0  -0.1447
  N  N184  1  0.764600  0.199000  0.018400  1.0  -0.2771
  O  O185  1  0.237900  0.587900  0.322100  1.0  -0.6509
  O  O186  1  0.154600  0.104300  0.229400  1.0  -0.6237
  O  O187  1  0.212200  0.809300  0.224900  1.0  -0.6801
  O  O188  1  0.168400  0.643800  0.155300  1.0  -0.6821
  O  O189  1  0.270700  0.849300  0.345000  1.0  -0.6825
  O  O190  1  0.339900  0.899000  0.445900  1.0  -0.5382
  O  O191  1  0.737900  0.087900  0.322100  1.0  -0.6509
  O  O192  1  0.654600  0.604300  0.229400  1.0  -0.6237
  O  O193  1  0.712200  0.309300  0.224900  1.0  -0.6801
  O  O194  1  0.668400  0.143800  0.155300  1.0  -0.6821
  O  O195  1  0.770700  0.349300  0.345000  1.0  -0.6825
  O  O196  1  0.839900  0.399000  0.445900  1.0  -0.5382
  O  O197  1  0.762100  0.587900  0.177900  1.0  -0.6491
  O  O198  1  0.845400  0.104300  0.270600  1.0  -0.6229
  O  O199  1  0.787800  0.809300  0.275100  1.0  -0.6809
  O  O200  1  0.831600  0.643800  0.344700  1.0  -0.6825
  O  O201  1  0.729300  0.849300  0.155000  1.0  -0.6823
  O  O202  1  0.660100  0.899000  0.054100  1.0  -0.5393
  O  O203  1  0.262100  0.087900  0.177900  1.0  -0.6491
  O  O204  1  0.345400  0.604300  0.270600  1.0  -0.6229
  O  O205  1  0.287800  0.309300  0.275100  1.0  -0.6809
  O  O206  1  0.331600  0.143800  0.344700  1.0  -0.6825
  O  O207  1  0.229300  0.349300  0.155000  1.0  -0.6823
  O  O208  1  0.160100  0.399000  0.054100  1.0  -0.5393
  O  O209  1  0.762100  0.412100  0.677900  1.0  -0.6485
  O  O210  1  0.845400  0.895700  0.770600  1.0  -0.6215
  O  O211  1  0.787800  0.190700  0.775100  1.0  -0.6815
  O  O212  1  0.831600  0.356200  0.844700  1.0  -0.6801
  O  O213  1  0.729300  0.150700  0.655000  1.0  -0.6819
  O  O214  1  0.660100  0.101000  0.554100  1.0  -0.5398
  O  O215  1  0.262100  0.912100  0.677900  1.0  -0.6485
  O  O216  1  0.345400  0.395700  0.770600  1.0  -0.6215
  O  O217  1  0.287800  0.690700  0.775100  1.0  -0.6815
  O  O218  1  0.331600  0.856200  0.844700  1.0  -0.6801
  O  O219  1  0.229300  0.650700  0.655000  1.0  -0.6819
  O  O220  1  0.160100  0.601000  0.554100  1.0  -0.5398
  O  O221  1  0.237900  0.412100  0.822100  1.0  -0.6505
  O  O222  1  0.154600  0.895700  0.729400  1.0  -0.6237
  O  O223  1  0.212200  0.190700  0.724900  1.0  -0.6812
  O  O224  1  0.168400  0.356200  0.655300  1.0  -0.6811
  O  O225  1  0.270700  0.150700  0.845000  1.0  -0.6829
  O  O226  1  0.339900  0.101000  0.945900  1.0  -0.5385
  O  O227  1  0.737900  0.912100  0.822100  1.0  -0.6505
  O  O228  1  0.654600  0.395700  0.729400  1.0  -0.6237
  O  O229  1  0.712200  0.690700  0.724900  1.0  -0.6812
  O  O230  1  0.668400  0.856200  0.655300  1.0  -0.6811
  O  O231  1  0.770700  0.650700  0.845000  1.0  -0.6829
  O  O232  1  0.839900  0.601000  0.945900  1.0  -0.5385
