# generated using pymatgen
data_CeU2(C6O7)2
_symmetry_space_group_name_H-M   'P 1'
_cell_length_a   11.61820000
_cell_length_b   15.58870000
_cell_length_c   13.11340000
_cell_angle_alpha   90.00000000
_cell_angle_beta   90.00000000
_cell_angle_gamma   90.00000000
_symmetry_Int_Tables_number   1
_chemical_formula_structural   CeU2(C6O7)2
_chemical_formula_sum   'Ce4 U8 C48 O56'
_cell_volume   2375.00241915
_cell_formula_units_Z   4
loop_
 _symmetry_equiv_pos_site_id
 _symmetry_equiv_pos_as_xyz
  1  'x, y, z'
loop_
 _atom_site_type_symbol
 _atom_site_label
 _atom_site_symmetry_multiplicity
 _atom_site_fract_x
 _atom_site_fract_y
 _atom_site_fract_z
 _atom_site_occupancy
 _atom_site_charge
  Ce  Ce1  1  0.750000  0.713650  0.061210  1.0  2.0881
  Ce  Ce2  1  0.250000  0.786350  0.561210  1.0  2.0855
  Ce  Ce3  1  0.250000  0.286350  0.938790  1.0  2.0842
  Ce  Ce4  1  0.750000  0.213650  0.438790  1.0  2.0867
  U  U5  1  0.750000  0.753000  0.342950  1.0  2.2321
  U  U6  1  0.250000  0.747000  0.842950  1.0  2.2383
  U  U7  1  0.250000  0.247000  0.657050  1.0  2.2385
  U  U8  1  0.750000  0.253000  0.157050  1.0  2.229
  U  U9  1  0.000000  0.000000  0.000000  1.0  1.8216
  U  U10  1  0.000000  0.500000  0.500000  1.0  1.8216
  U  U11  1  0.500000  0.000000  0.000000  1.0  1.8216
  U  U12  1  0.500000  0.500000  0.500000  1.0  1.8216
  C  C13  1  0.870200  0.768600  0.718900  1.0  -0.0536
  C  C14  1  0.000800  0.766100  0.719500  1.0  0.7562
  C  C15  1  0.810200  0.809200  0.797100  1.0  -0.1138
  C  C16  1  0.873400  0.855000  0.881200  1.0  0.7081
  C  C17  1  0.874100  0.672800  0.566300  1.0  0.7069
  C  C18  1  0.809800  0.727700  0.640400  1.0  -0.1061
  C  C19  1  0.129800  0.731400  0.218900  1.0  -0.0531
  C  C20  1  0.999200  0.733900  0.219500  1.0  0.7587
  C  C21  1  0.189800  0.690800  0.297100  1.0  -0.1129
  C  C22  1  0.126600  0.645000  0.381200  1.0  0.709
  C  C23  1  0.125900  0.827200  0.066300  1.0  0.7073
  C  C24  1  0.190200  0.772300  0.140400  1.0  -0.1054
  C  C25  1  0.370200  0.231400  0.281100  1.0  -0.0538
  C  C26  1  0.500800  0.233900  0.280500  1.0  0.7566
  C  C27  1  0.310200  0.190800  0.202900  1.0  -0.1134
  C  C28  1  0.373400  0.145000  0.118800  1.0  0.7084
  C  C29  1  0.374100  0.327200  0.433700  1.0  0.7075
  C  C30  1  0.309800  0.272300  0.359600  1.0  -0.1061
  C  C31  1  0.629800  0.268600  0.781100  1.0  -0.0529
  C  C32  1  0.499200  0.266100  0.780500  1.0  0.7587
  C  C33  1  0.689800  0.309200  0.702900  1.0  -0.113
  C  C34  1  0.626600  0.355000  0.618800  1.0  0.7089
  C  C35  1  0.625900  0.172800  0.933700  1.0  0.7075
  C  C36  1  0.690200  0.227700  0.859600  1.0  -0.1055
  C  C37  1  0.129800  0.231400  0.281100  1.0  -0.0531
  C  C38  1  0.999200  0.233900  0.280500  1.0  0.7588
  C  C39  1  0.189800  0.190800  0.202900  1.0  -0.1129
  C  C40  1  0.126600  0.145000  0.118800  1.0  0.709
  C  C41  1  0.125900  0.327200  0.433700  1.0  0.7072
  C  C42  1  0.190200  0.272300  0.359600  1.0  -0.1054
  C  C43  1  0.870200  0.268600  0.781100  1.0  -0.0537
  C  C44  1  0.000800  0.266100  0.780500  1.0  0.7564
  C  C45  1  0.810200  0.309200  0.702900  1.0  -0.1138
  C  C46  1  0.873400  0.355000  0.618800  1.0  0.7085
  C  C47  1  0.874100  0.172800  0.933700  1.0  0.7079
  C  C48  1  0.809800  0.227700  0.859600  1.0  -0.1062
  C  C49  1  0.629800  0.768600  0.718900  1.0  -0.053
  C  C50  1  0.499200  0.766100  0.719500  1.0  0.7586
  C  C51  1  0.689800  0.809200  0.797100  1.0  -0.1131
  C  C52  1  0.626600  0.855000  0.881200  1.0  0.708
  C  C53  1  0.625900  0.672800  0.566300  1.0  0.7071
  C  C54  1  0.690200  0.727700  0.640400  1.0  -0.1055
  C  C55  1  0.370200  0.731400  0.218900  1.0  -0.0537
  C  C56  1  0.500800  0.733900  0.219500  1.0  0.7564
  C  C57  1  0.310200  0.690800  0.297100  1.0  -0.1135
  C  C58  1  0.373400  0.645000  0.381200  1.0  0.7091
  C  C59  1  0.374100  0.827200  0.066300  1.0  0.7072
  C  C60  1  0.309800  0.772300  0.140400  1.0  -0.1061
  O  O61  1  0.925300  0.923200  0.857400  1.0  -0.6255
  O  O62  1  0.870800  0.826200  0.969700  1.0  -0.6958
  O  O63  1  0.931100  0.612300  0.604800  1.0  -0.6232
  O  O64  1  0.868100  0.685500  0.472400  1.0  -0.7125
  O  O65  1  0.047000  0.738600  0.800700  1.0  -0.6453
  O  O66  1  0.051400  0.791000  0.641000  1.0  -0.7056
  O  O67  1  0.074700  0.576800  0.357400  1.0  -0.6224
  O  O68  1  0.129200  0.673800  0.469700  1.0  -0.696
  O  O69  1  0.068900  0.887700  0.104800  1.0  -0.6236
  O  O70  1  0.131900  0.814500  0.972400  1.0  -0.7131
  O  O71  1  0.953000  0.761400  0.300700  1.0  -0.6455
  O  O72  1  0.948600  0.709000  0.141000  1.0  -0.7043
  O  O73  1  0.425300  0.076800  0.142600  1.0  -0.621
  O  O74  1  0.370800  0.173800  0.030300  1.0  -0.6951
  O  O75  1  0.431100  0.387700  0.395200  1.0  -0.6247
  O  O76  1  0.368100  0.314500  0.527600  1.0  -0.7102
  O  O77  1  0.547000  0.261400  0.199300  1.0  -0.6436
  O  O78  1  0.551400  0.209000  0.359000  1.0  -0.7035
  O  O79  1  0.574700  0.423200  0.642600  1.0  -0.624
  O  O80  1  0.629200  0.326200  0.530300  1.0  -0.6953
  O  O81  1  0.568900  0.112300  0.895200  1.0  -0.6243
  O  O82  1  0.631900  0.185500  0.027600  1.0  -0.7099
  O  O83  1  0.453000  0.238600  0.699300  1.0  -0.645
  O  O84  1  0.448600  0.291000  0.859000  1.0  -0.7063
  O  O85  1  0.074700  0.076800  0.142600  1.0  -0.6206
  O  O86  1  0.129200  0.173800  0.030300  1.0  -0.6948
  O  O87  1  0.068900  0.387700  0.395200  1.0  -0.6256
  O  O88  1  0.131900  0.314500  0.527600  1.0  -0.7099
  O  O89  1  0.953000  0.261400  0.199300  1.0  -0.6442
  O  O90  1  0.948600  0.209000  0.359000  1.0  -0.7036
  O  O91  1  0.925300  0.423200  0.642600  1.0  -0.6243
  O  O92  1  0.870800  0.326200  0.530300  1.0  -0.6952
  O  O93  1  0.931100  0.112300  0.895200  1.0  -0.625
  O  O94  1  0.868100  0.185500  0.027600  1.0  -0.7101
  O  O95  1  0.047000  0.238600  0.699300  1.0  -0.6448
  O  O96  1  0.051400  0.291000  0.859000  1.0  -0.7066
  O  O97  1  0.574700  0.923200  0.857400  1.0  -0.6253
  O  O98  1  0.629200  0.826200  0.969700  1.0  -0.6956
  O  O99  1  0.568900  0.612300  0.604800  1.0  -0.6234
  O  O100  1  0.631900  0.685500  0.472400  1.0  -0.7124
  O  O101  1  0.453000  0.738600  0.800700  1.0  -0.6453
  O  O102  1  0.448600  0.791000  0.641000  1.0  -0.7057
  O  O103  1  0.425300  0.576800  0.357400  1.0  -0.6223
  O  O104  1  0.370800  0.673800  0.469700  1.0  -0.6957
  O  O105  1  0.431100  0.887700  0.104800  1.0  -0.6244
  O  O106  1  0.368100  0.814500  0.972400  1.0  -0.7132
  O  O107  1  0.547000  0.761400  0.300700  1.0  -0.645
  O  O108  1  0.551400  0.709000  0.141000  1.0  -0.7039
  O  O109  1  0.750000  0.658900  0.266400  1.0  -0.8787
  O  O110  1  0.750000  0.822100  0.192300  1.0  -1.0573
  O  O111  1  0.250000  0.841100  0.766400  1.0  -0.8781
  O  O112  1  0.250000  0.677900  0.692300  1.0  -1.0575
  O  O113  1  0.250000  0.341100  0.733600  1.0  -0.8796
  O  O114  1  0.250000  0.177900  0.807700  1.0  -1.0565
  O  O115  1  0.750000  0.158900  0.233600  1.0  -0.88
  O  O116  1  0.750000  0.322100  0.307700  1.0  -1.0562
