# generated using pymatgen
data_NdU2(C6O7)2
_symmetry_space_group_name_H-M   'P 1'
_cell_length_a   11.62800000
_cell_length_b   15.57800000
_cell_length_c   13.06500000
_cell_angle_alpha   90.00000000
_cell_angle_beta   90.00000000
_cell_angle_gamma   90.00000000
_symmetry_Int_Tables_number   1
_chemical_formula_structural   NdU2(C6O7)2
_chemical_formula_sum   'Nd4 U8 C48 O56'
_cell_volume   2366.60695596
_cell_formula_units_Z   4
loop_
 _symmetry_equiv_pos_site_id
 _symmetry_equiv_pos_as_xyz
  1  'x, y, z'
loop_
 _atom_site_type_symbol
 _atom_site_label
 _atom_site_symmetry_multiplicity
 _atom_site_fract_x
 _atom_site_fract_y
 _atom_site_fract_z
 _atom_site_occupancy
 _atom_site_charge
  Nd  Nd1  1  0.750000  0.714300  0.060140  1.0  2.1451
  Nd  Nd2  1  0.250000  0.785700  0.560140  1.0  2.1462
  Nd  Nd3  1  0.250000  0.285700  0.939860  1.0  2.1462
  Nd  Nd4  1  0.750000  0.214300  0.439860  1.0  2.1454
  U  U5  1  0.750000  0.753930  0.340560  1.0  2.2303
  U  U6  1  0.250000  0.746070  0.840560  1.0  2.2327
  U  U7  1  0.250000  0.246070  0.659440  1.0  2.237
  U  U8  1  0.750000  0.253930  0.159440  1.0  2.2221
  U  U9  1  0.000000  0.000000  0.000000  1.0  1.8227
  U  U10  1  0.000000  0.500000  0.500000  1.0  1.8227
  U  U11  1  0.500000  0.000000  0.000000  1.0  1.8227
  U  U12  1  0.500000  0.500000  0.500000  1.0  1.8227
  C  C13  1  0.870500  0.769500  0.717000  1.0  -0.0537
  C  C14  1  0.001200  0.766200  0.717100  1.0  0.7524
  C  C15  1  0.810100  0.809400  0.795300  1.0  -0.1161
  C  C16  1  0.873000  0.854400  0.881100  1.0  0.7078
  C  C17  1  0.874800  0.673200  0.563600  1.0  0.7118
  C  C18  1  0.809800  0.728600  0.638300  1.0  -0.1095
  C  C19  1  0.129500  0.730500  0.217000  1.0  -0.0531
  C  C20  1  0.998800  0.733800  0.217100  1.0  0.7552
  C  C21  1  0.189900  0.690600  0.295300  1.0  -0.1155
  C  C22  1  0.127000  0.645600  0.381100  1.0  0.7087
  C  C23  1  0.125200  0.826800  0.063600  1.0  0.7116
  C  C24  1  0.190200  0.771400  0.138300  1.0  -0.1091
  C  C25  1  0.370500  0.230500  0.283000  1.0  -0.054
  C  C26  1  0.501200  0.233800  0.282900  1.0  0.7526
  C  C27  1  0.310100  0.190600  0.204700  1.0  -0.1161
  C  C28  1  0.373000  0.145600  0.118900  1.0  0.7087
  C  C29  1  0.374800  0.326800  0.436400  1.0  0.7117
  C  C30  1  0.309800  0.271400  0.361700  1.0  -0.1092
  C  C31  1  0.629500  0.269500  0.783000  1.0  -0.0528
  C  C32  1  0.498800  0.266200  0.782900  1.0  0.7551
  C  C33  1  0.689900  0.309400  0.704700  1.0  -0.1157
  C  C34  1  0.627000  0.354400  0.618900  1.0  0.7082
  C  C35  1  0.625200  0.173200  0.936400  1.0  0.7122
  C  C36  1  0.690200  0.228600  0.861700  1.0  -0.1091
  C  C37  1  0.129500  0.230500  0.283000  1.0  -0.0531
  C  C38  1  0.998800  0.233800  0.282900  1.0  0.7552
  C  C39  1  0.189900  0.190600  0.204700  1.0  -0.1156
  C  C40  1  0.127000  0.145600  0.118900  1.0  0.7088
  C  C41  1  0.125200  0.326800  0.436400  1.0  0.7112
  C  C42  1  0.190200  0.271400  0.361700  1.0  -0.1089
  C  C43  1  0.870500  0.269500  0.783000  1.0  -0.0539
  C  C44  1  0.001200  0.266200  0.782900  1.0  0.7524
  C  C45  1  0.810100  0.309400  0.704700  1.0  -0.1163
  C  C46  1  0.873000  0.354400  0.618900  1.0  0.7083
  C  C47  1  0.874800  0.173200  0.936400  1.0  0.7126
  C  C48  1  0.809800  0.228600  0.861700  1.0  -0.1094
  C  C49  1  0.629500  0.769500  0.717000  1.0  -0.0528
  C  C50  1  0.498800  0.766200  0.717100  1.0  0.755
  C  C51  1  0.689900  0.809400  0.795300  1.0  -0.1156
  C  C52  1  0.627000  0.854400  0.881100  1.0  0.7071
  C  C53  1  0.625200  0.673200  0.563600  1.0  0.7119
  C  C54  1  0.690200  0.728600  0.638300  1.0  -0.1092
  C  C55  1  0.370500  0.730500  0.217000  1.0  -0.0538
  C  C56  1  0.501200  0.733800  0.217100  1.0  0.7525
  C  C57  1  0.310100  0.690600  0.295300  1.0  -0.116
  C  C58  1  0.373000  0.645600  0.381100  1.0  0.7093
  C  C59  1  0.374800  0.826800  0.063600  1.0  0.7115
  C  C60  1  0.309800  0.771400  0.138300  1.0  -0.1094
  O  O61  1  0.926100  0.922400  0.857800  1.0  -0.6388
  O  O62  1  0.869500  0.825100  0.969000  1.0  -0.6988
  O  O63  1  0.930300  0.612800  0.603700  1.0  -0.6233
  O  O64  1  0.868200  0.685400  0.469900  1.0  -0.7037
  O  O65  1  0.047000  0.738000  0.798600  1.0  -0.6492
  O  O66  1  0.052100  0.791100  0.638800  1.0  -0.7134
  O  O67  1  0.073900  0.577600  0.357800  1.0  -0.6357
  O  O68  1  0.130500  0.674900  0.469000  1.0  -0.6988
  O  O69  1  0.069700  0.887200  0.103700  1.0  -0.6241
  O  O70  1  0.131800  0.814600  0.969900  1.0  -0.7039
  O  O71  1  0.953000  0.762000  0.298600  1.0  -0.6501
  O  O72  1  0.947900  0.708900  0.138800  1.0  -0.7105
  O  O73  1  0.426100  0.077600  0.142200  1.0  -0.635
  O  O74  1  0.369500  0.174900  0.031000  1.0  -0.699
  O  O75  1  0.430300  0.387200  0.396300  1.0  -0.6253
  O  O76  1  0.368200  0.314600  0.530100  1.0  -0.7019
  O  O77  1  0.547000  0.262000  0.201400  1.0  -0.6465
  O  O78  1  0.552100  0.208900  0.361200  1.0  -0.7103
  O  O79  1  0.573900  0.422400  0.642200  1.0  -0.6369
  O  O80  1  0.630500  0.325100  0.531000  1.0  -0.6994
  O  O81  1  0.569700  0.112800  0.896300  1.0  -0.6242
  O  O82  1  0.631800  0.185400  0.030100  1.0  -0.7015
  O  O83  1  0.453000  0.238000  0.701400  1.0  -0.6472
  O  O84  1  0.447900  0.291100  0.861200  1.0  -0.7122
  O  O85  1  0.073900  0.077600  0.142200  1.0  -0.6343
  O  O86  1  0.130500  0.174900  0.031000  1.0  -0.6991
  O  O87  1  0.069700  0.387200  0.396300  1.0  -0.6262
  O  O88  1  0.131800  0.314600  0.530100  1.0  -0.7015
  O  O89  1  0.953000  0.262000  0.201400  1.0  -0.6468
  O  O90  1  0.947900  0.208900  0.361200  1.0  -0.7093
  O  O91  1  0.926100  0.422400  0.642200  1.0  -0.6375
  O  O92  1  0.869500  0.325100  0.531000  1.0  -0.6993
  O  O93  1  0.930300  0.112800  0.896300  1.0  -0.6259
  O  O94  1  0.868200  0.185400  0.030100  1.0  -0.7017
  O  O95  1  0.047000  0.238000  0.701400  1.0  -0.647
  O  O96  1  0.052100  0.291100  0.861200  1.0  -0.7129
  O  O97  1  0.573900  0.922400  0.857800  1.0  -0.6384
  O  O98  1  0.630500  0.825100  0.969000  1.0  -0.6988
  O  O99  1  0.569700  0.612800  0.603700  1.0  -0.6237
  O  O100  1  0.631800  0.685400  0.469900  1.0  -0.7037
  O  O101  1  0.453000  0.738000  0.798600  1.0  -0.6495
  O  O102  1  0.447900  0.791100  0.638800  1.0  -0.713
  O  O103  1  0.426100  0.577600  0.357800  1.0  -0.636
  O  O104  1  0.369500  0.674900  0.469000  1.0  -0.6988
  O  O105  1  0.430300  0.887200  0.103700  1.0  -0.6256
  O  O106  1  0.368200  0.814600  0.969900  1.0  -0.7042
  O  O107  1  0.547000  0.762000  0.298600  1.0  -0.6495
  O  O108  1  0.552100  0.708900  0.138800  1.0  -0.7112
  O  O109  1  0.750000  0.659700  0.263700  1.0  -0.8807
  O  O110  1  0.750000  0.822600  0.188400  1.0  -1.0632
  O  O111  1  0.250000  0.840300  0.763700  1.0  -0.8803
  O  O112  1  0.250000  0.677400  0.688400  1.0  -1.0631
  O  O113  1  0.250000  0.340300  0.736300  1.0  -0.8814
  O  O114  1  0.250000  0.177400  0.811600  1.0  -1.0625
  O  O115  1  0.750000  0.159700  0.236300  1.0  -0.8817
  O  O116  1  0.750000  0.322600  0.311600  1.0  -1.0626
