# generated using pymatgen
data_Cu2H16C21(NO4)2
_symmetry_space_group_name_H-M   'P 1'
_cell_length_a   18.61600000
_cell_length_b   18.61600000
_cell_length_c   37.56600000
_cell_angle_alpha   90.00000000
_cell_angle_beta   90.00000000
_cell_angle_gamma   120.00000000
_symmetry_Int_Tables_number   1
_chemical_formula_structural   Cu2H16C21(NO4)2
_chemical_formula_sum   'Cu18 H144 C189 N18 O72'
_cell_volume   11274.52688155
_cell_formula_units_Z   9
loop_
 _symmetry_equiv_pos_site_id
 _symmetry_equiv_pos_as_xyz
  1  'x, y, z'
loop_
 _atom_site_type_symbol
 _atom_site_label
 _atom_site_symmetry_multiplicity
 _atom_site_fract_x
 _atom_site_fract_y
 _atom_site_fract_z
 _atom_site_occupancy
 _atom_site_charge
  Cu  Cu1  1  0.523310  0.046540  0.608030  1.0  0.8986
  Cu  Cu2  1  0.476770  0.953500  0.666030  1.0  0.9045
  Cu  Cu3  1  0.189980  0.379870  0.941360  1.0  0.8986
  Cu  Cu4  1  0.143440  0.286830  0.999360  1.0  0.9045
  Cu  Cu5  1  0.856640  0.713210  0.274700  1.0  0.8986
  Cu  Cu6  1  0.810100  0.620170  0.332700  1.0  0.8963
  Cu  Cu7  1  0.953460  0.476770  0.608030  1.0  0.8985
  Cu  Cu8  1  0.046500  0.523270  0.666030  1.0  0.9038
  Cu  Cu9  1  0.620130  0.810100  0.941360  1.0  0.8985
  Cu  Cu10  1  0.713170  0.856600  0.999360  1.0  0.9038
  Cu  Cu11  1  0.286790  0.143440  0.274700  1.0  0.8985
  Cu  Cu12  1  0.379830  0.189940  0.332700  1.0  0.8967
  Cu  Cu13  1  0.523230  0.476690  0.608030  1.0  0.8982
  Cu  Cu14  1  0.476730  0.523230  0.666030  1.0  0.8963
  Cu  Cu15  1  0.189900  0.810020  0.941360  1.0  0.8982
  Cu  Cu16  1  0.143400  0.856560  0.999360  1.0  0.8963
  Cu  Cu17  1  0.856560  0.143360  0.274700  1.0  0.8981
  Cu  Cu18  1  0.810060  0.189900  0.332700  1.0  0.9054
  H  H19  1  0.695210  0.091830  0.728930  1.0  0.1182
  H  H20  1  0.911730  0.301970  0.727640  1.0  0.0855
  H  H21  1  0.761520  0.235540  0.639790  1.0  0.1253
  H  H22  1  0.894710  0.101840  0.967610  1.0  0.0692
  H  H23  1  0.970130  0.247510  0.885230  1.0  0.1008
  H  H24  1  0.759160  0.023150  0.882940  1.0  0.099
  H  H25  1  0.824960  0.077160  0.769880  1.0  0.0742
  H  H26  1  0.734480  0.062730  0.770610  1.0  0.0541
  H  H27  1  0.789000  0.037360  0.823120  1.0  0.0672
  H  H28  1  0.734630  0.078970  0.826120  1.0  0.0719
  H  H29  1  0.891050  0.253540  0.822130  1.0  0.0879
  H  H30  1  0.027660  0.304030  0.838710  1.0  0.0847
  H  H31  1  0.034560  0.268230  0.801910  1.0  0.0791
  H  H32  1  0.004300  0.333050  0.803580  1.0  0.0931
  H  H33  1  0.937620  0.266500  0.771260  1.0  0.0565
  H  H34  1  0.923560  0.176300  0.771740  1.0  0.0881
  H  H35  1  0.361880  0.425160  0.062260  1.0  0.1182
  H  H36  1  0.578400  0.635300  0.060970  1.0  0.0855
  H  H37  1  0.428190  0.568870  0.973120  1.0  0.1253
  H  H38  1  0.561380  0.435170  0.300940  1.0  0.069
  H  H39  1  0.636800  0.580840  0.218560  1.0  0.1008
  H  H40  1  0.425830  0.356480  0.216270  1.0  0.099
  H  H41  1  0.491630  0.410490  0.103210  1.0  0.0768
  H  H42  1  0.401150  0.396060  0.103940  1.0  0.0541
  H  H43  1  0.455670  0.370690  0.156450  1.0  0.0672
  H  H44  1  0.401300  0.412300  0.159450  1.0  0.0719
  H  H45  1  0.557720  0.586870  0.155460  1.0  0.0879
  H  H46  1  0.694330  0.637360  0.172040  1.0  0.0847
  H  H47  1  0.701230  0.601560  0.135240  1.0  0.0791
  H  H48  1  0.670970  0.666380  0.136910  1.0  0.0927
  H  H49  1  0.604290  0.599830  0.104590  1.0  0.0565
  H  H50  1  0.590230  0.509630  0.105070  1.0  0.0881
  H  H51  1  0.028540  0.758500  0.395600  1.0  0.1182
  H  H52  1  0.245060  0.968640  0.394310  1.0  0.0858
  H  H53  1  0.094850  0.902210  0.306460  1.0  0.1253
  H  H54  1  0.228040  0.768510  0.634280  1.0  0.0692
  H  H55  1  0.303460  0.914180  0.551900  1.0  0.1008
  H  H56  1  0.092490  0.689820  0.549610  1.0  0.099
  H  H57  1  0.158290  0.743830  0.436550  1.0  0.0742
  H  H58  1  0.067810  0.729400  0.437280  1.0  0.0541
  H  H59  1  0.122330  0.704030  0.489790  1.0  0.0672
  H  H60  1  0.067960  0.745640  0.492790  1.0  0.0719
  H  H61  1  0.224380  0.920210  0.488800  1.0  0.0879
  H  H62  1  0.360990  0.970700  0.505380  1.0  0.0847
  H  H63  1  0.367890  0.934900  0.468580  1.0  0.0791
  H  H64  1  0.337630  0.999720  0.470250  1.0  0.0941
  H  H65  1  0.270950  0.933170  0.437930  1.0  0.0565
  H  H66  1  0.256890  0.842970  0.438410  1.0  0.0881
  H  H67  1  0.908170  0.603380  0.728930  1.0  0.1204
  H  H68  1  0.698030  0.609760  0.727640  1.0  0.0867
  H  H69  1  0.764460  0.525980  0.639790  1.0  0.1256
  H  H70  1  0.898160  0.792870  0.967610  1.0  0.0692
  H  H71  1  0.752490  0.722620  0.885230  1.0  0.1004
  H  H72  1  0.976850  0.736010  0.882940  1.0  0.1002
  H  H73  1  0.922840  0.747800  0.769880  1.0  0.0778
  H  H74  1  0.937270  0.671750  0.770610  1.0  0.0592
  H  H75  1  0.962640  0.751640  0.823120  1.0  0.0703
  H  H76  1  0.921030  0.655660  0.826120  1.0  0.0724
  H  H77  1  0.746460  0.637510  0.822130  1.0  0.0808
  H  H78  1  0.695970  0.723630  0.838710  1.0  0.0881
  H  H79  1  0.731770  0.766330  0.801910  1.0  0.0809
  H  H80  1  0.666950  0.671250  0.803580  1.0  0.0869
  H  H81  1  0.733500  0.671120  0.771260  1.0  0.0568
  H  H82  1  0.823700  0.747260  0.771740  1.0  0.085
  H  H83  1  0.574840  0.936710  0.062260  1.0  0.1204
  H  H84  1  0.364700  0.943090  0.060970  1.0  0.0867
  H  H85  1  0.431130  0.859310  0.973120  1.0  0.1256
  H  H86  1  0.564830  0.126200  0.300940  1.0  0.0685
  H  H87  1  0.419160  0.055950  0.218560  1.0  0.1003
  H  H88  1  0.643520  0.069340  0.216270  1.0  0.1002
  H  H89  1  0.589510  0.081130  0.103210  1.0  0.0778
  H  H90  1  0.603940  0.005080  0.103940  1.0  0.0592
  H  H91  1  0.629310  0.084970  0.156450  1.0  0.0703
  H  H92  1  0.587700  0.988990  0.159450  1.0  0.0724
  H  H93  1  0.413130  0.970840  0.155460  1.0  0.0808
  H  H94  1  0.362640  0.056960  0.172040  1.0  0.088
  H  H95  1  0.398440  0.099660  0.135240  1.0  0.0809
  H  H96  1  0.333620  0.004580  0.136910  1.0  0.0864
  H  H97  1  0.400170  0.004450  0.104590  1.0  0.0568
  H  H98  1  0.490370  0.080590  0.105070  1.0  0.085
  H  H99  1  0.241500  0.270050  0.395600  1.0  0.1204
  H  H100  1  0.031360  0.276430  0.394310  1.0  0.0867
  H  H101  1  0.097790  0.192650  0.306460  1.0  0.1259
  H  H102  1  0.231490  0.459540  0.634280  1.0  0.0692
  H  H103  1  0.085820  0.389290  0.551900  1.0  0.1004
  H  H104  1  0.310180  0.402680  0.549610  1.0  0.1002
  H  H105  1  0.256170  0.414470  0.436550  1.0  0.0806
  H  H106  1  0.270600  0.338420  0.437280  1.0  0.0592
  H  H107  1  0.295970  0.418310  0.489790  1.0  0.0703
  H  H108  1  0.254360  0.322330  0.492790  1.0  0.0724
  H  H109  1  0.079790  0.304180  0.488800  1.0  0.0808
  H  H110  1  0.029300  0.390300  0.505380  1.0  0.0881
  H  H111  1  0.065100  0.433000  0.468580  1.0  0.0809
  H  H112  1  0.000280  0.337920  0.470250  1.0  0.0887
  H  H113  1  0.066830  0.337790  0.437930  1.0  0.0568
  H  H114  1  0.157030  0.413930  0.438410  1.0  0.085
  H  H115  1  0.396620  0.304790  0.728930  1.0  0.1191
  H  H116  1  0.390240  0.088270  0.727640  1.0  0.0862
  H  H117  1  0.474020  0.238480  0.639790  1.0  0.1266
  H  H118  1  0.207130  0.105290  0.967610  1.0  0.0698
  H  H119  1  0.277380  0.029870  0.885230  1.0  0.101
  H  H120  1  0.263990  0.240840  0.882940  1.0  0.0989
  H  H121  1  0.252200  0.175040  0.769880  1.0  0.079
  H  H122  1  0.328250  0.265520  0.770610  1.0  0.0582
  H  H123  1  0.248360  0.211000  0.823120  1.0  0.0695
  H  H124  1  0.344340  0.265370  0.826120  1.0  0.0714
  H  H125  1  0.362490  0.108950  0.822130  1.0  0.0883
  H  H126  1  0.276370  0.972340  0.838710  1.0  0.0831
  H  H127  1  0.233670  0.965440  0.801910  1.0  0.0783
  H  H128  1  0.328750  0.995700  0.803580  1.0  0.0974
  H  H129  1  0.328880  0.062380  0.771260  1.0  0.0544
  H  H130  1  0.252740  0.076440  0.771740  1.0  0.0863
  H  H131  1  0.063290  0.638120  0.062260  1.0  0.1191
  H  H132  1  0.056910  0.421600  0.060970  1.0  0.0862
  H  H133  1  0.140690  0.571810  0.973120  1.0  0.1266
  H  H134  1  0.873800  0.438620  0.300940  1.0  0.0693
  H  H135  1  0.944050  0.363200  0.218560  1.0  0.101
  H  H136  1  0.930660  0.574170  0.216270  1.0  0.0989
  H  H137  1  0.918870  0.508370  0.103210  1.0  0.079
  H  H138  1  0.994920  0.598850  0.103940  1.0  0.0582
  H  H139  1  0.915030  0.544330  0.156450  1.0  0.0695
  H  H140  1  0.011010  0.598700  0.159450  1.0  0.0715
  H  H141  1  0.029160  0.442280  0.155460  1.0  0.0883
  H  H142  1  0.943040  0.305670  0.172040  1.0  0.0831
  H  H143  1  0.900340  0.298770  0.135240  1.0  0.0783
  H  H144  1  0.995420  0.329030  0.136910  1.0  0.0979
  H  H145  1  0.995550  0.395710  0.104590  1.0  0.0544
  H  H146  1  0.919410  0.409770  0.105070  1.0  0.0863
  H  H147  1  0.729950  0.971460  0.395600  1.0  0.1191
  H  H148  1  0.723570  0.754940  0.394310  1.0  0.0862
  H  H149  1  0.807350  0.905150  0.306460  1.0  0.1252
  H  H150  1  0.540460  0.771960  0.634280  1.0  0.0698
  H  H151  1  0.610710  0.696540  0.551900  1.0  0.101
  H  H152  1  0.597320  0.907510  0.549610  1.0  0.0989
  H  H153  1  0.585530  0.841710  0.436550  1.0  0.079
  H  H154  1  0.661580  0.932190  0.437280  1.0  0.0582
  H  H155  1  0.581690  0.877670  0.489790  1.0  0.0695
  H  H156  1  0.677670  0.932040  0.492790  1.0  0.0714
  H  H157  1  0.695820  0.775620  0.488800  1.0  0.0883
  H  H158  1  0.609700  0.639010  0.505380  1.0  0.0831
  H  H159  1  0.567000  0.632110  0.468580  1.0  0.0783
  H  H160  1  0.662080  0.662370  0.470250  1.0  0.0974
  H  H161  1  0.662210  0.729050  0.437930  1.0  0.0544
  H  H162  1  0.586070  0.743110  0.438410  1.0  0.0863
  C  C163  1  0.636200  0.088900  0.663600  1.0  0.6558
  C  C164  1  0.806900  0.196300  0.734900  1.0  0.2249
  C  C165  1  0.718400  0.153200  0.683100  1.0  -0.1087
  C  C166  1  0.846900  0.280500  0.682800  1.0  -0.1419
  C  C167  1  0.733900  0.139600  0.717200  1.0  -0.071
  C  C168  1  0.862000  0.264600  0.716700  1.0  -0.1021
  C  C169  1  0.772500  0.225300  0.662800  1.0  -0.0771
  C  C170  1  0.910900  0.363600  0.664700  1.0  0.6607
  C  C171  1  0.947800  0.181600  0.928400  1.0  0.0351
  C  C172  1  0.887100  0.110300  0.943800  1.0  -0.0843
  C  C173  1  0.932300  0.196500  0.895000  1.0  -0.1525
  C  C174  1  0.764700  0.974300  0.945800  1.0  0.6588
  C  C175  1  0.023700  0.233100  0.944700  1.0  0.6151
  C  C176  1  0.806100  0.064800  0.894200  1.0  -0.155
  C  C177  1  0.861700  0.140700  0.872500  1.0  0.1512
  C  C178  1  0.818000  0.051700  0.928200  1.0  -0.0297
  C  C179  1  0.790100  0.097000  0.779900  1.0  -0.0272
  C  C180  1  0.788200  0.088100  0.818200  1.0  0.0004
  C  C181  1  0.913300  0.216100  0.819200  1.0  -0.0394
  C  C182  1  0.003410  0.287000  0.815500  1.0  -0.3228
  C  C183  1  0.903300  0.211400  0.781100  1.0  -0.0163
  C  C184  1  0.302870  0.422230  0.996930  1.0  0.6558
  C  C185  1  0.473570  0.529630  0.068230  1.0  0.2249
  C  C186  1  0.385070  0.486530  0.016430  1.0  -0.1087
  C  C187  1  0.513570  0.613830  0.016130  1.0  -0.1419
  C  C188  1  0.400570  0.472930  0.050530  1.0  -0.071
  C  C189  1  0.528670  0.597930  0.050030  1.0  -0.1021
  C  C190  1  0.439170  0.558630  0.996130  1.0  -0.0771
  C  C191  1  0.577570  0.696930  0.998030  1.0  0.6607
  C  C192  1  0.614470  0.514930  0.261730  1.0  0.0344
  C  C193  1  0.553770  0.443630  0.277130  1.0  -0.0843
  C  C194  1  0.598970  0.529830  0.228330  1.0  -0.1509
  C  C195  1  0.431370  0.307630  0.279130  1.0  0.6588
  C  C196  1  0.690370  0.566430  0.278030  1.0  0.6151
  C  C197  1  0.472770  0.398130  0.227530  1.0  -0.155
  C  C198  1  0.528370  0.474030  0.205830  1.0  0.1512
  C  C199  1  0.484670  0.385030  0.261530  1.0  -0.0297
  C  C200  1  0.456770  0.430330  0.113230  1.0  -0.0272
  C  C201  1  0.454870  0.421430  0.151530  1.0  0.0004
  C  C202  1  0.579970  0.549430  0.152530  1.0  -0.0394
  C  C203  1  0.670080  0.620330  0.148830  1.0  -0.3228
  C  C204  1  0.569970  0.544730  0.114430  1.0  -0.0163
  C  C205  1  0.969530  0.755570  0.330270  1.0  0.6558
  C  C206  1  0.140230  0.862970  0.401570  1.0  0.2249
  C  C207  1  0.051730  0.819870  0.349770  1.0  -0.1087
  C  C208  1  0.180230  0.947170  0.349470  1.0  -0.1419
  C  C209  1  0.067230  0.806270  0.383870  1.0  -0.071
  C  C210  1  0.195330  0.931270  0.383370  1.0  -0.1021
  C  C211  1  0.105830  0.891970  0.329470  1.0  -0.0771
  C  C212  1  0.244230  0.030270  0.331370  1.0  0.6607
  C  C213  1  0.281130  0.848270  0.595070  1.0  0.0351
  C  C214  1  0.220430  0.776970  0.610470  1.0  -0.0843
  C  C215  1  0.265630  0.863170  0.561670  1.0  -0.1516
  C  C216  1  0.098030  0.640970  0.612470  1.0  0.6588
  C  C217  1  0.357030  0.899770  0.611370  1.0  0.6151
  C  C218  1  0.139430  0.731470  0.560870  1.0  -0.155
  C  C219  1  0.195030  0.807370  0.539170  1.0  0.1512
  C  C220  1  0.151330  0.718370  0.594870  1.0  -0.0297
  C  C221  1  0.123430  0.763670  0.446570  1.0  -0.0272
  C  C222  1  0.121530  0.754770  0.484870  1.0  0.0004
  C  C223  1  0.246630  0.882770  0.485870  1.0  -0.0394
  C  C224  1  0.336740  0.953670  0.482170  1.0  -0.3228
  C  C225  1  0.236630  0.878070  0.447770  1.0  -0.0163
  C  C226  1  0.911100  0.547300  0.663600  1.0  0.6559
  C  C227  1  0.803700  0.610600  0.734900  1.0  0.2247
  C  C228  1  0.846800  0.565200  0.683100  1.0  -0.1085
  C  C229  1  0.719500  0.566400  0.682800  1.0  -0.1424
  C  C230  1  0.860400  0.594300  0.717200  1.0  -0.0733
  C  C231  1  0.735400  0.597400  0.716700  1.0  -0.1043
  C  C232  1  0.774700  0.547200  0.662800  1.0  -0.0761
  C  C233  1  0.636400  0.547300  0.664700  1.0  0.6596
  C  C234  1  0.818400  0.766200  0.928400  1.0  0.0369
  C  C235  1  0.889700  0.776800  0.943800  1.0  -0.084
  C  C236  1  0.803500  0.735800  0.895000  1.0  -0.1523
  C  C237  1  0.025700  0.790400  0.945800  1.0  0.6591
  C  C238  1  0.766900  0.790600  0.944700  1.0  0.6164
  C  C239  1  0.935200  0.741300  0.894200  1.0  -0.1505
  C  C240  1  0.859300  0.721000  0.872500  1.0  0.1513
  C  C241  1  0.948300  0.766300  0.928200  1.0  -0.0272
  C  C242  1  0.903000  0.693100  0.779900  1.0  -0.0227
  C  C243  1  0.911900  0.700100  0.818200  1.0  0.0046
  C  C244  1  0.783900  0.697200  0.819200  1.0  -0.0406
  C  C245  1  0.713000  0.716410  0.815500  1.0  -0.3238
  C  C246  1  0.788600  0.691900  0.781100  1.0  -0.0133
  C  C247  1  0.577770  0.880630  0.996930  1.0  0.6559
  C  C248  1  0.470370  0.943930  0.068230  1.0  0.2247
  C  C249  1  0.513470  0.898530  0.016430  1.0  -0.1085
  C  C250  1  0.386170  0.899730  0.016130  1.0  -0.1424
  C  C251  1  0.527070  0.927630  0.050530  1.0  -0.0733
  C  C252  1  0.402070  0.930730  0.050030  1.0  -0.1043
  C  C253  1  0.441370  0.880530  0.996130  1.0  -0.0761
  C  C254  1  0.303070  0.880630  0.998030  1.0  0.6596
  C  C255  1  0.485070  0.099530  0.261730  1.0  0.0352
  C  C256  1  0.556370  0.110130  0.277130  1.0  -0.084
  C  C257  1  0.470170  0.069130  0.228330  1.0  -0.1519
  C  C258  1  0.692370  0.123730  0.279130  1.0  0.6591
  C  C259  1  0.433570  0.123930  0.278030  1.0  0.6165
  C  C260  1  0.601870  0.074630  0.227530  1.0  -0.1505
  C  C261  1  0.525970  0.054330  0.205830  1.0  0.1513
  C  C262  1  0.614970  0.099630  0.261530  1.0  -0.0272
  C  C263  1  0.569670  0.026430  0.113230  1.0  -0.0227
  C  C264  1  0.578570  0.033430  0.151530  1.0  0.0046
  C  C265  1  0.450570  0.030530  0.152530  1.0  -0.0406
  C  C266  1  0.379670  0.049740  0.148830  1.0  -0.3238
  C  C267  1  0.455270  0.025230  0.114430  1.0  -0.0133
  C  C268  1  0.244430  0.213970  0.330270  1.0  0.6559
  C  C269  1  0.137030  0.277270  0.401570  1.0  0.2247
  C  C270  1  0.180130  0.231870  0.349770  1.0  -0.1085
  C  C271  1  0.052830  0.233070  0.349470  1.0  -0.1424
  C  C272  1  0.193730  0.260970  0.383870  1.0  -0.0733
  C  C273  1  0.068730  0.264070  0.383370  1.0  -0.1043
  C  C274  1  0.108030  0.213870  0.329470  1.0  -0.0761
  C  C275  1  0.969730  0.213970  0.331370  1.0  0.6596
  C  C276  1  0.151730  0.432870  0.595070  1.0  0.0369
  C  C277  1  0.223030  0.443470  0.610470  1.0  -0.084
  C  C278  1  0.136830  0.402470  0.561670  1.0  -0.1519
  C  C279  1  0.359030  0.457070  0.612470  1.0  0.6591
  C  C280  1  0.100230  0.457270  0.611370  1.0  0.6164
  C  C281  1  0.268530  0.407970  0.560870  1.0  -0.1505
  C  C282  1  0.192630  0.387670  0.539170  1.0  0.1513
  C  C283  1  0.281630  0.432970  0.594870  1.0  -0.0272
  C  C284  1  0.236330  0.359770  0.446570  1.0  -0.0227
  C  C285  1  0.245230  0.366770  0.484870  1.0  0.0046
  C  C286  1  0.117230  0.363870  0.485870  1.0  -0.0406
  C  C287  1  0.046330  0.383080  0.482170  1.0  -0.3238
  C  C288  1  0.121930  0.358570  0.447770  1.0  -0.0133
  C  C289  1  0.452700  0.363800  0.663600  1.0  0.6576
  C  C290  1  0.389400  0.193100  0.734900  1.0  0.2256
  C  C291  1  0.434800  0.281600  0.683100  1.0  -0.1081
  C  C292  1  0.433600  0.153100  0.682800  1.0  -0.1418
  C  C293  1  0.405700  0.266100  0.717200  1.0  -0.0727
  C  C294  1  0.402600  0.138000  0.716700  1.0  -0.1036
  C  C295  1  0.452800  0.227500  0.662800  1.0  -0.0773
  C  C296  1  0.452700  0.089100  0.664700  1.0  0.6588
  C  C297  1  0.233800  0.052200  0.928400  1.0  0.0355
  C  C298  1  0.223200  0.112900  0.943800  1.0  -0.0855
  C  C299  1  0.264200  0.067700  0.895000  1.0  -0.1496
  C  C300  1  0.209600  0.235300  0.945800  1.0  0.6579
  C  C301  1  0.209400  0.976300  0.944700  1.0  0.6177
  C  C302  1  0.258700  0.193900  0.894200  1.0  -0.152
  C  C303  1  0.279000  0.138300  0.872500  1.0  0.1523
  C  C304  1  0.233700  0.182000  0.928200  1.0  -0.0269
  C  C305  1  0.306900  0.209900  0.779900  1.0  -0.024
  C  C306  1  0.299900  0.211800  0.818200  1.0  -0.0006
  C  C307  1  0.302800  0.086700  0.819200  1.0  -0.041
  C  C308  1  0.283590  0.996590  0.815500  1.0  -0.3197
  C  C309  1  0.308100  0.096700  0.781100  1.0  -0.016
  C  C310  1  0.119370  0.697130  0.996930  1.0  0.6576
  C  C311  1  0.056070  0.526430  0.068230  1.0  0.2256
  C  C312  1  0.101470  0.614930  0.016430  1.0  -0.1081
  C  C313  1  0.100270  0.486430  0.016130  1.0  -0.1418
  C  C314  1  0.072370  0.599430  0.050530  1.0  -0.0727
  C  C315  1  0.069270  0.471330  0.050030  1.0  -0.1036
  C  C316  1  0.119470  0.560830  0.996130  1.0  -0.0773
  C  C317  1  0.119370  0.422430  0.998030  1.0  0.6588
  C  C318  1  0.900470  0.385530  0.261730  1.0  0.0345
  C  C319  1  0.889870  0.446230  0.277130  1.0  -0.0855
  C  C320  1  0.930870  0.401030  0.228330  1.0  -0.1497
  C  C321  1  0.876270  0.568630  0.279130  1.0  0.6579
  C  C322  1  0.876070  0.309630  0.278030  1.0  0.6177
  C  C323  1  0.925370  0.527230  0.227530  1.0  -0.152
  C  C324  1  0.945670  0.471630  0.205830  1.0  0.1523
  C  C325  1  0.900370  0.515330  0.261530  1.0  -0.0269
  C  C326  1  0.973570  0.543230  0.113230  1.0  -0.024
  C  C327  1  0.966570  0.545130  0.151530  1.0  -0.0006
  C  C328  1  0.969470  0.420030  0.152530  1.0  -0.041
  C  C329  1  0.950260  0.329920  0.148830  1.0  -0.3197
  C  C330  1  0.974770  0.430030  0.114430  1.0  -0.016
  C  C331  1  0.786030  0.030470  0.330270  1.0  0.6576
  C  C332  1  0.722730  0.859770  0.401570  1.0  0.2256
  C  C333  1  0.768130  0.948270  0.349770  1.0  -0.1081
  C  C334  1  0.766930  0.819770  0.349470  1.0  -0.1418
  C  C335  1  0.739030  0.932770  0.383870  1.0  -0.0727
  C  C336  1  0.735930  0.804670  0.383370  1.0  -0.1036
  C  C337  1  0.786130  0.894170  0.329470  1.0  -0.0773
  C  C338  1  0.786030  0.755770  0.331370  1.0  0.6588
  C  C339  1  0.567130  0.718870  0.595070  1.0  0.0355
  C  C340  1  0.556530  0.779570  0.610470  1.0  -0.0855
  C  C341  1  0.597530  0.734370  0.561670  1.0  -0.1496
  C  C342  1  0.542930  0.901970  0.612470  1.0  0.6579
  C  C343  1  0.542730  0.642970  0.611370  1.0  0.6177
  C  C344  1  0.592030  0.860570  0.560870  1.0  -0.152
  C  C345  1  0.612330  0.804970  0.539170  1.0  0.1523
  C  C346  1  0.567030  0.848670  0.594870  1.0  -0.0269
  C  C347  1  0.640230  0.876570  0.446570  1.0  -0.024
  C  C348  1  0.633230  0.878470  0.484870  1.0  -0.0006
  C  C349  1  0.636130  0.753370  0.485870  1.0  -0.041
  C  C350  1  0.616920  0.663260  0.482170  1.0  -0.3197
  C  C351  1  0.641430  0.763370  0.447770  1.0  -0.016
  N  N352  1  0.820500  0.180300  0.769100  1.0  -0.2358
  N  N353  1  0.849800  0.151400  0.841000  1.0  0.0194
  N  N354  1  0.487170  0.513630  0.102430  1.0  -0.2358
  N  N355  1  0.516470  0.484730  0.174330  1.0  0.0194
  N  N356  1  0.153830  0.846970  0.435770  1.0  -0.2358
  N  N357  1  0.183130  0.818070  0.507670  1.0  0.0194
  N  N358  1  0.819700  0.640200  0.769100  1.0  -0.2377
  N  N359  1  0.848600  0.698400  0.841000  1.0  0.0209
  N  N360  1  0.486370  0.973530  0.102430  1.0  -0.2377
  N  N361  1  0.515270  0.031730  0.174330  1.0  0.0209
  N  N362  1  0.153030  0.306870  0.435770  1.0  -0.2377
  N  N363  1  0.181930  0.365070  0.507670  1.0  0.0209
  N  N364  1  0.359800  0.179500  0.769100  1.0  -0.2362
  N  N365  1  0.301600  0.150200  0.841000  1.0  0.0202
  N  N366  1  0.026470  0.512830  0.102430  1.0  -0.2362
  N  N367  1  0.968270  0.483530  0.174330  1.0  0.0202
  N  N368  1  0.693130  0.846170  0.435770  1.0  -0.2362
  N  N369  1  0.634930  0.816870  0.507670  1.0  0.0202
  O  O370  1  0.586000  0.030700  0.682600  1.0  -0.57
  O  O371  1  0.628500  0.110900  0.632200  1.0  -0.5849
  O  O372  1  0.889600  0.371000  0.632400  1.0  -0.5796
  O  O373  1  0.969800  0.412300  0.682100  1.0  -0.5506
  O  O374  1  0.038400  0.222800  0.974100  1.0  -0.5687
  O  O375  1  0.776500  0.960900  0.974600  1.0  -0.5621
  O  O376  1  0.073700  0.298900  0.926700  1.0  -0.6031
  O  O377  1  0.701500  0.923500  0.925900  1.0  -0.6106
  O  O378  1  0.252670  0.364030  0.015930  1.0  -0.57
  O  O379  1  0.295170  0.444230  0.965530  1.0  -0.5849
  O  O380  1  0.556270  0.704330  0.965730  1.0  -0.5796
  O  O381  1  0.636470  0.745630  0.015430  1.0  -0.5505
  O  O382  1  0.705070  0.556130  0.307430  1.0  -0.5687
  O  O383  1  0.443170  0.294230  0.307930  1.0  -0.5621
  O  O384  1  0.740370  0.632230  0.260030  1.0  -0.6032
  O  O385  1  0.368170  0.256830  0.259230  1.0  -0.6107
  O  O386  1  0.919330  0.697370  0.349270  1.0  -0.5698
  O  O387  1  0.961830  0.777570  0.298870  1.0  -0.5845
  O  O388  1  0.222930  0.037670  0.299070  1.0  -0.5797
  O  O389  1  0.303130  0.078970  0.348770  1.0  -0.5505
  O  O390  1  0.371730  0.889470  0.640770  1.0  -0.5687
  O  O391  1  0.109830  0.627570  0.641270  1.0  -0.5619
  O  O392  1  0.407030  0.965570  0.593370  1.0  -0.6031
  O  O393  1  0.034830  0.590170  0.592570  1.0  -0.6103
  O  O394  1  0.969300  0.555300  0.682600  1.0  -0.5684
  O  O395  1  0.889100  0.517600  0.632200  1.0  -0.5856
  O  O396  1  0.629000  0.518600  0.632400  1.0  -0.5796
  O  O397  1  0.587700  0.557500  0.682100  1.0  -0.55
  O  O398  1  0.777200  0.815600  0.974100  1.0  -0.5684
  O  O399  1  0.039100  0.815600  0.974600  1.0  -0.563
  O  O400  1  0.701100  0.774800  0.926700  1.0  -0.6012
  O  O401  1  0.076500  0.778000  0.925900  1.0  -0.6102
  O  O402  1  0.635970  0.888630  0.015930  1.0  -0.5683
  O  O403  1  0.555770  0.850930  0.965530  1.0  -0.5859
  O  O404  1  0.295670  0.851930  0.965730  1.0  -0.5795
  O  O405  1  0.254370  0.890830  0.015430  1.0  -0.55
  O  O406  1  0.443870  0.148930  0.307430  1.0  -0.5684
  O  O407  1  0.705770  0.148930  0.307930  1.0  -0.563
  O  O408  1  0.367770  0.108130  0.260030  1.0  -0.6012
  O  O409  1  0.743170  0.111330  0.259230  1.0  -0.6102
  O  O410  1  0.302630  0.221970  0.349270  1.0  -0.5683
  O  O411  1  0.222430  0.184270  0.298870  1.0  -0.5856
  O  O412  1  0.962330  0.185270  0.299070  1.0  -0.5795
  O  O413  1  0.921030  0.224170  0.348770  1.0  -0.55
  O  O414  1  0.110530  0.482270  0.640770  1.0  -0.5683
  O  O415  1  0.372430  0.482270  0.641270  1.0  -0.5628
  O  O416  1  0.034430  0.441470  0.593370  1.0  -0.6012
  O  O417  1  0.409830  0.444670  0.592570  1.0  -0.6099
  O  O418  1  0.444700  0.414000  0.682600  1.0  -0.5687
  O  O419  1  0.482400  0.371500  0.632200  1.0  -0.5849
  O  O420  1  0.481400  0.110400  0.632400  1.0  -0.5802
  O  O421  1  0.442500  0.030200  0.682100  1.0  -0.5499
  O  O422  1  0.184400  0.961600  0.974100  1.0  -0.5678
  O  O423  1  0.184400  0.223500  0.974600  1.0  -0.5641
  O  O424  1  0.225200  0.926300  0.926700  1.0  -0.6024
  O  O425  1  0.222000  0.298500  0.925900  1.0  -0.6097
  O  O426  1  0.111370  0.747330  0.015930  1.0  -0.5687
  O  O427  1  0.149070  0.704830  0.965530  1.0  -0.5852
  O  O428  1  0.148070  0.443730  0.965730  1.0  -0.5802
  O  O429  1  0.109170  0.363530  0.015430  1.0  -0.5499
  O  O430  1  0.851070  0.294930  0.307430  1.0  -0.5681
  O  O431  1  0.851070  0.556830  0.307930  1.0  -0.5639
  O  O432  1  0.891870  0.259630  0.260030  1.0  -0.6024
  O  O433  1  0.888670  0.631830  0.259230  1.0  -0.6098
  O  O434  1  0.778030  0.080670  0.349270  1.0  -0.5687
  O  O435  1  0.815730  0.038170  0.298870  1.0  -0.5854
  O  O436  1  0.814730  0.777070  0.299070  1.0  -0.5801
  O  O437  1  0.775830  0.696870  0.348770  1.0  -0.5499
  O  O438  1  0.517730  0.628270  0.640770  1.0  -0.5678
  O  O439  1  0.517730  0.890170  0.641270  1.0  -0.5641
  O  O440  1  0.558530  0.592970  0.593370  1.0  -0.6024
  O  O441  1  0.555330  0.965170  0.592570  1.0  -0.6097
