# generated using pymatgen
data_Zn5H18(C2O)24
_symmetry_space_group_name_H-M   'P 1'
_cell_length_a   12.32150000
_cell_length_b   30.71100000
_cell_length_c   22.72240000
_cell_angle_alpha   90.00000000
_cell_angle_beta   94.22900000
_cell_angle_gamma   90.00000000
_symmetry_Int_Tables_number   1
_chemical_formula_structural   Zn5H18(C2O)24
_chemical_formula_sum   'Zn20 H72 C192 O96'
_cell_volume   8574.87238387
_cell_formula_units_Z   4
loop_
 _symmetry_equiv_pos_site_id
 _symmetry_equiv_pos_as_xyz
  1  'x, y, z'
loop_
 _atom_site_type_symbol
 _atom_site_label
 _atom_site_symmetry_multiplicity
 _atom_site_fract_x
 _atom_site_fract_y
 _atom_site_fract_z
 _atom_site_occupancy
 _atom_site_charge
  Zn  Zn1  1  0.740160  0.917170  0.661020  1.0  1.1407
  Zn  Zn2  1  0.805350  0.630820  0.487920  1.0  1.1085
  Zn  Zn3  1  0.240160  0.417170  0.661020  1.0  1.1407
  Zn  Zn4  1  0.305350  0.130820  0.487920  1.0  1.1085
  Zn  Zn5  1  0.259840  0.917170  0.838980  1.0  1.1398
  Zn  Zn6  1  0.194650  0.630820  0.012080  1.0  1.1074
  Zn  Zn7  1  0.759840  0.417170  0.838980  1.0  1.1398
  Zn  Zn8  1  0.694650  0.130820  0.012080  1.0  1.1074
  Zn  Zn9  1  0.259840  0.082830  0.338980  1.0  1.1402
  Zn  Zn10  1  0.194650  0.369180  0.512080  1.0  1.1082
  Zn  Zn11  1  0.759840  0.582830  0.338980  1.0  1.1402
  Zn  Zn12  1  0.694650  0.869180  0.512080  1.0  1.1082
  Zn  Zn13  1  0.740160  0.082830  0.161020  1.0  1.1412
  Zn  Zn14  1  0.805350  0.369180  0.987920  1.0  1.1089
  Zn  Zn15  1  0.240160  0.582830  0.161020  1.0  1.1412
  Zn  Zn16  1  0.305350  0.869180  0.987920  1.0  1.1089
  Zn  Zn17  1  0.000000  0.948400  0.750000  1.0  0.9783
  Zn  Zn18  1  0.500000  0.448400  0.750000  1.0  0.9783
  Zn  Zn19  1  0.000000  0.051600  0.250000  1.0  0.9703
  Zn  Zn20  1  0.500000  0.551600  0.250000  1.0  0.9703
  H  H21  1  0.647000  0.082900  0.495200  1.0  0.1208
  H  H22  1  0.866700  0.064200  0.376800  1.0  0.1116
  H  H23  1  0.559300  0.092500  0.322200  1.0  0.1188
  H  H24  1  0.753800  0.019800  0.536500  1.0  0.1152
  H  H25  1  0.061100  0.019100  0.606800  1.0  0.1155
  H  H26  1  0.980300  0.090600  0.462000  1.0  0.123
  H  H27  1  0.922100  0.813000  0.722700  1.0  0.1099
  H  H28  1  0.988500  0.687200  0.700800  1.0  0.1223
  H  H29  1  0.802800  0.750300  0.577200  1.0  0.1116
  H  H30  1  0.147000  0.582900  0.495200  1.0  0.1208
  H  H31  1  0.366700  0.564200  0.376800  1.0  0.1116
  H  H32  1  0.059300  0.592500  0.322200  1.0  0.1188
  H  H33  1  0.253800  0.519800  0.536500  1.0  0.1152
  H  H34  1  0.561100  0.519100  0.606800  1.0  0.1155
  H  H35  1  0.480300  0.590600  0.462000  1.0  0.123
  H  H36  1  0.422100  0.313000  0.722700  1.0  0.1099
  H  H37  1  0.488500  0.187200  0.700800  1.0  0.1224
  H  H38  1  0.302800  0.250300  0.577200  1.0  0.1116
  H  H39  1  0.353000  0.082900  0.004800  1.0  0.1209
  H  H40  1  0.133300  0.064200  0.123200  1.0  0.1104
  H  H41  1  0.440700  0.092500  0.177800  1.0  0.1192
  H  H42  1  0.246200  0.019800  0.963500  1.0  0.1155
  H  H43  1  0.938900  0.019100  0.893200  1.0  0.114
  H  H44  1  0.019700  0.090600  0.038000  1.0  0.1223
  H  H45  1  0.077900  0.813000  0.777300  1.0  0.1103
  H  H46  1  0.011500  0.687200  0.799200  1.0  0.1235
  H  H47  1  0.197200  0.750300  0.922800  1.0  0.1114
  H  H48  1  0.853000  0.582900  0.004800  1.0  0.1209
  H  H49  1  0.633300  0.564200  0.123200  1.0  0.1104
  H  H50  1  0.940700  0.592500  0.177800  1.0  0.1192
  H  H51  1  0.746200  0.519800  0.963500  1.0  0.1155
  H  H52  1  0.438900  0.519100  0.893200  1.0  0.114
  H  H53  1  0.519700  0.590600  0.038000  1.0  0.1223
  H  H54  1  0.577900  0.313000  0.777300  1.0  0.1103
  H  H55  1  0.511500  0.187200  0.799200  1.0  0.1237
  H  H56  1  0.697200  0.250300  0.922800  1.0  0.1114
  H  H57  1  0.353000  0.917100  0.504800  1.0  0.1209
  H  H58  1  0.133300  0.935800  0.623200  1.0  0.1106
  H  H59  1  0.440700  0.907500  0.677800  1.0  0.1191
  H  H60  1  0.246200  0.980200  0.463500  1.0  0.1157
  H  H61  1  0.938900  0.980900  0.393200  1.0  0.1147
  H  H62  1  0.019700  0.909400  0.538000  1.0  0.1223
  H  H63  1  0.077900  0.187000  0.277300  1.0  0.1104
  H  H64  1  0.011500  0.312800  0.299200  1.0  0.1226
  H  H65  1  0.197200  0.249700  0.422800  1.0  0.1114
  H  H66  1  0.853000  0.417100  0.504800  1.0  0.1209
  H  H67  1  0.633300  0.435800  0.623200  1.0  0.1106
  H  H68  1  0.940700  0.407500  0.677800  1.0  0.1191
  H  H69  1  0.746200  0.480200  0.463500  1.0  0.1157
  H  H70  1  0.438900  0.480900  0.393200  1.0  0.1147
  H  H71  1  0.519700  0.409400  0.538000  1.0  0.1223
  H  H72  1  0.577900  0.687000  0.277300  1.0  0.1104
  H  H73  1  0.511500  0.812800  0.299200  1.0  0.1226
  H  H74  1  0.697200  0.749700  0.422800  1.0  0.1114
  H  H75  1  0.647000  0.917100  0.995200  1.0  0.1211
  H  H76  1  0.866700  0.935800  0.876800  1.0  0.1115
  H  H77  1  0.559300  0.907500  0.822200  1.0  0.1185
  H  H78  1  0.753800  0.980200  0.036500  1.0  0.1149
  H  H79  1  0.061100  0.980900  0.106800  1.0  0.1161
  H  H80  1  0.980300  0.909400  0.962000  1.0  0.1227
  H  H81  1  0.922100  0.187000  0.222700  1.0  0.1106
  H  H82  1  0.988500  0.312800  0.200800  1.0  0.123
  H  H83  1  0.802800  0.249700  0.077200  1.0  0.1116
  H  H84  1  0.147000  0.417100  0.995200  1.0  0.1211
  H  H85  1  0.366700  0.435800  0.876800  1.0  0.1115
  H  H86  1  0.059300  0.407500  0.822200  1.0  0.1185
  H  H87  1  0.253800  0.480200  0.036500  1.0  0.1149
  H  H88  1  0.561100  0.480900  0.106800  1.0  0.1161
  H  H89  1  0.480300  0.409400  0.962000  1.0  0.1227
  H  H90  1  0.422100  0.687000  0.222700  1.0  0.1106
  H  H91  1  0.488500  0.812800  0.200800  1.0  0.1229
  H  H92  1  0.302800  0.749700  0.077200  1.0  0.1116
  C  C93  1  0.470700  0.098270  0.423880  1.0  0.7413
  C  C94  1  0.584800  0.089110  0.411310  1.0  -0.1514
  C  C95  1  0.664600  0.081170  0.456140  1.0  -0.0216
  C  C96  1  0.771300  0.070580  0.443950  1.0  0.0568
  C  C97  1  0.795700  0.070150  0.385700  1.0  -0.0604
  C  C98  1  0.717600  0.078290  0.340220  1.0  -0.1416
  C  C99  1  0.612200  0.087420  0.352790  1.0  0.0169
  C  C100  1  0.748400  0.077700  0.277200  1.0  0.6942
  C  C101  1  0.853600  0.057670  0.492020  1.0  0.0359
  C  C102  1  0.825400  0.029170  0.535700  1.0  -0.0401
  C  C103  1  0.903500  0.014540  0.578280  1.0  -0.1537
  C  C104  1  0.873900  0.980050  0.622430  1.0  0.7099
  C  C105  1  0.009300  0.028760  0.577870  1.0  0.0348
  C  C106  1  0.039900  0.057550  0.534620  1.0  -0.165
  C  C107  1  0.960900  0.071680  0.491390  1.0  -0.0445
  C  C108  1  0.155000  0.073030  0.533100  1.0  0.7626
  C  C109  1  0.802700  0.829920  0.623210  1.0  0.746
  C  C110  1  0.853900  0.788350  0.645360  1.0  -0.1608
  C  C111  1  0.915700  0.787740  0.700200  1.0  -0.0576
  C  C112  1  0.966800  0.750170  0.720870  1.0  -0.0151
  C  C113  1  0.955000  0.712750  0.687220  1.0  -0.027
  C  C114  1  0.893500  0.712780  0.633160  1.0  -0.1671
  C  C115  1  0.844000  0.750380  0.613160  1.0  0.0465
  C  C116  1  0.883200  0.671320  0.596780  1.0  0.7082
  C  C117  1  0.970700  0.598270  0.423880  1.0  0.7413
  C  C118  1  0.084800  0.589110  0.411310  1.0  -0.1514
  C  C119  1  0.164600  0.581170  0.456140  1.0  -0.0216
  C  C120  1  0.271300  0.570580  0.443950  1.0  0.0568
  C  C121  1  0.295700  0.570150  0.385700  1.0  -0.0604
  C  C122  1  0.217600  0.578290  0.340220  1.0  -0.1416
  C  C123  1  0.112200  0.587420  0.352790  1.0  0.0169
  C  C124  1  0.248400  0.577700  0.277200  1.0  0.6942
  C  C125  1  0.353600  0.557670  0.492020  1.0  0.0359
  C  C126  1  0.325400  0.529170  0.535700  1.0  -0.0401
  C  C127  1  0.403500  0.514540  0.578280  1.0  -0.1537
  C  C128  1  0.373900  0.480050  0.622430  1.0  0.7099
  C  C129  1  0.509300  0.528760  0.577870  1.0  0.0348
  C  C130  1  0.539900  0.557550  0.534620  1.0  -0.165
  C  C131  1  0.460900  0.571680  0.491390  1.0  -0.0445
  C  C132  1  0.655000  0.573030  0.533100  1.0  0.7626
  C  C133  1  0.302700  0.329920  0.623210  1.0  0.746
  C  C134  1  0.353900  0.288350  0.645360  1.0  -0.1608
  C  C135  1  0.415700  0.287740  0.700200  1.0  -0.0576
  C  C136  1  0.466800  0.250170  0.720870  1.0  -0.0151
  C  C137  1  0.455000  0.212750  0.687220  1.0  -0.027
  C  C138  1  0.393500  0.212780  0.633160  1.0  -0.1671
  C  C139  1  0.344000  0.250380  0.613160  1.0  0.0465
  C  C140  1  0.383200  0.171320  0.596780  1.0  0.7082
  C  C141  1  0.529300  0.098270  0.076120  1.0  0.7408
  C  C142  1  0.415200  0.089110  0.088690  1.0  -0.1522
  C  C143  1  0.335400  0.081170  0.043860  1.0  -0.0229
  C  C144  1  0.228700  0.070580  0.056050  1.0  0.0577
  C  C145  1  0.204300  0.070150  0.114300  1.0  -0.0627
  C  C146  1  0.282400  0.078290  0.159780  1.0  -0.1423
  C  C147  1  0.387800  0.087420  0.147210  1.0  0.0156
  C  C148  1  0.251600  0.077700  0.222800  1.0  0.695
  C  C149  1  0.146400  0.057670  0.007980  1.0  0.0373
  C  C150  1  0.174600  0.029170  0.964300  1.0  -0.0387
  C  C151  1  0.096500  0.014540  0.921720  1.0  -0.1563
  C  C152  1  0.126100  0.980050  0.877570  1.0  0.7078
  C  C153  1  0.990700  0.028760  0.922130  1.0  0.0334
  C  C154  1  0.960100  0.057550  0.965380  1.0  -0.165
  C  C155  1  0.039100  0.071680  0.008610  1.0  -0.0452
  C  C156  1  0.845000  0.073030  0.966900  1.0  0.7636
  C  C157  1  0.197300  0.829920  0.876790  1.0  0.746
  C  C158  1  0.146100  0.788350  0.854640  1.0  -0.1603
  C  C159  1  0.084300  0.787740  0.799800  1.0  -0.0582
  C  C160  1  0.033200  0.750170  0.779130  1.0  -0.0145
  C  C161  1  0.045000  0.712750  0.812780  1.0  -0.0285
  C  C162  1  0.106500  0.712780  0.866840  1.0  -0.1674
  C  C163  1  0.156000  0.750380  0.886840  1.0  0.0451
  C  C164  1  0.116800  0.671320  0.903220  1.0  0.7086
  C  C165  1  0.029300  0.598270  0.076120  1.0  0.7408
  C  C166  1  0.915200  0.589110  0.088690  1.0  -0.1522
  C  C167  1  0.835400  0.581170  0.043860  1.0  -0.0229
  C  C168  1  0.728700  0.570580  0.056050  1.0  0.0577
  C  C169  1  0.704300  0.570150  0.114300  1.0  -0.0627
  C  C170  1  0.782400  0.578290  0.159780  1.0  -0.1423
  C  C171  1  0.887800  0.587420  0.147210  1.0  0.0156
  C  C172  1  0.751600  0.577700  0.222800  1.0  0.695
  C  C173  1  0.646400  0.557670  0.007980  1.0  0.0373
  C  C174  1  0.674600  0.529170  0.964300  1.0  -0.0387
  C  C175  1  0.596500  0.514540  0.921720  1.0  -0.1563
  C  C176  1  0.626100  0.480050  0.877570  1.0  0.7078
  C  C177  1  0.490700  0.528760  0.922130  1.0  0.0334
  C  C178  1  0.460100  0.557550  0.965380  1.0  -0.165
  C  C179  1  0.539100  0.571680  0.008610  1.0  -0.0452
  C  C180  1  0.345000  0.573030  0.966900  1.0  0.7636
  C  C181  1  0.697300  0.329920  0.876790  1.0  0.746
  C  C182  1  0.646100  0.288350  0.854640  1.0  -0.1603
  C  C183  1  0.584300  0.287740  0.799800  1.0  -0.0582
  C  C184  1  0.533200  0.250170  0.779130  1.0  -0.0145
  C  C185  1  0.545000  0.212750  0.812780  1.0  -0.0285
  C  C186  1  0.606500  0.212780  0.866840  1.0  -0.1674
  C  C187  1  0.656000  0.250380  0.886840  1.0  0.0451
  C  C188  1  0.616800  0.171320  0.903220  1.0  0.7086
  C  C189  1  0.529300  0.901730  0.576120  1.0  0.7411
  C  C190  1  0.415200  0.910890  0.588690  1.0  -0.1527
  C  C191  1  0.335400  0.918830  0.543860  1.0  -0.0229
  C  C192  1  0.228700  0.929420  0.556050  1.0  0.0575
  C  C193  1  0.204300  0.929850  0.614300  1.0  -0.0623
  C  C194  1  0.282400  0.921710  0.659780  1.0  -0.1422
  C  C195  1  0.387800  0.912580  0.647210  1.0  0.0161
  C  C196  1  0.251600  0.922300  0.722800  1.0  0.6949
  C  C197  1  0.146400  0.942330  0.507980  1.0  0.0375
  C  C198  1  0.174600  0.970830  0.464300  1.0  -0.039
  C  C199  1  0.096500  0.985460  0.421720  1.0  -0.1546
  C  C200  1  0.126100  0.019950  0.377570  1.0  0.7076
  C  C201  1  0.990700  0.971240  0.422130  1.0  0.0342
  C  C202  1  0.960100  0.942450  0.465380  1.0  -0.166
  C  C203  1  0.039100  0.928320  0.508610  1.0  -0.0443
  C  C204  1  0.845000  0.926970  0.466900  1.0  0.7637
  C  C205  1  0.197300  0.170080  0.376790  1.0  0.7461
  C  C206  1  0.146100  0.211650  0.354640  1.0  -0.16
  C  C207  1  0.084300  0.212260  0.299800  1.0  -0.0573
  C  C208  1  0.033200  0.249830  0.279130  1.0  -0.0141
  C  C209  1  0.045000  0.287250  0.312780  1.0  -0.0301
  C  C210  1  0.106500  0.287220  0.366840  1.0  -0.1677
  C  C211  1  0.156000  0.249620  0.386840  1.0  0.045
  C  C212  1  0.116800  0.328680  0.403220  1.0  0.7058
  C  C213  1  0.029300  0.401730  0.576120  1.0  0.7411
  C  C214  1  0.915200  0.410890  0.588690  1.0  -0.1527
  C  C215  1  0.835400  0.418830  0.543860  1.0  -0.0229
  C  C216  1  0.728700  0.429420  0.556050  1.0  0.0575
  C  C217  1  0.704300  0.429850  0.614300  1.0  -0.0623
  C  C218  1  0.782400  0.421710  0.659780  1.0  -0.1422
  C  C219  1  0.887800  0.412580  0.647210  1.0  0.0161
  C  C220  1  0.751600  0.422300  0.722800  1.0  0.6949
  C  C221  1  0.646400  0.442330  0.507980  1.0  0.0375
  C  C222  1  0.674600  0.470830  0.464300  1.0  -0.039
  C  C223  1  0.596500  0.485460  0.421720  1.0  -0.1546
  C  C224  1  0.626100  0.519950  0.377570  1.0  0.7076
  C  C225  1  0.490700  0.471240  0.422130  1.0  0.0342
  C  C226  1  0.460100  0.442450  0.465380  1.0  -0.166
  C  C227  1  0.539100  0.428320  0.508610  1.0  -0.0443
  C  C228  1  0.345000  0.426970  0.466900  1.0  0.7637
  C  C229  1  0.697300  0.670080  0.376790  1.0  0.7461
  C  C230  1  0.646100  0.711650  0.354640  1.0  -0.16
  C  C231  1  0.584300  0.712260  0.299800  1.0  -0.0573
  C  C232  1  0.533200  0.749830  0.279130  1.0  -0.0141
  C  C233  1  0.545000  0.787250  0.312780  1.0  -0.0301
  C  C234  1  0.606500  0.787220  0.366840  1.0  -0.1677
  C  C235  1  0.656000  0.749620  0.386840  1.0  0.045
  C  C236  1  0.616800  0.828680  0.403220  1.0  0.7058
  C  C237  1  0.470700  0.901730  0.923880  1.0  0.7415
  C  C238  1  0.584800  0.910890  0.911310  1.0  -0.152
  C  C239  1  0.664600  0.918830  0.956140  1.0  -0.0217
  C  C240  1  0.771300  0.929420  0.943950  1.0  0.0565
  C  C241  1  0.795700  0.929850  0.885700  1.0  -0.0604
  C  C242  1  0.717600  0.921710  0.840220  1.0  -0.1415
  C  C243  1  0.612200  0.912580  0.852790  1.0  0.0172
  C  C244  1  0.748400  0.922300  0.777200  1.0  0.6942
  C  C245  1  0.853600  0.942330  0.992020  1.0  0.0354
  C  C246  1  0.825400  0.970830  0.035700  1.0  -0.04
  C  C247  1  0.903500  0.985460  0.078280  1.0  -0.1536
  C  C248  1  0.873900  0.019950  0.122430  1.0  0.7098
  C  C249  1  0.009300  0.971240  0.077870  1.0  0.0347
  C  C250  1  0.039900  0.942450  0.034620  1.0  -0.1649
  C  C251  1  0.960900  0.928320  0.991390  1.0  -0.0444
  C  C252  1  0.155000  0.926970  0.033100  1.0  0.7633
  C  C253  1  0.802700  0.170080  0.123210  1.0  0.746
  C  C254  1  0.853900  0.211650  0.145360  1.0  -0.1611
  C  C255  1  0.915700  0.212260  0.200200  1.0  -0.0589
  C  C256  1  0.966800  0.249830  0.220870  1.0  -0.0149
  C  C257  1  0.955000  0.287250  0.187220  1.0  -0.0299
  C  C258  1  0.893500  0.287220  0.133160  1.0  -0.1674
  C  C259  1  0.844000  0.249620  0.113160  1.0  0.0468
  C  C260  1  0.883200  0.328680  0.096780  1.0  0.7068
  C  C261  1  0.970700  0.401730  0.923880  1.0  0.7415
  C  C262  1  0.084800  0.410890  0.911310  1.0  -0.152
  C  C263  1  0.164600  0.418830  0.956140  1.0  -0.0217
  C  C264  1  0.271300  0.429420  0.943950  1.0  0.0565
  C  C265  1  0.295700  0.429850  0.885700  1.0  -0.0604
  C  C266  1  0.217600  0.421710  0.840220  1.0  -0.1415
  C  C267  1  0.112200  0.412580  0.852790  1.0  0.0172
  C  C268  1  0.248400  0.422300  0.777200  1.0  0.6942
  C  C269  1  0.353600  0.442330  0.992020  1.0  0.0354
  C  C270  1  0.325400  0.470830  0.035700  1.0  -0.04
  C  C271  1  0.403500  0.485460  0.078280  1.0  -0.1536
  C  C272  1  0.373900  0.519950  0.122430  1.0  0.7098
  C  C273  1  0.509300  0.471240  0.077870  1.0  0.0347
  C  C274  1  0.539900  0.442450  0.034620  1.0  -0.1649
  C  C275  1  0.460900  0.428320  0.991390  1.0  -0.0444
  C  C276  1  0.655000  0.426970  0.033100  1.0  0.7633
  C  C277  1  0.302700  0.670080  0.123210  1.0  0.746
  C  C278  1  0.353900  0.711650  0.145360  1.0  -0.1611
  C  C279  1  0.415700  0.712260  0.200200  1.0  -0.0589
  C  C280  1  0.466800  0.749830  0.220870  1.0  -0.0149
  C  C281  1  0.455000  0.787250  0.187220  1.0  -0.0299
  C  C282  1  0.393500  0.787220  0.133160  1.0  -0.1674
  C  C283  1  0.344000  0.749620  0.113160  1.0  0.0468
  C  C284  1  0.383200  0.828680  0.096780  1.0  0.7068
  O  O285  1  0.447700  0.106500  0.475610  1.0  -0.5906
  O  O286  1  0.401400  0.097690  0.381370  1.0  -0.6455
  O  O287  1  0.674800  0.080830  0.237540  1.0  -0.5704
  O  O288  1  0.841700  0.076900  0.266430  1.0  -0.7017
  O  O289  1  0.174200  0.098240  0.491720  1.0  -0.5882
  O  O290  1  0.223400  0.061070  0.571880  1.0  -0.5175
  O  O291  1  0.944900  0.962930  0.655410  1.0  -0.6571
  O  O292  1  0.774300  0.970000  0.621530  1.0  -0.6088
  O  O293  1  0.820800  0.863440  0.653150  1.0  -0.594
  O  O294  1  0.743000  0.827540  0.576060  1.0  -0.6189
  O  O295  1  0.828000  0.674820  0.548960  1.0  -0.5806
  O  O296  1  0.930000  0.638380  0.614420  1.0  -0.4481
  O  O297  1  0.947700  0.606500  0.475610  1.0  -0.5906
  O  O298  1  0.901400  0.597690  0.381370  1.0  -0.6455
  O  O299  1  0.174800  0.580830  0.237540  1.0  -0.5704
  O  O300  1  0.341700  0.576900  0.266430  1.0  -0.7017
  O  O301  1  0.674200  0.598240  0.491720  1.0  -0.5884
  O  O302  1  0.723400  0.561070  0.571880  1.0  -0.5175
  O  O303  1  0.444900  0.462930  0.655410  1.0  -0.6571
  O  O304  1  0.274300  0.470000  0.621530  1.0  -0.6088
  O  O305  1  0.320800  0.363440  0.653150  1.0  -0.594
  O  O306  1  0.243000  0.327540  0.576060  1.0  -0.6189
  O  O307  1  0.328000  0.174820  0.548960  1.0  -0.5816
  O  O308  1  0.430000  0.138380  0.614420  1.0  -0.4481
  O  O309  1  0.552300  0.106500  0.024390  1.0  -0.5917
  O  O310  1  0.598600  0.097690  0.118630  1.0  -0.6487
  O  O311  1  0.325200  0.080830  0.262460  1.0  -0.5709
  O  O312  1  0.158300  0.076900  0.233570  1.0  -0.7015
  O  O313  1  0.825800  0.098240  0.008280  1.0  -0.5878
  O  O314  1  0.776600  0.061070  0.928120  1.0  -0.5172
  O  O315  1  0.055100  0.962930  0.844590  1.0  -0.6575
  O  O316  1  0.225700  0.970000  0.878470  1.0  -0.6093
  O  O317  1  0.179200  0.863440  0.846850  1.0  -0.5948
  O  O318  1  0.257000  0.827540  0.923940  1.0  -0.6172
  O  O319  1  0.172000  0.674820  0.951040  1.0  -0.5813
  O  O320  1  0.070000  0.638380  0.885580  1.0  -0.4497
  O  O321  1  0.052300  0.606500  0.024390  1.0  -0.5917
  O  O322  1  0.098600  0.597690  0.118630  1.0  -0.6487
  O  O323  1  0.825200  0.580830  0.262460  1.0  -0.5709
  O  O324  1  0.658300  0.576900  0.233570  1.0  -0.7015
  O  O325  1  0.325800  0.598240  0.008280  1.0  -0.5879
  O  O326  1  0.276600  0.561070  0.928120  1.0  -0.5172
  O  O327  1  0.555100  0.462930  0.844590  1.0  -0.6575
  O  O328  1  0.725700  0.470000  0.878470  1.0  -0.6093
  O  O329  1  0.679200  0.363440  0.846850  1.0  -0.5948
  O  O330  1  0.757000  0.327540  0.923940  1.0  -0.6172
  O  O331  1  0.672000  0.174820  0.951040  1.0  -0.5824
  O  O332  1  0.570000  0.138380  0.885580  1.0  -0.4497
  O  O333  1  0.552300  0.893500  0.524390  1.0  -0.592
  O  O334  1  0.598600  0.902310  0.618630  1.0  -0.6488
  O  O335  1  0.325200  0.919170  0.762460  1.0  -0.5708
  O  O336  1  0.158300  0.923100  0.733570  1.0  -0.7017
  O  O337  1  0.825800  0.901760  0.508280  1.0  -0.5883
  O  O338  1  0.776600  0.938930  0.428120  1.0  -0.5165
  O  O339  1  0.055100  0.037070  0.344590  1.0  -0.6572
  O  O340  1  0.225700  0.030000  0.378470  1.0  -0.6093
  O  O341  1  0.179200  0.136560  0.346850  1.0  -0.5945
  O  O342  1  0.257000  0.172460  0.423940  1.0  -0.617
  O  O343  1  0.172000  0.325180  0.451040  1.0  -0.5825
  O  O344  1  0.070000  0.361620  0.385580  1.0  -0.4494
  O  O345  1  0.052300  0.393500  0.524390  1.0  -0.592
  O  O346  1  0.098600  0.402310  0.618630  1.0  -0.6488
  O  O347  1  0.825200  0.419170  0.762460  1.0  -0.5708
  O  O348  1  0.658300  0.423100  0.733570  1.0  -0.7017
  O  O349  1  0.325800  0.401760  0.508280  1.0  -0.5883
  O  O350  1  0.276600  0.438930  0.428120  1.0  -0.5165
  O  O351  1  0.555100  0.537070  0.344590  1.0  -0.6572
  O  O352  1  0.725700  0.530000  0.378470  1.0  -0.6093
  O  O353  1  0.679200  0.636560  0.346850  1.0  -0.5945
  O  O354  1  0.757000  0.672460  0.423940  1.0  -0.617
  O  O355  1  0.672000  0.825180  0.451040  1.0  -0.5827
  O  O356  1  0.570000  0.861620  0.385580  1.0  -0.4494
  O  O357  1  0.447700  0.893500  0.975610  1.0  -0.5907
  O  O358  1  0.401400  0.902310  0.881370  1.0  -0.6456
  O  O359  1  0.674800  0.919170  0.737540  1.0  -0.5701
  O  O360  1  0.841700  0.923100  0.766430  1.0  -0.702
  O  O361  1  0.174200  0.901760  0.991720  1.0  -0.5885
  O  O362  1  0.223400  0.938930  0.071880  1.0  -0.5177
  O  O363  1  0.944900  0.037070  0.155410  1.0  -0.6557
  O  O364  1  0.774300  0.030000  0.121530  1.0  -0.6078
  O  O365  1  0.820800  0.136560  0.153150  1.0  -0.5939
  O  O366  1  0.743000  0.172460  0.076060  1.0  -0.6184
  O  O367  1  0.828000  0.325180  0.048960  1.0  -0.5818
  O  O368  1  0.930000  0.361620  0.114420  1.0  -0.4485
  O  O369  1  0.947700  0.393500  0.975610  1.0  -0.5907
  O  O370  1  0.901400  0.402310  0.881370  1.0  -0.6456
  O  O371  1  0.174800  0.419170  0.737540  1.0  -0.5701
  O  O372  1  0.341700  0.423100  0.766430  1.0  -0.702
  O  O373  1  0.674200  0.401760  0.991720  1.0  -0.5885
  O  O374  1  0.723400  0.438930  0.071880  1.0  -0.5177
  O  O375  1  0.444900  0.537070  0.155410  1.0  -0.6557
  O  O376  1  0.274300  0.530000  0.121530  1.0  -0.6078
  O  O377  1  0.320800  0.636560  0.153150  1.0  -0.5939
  O  O378  1  0.243000  0.672460  0.076060  1.0  -0.6184
  O  O379  1  0.328000  0.825180  0.048960  1.0  -0.5819
  O  O380  1  0.430000  0.861620  0.114420  1.0  -0.4485
