# generated using pymatgen
data_KBi2(C6O7)2
_symmetry_space_group_name_H-M   'P 1'
_cell_length_a   10.92300000
_cell_length_b   15.42400000
_cell_length_c   15.03700000
_cell_angle_alpha   90.00000000
_cell_angle_beta   105.67000000
_cell_angle_gamma   90.00000000
_symmetry_Int_Tables_number   1
_chemical_formula_structural   KBi2(C6O7)2
_chemical_formula_sum   'K4 Bi8 C48 O56'
_cell_volume   2439.22157259
_cell_formula_units_Z   4
loop_
 _symmetry_equiv_pos_site_id
 _symmetry_equiv_pos_as_xyz
  1  'x, y, z'
loop_
 _atom_site_type_symbol
 _atom_site_label
 _atom_site_symmetry_multiplicity
 _atom_site_fract_x
 _atom_site_fract_y
 _atom_site_fract_z
 _atom_site_occupancy
 _atom_site_charge
  K  K1  1  0.781000  0.190700  0.725400  1.0  0.9677
  K  K2  1  0.719000  0.690700  0.774600  1.0  0.9675
  K  K3  1  0.219000  0.809300  0.274600  1.0  0.9679
  K  K4  1  0.281000  0.309300  0.225400  1.0  0.9681
  Bi  Bi5  1  0.529170  0.349600  0.032540  1.0  1.3668
  Bi  Bi6  1  0.042590  0.535250  0.155420  1.0  1.2974
  Bi  Bi7  1  0.970830  0.849600  0.467460  1.0  1.3638
  Bi  Bi8  1  0.457410  0.035250  0.344580  1.0  1.2994
  Bi  Bi9  1  0.470830  0.650400  0.967460  1.0  1.364
  Bi  Bi10  1  0.957410  0.464750  0.844580  1.0  1.2998
  Bi  Bi11  1  0.029170  0.150400  0.532540  1.0  1.367
  Bi  Bi12  1  0.542590  0.964750  0.655420  1.0  1.2971
  C  C13  1  0.958000  0.372000  0.080000  1.0  0.7242
  C  C14  1  0.916000  0.282000  0.042000  1.0  -0.0599
  C  C15  1  0.771000  0.276000  0.008000  1.0  0.1643
  C  C16  1  0.741000  0.178000  0.985000  1.0  -0.0316
  C  C17  1  0.604000  0.156000  0.950000  1.0  0.7469
  C  C18  1  0.722000  0.330000  0.923000  1.0  0.7013
  C  C19  1  0.636000  0.481000  0.162000  1.0  0.7237
  C  C20  1  0.693000  0.549000  0.235000  1.0  -0.0572
  C  C21  1  0.822000  0.581000  0.227000  1.0  0.1352
  C  C22  1  0.879000  0.636000  0.312000  1.0  -0.0626
  C  C23  1  0.000000  0.684000  0.312000  1.0  0.7304
  C  C24  1  0.803000  0.636000  0.138000  1.0  0.7292
  C  C25  1  0.542000  0.872000  0.420000  1.0  0.7239
  C  C26  1  0.584000  0.782000  0.458000  1.0  -0.0606
  C  C27  1  0.729000  0.776000  0.492000  1.0  0.1648
  C  C28  1  0.759000  0.678000  0.515000  1.0  -0.0325
  C  C29  1  0.896000  0.656000  0.550000  1.0  0.7487
  C  C30  1  0.778000  0.830000  0.577000  1.0  0.6983
  C  C31  1  0.864000  0.981000  0.338000  1.0  0.7258
  C  C32  1  0.807000  0.049000  0.265000  1.0  -0.0515
  C  C33  1  0.678000  0.081000  0.273000  1.0  0.1364
  C  C34  1  0.621000  0.136000  0.188000  1.0  -0.0529
  C  C35  1  0.500000  0.184000  0.188000  1.0  0.7292
  C  C36  1  0.697000  0.136000  0.362000  1.0  0.728
  C  C37  1  0.042000  0.628000  0.920000  1.0  0.7237
  C  C38  1  0.084000  0.718000  0.958000  1.0  -0.0587
  C  C39  1  0.229000  0.724000  0.992000  1.0  0.1638
  C  C40  1  0.259000  0.822000  0.015000  1.0  -0.0291
  C  C41  1  0.396000  0.844000  0.050000  1.0  0.7478
  C  C42  1  0.278000  0.670000  0.077000  1.0  0.6987
  C  C43  1  0.364000  0.519000  0.838000  1.0  0.7261
  C  C44  1  0.307000  0.451000  0.765000  1.0  -0.0525
  C  C45  1  0.178000  0.419000  0.773000  1.0  0.1365
  C  C46  1  0.121000  0.364000  0.688000  1.0  -0.0537
  C  C47  1  0.000000  0.316000  0.688000  1.0  0.7296
  C  C48  1  0.197000  0.364000  0.862000  1.0  0.7302
  C  C49  1  0.458000  0.128000  0.580000  1.0  0.7239
  C  C50  1  0.416000  0.218000  0.542000  1.0  -0.0585
  C  C51  1  0.271000  0.224000  0.508000  1.0  0.1631
  C  C52  1  0.241000  0.322000  0.485000  1.0  -0.0308
  C  C53  1  0.104000  0.344000  0.450000  1.0  0.7469
  C  C54  1  0.222000  0.170000  0.423000  1.0  0.7019
  C  C55  1  0.136000  0.019000  0.662000  1.0  0.7238
  C  C56  1  0.193000  0.951000  0.735000  1.0  -0.0575
  C  C57  1  0.322000  0.919000  0.727000  1.0  0.135
  C  C58  1  0.379000  0.864000  0.812000  1.0  -0.0627
  C  C59  1  0.500000  0.816000  0.812000  1.0  0.7309
  C  C60  1  0.303000  0.864000  0.638000  1.0  0.7294
  O  O61  1  0.026000  0.376000  0.159000  1.0  -0.5385
  O  O62  1  0.921000  0.438000  0.029000  1.0  -0.6337
  O  O63  1  0.520000  0.213000  0.947000  1.0  -0.5661
  O  O64  1  0.573000  0.080000  0.921000  1.0  -0.4653
  O  O65  1  0.627000  0.384000  0.917000  1.0  -0.5708
  O  O66  1  0.764000  0.321000  0.852000  1.0  -0.6191
  O  O67  1  0.718000  0.303000  0.079000  1.0  -0.5587
  O  O68  1  0.618000  0.498000  0.079000  1.0  -0.5344
  O  O69  1  0.604000  0.407000  0.188000  1.0  -0.6034
  O  O70  1  0.036000  0.746000  0.366000  1.0  -0.7073
  O  O71  1  0.067000  0.658000  0.261000  1.0  -0.679
  O  O72  1  0.873000  0.620000  0.084000  1.0  -0.5679
  O  O73  1  0.722000  0.695000  0.123000  1.0  -0.4691
  O  O74  1  0.900000  0.507300  0.222400  1.0  -0.5724
  O  O75  1  0.474000  0.876000  0.341000  1.0  -0.5395
  O  O76  1  0.579000  0.938000  0.471000  1.0  -0.6352
  O  O77  1  0.980000  0.713000  0.553000  1.0  -0.5642
  O  O78  1  0.927000  0.580000  0.579000  1.0  -0.4665
  O  O79  1  0.873000  0.884000  0.583000  1.0  -0.5698
  O  O80  1  0.736000  0.821000  0.648000  1.0  -0.6181
  O  O81  1  0.782000  0.803000  0.421000  1.0  -0.5549
  O  O82  1  0.882000  0.998000  0.421000  1.0  -0.5344
  O  O83  1  0.896000  0.907000  0.312000  1.0  -0.6023
  O  O84  1  0.464000  0.246000  0.134000  1.0  -0.7084
  O  O85  1  0.433000  0.158000  0.239000  1.0  -0.6765
  O  O86  1  0.627000  0.120000  0.416000  1.0  -0.5702
  O  O87  1  0.778000  0.195000  0.377000  1.0  -0.4682
  O  O88  1  0.600000  0.007300  0.277600  1.0  -0.5714
  O  O89  1  0.974000  0.624000  0.841000  1.0  -0.5387
  O  O90  1  0.079000  0.562000  0.971000  1.0  -0.6339
  O  O91  1  0.480000  0.787000  0.053000  1.0  -0.5654
  O  O92  1  0.427000  0.920000  0.079000  1.0  -0.4701
  O  O93  1  0.373000  0.616000  0.083000  1.0  -0.5687
  O  O94  1  0.236000  0.679000  0.148000  1.0  -0.6179
  O  O95  1  0.282000  0.697000  0.921000  1.0  -0.5548
  O  O96  1  0.382000  0.502000  0.921000  1.0  -0.5345
  O  O97  1  0.396000  0.593000  0.812000  1.0  -0.6039
  O  O98  1  0.964000  0.254000  0.634000  1.0  -0.7084
  O  O99  1  0.933000  0.342000  0.739000  1.0  -0.6768
  O  O100  1  0.127000  0.380000  0.916000  1.0  -0.5699
  O  O101  1  0.278000  0.305000  0.877000  1.0  -0.468
  O  O102  1  0.100000  0.492700  0.777600  1.0  -0.5719
  O  O103  1  0.526000  0.124000  0.659000  1.0  -0.5395
  O  O104  1  0.421000  0.062000  0.529000  1.0  -0.6331
  O  O105  1  0.020000  0.287000  0.447000  1.0  -0.5666
  O  O106  1  0.073000  0.420000  0.421000  1.0  -0.4682
  O  O107  1  0.127000  0.116000  0.417000  1.0  -0.5707
  O  O108  1  0.264000  0.179000  0.352000  1.0  -0.6188
  O  O109  1  0.218000  0.197000  0.579000  1.0  -0.5585
  O  O110  1  0.118000  0.002000  0.579000  1.0  -0.5353
  O  O111  1  0.104000  0.093000  0.688000  1.0  -0.6015
  O  O112  1  0.536000  0.754000  0.866000  1.0  -0.7068
  O  O113  1  0.567000  0.842000  0.761000  1.0  -0.6792
  O  O114  1  0.373000  0.880000  0.584000  1.0  -0.5677
  O  O115  1  0.222000  0.805000  0.623000  1.0  -0.4704
  O  O116  1  0.400000  0.992700  0.722400  1.0  -0.572
