# generated using pymatgen
data_Ag2H12C17N3O4
_symmetry_space_group_name_H-M   'P 1'
_cell_length_a   12.39370000
_cell_length_b   17.29920000
_cell_length_c   19.33000000
_cell_angle_alpha   90.00000000
_cell_angle_beta   90.00000000
_cell_angle_gamma   95.75000000
_symmetry_Int_Tables_number   1
_chemical_formula_structural   Ag2H12C17N3O4
_chemical_formula_sum   'Ag16 H96 C136 N24 O32'
_cell_volume   4123.52082917
_cell_formula_units_Z   8
loop_
 _symmetry_equiv_pos_site_id
 _symmetry_equiv_pos_as_xyz
  1  'x, y, z'
loop_
 _atom_site_type_symbol
 _atom_site_label
 _atom_site_symmetry_multiplicity
 _atom_site_fract_x
 _atom_site_fract_y
 _atom_site_fract_z
 _atom_site_occupancy
 _atom_site_charge
  Ag  Ag1  1  0.216840  0.016690  0.301610  1.0  0.4418
  Ag  Ag2  1  0.252340  0.004090  0.454170  1.0  0.4141
  Ag  Ag3  1  0.749830  0.506690  0.498180  1.0  0.3839
  Ag  Ag4  1  0.283160  0.483310  0.801610  1.0  0.4414
  Ag  Ag5  1  0.247660  0.495910  0.954170  1.0  0.4145
  Ag  Ag6  1  0.750170  0.993310  0.998180  1.0  0.3842
  Ag  Ag7  1  0.783160  0.983310  0.698390  1.0  0.4436
  Ag  Ag8  1  0.747660  0.995910  0.545830  1.0  0.4142
  Ag  Ag9  1  0.250170  0.493310  0.501820  1.0  0.3841
  Ag  Ag10  1  0.716840  0.516690  0.198390  1.0  0.4439
  Ag  Ag11  1  0.752340  0.504090  0.045830  1.0  0.4136
  Ag  Ag12  1  0.249830  0.006690  0.001820  1.0  0.3839
  Ag  Ag13  1  0.500000  0.500000  0.500000  1.0  0.4043
  Ag  Ag14  1  0.000000  0.000000  0.000000  1.0  0.4043
  Ag  Ag15  1  0.000000  0.500000  0.500000  1.0  0.3726
  Ag  Ag16  1  0.500000  0.000000  0.000000  1.0  0.3726
  H  H17  1  0.449400  0.983000  0.278000  1.0  0.093
  H  H18  1  0.550600  0.882600  0.254400  1.0  0.1274
  H  H19  1  0.293400  0.731000  0.302100  1.0  0.1376
  H  H20  1  0.196200  0.835600  0.324500  1.0  0.0897
  H  H21  1  0.631900  0.103000  0.477900  1.0  0.0987
  H  H22  1  0.608600  0.197200  0.569300  1.0  0.0718
  H  H23  1  0.760300  0.218600  0.487300  1.0  0.1066
  H  H24  1  0.725400  0.249600  0.379200  1.0  0.1051
  H  H25  1  0.537000  0.261600  0.345300  1.0  0.0921
  H  H26  1  0.597400  0.133600  0.369800  1.0  0.1155
  H  H27  1  0.467000  0.279500  0.548600  1.0  0.1097
  H  H28  1  0.430500  0.310300  0.434800  1.0  0.1115
  H  H29  1  0.744400  0.686200  0.241800  1.0  0.0936
  H  H30  1  0.648100  0.787200  0.274300  1.0  0.1302
  H  H31  1  0.369600  0.649300  0.240000  1.0  0.1387
  H  H32  1  0.475100  0.550500  0.208000  1.0  0.0931
  H  H33  1  0.865600  0.906700  0.460400  1.0  0.1024
  H  H34  1  0.873100  0.794300  0.383200  1.0  0.0891
  H  H35  1  0.736600  0.794600  0.475800  1.0  0.1137
  H  H36  1  0.787300  0.780800  0.585300  1.0  0.1167
  H  H37  1  0.980000  0.775400  0.608400  1.0  0.0702
  H  H38  1  0.921400  0.897900  0.569000  1.0  0.0918
  H  H39  1  0.017100  0.716500  0.407500  1.0  0.1184
  H  H40  1  0.070000  0.705900  0.522800  1.0  0.1072
  H  H41  1  0.050600  0.517000  0.778000  1.0  0.0934
  H  H42  1  0.949400  0.617400  0.754400  1.0  0.1265
  H  H43  1  0.206600  0.769000  0.802100  1.0  0.1373
  H  H44  1  0.303800  0.664400  0.824500  1.0  0.0904
  H  H45  1  0.868100  0.397000  0.977900  1.0  0.0988
  H  H46  1  0.891400  0.302800  0.069300  1.0  0.0722
  H  H47  1  0.739700  0.281400  0.987300  1.0  0.1068
  H  H48  1  0.774600  0.250400  0.879200  1.0  0.1052
  H  H49  1  0.963000  0.238400  0.845300  1.0  0.0926
  H  H50  1  0.902600  0.366400  0.869800  1.0  0.1126
  H  H51  1  0.033000  0.220500  0.048600  1.0  0.1106
  H  H52  1  0.069500  0.189700  0.934800  1.0  0.1104
  H  H53  1  0.755600  0.813800  0.741800  1.0  0.0933
  H  H54  1  0.851900  0.712800  0.774300  1.0  0.1302
  H  H55  1  0.130400  0.850700  0.740000  1.0  0.1387
  H  H56  1  0.024900  0.949500  0.708000  1.0  0.0936
  H  H57  1  0.634400  0.593300  0.960400  1.0  0.1017
  H  H58  1  0.626900  0.705700  0.883200  1.0  0.0891
  H  H59  1  0.763400  0.705400  0.975800  1.0  0.1136
  H  H60  1  0.712700  0.719200  0.085300  1.0  0.1169
  H  H61  1  0.520000  0.724600  0.108400  1.0  0.07
  H  H62  1  0.578600  0.602100  0.069000  1.0  0.0921
  H  H63  1  0.482900  0.783500  0.907500  1.0  0.1178
  H  H64  1  0.430000  0.794100  0.022800  1.0  0.1069
  H  H65  1  0.550600  0.017000  0.722000  1.0  0.0935
  H  H66  1  0.449400  0.117400  0.745600  1.0  0.1267
  H  H67  1  0.706600  0.269000  0.697900  1.0  0.1374
  H  H68  1  0.803800  0.164400  0.675500  1.0  0.0903
  H  H69  1  0.368100  0.897000  0.522100  1.0  0.0992
  H  H70  1  0.391400  0.802800  0.430700  1.0  0.0726
  H  H71  1  0.239700  0.781400  0.512700  1.0  0.1066
  H  H72  1  0.274600  0.750400  0.620800  1.0  0.1081
  H  H73  1  0.463000  0.738400  0.654700  1.0  0.0931
  H  H74  1  0.402600  0.866400  0.630200  1.0  0.1119
  H  H75  1  0.533000  0.720500  0.451400  1.0  0.1111
  H  H76  1  0.569500  0.689700  0.565200  1.0  0.1103
  H  H77  1  0.255600  0.313800  0.758200  1.0  0.0931
  H  H78  1  0.351900  0.212800  0.725700  1.0  0.1301
  H  H79  1  0.630400  0.350700  0.760000  1.0  0.1385
  H  H80  1  0.524900  0.449500  0.792000  1.0  0.094
  H  H81  1  0.134400  0.093300  0.539600  1.0  0.1018
  H  H82  1  0.126900  0.205700  0.616800  1.0  0.0892
  H  H83  1  0.263400  0.205400  0.524200  1.0  0.1136
  H  H84  1  0.212700  0.219200  0.414700  1.0  0.1174
  H  H85  1  0.020000  0.224600  0.391600  1.0  0.0704
  H  H86  1  0.078600  0.102100  0.431000  1.0  0.092
  H  H87  1  0.982900  0.283500  0.592500  1.0  0.1179
  H  H88  1  0.930000  0.294100  0.477200  1.0  0.1071
  H  H89  1  0.949400  0.483000  0.222000  1.0  0.0932
  H  H90  1  0.050600  0.382600  0.245600  1.0  0.1271
  H  H91  1  0.793400  0.231000  0.197900  1.0  0.1376
  H  H92  1  0.696200  0.335600  0.175500  1.0  0.0899
  H  H93  1  0.131900  0.603000  0.022100  1.0  0.0993
  H  H94  1  0.108600  0.697200  0.930700  1.0  0.0725
  H  H95  1  0.260300  0.718600  0.012700  1.0  0.1065
  H  H96  1  0.225400  0.749600  0.120800  1.0  0.1086
  H  H97  1  0.037000  0.761600  0.154700  1.0  0.0924
  H  H98  1  0.097400  0.633600  0.130200  1.0  0.1159
  H  H99  1  0.967000  0.779500  0.951400  1.0  0.1108
  H  H100  1  0.930500  0.810300  0.065200  1.0  0.1104
  H  H101  1  0.244400  0.186200  0.258200  1.0  0.0937
  H  H102  1  0.148100  0.287200  0.225700  1.0  0.1306
  H  H103  1  0.869600  0.149300  0.260000  1.0  0.1384
  H  H104  1  0.975100  0.050500  0.292000  1.0  0.0936
  H  H105  1  0.365600  0.406700  0.039600  1.0  0.1018
  H  H106  1  0.373100  0.294300  0.116800  1.0  0.089
  H  H107  1  0.236600  0.294600  0.024200  1.0  0.1134
  H  H108  1  0.287300  0.280800  0.914700  1.0  0.1166
  H  H109  1  0.480000  0.275400  0.891600  1.0  0.0705
  H  H110  1  0.421400  0.397900  0.931000  1.0  0.0928
  H  H111  1  0.517100  0.216500  0.092500  1.0  0.1184
  H  H112  1  0.570000  0.205900  0.977200  1.0  0.107
  C  C113  1  0.416700  0.931300  0.282800  1.0  0.1535
  C  C114  1  0.477300  0.871600  0.268700  1.0  -0.1766
  C  C115  1  0.433200  0.795600  0.275000  1.0  0.0885
  C  C116  1  0.326700  0.782500  0.296500  1.0  -0.186
  C  C117  1  0.269500  0.845400  0.309900  1.0  0.167
  C  C118  1  0.467300  0.089700  0.499600  1.0  0.5974
  C  C119  1  0.570100  0.135900  0.476300  1.0  -0.1775
  C  C120  1  0.596600  0.209600  0.519500  1.0  0.0446
  C  C121  1  0.699600  0.252500  0.486100  1.0  -0.1833
  C  C122  1  0.734800  0.329600  0.519400  1.0  0.5946
  C  C123  1  0.696900  0.361800  0.410100  1.0  0.591
  C  C124  1  0.675000  0.273400  0.411500  1.0  -0.1766
  C  C125  1  0.556200  0.245800  0.393200  1.0  0.0325
  C  C126  1  0.545700  0.156600  0.401700  1.0  -0.1735
  C  C127  1  0.432000  0.118200  0.390100  1.0  0.6031
  C  C128  1  0.506100  0.261300  0.510600  1.0  -0.1282
  C  C129  1  0.486100  0.278700  0.446800  1.0  -0.1273
  C  C130  1  0.667400  0.678500  0.241500  1.0  0.1621
  C  C131  1  0.610600  0.739100  0.260400  1.0  -0.1712
  C  C132  1  0.498500  0.730200  0.259100  1.0  0.075
  C  C133  1  0.446500  0.658200  0.240300  1.0  -0.1953
  C  C134  1  0.510500  0.599300  0.221700  1.0  0.1663
  C  C135  1  0.026200  0.915900  0.426700  1.0  0.5983
  C  C136  1  0.928000  0.874300  0.462600  1.0  -0.1778
  C  C137  1  0.893800  0.792100  0.433100  1.0  0.0389
  C  C138  1  0.796500  0.760100  0.478800  1.0  -0.1936
  C  C139  1  0.755700  0.677100  0.458400  1.0  0.5949
  C  C140  1  0.815500  0.665000  0.566700  1.0  0.5915
  C  C141  1  0.832600  0.752000  0.553300  1.0  -0.1876
  C  C142  1  0.953300  0.781700  0.560100  1.0  0.0424
  C  C143  1  0.965300  0.867100  0.537900  1.0  -0.1821
  C  C144  1  0.081200  0.902800  0.536400  1.0  0.5982
  C  C145  1  0.984200  0.742100  0.444300  1.0  -0.1218
  C  C146  1  0.014100  0.736400  0.509000  1.0  -0.1342
  C  C147  1  0.083300  0.568700  0.782800  1.0  0.1515
  C  C148  1  0.022700  0.628400  0.768700  1.0  -0.1763
  C  C149  1  0.066800  0.704400  0.775000  1.0  0.0889
  C  C150  1  0.173300  0.717500  0.796500  1.0  -0.1867
  C  C151  1  0.230500  0.654600  0.809900  1.0  0.1686
  C  C152  1  0.032700  0.410300  0.999600  1.0  0.597
  C  C153  1  0.929900  0.364100  0.976300  1.0  -0.1788
  C  C154  1  0.903400  0.290400  0.019500  1.0  0.0443
  C  C155  1  0.800400  0.247500  0.986100  1.0  -0.1825
  C  C156  1  0.765200  0.170400  0.019400  1.0  0.5958
  C  C157  1  0.803100  0.138200  0.910100  1.0  0.5902
  C  C158  1  0.825000  0.226600  0.911500  1.0  -0.1768
  C  C159  1  0.943800  0.254200  0.893200  1.0  0.0283
  C  C160  1  0.954300  0.343400  0.901700  1.0  -0.174
  C  C161  1  0.068000  0.381800  0.890100  1.0  0.5998
  C  C162  1  0.993900  0.238700  0.010600  1.0  -0.1277
  C  C163  1  0.013900  0.221300  0.946800  1.0  -0.127
  C  C164  1  0.832600  0.821500  0.741500  1.0  0.162
  C  C165  1  0.889400  0.760900  0.760400  1.0  -0.171
  C  C166  1  0.001500  0.769800  0.759100  1.0  0.0742
  C  C167  1  0.053500  0.841800  0.740300  1.0  -0.1937
  C  C168  1  0.989500  0.900700  0.721700  1.0  0.165
  C  C169  1  0.473800  0.584100  0.926700  1.0  0.5981
  C  C170  1  0.572000  0.625700  0.962600  1.0  -0.1783
  C  C171  1  0.606200  0.707900  0.933100  1.0  0.0392
  C  C172  1  0.703500  0.739900  0.978800  1.0  -0.1917
  C  C173  1  0.744300  0.822900  0.958400  1.0  0.5944
  C  C174  1  0.684500  0.835000  0.066700  1.0  0.593
  C  C175  1  0.667400  0.748000  0.053300  1.0  -0.1865
  C  C176  1  0.546700  0.718300  0.060100  1.0  0.043
  C  C177  1  0.534700  0.632900  0.037900  1.0  -0.1802
  C  C178  1  0.418800  0.597200  0.036400  1.0  0.5984
  C  C179  1  0.515800  0.757900  0.944300  1.0  -0.1221
  C  C180  1  0.485900  0.763600  0.009000  1.0  -0.1345
  C  C181  1  0.583300  0.068700  0.717200  1.0  0.153
  C  C182  1  0.522700  0.128400  0.731300  1.0  -0.176
  C  C183  1  0.566800  0.204400  0.725000  1.0  0.0888
  C  C184  1  0.673300  0.217500  0.703500  1.0  -0.187
  C  C185  1  0.730500  0.154600  0.690100  1.0  0.1682
  C  C186  1  0.532700  0.910300  0.500400  1.0  0.5968
  C  C187  1  0.429900  0.864100  0.523700  1.0  -0.1786
  C  C188  1  0.403400  0.790400  0.480500  1.0  0.0455
  C  C189  1  0.300400  0.747500  0.513900  1.0  -0.1845
  C  C190  1  0.265200  0.670400  0.480600  1.0  0.5955
  C  C191  1  0.303100  0.638200  0.589900  1.0  0.5904
  C  C192  1  0.325000  0.726600  0.588500  1.0  -0.1758
  C  C193  1  0.443800  0.754200  0.606800  1.0  0.029
  C  C194  1  0.454300  0.843400  0.598300  1.0  -0.1745
  C  C195  1  0.568000  0.881800  0.609900  1.0  0.6017
  C  C196  1  0.493900  0.738700  0.489400  1.0  -0.1279
  C  C197  1  0.513900  0.721300  0.553200  1.0  -0.1261
  C  C198  1  0.332600  0.321500  0.758500  1.0  0.1617
  C  C199  1  0.389400  0.260900  0.739600  1.0  -0.1714
  C  C200  1  0.501500  0.269800  0.740900  1.0  0.0742
  C  C201  1  0.553500  0.341800  0.759700  1.0  -0.1927
  C  C202  1  0.489500  0.400700  0.778300  1.0  0.1667
  C  C203  1  0.973800  0.084100  0.573300  1.0  0.5981
  C  C204  1  0.072000  0.125700  0.537400  1.0  -0.1771
  C  C205  1  0.106200  0.207900  0.566900  1.0  0.0412
  C  C206  1  0.203500  0.239900  0.521200  1.0  -0.1919
  C  C207  1  0.244300  0.322900  0.541600  1.0  0.5944
  C  C208  1  0.184500  0.335000  0.433300  1.0  0.5951
  C  C209  1  0.167400  0.248000  0.446700  1.0  -0.1872
  C  C210  1  0.046700  0.218300  0.439900  1.0  0.0433
  C  C211  1  0.034700  0.132900  0.462100  1.0  -0.181
  C  C212  1  0.918800  0.097200  0.463600  1.0  0.5967
  C  C213  1  0.015800  0.257900  0.555700  1.0  -0.122
  C  C214  1  0.985900  0.263600  0.491000  1.0  -0.1349
  C  C215  1  0.916700  0.431300  0.217200  1.0  0.1531
  C  C216  1  0.977300  0.371600  0.231300  1.0  -0.1773
  C  C217  1  0.933200  0.295600  0.225000  1.0  0.0885
  C  C218  1  0.826700  0.282500  0.203500  1.0  -0.1865
  C  C219  1  0.769500  0.345400  0.190100  1.0  0.1674
  C  C220  1  0.967300  0.589700  0.000400  1.0  0.5975
  C  C221  1  0.070100  0.635900  0.023700  1.0  -0.1774
  C  C222  1  0.096600  0.709600  0.980500  1.0  0.0458
  C  C223  1  0.199600  0.752500  0.013900  1.0  -0.184
  C  C224  1  0.234800  0.829600  0.980600  1.0  0.5942
  C  C225  1  0.196900  0.861800  0.089900  1.0  0.5903
  C  C226  1  0.175000  0.773400  0.088500  1.0  -0.1769
  C  C227  1  0.056200  0.745800  0.106800  1.0  0.0304
  C  C228  1  0.045700  0.656600  0.098300  1.0  -0.1727
  C  C229  1  0.932000  0.618200  0.109900  1.0  0.6032
  C  C230  1  0.006100  0.761300  0.989400  1.0  -0.1272
  C  C231  1  0.986100  0.778700  0.053200  1.0  -0.1266
  C  C232  1  0.167400  0.178500  0.258500  1.0  0.1615
  C  C233  1  0.110600  0.239100  0.239600  1.0  -0.1716
  C  C234  1  0.998500  0.230200  0.240900  1.0  0.0752
  C  C235  1  0.946500  0.158200  0.259700  1.0  -0.1958
  C  C236  1  0.010500  0.099300  0.278300  1.0  0.1649
  C  C237  1  0.526200  0.415900  0.073300  1.0  0.5986
  C  C238  1  0.428000  0.374300  0.037400  1.0  -0.1783
  C  C239  1  0.393800  0.292100  0.066900  1.0  0.0404
  C  C240  1  0.296500  0.260100  0.021200  1.0  -0.1929
  C  C241  1  0.255700  0.177100  0.041600  1.0  0.5937
  C  C242  1  0.315500  0.165000  0.933300  1.0  0.5937
  C  C243  1  0.332600  0.252000  0.946700  1.0  -0.1892
  C  C244  1  0.453300  0.281700  0.939900  1.0  0.0416
  C  C245  1  0.465300  0.367100  0.962100  1.0  -0.1822
  C  C246  1  0.581200  0.402800  0.963600  1.0  0.5975
  C  C247  1  0.484200  0.242100  0.055700  1.0  -0.1216
  C  C248  1  0.514100  0.236400  0.991000  1.0  -0.1341
  N  N249  1  0.312000  0.919800  0.303400  1.0  -0.2988
  N  N250  1  0.392500  0.080300  0.447400  1.0  -0.5781
  N  N251  1  0.729300  0.389700  0.473000  1.0  -0.607
  N  N252  1  0.618900  0.608300  0.222400  1.0  -0.2892
  N  N253  1  0.109200  0.933000  0.472700  1.0  -0.5786
  N  N254  1  0.769500  0.627000  0.510800  1.0  -0.5865
  N  N255  1  0.188000  0.580200  0.803400  1.0  -0.298
  N  N256  1  0.107500  0.419700  0.947400  1.0  -0.5777
  N  N257  1  0.770700  0.110300  0.973000  1.0  -0.6091
  N  N258  1  0.881100  0.891700  0.722400  1.0  -0.2883
  N  N259  1  0.390800  0.567000  0.972700  1.0  -0.5698
  N  N260  1  0.730500  0.873000  0.010800  1.0  -0.584
  N  N261  1  0.688000  0.080200  0.696600  1.0  -0.2982
  N  N262  1  0.607500  0.919700  0.552600  1.0  -0.5778
  N  N263  1  0.270700  0.610300  0.527000  1.0  -0.6088
  N  N264  1  0.381100  0.391700  0.777600  1.0  -0.2869
  N  N265  1  0.890800  0.067000  0.527300  1.0  -0.5669
  N  N266  1  0.230500  0.373000  0.489200  1.0  -0.5842
  N  N267  1  0.812000  0.419800  0.196600  1.0  -0.2977
  N  N268  1  0.892500  0.580300  0.052600  1.0  -0.5774
  N  N269  1  0.229300  0.889700  0.027000  1.0  -0.6076
  N  N270  1  0.118900  0.108300  0.277600  1.0  -0.2889
  N  N271  1  0.609200  0.433000  0.027300  1.0  -0.5796
  N  N272  1  0.269500  0.127000  0.989200  1.0  -0.5865
  O  O273  1  0.681100  0.401600  0.359000  1.0  -0.5424
  O  O274  1  0.765400  0.338900  0.578600  1.0  -0.521
  O  O275  1  0.452800  0.062000  0.557500  1.0  -0.5233
  O  O276  1  0.382900  0.121300  0.335300  1.0  -0.5652
  O  O277  1  0.142900  0.904800  0.585800  1.0  -0.5263
  O  O278  1  0.031400  0.933900  0.365500  1.0  -0.5366
  O  O279  1  0.718000  0.658100  0.401600  1.0  -0.5373
  O  O280  1  0.840800  0.634500  0.620600  1.0  -0.5248
  O  O281  1  0.818900  0.098400  0.859000  1.0  -0.5425
  O  O282  1  0.734600  0.161100  0.078600  1.0  -0.5195
  O  O283  1  0.047200  0.438000  0.057500  1.0  -0.5224
  O  O284  1  0.117100  0.378700  0.835300  1.0  -0.5684
  O  O285  1  0.357100  0.595200  0.085800  1.0  -0.5258
  O  O286  1  0.468600  0.566100  0.865500  1.0  -0.5349
  O  O287  1  0.782000  0.841900  0.901600  1.0  -0.5388
  O  O288  1  0.659200  0.865500  0.120600  1.0  -0.5259
  O  O289  1  0.318900  0.598400  0.641000  1.0  -0.5408
  O  O290  1  0.234600  0.661100  0.421400  1.0  -0.5176
  O  O291  1  0.547200  0.938000  0.442500  1.0  -0.5233
  O  O292  1  0.617100  0.878700  0.664700  1.0  -0.5612
  O  O293  1  0.857100  0.095200  0.414200  1.0  -0.5286
  O  O294  1  0.968600  0.066100  0.634500  1.0  -0.5313
  O  O295  1  0.282000  0.341900  0.598400  1.0  -0.5383
  O  O296  1  0.159200  0.365500  0.379400  1.0  -0.5209
  O  O297  1  0.181100  0.901600  0.141000  1.0  -0.5422
  O  O298  1  0.265400  0.838900  0.921400  1.0  -0.5189
  O  O299  1  0.952800  0.562000  0.942500  1.0  -0.5239
  O  O300  1  0.882900  0.621300  0.164700  1.0  -0.5601
  O  O301  1  0.642900  0.404800  0.914200  1.0  -0.5265
  O  O302  1  0.531400  0.433900  0.134500  1.0  -0.5321
  O  O303  1  0.218000  0.158100  0.098400  1.0  -0.5372
  O  O304  1  0.340800  0.134500  0.879400  1.0  -0.5203
