# generated using pymatgen
data_CoH13C18N3O4
_symmetry_space_group_name_H-M   'P 1'
_cell_length_a   11.37370000
_cell_length_b   17.60130000
_cell_length_c   17.90580000
_cell_angle_alpha   90.00000000
_cell_angle_beta   90.00000000
_cell_angle_gamma   99.23400000
_symmetry_Int_Tables_number   1
_chemical_formula_structural   CoH13C18N3O4
_chemical_formula_sum   'Co4 H52 C72 N12 O16'
_cell_volume   3538.14421835
_cell_formula_units_Z   4
loop_
 _symmetry_equiv_pos_site_id
 _symmetry_equiv_pos_as_xyz
  1  'x, y, z'
loop_
 _atom_site_type_symbol
 _atom_site_label
 _atom_site_symmetry_multiplicity
 _atom_site_fract_x
 _atom_site_fract_y
 _atom_site_fract_z
 _atom_site_occupancy
 _atom_site_charge
  Co  Co1  1  0.965660  0.075610  0.922050  1.0  0.865
  Co  Co2  1  0.034340  0.424390  0.422050  1.0  0.8653
  Co  Co3  1  0.034340  0.924390  0.077950  1.0  0.867
  Co  Co4  1  0.965660  0.575610  0.577950  1.0  0.8665
  H  H5  1  0.998500  0.780900  0.981200  1.0  0.3379
  H  H6  1  0.011300  0.700200  0.955100  1.0  0.3202
  H  H7  1  0.946700  0.901000  0.754700  1.0  0.3199
  H  H8  1  0.997300  0.663600  0.826500  1.0  0.1158
  H  H9  1  0.951400  0.823600  0.669900  1.0  0.1157
  H  H10  1  0.528800  0.984300  0.850900  1.0  0.1109
  H  H11  1  0.730700  0.982500  0.853600  1.0  0.0869
  H  H12  1  0.779200  0.162800  0.993400  1.0  0.09
  H  H13  1  0.578900  0.165100  0.992300  1.0  0.1093
  H  H14  1  0.355100  0.000700  0.835600  1.0  0.1063
  H  H15  1  0.152400  0.999600  0.839000  1.0  0.0912
  H  H16  1  0.194600  0.157500  0.000400  1.0  0.101
  H  H17  1  0.396400  0.151200  0.005700  1.0  0.0953
  H  H18  1  0.001500  0.719100  0.481200  1.0  0.3388
  H  H19  1  0.988700  0.799800  0.455100  1.0  0.3185
  H  H20  1  0.053300  0.599000  0.254700  1.0  0.3195
  H  H21  1  0.002700  0.836400  0.326500  1.0  0.1152
  H  H22  1  0.048600  0.676400  0.169900  1.0  0.1166
  H  H23  1  0.471200  0.515700  0.350900  1.0  0.1112
  H  H24  1  0.269300  0.517500  0.353600  1.0  0.0873
  H  H25  1  0.220800  0.337200  0.493400  1.0  0.0897
  H  H26  1  0.421100  0.334900  0.492300  1.0  0.1089
  H  H27  1  0.644900  0.499300  0.335600  1.0  0.1065
  H  H28  1  0.847600  0.500400  0.339000  1.0  0.0913
  H  H29  1  0.805400  0.342500  0.500400  1.0  0.1008
  H  H30  1  0.603600  0.348800  0.505700  1.0  0.0944
  H  H31  1  0.001500  0.219100  0.018800  1.0  0.3364
  H  H32  1  0.988700  0.299800  0.044900  1.0  0.3195
  H  H33  1  0.053300  0.099000  0.245300  1.0  0.3201
  H  H34  1  0.002700  0.336400  0.173500  1.0  0.1153
  H  H35  1  0.048600  0.176400  0.330100  1.0  0.1158
  H  H36  1  0.471200  0.015700  0.149100  1.0  0.1115
  H  H37  1  0.269300  0.017500  0.146400  1.0  0.0864
  H  H38  1  0.220800  0.837200  0.006600  1.0  0.0897
  H  H39  1  0.421100  0.834900  0.007700  1.0  0.1084
  H  H40  1  0.644900  0.999300  0.164400  1.0  0.1074
  H  H41  1  0.847600  0.000400  0.161000  1.0  0.0914
  H  H42  1  0.805400  0.842500  0.999600  1.0  0.1012
  H  H43  1  0.603600  0.848800  0.994300  1.0  0.094
  H  H44  1  0.998500  0.280900  0.518800  1.0  0.3352
  H  H45  1  0.011300  0.200200  0.544900  1.0  0.3207
  H  H46  1  0.946700  0.401000  0.745300  1.0  0.3213
  H  H47  1  0.997300  0.163600  0.673500  1.0  0.1163
  H  H48  1  0.951400  0.323600  0.830100  1.0  0.1152
  H  H49  1  0.528800  0.484300  0.649100  1.0  0.1115
  H  H50  1  0.730700  0.482500  0.646400  1.0  0.0865
  H  H51  1  0.779200  0.662800  0.506600  1.0  0.09
  H  H52  1  0.578900  0.665100  0.507700  1.0  0.1095
  H  H53  1  0.355100  0.500700  0.664400  1.0  0.1073
  H  H54  1  0.152400  0.499600  0.661000  1.0  0.0915
  H  H55  1  0.194600  0.657500  0.499600  1.0  0.1019
  H  H56  1  0.396400  0.651200  0.494300  1.0  0.0957
  C  C57  1  0.992600  0.846900  0.848700  1.0  -0.0415
  C  C58  1  0.002900  0.773800  0.866700  1.0  0.1542
  C  C59  1  0.995100  0.715600  0.813100  1.0  -0.1419
  C  C60  1  0.983800  0.737300  0.739400  1.0  -0.1295
  C  C61  1  0.965300  0.811000  0.720400  1.0  -0.1528
  C  C62  1  0.967200  0.864900  0.775200  1.0  -0.0274
  C  C63  1  0.984600  0.903700  0.914500  1.0  0.6272
  C  C64  1  0.980800  0.673200  0.677000  1.0  0.6595
  C  C65  1  0.530200  0.074200  0.922000  1.0  0.0742
  C  C66  1  0.579000  0.020800  0.880500  1.0  -0.203
  C  C67  1  0.699100  0.020200  0.881900  1.0  0.1371
  C  C68  1  0.728500  0.126200  0.964200  1.0  0.1235
  C  C69  1  0.609500  0.127300  0.963600  1.0  -0.1498
  C  C70  1  0.408800  0.076000  0.920600  1.0  0.0651
  C  C71  1  0.324900  0.032400  0.871500  1.0  -0.1362
  C  C72  1  0.203200  0.032400  0.871800  1.0  0.0969
  C  C73  1  0.228400  0.124300  0.967800  1.0  0.1089
  C  C74  1  0.349500  0.120900  0.969200  1.0  -0.1262
  C  C75  1  0.007400  0.653100  0.348700  1.0  -0.0417
  C  C76  1  0.997100  0.726200  0.366700  1.0  0.155
  C  C77  1  0.004900  0.784400  0.313100  1.0  -0.1406
  C  C78  1  0.016200  0.762700  0.239400  1.0  -0.13
  C  C79  1  0.034700  0.689000  0.220400  1.0  -0.153
  C  C80  1  0.032800  0.635100  0.275200  1.0  -0.0282
  C  C81  1  0.015400  0.596300  0.414500  1.0  0.6274
  C  C82  1  0.019200  0.826800  0.177000  1.0  0.6587
  C  C83  1  0.469800  0.425800  0.422000  1.0  0.0748
  C  C84  1  0.421000  0.479200  0.380500  1.0  -0.2052
  C  C85  1  0.300900  0.479800  0.381900  1.0  0.1358
  C  C86  1  0.271500  0.373800  0.464200  1.0  0.1232
  C  C87  1  0.390500  0.372700  0.463600  1.0  -0.1527
  C  C88  1  0.591200  0.424000  0.420600  1.0  0.0646
  C  C89  1  0.675100  0.467600  0.371500  1.0  -0.1342
  C  C90  1  0.796800  0.467600  0.371800  1.0  0.0971
  C  C91  1  0.771600  0.375700  0.467800  1.0  0.1103
  C  C92  1  0.650500  0.379100  0.469200  1.0  -0.1241
  C  C93  1  0.007400  0.153100  0.151300  1.0  -0.0424
  C  C94  1  0.997100  0.226200  0.133300  1.0  0.1549
  C  C95  1  0.004900  0.284400  0.186900  1.0  -0.1405
  C  C96  1  0.016200  0.262700  0.260600  1.0  -0.1306
  C  C97  1  0.034700  0.189000  0.279600  1.0  -0.1534
  C  C98  1  0.032800  0.135100  0.224800  1.0  -0.029
  C  C99  1  0.015400  0.096300  0.085500  1.0  0.6263
  C  C100  1  0.019200  0.326800  0.323000  1.0  0.6585
  C  C101  1  0.469800  0.925800  0.078000  1.0  0.0759
  C  C102  1  0.421000  0.979200  0.119500  1.0  -0.2019
  C  C103  1  0.300900  0.979800  0.118100  1.0  0.1333
  C  C104  1  0.271500  0.873800  0.035800  1.0  0.1227
  C  C105  1  0.390500  0.872700  0.036400  1.0  -0.1531
  C  C106  1  0.591200  0.924000  0.079400  1.0  0.0678
  C  C107  1  0.675100  0.967600  0.128500  1.0  -0.132
  C  C108  1  0.796800  0.967600  0.128200  1.0  0.0948
  C  C109  1  0.771600  0.875700  0.032200  1.0  0.1099
  C  C110  1  0.650500  0.879100  0.030800  1.0  -0.1249
  C  C111  1  0.992600  0.346900  0.651300  1.0  -0.043
  C  C112  1  0.002900  0.273800  0.633300  1.0  0.1538
  C  C113  1  0.995100  0.215600  0.686900  1.0  -0.142
  C  C114  1  0.983800  0.237300  0.760600  1.0  -0.129
  C  C115  1  0.965300  0.311000  0.779600  1.0  -0.1542
  C  C116  1  0.967200  0.364900  0.724800  1.0  -0.0299
  C  C117  1  0.984600  0.403700  0.585500  1.0  0.626
  C  C118  1  0.980800  0.173200  0.823000  1.0  0.6598
  C  C119  1  0.530200  0.574200  0.578000  1.0  0.075
  C  C120  1  0.579000  0.520800  0.619500  1.0  -0.2039
  C  C121  1  0.699100  0.520200  0.618100  1.0  0.1354
  C  C122  1  0.728500  0.626200  0.535800  1.0  0.1236
  C  C123  1  0.609500  0.627300  0.536400  1.0  -0.15
  C  C124  1  0.408800  0.576000  0.579400  1.0  0.067
  C  C125  1  0.324900  0.532400  0.628500  1.0  -0.1333
  C  C126  1  0.203200  0.532400  0.628200  1.0  0.0952
  C  C127  1  0.228400  0.624300  0.532200  1.0  0.1089
  C  C128  1  0.349500  0.620900  0.530800  1.0  -0.1269
  N  N129  1  0.004000  0.748200  0.944800  1.0  -0.7172
  N  N130  1  0.776300  0.073300  0.923600  1.0  -0.3449
  N  N131  1  0.159200  0.078100  0.917800  1.0  -0.3183
  N  N132  1  0.996000  0.751800  0.444800  1.0  -0.7162
  N  N133  1  0.223700  0.426700  0.423600  1.0  -0.3446
  N  N134  1  0.840800  0.421900  0.417800  1.0  -0.3161
  N  N135  1  0.996000  0.251800  0.055200  1.0  -0.7147
  N  N136  1  0.223700  0.926700  0.076400  1.0  -0.3454
  N  N137  1  0.840800  0.921900  0.082200  1.0  -0.3161
  N  N138  1  0.004000  0.248200  0.555200  1.0  -0.7169
  N  N139  1  0.776300  0.573300  0.576400  1.0  -0.3446
  N  N140  1  0.159200  0.578100  0.582200  1.0  -0.3183
  O  O141  1  0.937500  0.964100  0.895500  1.0  -0.6305
  O  O142  1  0.033400  0.893800  0.970700  1.0  -0.5685
  O  O143  1  0.968200  0.604500  0.697300  1.0  -0.6316
  O  O144  1  0.988900  0.696600  0.611200  1.0  -0.593
  O  O145  1  0.062500  0.535900  0.395500  1.0  -0.6305
  O  O146  1  0.966600  0.606200  0.470700  1.0  -0.5671
  O  O147  1  0.031800  0.895500  0.197300  1.0  -0.6315
  O  O148  1  0.011100  0.803400  0.111200  1.0  -0.5929
  O  O149  1  0.062500  0.035900  0.104500  1.0  -0.6311
  O  O150  1  0.966600  0.106200  0.029300  1.0  -0.5673
  O  O151  1  0.031800  0.395500  0.302700  1.0  -0.6317
  O  O152  1  0.011100  0.303400  0.388800  1.0  -0.5938
  O  O153  1  0.937500  0.464100  0.604500  1.0  -0.6313
  O  O154  1  0.033400  0.393800  0.529300  1.0  -0.5689
  O  O155  1  0.968200  0.104500  0.802700  1.0  -0.6309
  O  O156  1  0.988900  0.196600  0.888800  1.0  -0.5931
