# generated using pymatgen
data_Eu(CO2)4
_symmetry_space_group_name_H-M   'P 1'
_cell_length_a   10.05320000
_cell_length_b   17.72730000
_cell_length_c   14.44510000
_cell_angle_alpha   90.00000000
_cell_angle_beta   99.12010000
_cell_angle_gamma   90.00000000
_symmetry_Int_Tables_number   1
_chemical_formula_structural   Eu(CO2)4
_chemical_formula_sum   'Eu8 C32 O64'
_cell_volume   2541.80502765
_cell_formula_units_Z   8
loop_
 _symmetry_equiv_pos_site_id
 _symmetry_equiv_pos_as_xyz
  1  'x, y, z'
loop_
 _atom_site_type_symbol
 _atom_site_label
 _atom_site_symmetry_multiplicity
 _atom_site_fract_x
 _atom_site_fract_y
 _atom_site_fract_z
 _atom_site_occupancy
 _atom_site_charge
  Eu  Eu1  1  0.496710  0.124720  0.156350  1.0  2.1048
  Eu  Eu2  1  0.518610  0.840910  0.408000  1.0  2.091
  Eu  Eu3  1  0.003290  0.624720  0.343650  1.0  2.105
  Eu  Eu4  1  0.981390  0.340910  0.092000  1.0  2.0922
  Eu  Eu5  1  0.503290  0.875280  0.843650  1.0  2.1051
  Eu  Eu6  1  0.481390  0.159090  0.592000  1.0  2.0927
  Eu  Eu7  1  0.996710  0.375280  0.656350  1.0  2.1049
  Eu  Eu8  1  0.018610  0.659090  0.908000  1.0  2.0915
  C  C9  1  0.553200  0.956900  0.243000  1.0  0.5942
  C  C10  1  0.425100  0.984900  0.280500  1.0  0.6378
  C  C11  1  0.243100  0.237000  0.179200  1.0  0.5657
  C  C12  1  0.785200  0.203000  0.135700  1.0  0.6009
  C  C13  1  0.557400  0.022100  0.981800  1.0  0.5969
  C  C14  1  0.231500  0.226500  0.072700  1.0  0.5708
  C  C15  1  0.684600  0.268200  0.116100  1.0  0.5536
  C  C16  1  0.438800  0.985800  0.522000  1.0  0.6029
  C  C17  1  0.946800  0.456900  0.257000  1.0  0.5941
  C  C18  1  0.074900  0.484900  0.219500  1.0  0.637
  C  C19  1  0.256900  0.737000  0.320800  1.0  0.5643
  C  C20  1  0.714800  0.703000  0.364300  1.0  0.6018
  C  C21  1  0.942600  0.522100  0.518200  1.0  0.5969
  C  C22  1  0.268500  0.726500  0.427300  1.0  0.573
  C  C23  1  0.815400  0.768200  0.383900  1.0  0.556
  C  C24  1  0.061200  0.485800  0.978000  1.0  0.6038
  C  C25  1  0.446800  0.043100  0.757000  1.0  0.5944
  C  C26  1  0.574900  0.015100  0.719500  1.0  0.6371
  C  C27  1  0.756900  0.763000  0.820800  1.0  0.5644
  C  C28  1  0.214800  0.797000  0.864300  1.0  0.6012
  C  C29  1  0.442600  0.977900  0.018200  1.0  0.597
  C  C30  1  0.768500  0.773500  0.927300  1.0  0.5731
  C  C31  1  0.315400  0.731800  0.883900  1.0  0.5538
  C  C32  1  0.561200  0.014200  0.478000  1.0  0.604
  C  C33  1  0.053200  0.543100  0.743000  1.0  0.5951
  C  C34  1  0.925100  0.515100  0.780500  1.0  0.6377
  C  C35  1  0.743100  0.263000  0.679200  1.0  0.5658
  C  C36  1  0.285200  0.297000  0.635700  1.0  0.6005
  C  C37  1  0.057400  0.477900  0.481800  1.0  0.597
  C  C38  1  0.731500  0.273500  0.572700  1.0  0.571
  C  C39  1  0.184600  0.231800  0.616100  1.0  0.5551
  C  C40  1  0.938800  0.514200  0.022000  1.0  0.6036
  O  O41  1  0.369900  0.938200  0.327100  1.0  -0.5377
  O  O42  1  0.582200  0.888600  0.259500  1.0  -0.5631
  O  O43  1  0.614700  0.003800  0.202100  1.0  -0.5516
  O  O44  1  0.389400  0.051000  0.262600  1.0  -0.5542
  O  O45  1  0.740400  0.142500  0.160400  1.0  -0.5564
  O  O46  1  0.564900  0.254700  0.123800  1.0  -0.5456
  O  O47  1  0.313400  0.180800  0.044900  1.0  -0.5784
  O  O48  1  0.336200  0.202100  0.228600  1.0  -0.5727
  O  O49  1  0.573000  0.089200  0.009300  1.0  -0.5433
  O  O50  1  0.417600  0.916500  0.521200  1.0  -0.565
  O  O51  1  0.142300  0.263400  0.022600  1.0  -0.5782
  O  O52  1  0.905100  0.216800  0.125900  1.0  -0.591
  O  O53  1  0.621000  0.987300  0.928300  1.0  -0.5417
  O  O54  1  0.158700  0.280600  0.206400  1.0  -0.5558
  O  O55  1  0.733400  0.329400  0.093800  1.0  -0.5409
  O  O56  1  0.374100  0.035700  0.557600  1.0  -0.5484
  O  O57  1  0.130100  0.438200  0.172900  1.0  -0.5373
  O  O58  1  0.917800  0.388600  0.240500  1.0  -0.5614
  O  O59  1  0.885300  0.503800  0.297900  1.0  -0.5501
  O  O60  1  0.110600  0.551000  0.237400  1.0  -0.5522
  O  O61  1  0.759600  0.642500  0.339600  1.0  -0.5541
  O  O62  1  0.935100  0.754700  0.376200  1.0  -0.5461
  O  O63  1  0.186600  0.680800  0.455100  1.0  -0.5761
  O  O64  1  0.163800  0.702100  0.271400  1.0  -0.5723
  O  O65  1  0.927000  0.589200  0.490700  1.0  -0.5427
  O  O66  1  0.082400  0.416500  0.978800  1.0  -0.5669
  O  O67  1  0.357700  0.763400  0.477400  1.0  -0.5808
  O  O68  1  0.594900  0.716800  0.374100  1.0  -0.5905
  O  O69  1  0.879000  0.487300  0.571700  1.0  -0.5415
  O  O70  1  0.341300  0.780600  0.293600  1.0  -0.5588
  O  O71  1  0.766600  0.829400  0.406200  1.0  -0.541
  O  O72  1  0.125900  0.535700  0.942400  1.0  -0.5489
  O  O73  1  0.630100  0.061800  0.672900  1.0  -0.5363
  O  O74  1  0.417800  0.111400  0.740500  1.0  -0.559
  O  O75  1  0.385300  0.996200  0.797900  1.0  -0.5495
  O  O76  1  0.610600  0.949000  0.737400  1.0  -0.5543
  O  O77  1  0.259600  0.857500  0.839600  1.0  -0.555
  O  O78  1  0.435100  0.745300  0.876200  1.0  -0.5468
  O  O79  1  0.686600  0.819200  0.955100  1.0  -0.5763
  O  O80  1  0.663800  0.797900  0.771400  1.0  -0.5724
  O  O81  1  0.427000  0.910800  0.990700  1.0  -0.5435
  O  O82  1  0.582400  0.083500  0.478800  1.0  -0.5661
  O  O83  1  0.857700  0.736600  0.977400  1.0  -0.5809
  O  O84  1  0.094900  0.783200  0.874100  1.0  -0.5904
  O  O85  1  0.379000  0.012700  0.071700  1.0  -0.5413
  O  O86  1  0.841300  0.719400  0.793600  1.0  -0.5576
  O  O87  1  0.266600  0.670600  0.906200  1.0  -0.5419
  O  O88  1  0.625900  0.964300  0.442400  1.0  -0.5495
  O  O89  1  0.869900  0.561800  0.827100  1.0  -0.5369
  O  O90  1  0.082200  0.611400  0.759500  1.0  -0.5594
  O  O91  1  0.114700  0.496200  0.702100  1.0  -0.5514
  O  O92  1  0.889400  0.449000  0.762600  1.0  -0.5545
  O  O93  1  0.240400  0.357500  0.660400  1.0  -0.5558
  O  O94  1  0.064900  0.245300  0.623800  1.0  -0.5459
  O  O95  1  0.813400  0.319200  0.544900  1.0  -0.578
  O  O96  1  0.836200  0.297900  0.728600  1.0  -0.5728
  O  O97  1  0.073000  0.410800  0.509300  1.0  -0.5447
  O  O98  1  0.917600  0.583500  0.021200  1.0  -0.5669
  O  O99  1  0.642300  0.236600  0.522600  1.0  -0.5784
  O  O100  1  0.405100  0.283200  0.625900  1.0  -0.5901
  O  O101  1  0.121000  0.512700  0.428300  1.0  -0.5419
  O  O102  1  0.658700  0.219400  0.706400  1.0  -0.5569
  O  O103  1  0.233400  0.170600  0.593800  1.0  -0.5402
  O  O104  1  0.874100  0.464300  0.057600  1.0  -0.5483
