# generated using pymatgen
data_Tb2H2C8O17
_symmetry_space_group_name_H-M   'P 1'
_cell_length_a   9.79090000
_cell_length_b   17.29870000
_cell_length_c   14.59290000
_cell_angle_alpha   90.00000000
_cell_angle_beta   97.13220000
_cell_angle_gamma   90.00000000
_symmetry_Int_Tables_number   1
_chemical_formula_structural   Tb2H2C8O17
_chemical_formula_sum   'Tb8 H8 C32 O68'
_cell_volume   2452.47273106
_cell_formula_units_Z   4
loop_
 _symmetry_equiv_pos_site_id
 _symmetry_equiv_pos_as_xyz
  1  'x, y, z'
loop_
 _atom_site_type_symbol
 _atom_site_label
 _atom_site_symmetry_multiplicity
 _atom_site_fract_x
 _atom_site_fract_y
 _atom_site_fract_z
 _atom_site_occupancy
 _atom_site_charge
  Tb  Tb1  1  0.504650  0.378110  0.341590  1.0  2.2037
  Tb  Tb2  1  0.019030  0.163580  0.412190  1.0  2.2298
  Tb  Tb3  1  0.995350  0.878110  0.158410  1.0  2.2024
  Tb  Tb4  1  0.480970  0.663580  0.087810  1.0  2.2319
  Tb  Tb5  1  0.495350  0.621890  0.658410  1.0  2.203
  Tb  Tb6  1  0.980970  0.836420  0.587810  1.0  2.2335
  Tb  Tb7  1  0.004650  0.121890  0.841590  1.0  2.2041
  Tb  Tb8  1  0.519030  0.336420  0.912190  1.0  2.2309
  H  H9  1  0.107000  0.182000  0.615000  1.0  0.4373
  H  H10  1  0.191000  0.186000  0.529000  1.0  0.375
  H  H11  1  0.393000  0.682000  0.885000  1.0  0.438
  H  H12  1  0.309000  0.686000  0.971000  1.0  0.3764
  H  H13  1  0.893000  0.818000  0.385000  1.0  0.4386
  H  H14  1  0.809000  0.814000  0.471000  1.0  0.3758
  H  H15  1  0.607000  0.318000  0.115000  1.0  0.4384
  H  H16  1  0.691000  0.314000  0.029000  1.0  0.375
  C  C17  1  0.452300  0.548800  0.254600  1.0  0.5716
  C  C18  1  0.582800  0.518500  0.216600  1.0  0.6401
  C  C19  1  0.209500  0.304900  0.366700  1.0  0.6014
  C  C20  1  0.312900  0.235600  0.383600  1.0  0.573
  C  C21  1  0.760200  0.265100  0.322500  1.0  0.5764
  C  C22  1  0.767100  0.277400  0.428000  1.0  0.5525
  C  C23  1  0.442200  0.475800  0.518100  1.0  0.5896
  C  C24  1  0.938300  0.013400  0.524200  1.0  0.6416
  C  C25  1  0.047700  0.048800  0.245400  1.0  0.5715
  C  C26  1  0.917200  0.018500  0.283400  1.0  0.6407
  C  C27  1  0.290500  0.804900  0.133300  1.0  0.5997
  C  C28  1  0.187100  0.735600  0.116400  1.0  0.5736
  C  C29  1  0.739800  0.765100  0.177500  1.0  0.5777
  C  C30  1  0.732900  0.777400  0.072000  1.0  0.5513
  C  C31  1  0.057800  0.975800  0.981900  1.0  0.5887
  C  C32  1  0.561700  0.513400  0.975800  1.0  0.64
  C  C33  1  0.547700  0.451200  0.745400  1.0  0.5711
  C  C34  1  0.417200  0.481500  0.783400  1.0  0.6412
  C  C35  1  0.790500  0.695100  0.633300  1.0  0.6018
  C  C36  1  0.687100  0.764400  0.616400  1.0  0.5737
  C  C37  1  0.239800  0.734900  0.677500  1.0  0.5779
  C  C38  1  0.232900  0.722600  0.572000  1.0  0.5507
  C  C39  1  0.557800  0.524200  0.481900  1.0  0.5894
  C  C40  1  0.061700  0.986600  0.475800  1.0  0.64
  C  C41  1  0.952300  0.951200  0.754600  1.0  0.5723
  C  C42  1  0.082800  0.981500  0.716600  1.0  0.6403
  C  C43  1  0.709500  0.195100  0.866700  1.0  0.6019
  C  C44  1  0.812900  0.264400  0.883600  1.0  0.573
  C  C45  1  0.260200  0.234900  0.822500  1.0  0.5767
  C  C46  1  0.267100  0.222600  0.928000  1.0  0.552
  C  C47  1  0.942200  0.024200  0.018100  1.0  0.59
  C  C48  1  0.438300  0.486600  0.024200  1.0  0.6415
  O  O49  1  0.390100  0.500800  0.299600  1.0  -0.5819
  O  O50  1  0.418800  0.617100  0.236900  1.0  -0.5642
  O  O51  1  0.625800  0.453000  0.239900  1.0  -0.5877
  O  O52  1  0.637000  0.563800  0.163600  1.0  -0.5921
  O  O53  1  0.255900  0.366100  0.339600  1.0  -0.5589
  O  O54  1  0.088400  0.292000  0.382200  1.0  -0.5223
  O  O55  1  0.435000  0.249700  0.372200  1.0  -0.5314
  O  O56  1  0.263700  0.173600  0.407400  1.0  -0.6002
  O  O57  1  0.849700  0.220100  0.297000  1.0  -0.5585
  O  O58  1  0.667800  0.299700  0.272900  1.0  -0.6672
  O  O59  1  0.853200  0.238500  0.478300  1.0  -0.5311
  O  O60  1  0.683000  0.326200  0.453300  1.0  -0.5644
  O  O61  1  0.427500  0.408800  0.488800  1.0  -0.5584
  O  O62  1  0.374100  0.509500  0.573900  1.0  -0.5707
  O  O63  1  0.913600  0.084400  0.523500  1.0  -0.5868
  O  O64  1  0.871300  0.962100  0.558700  1.0  -0.6042
  O  O65  1  0.131000  0.194900  0.564300  1.0  -0.8188
  O  O66  1  0.109900  0.000800  0.200400  1.0  -0.5826
  O  O67  1  0.081200  0.117100  0.263100  1.0  -0.5647
  O  O68  1  0.874200  0.953000  0.260100  1.0  -0.5877
  O  O69  1  0.863000  0.063800  0.336400  1.0  -0.5913
  O  O70  1  0.244100  0.866100  0.160400  1.0  -0.5581
  O  O71  1  0.411600  0.792000  0.117800  1.0  -0.5219
  O  O72  1  0.065000  0.749700  0.127800  1.0  -0.5313
  O  O73  1  0.236300  0.673600  0.092600  1.0  -0.5998
  O  O74  1  0.650300  0.720100  0.203000  1.0  -0.5585
  O  O75  1  0.832200  0.799700  0.227100  1.0  -0.6671
  O  O76  1  0.646800  0.738500  0.021700  1.0  -0.5284
  O  O77  1  0.817000  0.826200  0.046700  1.0  -0.5648
  O  O78  1  0.072500  0.908800  0.011200  1.0  -0.5586
  O  O79  1  0.125900  0.009500  0.926100  1.0  -0.569
  O  O80  1  0.586400  0.584400  0.976500  1.0  -0.5852
  O  O81  1  0.628700  0.462100  0.941300  1.0  -0.6035
  O  O82  1  0.369000  0.694900  0.935700  1.0  -0.8174
  O  O83  1  0.609900  0.499200  0.700400  1.0  -0.582
  O  O84  1  0.581200  0.382900  0.763100  1.0  -0.5658
  O  O85  1  0.374200  0.547000  0.760100  1.0  -0.5869
  O  O86  1  0.363000  0.436200  0.836400  1.0  -0.5912
  O  O87  1  0.744100  0.633900  0.660400  1.0  -0.558
  O  O88  1  0.911600  0.708000  0.617800  1.0  -0.5227
  O  O89  1  0.565000  0.750300  0.627800  1.0  -0.5306
  O  O90  1  0.736300  0.826400  0.592600  1.0  -0.6013
  O  O91  1  0.150300  0.779900  0.703000  1.0  -0.5566
  O  O92  1  0.332200  0.700300  0.727100  1.0  -0.6677
  O  O93  1  0.146800  0.761500  0.521700  1.0  -0.5285
  O  O94  1  0.317000  0.673800  0.546700  1.0  -0.5656
  O  O95  1  0.572500  0.591200  0.511200  1.0  -0.5576
  O  O96  1  0.625900  0.490500  0.426100  1.0  -0.5694
  O  O97  1  0.086400  0.915600  0.476500  1.0  -0.59
  O  O98  1  0.128700  0.037900  0.441300  1.0  -0.6044
  O  O99  1  0.869000  0.805100  0.435700  1.0  -0.8188
  O  O100  1  0.890100  0.999200  0.799600  1.0  -0.5818
  O  O101  1  0.918800  0.882900  0.736900  1.0  -0.5648
  O  O102  1  0.125800  0.047000  0.739900  1.0  -0.586
  O  O103  1  0.137000  0.936200  0.663600  1.0  -0.5922
  O  O104  1  0.755900  0.133900  0.839600  1.0  -0.5578
  O  O105  1  0.588400  0.208000  0.882200  1.0  -0.5236
  O  O106  1  0.935000  0.250300  0.872200  1.0  -0.53
  O  O107  1  0.763700  0.326400  0.907400  1.0  -0.5982
  O  O108  1  0.349700  0.279900  0.797000  1.0  -0.559
  O  O109  1  0.167800  0.200300  0.772900  1.0  -0.6665
  O  O110  1  0.353200  0.261500  0.978300  1.0  -0.5311
  O  O111  1  0.183000  0.173800  0.953300  1.0  -0.5651
  O  O112  1  0.927500  0.091200  0.988800  1.0  -0.558
  O  O113  1  0.874100  0.990500  0.073900  1.0  -0.5709
  O  O114  1  0.413600  0.415600  0.023500  1.0  -0.5824
  O  O115  1  0.371300  0.537900  0.058700  1.0  -0.6045
  O  O116  1  0.631000  0.305100  0.064300  1.0  -0.8187
