# generated using pymatgen
data_Eu(CO2)4
_symmetry_space_group_name_H-M   'P 1'
_cell_length_a   9.80290000
_cell_length_b   17.50590000
_cell_length_c   14.63240000
_cell_angle_alpha   90.00000000
_cell_angle_beta   97.12080000
_cell_angle_gamma   90.00000000
_symmetry_Int_Tables_number   1
_chemical_formula_structural   Eu(CO2)4
_chemical_formula_sum   'Eu8 C32 O64'
_cell_volume   2491.67780028
_cell_formula_units_Z   8
loop_
 _symmetry_equiv_pos_site_id
 _symmetry_equiv_pos_as_xyz
  1  'x, y, z'
loop_
 _atom_site_type_symbol
 _atom_site_label
 _atom_site_symmetry_multiplicity
 _atom_site_fract_x
 _atom_site_fract_y
 _atom_site_fract_z
 _atom_site_occupancy
 _atom_site_charge
  Eu  Eu1  1  0.494770  0.121620  0.158290  1.0  2.1041
  Eu  Eu2  1  0.519360  0.836880  0.412410  1.0  2.0722
  Eu  Eu3  1  0.005230  0.621620  0.341710  1.0  2.104
  Eu  Eu4  1  0.980640  0.336880  0.087590  1.0  2.0723
  Eu  Eu5  1  0.505230  0.878380  0.841710  1.0  2.1038
  Eu  Eu6  1  0.480640  0.163120  0.587590  1.0  2.0721
  Eu  Eu7  1  0.994770  0.378380  0.658290  1.0  2.1039
  Eu  Eu8  1  0.019360  0.663120  0.912410  1.0  2.0722
  C  C9  1  0.416600  0.980900  0.283100  1.0  0.6281
  C  C10  1  0.548500  0.952200  0.245200  1.0  0.5657
  C  C11  1  0.238900  0.234700  0.177200  1.0  0.5725
  C  C12  1  0.233200  0.222800  0.072400  1.0  0.5658
  C  C13  1  0.557300  0.024000  0.981400  1.0  0.5706
  C  C14  1  0.437200  0.986500  0.523400  1.0  0.6223
  C  C15  1  0.686500  0.263500  0.116100  1.0  0.5638
  C  C16  1  0.789600  0.195500  0.131900  1.0  0.6167
  C  C17  1  0.083400  0.480900  0.216900  1.0  0.6271
  C  C18  1  0.951500  0.452200  0.254800  1.0  0.5666
  C  C19  1  0.261100  0.734700  0.322800  1.0  0.5714
  C  C20  1  0.266800  0.722800  0.427600  1.0  0.5671
  C  C21  1  0.942700  0.524000  0.518600  1.0  0.5715
  C  C22  1  0.062800  0.486500  0.976600  1.0  0.6228
  C  C23  1  0.813500  0.763500  0.383900  1.0  0.5638
  C  C24  1  0.710400  0.695500  0.368100  1.0  0.617
  C  C25  1  0.583400  0.019100  0.716900  1.0  0.6273
  C  C26  1  0.451500  0.047800  0.754800  1.0  0.5667
  C  C27  1  0.761100  0.765300  0.822800  1.0  0.5714
  C  C28  1  0.766800  0.777200  0.927600  1.0  0.5671
  C  C29  1  0.442700  0.976000  0.018600  1.0  0.5713
  C  C30  1  0.562800  0.013500  0.476600  1.0  0.6224
  C  C31  1  0.313500  0.736500  0.883900  1.0  0.5649
  C  C32  1  0.210400  0.804500  0.868100  1.0  0.6169
  C  C33  1  0.916600  0.519100  0.783100  1.0  0.6279
  C  C34  1  0.048500  0.547800  0.745200  1.0  0.5671
  C  C35  1  0.738900  0.265300  0.677200  1.0  0.5726
  C  C36  1  0.733200  0.277200  0.572400  1.0  0.5658
  C  C37  1  0.057300  0.476000  0.481400  1.0  0.5705
  C  C38  1  0.937200  0.513500  0.023400  1.0  0.6223
  C  C39  1  0.186500  0.236500  0.616100  1.0  0.5645
  C  C40  1  0.289600  0.304500  0.631900  1.0  0.6164
  O  O41  1  0.580000  0.883600  0.262400  1.0  -0.5606
  O  O42  1  0.610500  0.999500  0.201100  1.0  -0.5688
  O  O43  1  0.374500  0.046200  0.261000  1.0  -0.5706
  O  O44  1  0.362800  0.936400  0.335500  1.0  -0.5423
  O  O45  1  0.743900  0.134900  0.159200  1.0  -0.5665
  O  O46  1  0.315000  0.174000  0.046300  1.0  -0.5388
  O  O47  1  0.329500  0.199000  0.226700  1.0  -0.5732
  O  O48  1  0.571500  0.091000  0.009500  1.0  -0.552
  O  O49  1  0.414200  0.916400  0.524000  1.0  -0.5771
  O  O50  1  0.626500  0.990800  0.926900  1.0  -0.5588
  O  O51  1  0.735300  0.325700  0.094000  1.0  -0.5531
  O  O52  1  0.151100  0.279900  0.203200  1.0  -0.5286
  O  O53  1  0.149000  0.263000  0.021600  1.0  -0.5686
  O  O54  1  0.910500  0.208200  0.116800  1.0  -0.5454
  O  O55  1  0.564500  0.249800  0.127400  1.0  -0.5282
  O  O56  1  0.369900  0.037000  0.558200  1.0  -0.5512
  O  O57  1  0.920000  0.383600  0.237600  1.0  -0.5597
  O  O58  1  0.889500  0.499500  0.298900  1.0  -0.5674
  O  O59  1  0.125500  0.546200  0.239000  1.0  -0.5689
  O  O60  1  0.137200  0.436400  0.164500  1.0  -0.5427
  O  O61  1  0.756100  0.634900  0.340800  1.0  -0.5638
  O  O62  1  0.185000  0.674000  0.453700  1.0  -0.538
  O  O63  1  0.170500  0.699000  0.273300  1.0  -0.5718
  O  O64  1  0.928500  0.591000  0.490500  1.0  -0.5511
  O  O65  1  0.085800  0.416400  0.976000  1.0  -0.5782
  O  O66  1  0.873500  0.490800  0.573100  1.0  -0.5601
  O  O67  1  0.764700  0.825700  0.406000  1.0  -0.5528
  O  O68  1  0.348900  0.779900  0.296800  1.0  -0.5323
  O  O69  1  0.351000  0.763000  0.478400  1.0  -0.566
  O  O70  1  0.589500  0.708200  0.383200  1.0  -0.5448
  O  O71  1  0.935500  0.749800  0.372600  1.0  -0.5293
  O  O72  1  0.130100  0.537000  0.941800  1.0  -0.553
  O  O73  1  0.420000  0.116400  0.737600  1.0  -0.5573
  O  O74  1  0.389500  0.000500  0.798900  1.0  -0.567
  O  O75  1  0.625500  0.953800  0.739000  1.0  -0.5712
  O  O76  1  0.637200  0.063600  0.664500  1.0  -0.5424
  O  O77  1  0.256100  0.865100  0.840800  1.0  -0.5644
  O  O78  1  0.685000  0.826000  0.953700  1.0  -0.5379
  O  O79  1  0.670500  0.801000  0.773300  1.0  -0.572
  O  O80  1  0.428500  0.909000  0.990500  1.0  -0.5525
  O  O81  1  0.585800  0.083600  0.476000  1.0  -0.5771
  O  O82  1  0.373500  0.009200  0.073100  1.0  -0.5603
  O  O83  1  0.264700  0.674300  0.906000  1.0  -0.5531
  O  O84  1  0.848900  0.720100  0.796800  1.0  -0.5319
  O  O85  1  0.851000  0.737000  0.978400  1.0  -0.5667
  O  O86  1  0.089500  0.791800  0.883200  1.0  -0.5449
  O  O87  1  0.435500  0.750200  0.872600  1.0  -0.5301
  O  O88  1  0.630100  0.963000  0.441800  1.0  -0.5534
  O  O89  1  0.080000  0.616400  0.762400  1.0  -0.558
  O  O90  1  0.110500  0.500500  0.701100  1.0  -0.5691
  O  O91  1  0.874500  0.453800  0.761000  1.0  -0.5704
  O  O92  1  0.862800  0.563600  0.835500  1.0  -0.5424
  O  O93  1  0.243900  0.365100  0.659200  1.0  -0.5658
  O  O94  1  0.815000  0.326000  0.546300  1.0  -0.5387
  O  O95  1  0.829500  0.301000  0.726700  1.0  -0.5737
  O  O96  1  0.071500  0.409000  0.509500  1.0  -0.5537
  O  O97  1  0.914200  0.583600  0.024000  1.0  -0.5773
  O  O98  1  0.126500  0.509200  0.426900  1.0  -0.5593
  O  O99  1  0.235300  0.174300  0.594000  1.0  -0.5521
  O  O100  1  0.651100  0.220100  0.703200  1.0  -0.5308
  O  O101  1  0.649000  0.237000  0.521600  1.0  -0.5692
  O  O102  1  0.410500  0.291800  0.616800  1.0  -0.5459
  O  O103  1  0.064500  0.250200  0.627400  1.0  -0.5293
  O  O104  1  0.869900  0.463000  0.058200  1.0  -0.5508
