# generated using pymatgen
data_Zn10H48Ru4C106(N8O13)3
_symmetry_space_group_name_H-M   'P 1'
_cell_length_a   16.48350000
_cell_length_b   21.12930000
_cell_length_c   24.96900000
_cell_angle_alpha   92.76000000
_cell_angle_beta   90.00000000
_cell_angle_gamma   90.00000000
_symmetry_Int_Tables_number   1
_chemical_formula_structural   Zn10H48Ru4C106(N8O13)3
_chemical_formula_sum   'Zn20 H96 Ru8 C212 N48 O78'
_cell_volume   8686.23582741
_cell_formula_units_Z   2
loop_
 _symmetry_equiv_pos_site_id
 _symmetry_equiv_pos_as_xyz
  1  'x, y, z'
loop_
 _atom_site_type_symbol
 _atom_site_label
 _atom_site_symmetry_multiplicity
 _atom_site_fract_x
 _atom_site_fract_y
 _atom_site_fract_z
 _atom_site_occupancy
 _atom_site_charge
  Zn  Zn1  1  0.012800  0.339300  0.307410  1.0  1.0768
  Zn  Zn2  1  0.458500  0.337160  0.245520  1.0  1.0808
  Zn  Zn3  1  0.071290  0.658630  0.813540  1.0  1.0972
  Zn  Zn4  1  0.019840  0.349140  0.004070  1.0  0.996
  Zn  Zn5  1  0.466560  0.843130  0.010230  1.0  0.9948
  Zn  Zn6  1  0.012800  0.160700  0.192590  1.0  1.0754
  Zn  Zn7  1  0.458500  0.162840  0.254480  1.0  1.0813
  Zn  Zn8  1  0.071290  0.841370  0.686460  1.0  1.098
  Zn  Zn9  1  0.019840  0.150860  0.495930  1.0  0.9961
  Zn  Zn10  1  0.466560  0.656870  0.489770  1.0  0.9951
  Zn  Zn11  1  0.987200  0.660700  0.692590  1.0  1.077
  Zn  Zn12  1  0.541500  0.662840  0.754480  1.0  1.0817
  Zn  Zn13  1  0.928710  0.341370  0.186460  1.0  1.0989
  Zn  Zn14  1  0.980160  0.650860  0.995930  1.0  0.9956
  Zn  Zn15  1  0.533440  0.156870  0.989770  1.0  0.9952
  Zn  Zn16  1  0.987200  0.839300  0.807410  1.0  1.0778
  Zn  Zn17  1  0.541500  0.837160  0.745520  1.0  1.081
  Zn  Zn18  1  0.928710  0.158630  0.313540  1.0  1.0979
  Zn  Zn19  1  0.980160  0.849140  0.504070  1.0  0.9955
  Zn  Zn20  1  0.533440  0.343130  0.510230  1.0  0.9952
  H  H21  1  0.861700  0.516700  0.638400  1.0  0.114
  H  H22  1  0.771900  0.578100  0.690900  1.0  0.1091
  H  H23  1  0.633100  0.604000  0.560700  1.0  0.1154
  H  H24  1  0.937800  0.461000  0.584100  1.0  0.1268
  H  H25  1  0.017400  0.405600  0.520500  1.0  0.099
  H  H26  1  0.855300  0.444400  0.405500  1.0  0.1178
  H  H27  1  0.829100  0.646900  0.315500  1.0  0.1253
  H  H28  1  0.896700  0.725200  0.367100  1.0  0.1155
  H  H29  1  0.817600  0.647400  0.502000  1.0  0.1115
  H  H30  1  0.742200  0.583400  0.275500  1.0  0.126
  H  H31  1  0.661500  0.503800  0.235800  1.0  0.1095
  H  H32  1  0.634000  0.426500  0.379300  1.0  0.1121
  H  H33  1  0.229300  0.596600  0.240200  1.0  0.1246
  H  H34  1  0.142300  0.521200  0.273700  1.0  0.1087
  H  H35  1  0.118600  0.439200  0.125200  1.0  0.1151
  H  H36  1  0.304500  0.667800  0.202400  1.0  0.1246
  H  H37  1  0.378600  0.740000  0.154500  1.0  0.1124
  H  H38  1  0.335000  0.636400  0.017500  1.0  0.1059
  H  H39  1  0.473200  0.425600  0.964600  1.0  0.1226
  H  H40  1  0.517300  0.367300  0.035900  1.0  0.0995
  H  H41  1  0.329300  0.434200  0.125400  1.0  0.1101
  H  H42  1  0.435400  0.491800  0.905900  1.0  0.126
  H  H43  1  0.372300  0.550100  0.840800  1.0  0.1035
  H  H44  1  0.182000  0.582700  0.940000  1.0  0.1193
  H  H45  1  0.861700  0.983300  0.861600  1.0  0.1128
  H  H46  1  0.771900  0.921900  0.809100  1.0  0.109
  H  H47  1  0.633100  0.896000  0.939300  1.0  0.1151
  H  H48  1  0.937800  0.039000  0.915900  1.0  0.1263
  H  H49  1  0.017400  0.094400  0.979500  1.0  0.0986
  H  H50  1  0.855300  0.055600  0.094500  1.0  0.1182
  H  H51  1  0.829100  0.853100  0.184500  1.0  0.1258
  H  H52  1  0.896700  0.774800  0.132900  1.0  0.1157
  H  H53  1  0.817600  0.852600  0.998000  1.0  0.1103
  H  H54  1  0.742200  0.916600  0.224500  1.0  0.1257
  H  H55  1  0.661500  0.996200  0.264200  1.0  0.11
  H  H56  1  0.634000  0.073500  0.120700  1.0  0.1123
  H  H57  1  0.229300  0.903400  0.259800  1.0  0.1244
  H  H58  1  0.142300  0.978800  0.226300  1.0  0.1082
  H  H59  1  0.118600  0.060800  0.374800  1.0  0.1149
  H  H60  1  0.304500  0.832200  0.297600  1.0  0.1249
  H  H61  1  0.378600  0.760000  0.345500  1.0  0.1127
  H  H62  1  0.335000  0.863600  0.482500  1.0  0.1069
  H  H63  1  0.473200  0.074400  0.535400  1.0  0.1221
  H  H64  1  0.517300  0.132700  0.464100  1.0  0.0993
  H  H65  1  0.329300  0.065800  0.374600  1.0  0.1099
  H  H66  1  0.435400  0.008200  0.594100  1.0  0.1261
  H  H67  1  0.372300  0.949900  0.659200  1.0  0.1037
  H  H68  1  0.182000  0.917300  0.560000  1.0  0.1196
  H  H69  1  0.138300  0.483300  0.361600  1.0  0.1131
  H  H70  1  0.228100  0.421900  0.309100  1.0  0.1091
  H  H71  1  0.366900  0.396000  0.439300  1.0  0.1145
  H  H72  1  0.062200  0.539000  0.415900  1.0  0.1261
  H  H73  1  0.982600  0.594400  0.479500  1.0  0.0991
  H  H74  1  0.144700  0.555600  0.594500  1.0  0.118
  H  H75  1  0.170900  0.353100  0.684500  1.0  0.1257
  H  H76  1  0.103300  0.274800  0.632900  1.0  0.1154
  H  H77  1  0.182400  0.352600  0.498000  1.0  0.1101
  H  H78  1  0.257800  0.416600  0.724500  1.0  0.1247
  H  H79  1  0.338500  0.496200  0.764200  1.0  0.1094
  H  H80  1  0.366000  0.573500  0.620700  1.0  0.1122
  H  H81  1  0.770700  0.403400  0.759800  1.0  0.1243
  H  H82  1  0.857700  0.478800  0.726300  1.0  0.1085
  H  H83  1  0.881400  0.560800  0.874800  1.0  0.1146
  H  H84  1  0.695500  0.332200  0.797600  1.0  0.1245
  H  H85  1  0.621400  0.260000  0.845500  1.0  0.1122
  H  H86  1  0.665000  0.363600  0.982500  1.0  0.1065
  H  H87  1  0.526800  0.574400  0.035400  1.0  0.1221
  H  H88  1  0.482700  0.632700  0.964100  1.0  0.1
  H  H89  1  0.670700  0.565800  0.874600  1.0  0.1102
  H  H90  1  0.564600  0.508200  0.094100  1.0  0.126
  H  H91  1  0.627700  0.449900  0.159200  1.0  0.1037
  H  H92  1  0.818000  0.417300  0.060000  1.0  0.12
  H  H93  1  0.138300  0.016700  0.138400  1.0  0.1138
  H  H94  1  0.228100  0.078100  0.190900  1.0  0.1089
  H  H95  1  0.366900  0.104000  0.060700  1.0  0.115
  H  H96  1  0.062200  0.961000  0.084100  1.0  0.1265
  H  H97  1  0.982600  0.905600  0.020500  1.0  0.0992
  H  H98  1  0.144700  0.944400  0.905500  1.0  0.1183
  H  H99  1  0.170900  0.146900  0.815500  1.0  0.1258
  H  H100  1  0.103300  0.225200  0.867100  1.0  0.1153
  H  H101  1  0.182400  0.147400  0.002000  1.0  0.1111
  H  H102  1  0.257800  0.083400  0.775500  1.0  0.1257
  H  H103  1  0.338500  0.003800  0.735800  1.0  0.1091
  H  H104  1  0.366000  0.926500  0.879300  1.0  0.1119
  H  H105  1  0.770700  0.096600  0.740200  1.0  0.1244
  H  H106  1  0.857700  0.021200  0.773700  1.0  0.109
  H  H107  1  0.881400  0.939200  0.625200  1.0  0.1149
  H  H108  1  0.695500  0.167800  0.702400  1.0  0.1245
  H  H109  1  0.621400  0.240000  0.654500  1.0  0.1122
  H  H110  1  0.665000  0.136400  0.517500  1.0  0.1058
  H  H111  1  0.526800  0.925600  0.464600  1.0  0.1223
  H  H112  1  0.482700  0.867300  0.535900  1.0  0.0998
  H  H113  1  0.670700  0.934200  0.625400  1.0  0.1105
  H  H114  1  0.564600  0.991800  0.405900  1.0  0.1265
  H  H115  1  0.627700  0.050100  0.340800  1.0  0.1033
  H  H116  1  0.818000  0.082700  0.440000  1.0  0.1197
  Ru  Ru117  1  0.224180  0.521310  0.048510  1.0  0.8584
  Ru  Ru118  1  0.713160  0.525610  0.464090  1.0  0.4255
  Ru  Ru119  1  0.224180  0.978690  0.451490  1.0  0.8581
  Ru  Ru120  1  0.713160  0.974390  0.035910  1.0  0.425
  Ru  Ru121  1  0.775820  0.478690  0.951490  1.0  0.8547
  Ru  Ru122  1  0.286840  0.474390  0.535910  1.0  0.424
  Ru  Ru123  1  0.775820  0.021310  0.548510  1.0  0.8552
  Ru  Ru124  1  0.286840  0.025610  0.964090  1.0  0.4245
  C  C125  1  0.589600  0.403800  0.284200  1.0  0.5999
  C  C126  1  0.630900  0.633800  0.662200  1.0  0.7436
  C  C127  1  0.896500  0.745100  0.475800  1.0  0.6947
  C  C128  1  0.402000  0.744700  0.048100  1.0  0.6778
  C  C129  1  0.800900  0.523700  0.568200  1.0  0.1887
  C  C130  1  0.815600  0.534300  0.622700  1.0  -0.1209
  C  C131  1  0.762000  0.570900  0.654100  1.0  -0.0512
  C  C132  1  0.693800  0.597000  0.630900  1.0  -0.2254
  C  C133  1  0.679200  0.586400  0.576400  1.0  0.171
  C  C134  1  0.849100  0.485800  0.532700  1.0  0.2101
  C  C135  1  0.921200  0.457700  0.548100  1.0  -0.1187
  C  C136  1  0.968600  0.424600  0.510200  1.0  -0.0197
  C  C137  1  0.944000  0.419700  0.456900  1.0  -0.197
  C  C138  1  0.871900  0.447800  0.441500  1.0  0.1119
  C  C139  1  0.783000  0.600500  0.378000  1.0  0.1995
  C  C140  1  0.826800  0.647000  0.353200  1.0  -0.1325
  C  C141  1  0.867100  0.693700  0.383900  1.0  -0.0602
  C  C142  1  0.863700  0.693800  0.439600  1.0  -0.1926
  C  C143  1  0.819900  0.647300  0.464400  1.0  0.1019
  C  C144  1  0.736300  0.552500  0.351200  1.0  0.2131
  C  C145  1  0.720400  0.551700  0.296500  1.0  -0.129
  C  C146  1  0.672200  0.504200  0.272700  1.0  -0.0921
  C  C147  1  0.639900  0.457500  0.303700  1.0  -0.1317
  C  C148  1  0.655800  0.458200  0.358400  1.0  0.1257
  C  C149  1  0.225900  0.562900  0.162700  1.0  0.2022
  C  C150  1  0.207000  0.564900  0.217000  1.0  -0.1279
  C  C151  1  0.155100  0.519800  0.237000  1.0  -0.0448
  C  C152  1  0.122000  0.472900  0.202700  1.0  -0.2103
  C  C153  1  0.140900  0.471000  0.148400  1.0  0.1571
  C  C154  1  0.275500  0.609000  0.138500  1.0  0.1696
  C  C155  1  0.310600  0.661500  0.165100  1.0  -0.1262
  C  C156  1  0.354800  0.704600  0.136500  1.0  -0.0575
  C  C157  1  0.364000  0.695200  0.081400  1.0  -0.2065
  C  C158  1  0.328900  0.642800  0.054800  1.0  0.1347
  C  C159  1  0.374900  0.464600  0.002400  1.0  0.2108
  C  C160  1  0.444200  0.427300  0.997000  1.0  -0.156
  C  C161  1  0.470500  0.392600  0.039600  1.0  -0.0177
  C  C162  1  0.427600  0.395100  0.087600  1.0  -0.1575
  C  C163  1  0.358300  0.432400  0.093000  1.0  0.1519
  C  C164  1  0.346400  0.502500  0.961800  1.0  0.1911
  C  C165  1  0.384300  0.510100  0.912800  1.0  -0.1409
  C  C166  1  0.346600  0.544900  0.874000  1.0  -0.0979
  C  C167  1  0.271000  0.572000  0.884100  1.0  -0.1923
  C  C168  1  0.233100  0.564400  0.933100  1.0  0.1402
  C  C169  1  0.131200  0.575400  0.036700  1.0  0.0892
  C  C170  1  0.995400  0.388900  0.414800  1.0  0.6731
  C  C171  1  0.612400  0.924300  0.039900  1.0  0.1505
  C  C172  1  0.157400  0.450100  0.023500  1.0  -0.0304
  C  C173  1  0.023700  0.727400  0.907300  1.0  0.3948
  C  C174  1  0.349400  0.951200  0.984400  1.0  0.1248
  C  C175  1  0.064900  0.424000  0.222000  1.0  0.7302
  C  C176  1  0.454400  0.357900  0.134400  1.0  0.7205
  C  C177  1  0.226400  0.606600  0.844200  1.0  0.6801
  C  C178  1  0.589600  0.096200  0.215800  1.0  0.5999
  C  C179  1  0.630900  0.866200  0.837800  1.0  0.7445
  C  C180  1  0.896500  0.754900  0.024200  1.0  0.6937
  C  C181  1  0.402000  0.755300  0.451900  1.0  0.6773
  C  C182  1  0.800900  0.976300  0.931800  1.0  0.1906
  C  C183  1  0.815600  0.965700  0.877300  1.0  -0.121
  C  C184  1  0.762000  0.929100  0.845900  1.0  -0.0501
  C  C185  1  0.693800  0.903000  0.869100  1.0  -0.2291
  C  C186  1  0.679200  0.913600  0.923600  1.0  0.1712
  C  C187  1  0.849100  0.014200  0.967300  1.0  0.2106
  C  C188  1  0.921200  0.042300  0.951900  1.0  -0.118
  C  C189  1  0.968600  0.075400  0.989800  1.0  -0.0174
  C  C190  1  0.944000  0.080300  0.043100  1.0  -0.1952
  C  C191  1  0.871900  0.052200  0.058500  1.0  0.1108
  C  C192  1  0.783000  0.899500  0.122000  1.0  0.1986
  C  C193  1  0.826800  0.853000  0.146800  1.0  -0.1332
  C  C194  1  0.867100  0.806300  0.116100  1.0  -0.0575
  C  C195  1  0.863700  0.806200  0.060400  1.0  -0.1921
  C  C196  1  0.819900  0.852700  0.035600  1.0  0.104
  C  C197  1  0.736300  0.947500  0.148800  1.0  0.2134
  C  C198  1  0.720400  0.948300  0.203500  1.0  -0.1273
  C  C199  1  0.672200  0.995800  0.227300  1.0  -0.0927
  C  C200  1  0.639900  0.042500  0.196300  1.0  -0.1312
  C  C201  1  0.655800  0.041800  0.141600  1.0  0.1249
  C  C202  1  0.225900  0.937100  0.337300  1.0  0.2027
  C  C203  1  0.207000  0.935100  0.283000  1.0  -0.1302
  C  C204  1  0.155100  0.980200  0.263000  1.0  -0.045
  C  C205  1  0.122000  0.027100  0.297300  1.0  -0.2101
  C  C206  1  0.140900  0.029000  0.351600  1.0  0.156
  C  C207  1  0.275500  0.891000  0.361500  1.0  0.1691
  C  C208  1  0.310600  0.838500  0.334900  1.0  -0.126
  C  C209  1  0.354800  0.795400  0.363500  1.0  -0.0581
  C  C210  1  0.364000  0.804800  0.418600  1.0  -0.2052
  C  C211  1  0.328900  0.857200  0.445200  1.0  0.1348
  C  C212  1  0.374900  0.035400  0.497600  1.0  0.211
  C  C213  1  0.444200  0.072700  0.503000  1.0  -0.155
  C  C214  1  0.470500  0.107400  0.460400  1.0  -0.017
  C  C215  1  0.427600  0.104900  0.412400  1.0  -0.1574
  C  C216  1  0.358300  0.067600  0.407000  1.0  0.151
  C  C217  1  0.346400  0.997500  0.538200  1.0  0.1923
  C  C218  1  0.384300  0.989900  0.587200  1.0  -0.1416
  C  C219  1  0.346600  0.955100  0.626000  1.0  -0.0987
  C  C220  1  0.271000  0.928000  0.615900  1.0  -0.1921
  C  C221  1  0.233100  0.935600  0.566900  1.0  0.141
  C  C222  1  0.131200  0.924600  0.463300  1.0  0.0896
  C  C223  1  0.995400  0.111100  0.085200  1.0  0.6738
  C  C224  1  0.612400  0.575700  0.460100  1.0  0.1533
  C  C225  1  0.157400  0.049900  0.476500  1.0  -0.0281
  C  C226  1  0.023700  0.772600  0.592700  1.0  0.3924
  C  C227  1  0.349400  0.548800  0.515600  1.0  0.1258
  C  C228  1  0.064900  0.076000  0.278000  1.0  0.7301
  C  C229  1  0.454400  0.142100  0.365600  1.0  0.7202
  C  C230  1  0.226400  0.893400  0.655800  1.0  0.681
  C  C231  1  0.410400  0.596200  0.715800  1.0  0.5987
  C  C232  1  0.369100  0.366200  0.337800  1.0  0.7438
  C  C233  1  0.103500  0.254900  0.524200  1.0  0.6942
  C  C234  1  0.598000  0.255300  0.951900  1.0  0.6777
  C  C235  1  0.199100  0.476300  0.431800  1.0  0.1901
  C  C236  1  0.184400  0.465700  0.377300  1.0  -0.1203
  C  C237  1  0.238000  0.429100  0.345900  1.0  -0.0513
  C  C238  1  0.306200  0.403000  0.369100  1.0  -0.2288
  C  C239  1  0.320800  0.413600  0.423600  1.0  0.172
  C  C240  1  0.150900  0.514200  0.467300  1.0  0.2097
  C  C241  1  0.078800  0.542300  0.451900  1.0  -0.1173
  C  C242  1  0.031400  0.575400  0.489800  1.0  -0.0179
  C  C243  1  0.056000  0.580300  0.543100  1.0  -0.1948
  C  C244  1  0.128100  0.552200  0.558500  1.0  0.1117
  C  C245  1  0.217000  0.399500  0.622000  1.0  0.1986
  C  C246  1  0.173200  0.353000  0.646800  1.0  -0.1331
  C  C247  1  0.132900  0.306300  0.616100  1.0  -0.0575
  C  C248  1  0.136300  0.306200  0.560400  1.0  -0.1926
  C  C249  1  0.180100  0.352700  0.535600  1.0  0.1037
  C  C250  1  0.263700  0.447500  0.648800  1.0  0.2137
  C  C251  1  0.279600  0.448300  0.703500  1.0  -0.1274
  C  C252  1  0.327800  0.495800  0.727300  1.0  -0.092
  C  C253  1  0.360100  0.542500  0.696300  1.0  -0.1313
  C  C254  1  0.344200  0.541800  0.641600  1.0  0.1256
  C  C255  1  0.774100  0.437100  0.837300  1.0  0.2027
  C  C256  1  0.793000  0.435100  0.783000  1.0  -0.1303
  C  C257  1  0.844900  0.480200  0.763000  1.0  -0.0446
  C  C258  1  0.878000  0.527100  0.797300  1.0  -0.2095
  C  C259  1  0.859100  0.529000  0.851600  1.0  0.1578
  C  C260  1  0.724500  0.391000  0.861500  1.0  0.1692
  C  C261  1  0.689400  0.338500  0.834900  1.0  -0.1262
  C  C262  1  0.645200  0.295400  0.863500  1.0  -0.0574
  C  C263  1  0.636000  0.304800  0.918600  1.0  -0.2043
  C  C264  1  0.671100  0.357200  0.945200  1.0  0.1337
  C  C265  1  0.625100  0.535400  0.997600  1.0  0.2102
  C  C266  1  0.555800  0.572700  0.003000  1.0  -0.1554
  C  C267  1  0.529500  0.607400  0.960400  1.0  -0.0179
  C  C268  1  0.572400  0.604900  0.912400  1.0  -0.1573
  C  C269  1  0.641700  0.567600  0.907000  1.0  0.1517
  C  C270  1  0.653600  0.497500  0.038200  1.0  0.1929
  C  C271  1  0.615700  0.489900  0.087200  1.0  -0.1421
  C  C272  1  0.653400  0.455100  0.126000  1.0  -0.0994
  C  C273  1  0.729000  0.428000  0.115900  1.0  -0.1924
  C  C274  1  0.766900  0.435600  0.066900  1.0  0.1411
  C  C275  1  0.868800  0.424600  0.963300  1.0  0.0901
  C  C276  1  0.004600  0.611100  0.585200  1.0  0.6747
  C  C277  1  0.387600  0.075700  0.960100  1.0  0.1543
  C  C278  1  0.842600  0.549900  0.976500  1.0  -0.0272
  C  C279  1  0.976300  0.272600  0.092700  1.0  0.3924
  C  C280  1  0.650600  0.048800  0.015600  1.0  0.1253
  C  C281  1  0.935100  0.576000  0.778000  1.0  0.7295
  C  C282  1  0.545600  0.642100  0.865600  1.0  0.7215
  C  C283  1  0.773600  0.393400  0.155800  1.0  0.6805
  C  C284  1  0.410400  0.903800  0.784200  1.0  0.5981
  C  C285  1  0.369100  0.133800  0.162200  1.0  0.744
  C  C286  1  0.103500  0.245100  0.975800  1.0  0.6951
  C  C287  1  0.598000  0.244700  0.548100  1.0  0.6779
  C  C288  1  0.199100  0.023700  0.068200  1.0  0.1889
  C  C289  1  0.184400  0.034300  0.122700  1.0  -0.1198
  C  C290  1  0.238000  0.070900  0.154100  1.0  -0.0524
  C  C291  1  0.306200  0.097000  0.130900  1.0  -0.2266
  C  C292  1  0.320800  0.086400  0.076400  1.0  0.1723
  C  C293  1  0.150900  0.985800  0.032700  1.0  0.209
  C  C294  1  0.078800  0.957700  0.048100  1.0  -0.1184
  C  C295  1  0.031400  0.924600  0.010200  1.0  -0.0181
  C  C296  1  0.056000  0.919700  0.956900  1.0  -0.1966
  C  C297  1  0.128100  0.947800  0.941500  1.0  0.1115
  C  C298  1  0.217000  0.100500  0.878000  1.0  0.1994
  C  C299  1  0.173200  0.147000  0.853200  1.0  -0.1314
  C  C300  1  0.132900  0.193700  0.883900  1.0  -0.0595
  C  C301  1  0.136300  0.193800  0.939600  1.0  -0.1931
  C  C302  1  0.180100  0.147300  0.964400  1.0  0.1014
  C  C303  1  0.263700  0.052500  0.851200  1.0  0.214
  C  C304  1  0.279600  0.051700  0.796500  1.0  -0.1278
  C  C305  1  0.327800  0.004200  0.772700  1.0  -0.0915
  C  C306  1  0.360100  0.957500  0.803700  1.0  -0.1309
  C  C307  1  0.344200  0.958200  0.858400  1.0  0.1271
  C  C308  1  0.774100  0.062900  0.662700  1.0  0.202
  C  C309  1  0.793000  0.064900  0.717000  1.0  -0.1282
  C  C310  1  0.844900  0.019800  0.737000  1.0  -0.0445
  C  C311  1  0.878000  0.972900  0.702700  1.0  -0.2095
  C  C312  1  0.859100  0.971000  0.648400  1.0  0.1585
  C  C313  1  0.724500  0.109000  0.638500  1.0  0.1699
  C  C314  1  0.689400  0.161500  0.665100  1.0  -0.1265
  C  C315  1  0.645200  0.204600  0.636500  1.0  -0.0586
  C  C316  1  0.636000  0.195200  0.581400  1.0  -0.2056
  C  C317  1  0.671100  0.142800  0.554800  1.0  0.134
  C  C318  1  0.625100  0.964600  0.502400  1.0  0.2102
  C  C319  1  0.555800  0.927300  0.497000  1.0  -0.1564
  C  C320  1  0.529500  0.892600  0.539600  1.0  -0.0177
  C  C321  1  0.572400  0.895100  0.587600  1.0  -0.1581
  C  C322  1  0.641700  0.932400  0.593000  1.0  0.1526
  C  C323  1  0.653600  0.002500  0.461800  1.0  0.1913
  C  C324  1  0.615700  0.010100  0.412800  1.0  -0.1414
  C  C325  1  0.653400  0.044900  0.374000  1.0  -0.0982
  C  C326  1  0.729000  0.072000  0.384100  1.0  -0.193
  C  C327  1  0.766900  0.064400  0.433100  1.0  0.1401
  C  C328  1  0.868800  0.075400  0.536700  1.0  0.0882
  C  C329  1  0.004600  0.888900  0.914800  1.0  0.6741
  C  C330  1  0.387600  0.424300  0.539900  1.0  0.1552
  C  C331  1  0.842600  0.950100  0.523500  1.0  -0.0293
  C  C332  1  0.976300  0.227400  0.407300  1.0  0.3947
  C  C333  1  0.650600  0.451200  0.484400  1.0  0.1231
  C  C334  1  0.935100  0.924000  0.722000  1.0  0.7301
  C  C335  1  0.545600  0.857900  0.634400  1.0  0.7209
  C  C336  1  0.773600  0.106600  0.344200  1.0  0.6789
  N  N337  1  0.382900  0.904900  0.994000  1.0  -0.3922
  N  N338  1  0.112300  0.408000  0.013300  1.0  -0.3929
  N  N339  1  0.732700  0.549700  0.545000  1.0  -0.3423
  N  N340  1  0.824500  0.480800  0.479500  1.0  -0.3408
  N  N341  1  0.779500  0.600600  0.433600  1.0  -0.3117
  N  N342  1  0.704000  0.505700  0.382100  1.0  -0.325
  N  N343  1  0.192900  0.516000  0.128400  1.0  -0.3508
  N  N344  1  0.284700  0.599700  0.083400  1.0  -0.3136
  N  N345  1  0.332000  0.467200  0.050400  1.0  -0.3451
  N  N346  1  0.270700  0.529600  0.971900  1.0  -0.3385
  N  N347  1  0.074300  0.606600  0.026900  1.0  -0.4041
  N  N348  1  0.557800  0.892700  0.040400  1.0  -0.369
  N  N349  1  0.382900  0.595100  0.506000  1.0  -0.3952
  N  N350  1  0.112300  0.092000  0.486700  1.0  -0.3936
  N  N351  1  0.732700  0.950300  0.955000  1.0  -0.3398
  N  N352  1  0.824500  0.019200  0.020500  1.0  -0.3404
  N  N353  1  0.779500  0.899400  0.066400  1.0  -0.3104
  N  N354  1  0.704000  0.994300  0.117900  1.0  -0.3262
  N  N355  1  0.192900  0.984000  0.371600  1.0  -0.3488
  N  N356  1  0.284700  0.900300  0.416600  1.0  -0.3122
  N  N357  1  0.332000  0.032800  0.449600  1.0  -0.3454
  N  N358  1  0.270700  0.970400  0.528100  1.0  -0.3402
  N  N359  1  0.074300  0.893400  0.473100  1.0  -0.4021
  N  N360  1  0.557800  0.607300  0.459600  1.0  -0.3696
  N  N361  1  0.617100  0.095100  0.006000  1.0  -0.3953
  N  N362  1  0.887700  0.592000  0.986700  1.0  -0.3934
  N  N363  1  0.267300  0.450300  0.455000  1.0  -0.3408
  N  N364  1  0.175500  0.519200  0.520500  1.0  -0.3392
  N  N365  1  0.220500  0.399400  0.566400  1.0  -0.3102
  N  N366  1  0.296000  0.494300  0.617900  1.0  -0.3253
  N  N367  1  0.807100  0.484000  0.871600  1.0  -0.3491
  N  N368  1  0.715300  0.400300  0.916600  1.0  -0.3119
  N  N369  1  0.668000  0.532800  0.949600  1.0  -0.3448
  N  N370  1  0.729300  0.470400  0.028100  1.0  -0.3385
  N  N371  1  0.925700  0.393400  0.973100  1.0  -0.4011
  N  N372  1  0.442200  0.107300  0.959600  1.0  -0.3674
  N  N373  1  0.617100  0.404900  0.494000  1.0  -0.3922
  N  N374  1  0.887700  0.908000  0.513300  1.0  -0.3922
  N  N375  1  0.267300  0.049700  0.045000  1.0  -0.343
  N  N376  1  0.175500  0.980800  0.979500  1.0  -0.3405
  N  N377  1  0.220500  0.100600  0.933600  1.0  -0.312
  N  N378  1  0.296000  0.005700  0.882100  1.0  -0.324
  N  N379  1  0.807100  0.016000  0.628400  1.0  -0.3505
  N  N380  1  0.715300  0.099700  0.583400  1.0  -0.3133
  N  N381  1  0.668000  0.967200  0.550400  1.0  -0.3448
  N  N382  1  0.729300  0.029600  0.471900  1.0  -0.3375
  N  N383  1  0.925700  0.106600  0.526900  1.0  -0.4031
  N  N384  1  0.442200  0.392700  0.540400  1.0  -0.3676
  O  O385  1  0.600800  0.350400  0.306000  1.0  -0.4818
  O  O386  1  0.543900  0.404700  0.249100  1.0  -0.529
  O  O387  1  0.638200  0.633600  0.712100  1.0  -0.5998
  O  O388  1  0.954600  0.776800  0.455500  1.0  -0.6033
  O  O389  1  0.428500  0.791900  0.073100  1.0  -0.557
  O  O390  1  0.153100  0.615200  0.849000  1.0  -0.5965
  O  O391  1  0.020500  0.398700  0.185700  1.0  -0.6077
  O  O392  1  0.042800  0.736600  0.859500  1.0  -0.5824
  O  O393  1  0.069800  0.411500  0.268200  1.0  -0.5615
  O  O394  1  0.413300  0.365500  0.176400  1.0  -0.6131
  O  O395  1  0.062300  0.370700  0.426700  1.0  -0.5017
  O  O396  1  0.869600  0.755700  0.520600  1.0  -0.4711
  O  O397  1  0.509200  0.319800  0.128400  1.0  -0.4801
  O  O398  1  0.965600  0.387800  0.367600  1.0  -0.6041
  O  O399  1  0.928000  0.312700  0.257700  1.0  -0.7241
  O  O400  1  0.022300  0.672700  0.924800  1.0  -0.5846
  O  O401  1  0.257700  0.616300  0.799300  1.0  -0.488
  O  O402  1  0.404000  0.733700  0.999800  1.0  -0.5735
  O  O403  1  0.580200  0.663800  0.639500  1.0  -0.4746
  O  O404  1  0.600800  0.149600  0.194000  1.0  -0.4832
  O  O405  1  0.543900  0.095300  0.250900  1.0  -0.529
  O  O406  1  0.638200  0.866400  0.787900  1.0  -0.6002
  O  O407  1  0.954600  0.723200  0.044500  1.0  -0.6006
  O  O408  1  0.428500  0.708100  0.426900  1.0  -0.5577
  O  O409  1  0.153100  0.884800  0.651000  1.0  -0.5959
  O  O410  1  0.020500  0.101300  0.314300  1.0  -0.6085
  O  O411  1  0.042800  0.763400  0.640500  1.0  -0.5821
  O  O412  1  0.069800  0.088500  0.231800  1.0  -0.5622
  O  O413  1  0.413300  0.134500  0.323600  1.0  -0.6125
  O  O414  1  0.062300  0.129300  0.073300  1.0  -0.5024
  O  O415  1  0.869600  0.744300  0.979400  1.0  -0.4689
  O  O416  1  0.509200  0.180200  0.371600  1.0  -0.4796
  O  O417  1  0.965600  0.112200  0.132400  1.0  -0.6055
  O  O418  1  0.928000  0.187300  0.242300  1.0  -0.7258
  O  O419  1  0.022300  0.827300  0.575200  1.0  -0.5839
  O  O420  1  0.257700  0.883700  0.700700  1.0  -0.4875
  O  O421  1  0.404000  0.766300  0.500200  1.0  -0.5729
  O  O422  1  0.580200  0.836200  0.860500  1.0  -0.4752
  O  O423  1  0.399200  0.649600  0.694000  1.0  -0.4844
  O  O424  1  0.456100  0.595300  0.750900  1.0  -0.5304
  O  O425  1  0.361800  0.366400  0.287900  1.0  -0.5996
  O  O426  1  0.045400  0.223200  0.544500  1.0  -0.6019
  O  O427  1  0.571500  0.208100  0.926900  1.0  -0.5581
  O  O428  1  0.846900  0.384800  0.151000  1.0  -0.5973
  O  O429  1  0.979500  0.601300  0.814300  1.0  -0.6068
  O  O430  1  0.957200  0.263400  0.140500  1.0  -0.5833
  O  O431  1  0.930200  0.588500  0.731800  1.0  -0.561
  O  O432  1  0.586700  0.634500  0.823600  1.0  -0.613
  O  O433  1  0.937700  0.629300  0.573300  1.0  -0.5017
  O  O434  1  0.130400  0.244300  0.479400  1.0  -0.4698
  O  O435  1  0.490800  0.680200  0.871600  1.0  -0.4809
  O  O436  1  0.034400  0.612200  0.632400  1.0  -0.604
  O  O437  1  0.072000  0.687300  0.742300  1.0  -0.725
  O  O438  1  0.977700  0.327300  0.075200  1.0  -0.585
  O  O439  1  0.742300  0.383700  0.200700  1.0  -0.487
  O  O440  1  0.596000  0.266300  0.000200  1.0  -0.5724
  O  O441  1  0.419800  0.336200  0.360500  1.0  -0.476
  O  O442  1  0.399200  0.850400  0.806000  1.0  -0.4821
  O  O443  1  0.456100  0.904700  0.749100  1.0  -0.5307
  O  O444  1  0.361800  0.133600  0.212100  1.0  -0.5996
  O  O445  1  0.045400  0.276800  0.955500  1.0  -0.6024
  O  O446  1  0.571500  0.291900  0.573100  1.0  -0.5585
  O  O447  1  0.846900  0.115200  0.349000  1.0  -0.5979
  O  O448  1  0.979500  0.898700  0.685700  1.0  -0.6063
  O  O449  1  0.957200  0.236600  0.359500  1.0  -0.5833
  O  O450  1  0.930200  0.911500  0.768200  1.0  -0.5605
  O  O451  1  0.586700  0.865500  0.676400  1.0  -0.6124
  O  O452  1  0.937700  0.870700  0.926700  1.0  -0.5012
  O  O453  1  0.130400  0.255700  0.020600  1.0  -0.4714
  O  O454  1  0.490800  0.819800  0.628400  1.0  -0.4822
  O  O455  1  0.034400  0.887800  0.867600  1.0  -0.6044
  O  O456  1  0.072000  0.812700  0.757700  1.0  -0.7234
  O  O457  1  0.977700  0.172700  0.424800  1.0  -0.5855
  O  O458  1  0.742300  0.116300  0.299300  1.0  -0.4867
  O  O459  1  0.596000  0.233700  0.499800  1.0  -0.573
  O  O460  1  0.419800  0.163800  0.139500  1.0  -0.4754
  O  O461  1  0.483600  0.250000  0.250000  1.0  -0.709
  O  O462  1  0.516400  0.750000  0.750000  1.0  -0.7089
