# generated using pymatgen
data_AgH8C11N2O
_symmetry_space_group_name_H-M   'P 1'
_cell_length_a   10.23640000
_cell_length_b   10.23640000
_cell_length_c   28.10900000
_cell_angle_alpha   90.00000000
_cell_angle_beta   90.00000000
_cell_angle_gamma   90.00000000
_symmetry_Int_Tables_number   1
_chemical_formula_structural   AgH8C11N2O
_chemical_formula_sum   'Ag8 H64 C88 N16 O8'
_cell_volume   2945.37022234
_cell_formula_units_Z   8
loop_
 _symmetry_equiv_pos_site_id
 _symmetry_equiv_pos_as_xyz
  1  'x, y, z'
loop_
 _atom_site_type_symbol
 _atom_site_label
 _atom_site_symmetry_multiplicity
 _atom_site_fract_x
 _atom_site_fract_y
 _atom_site_fract_z
 _atom_site_occupancy
 _atom_site_charge
  Ag  Ag1  1  0.803220  0.606150  0.516400  1.0  0.3122
  Ag  Ag2  1  0.196780  0.393850  0.016400  1.0  0.3079
  Ag  Ag3  1  0.893850  0.303220  0.266400  1.0  0.3125
  Ag  Ag4  1  0.106150  0.696780  0.766400  1.0  0.3113
  Ag  Ag5  1  0.696780  0.106150  0.233600  1.0  0.3113
  Ag  Ag6  1  0.303220  0.893850  0.733600  1.0  0.3108
  Ag  Ag7  1  0.606150  0.803220  0.483600  1.0  0.3113
  Ag  Ag8  1  0.393850  0.196780  0.983600  1.0  0.3139
  H  H9  1  0.015400  0.739100  0.665200  1.0  0.0744
  H  H10  1  0.698700  0.966500  0.656800  1.0  0.1216
  H  H11  1  0.720300  0.008600  0.738100  1.0  0.115
  H  H12  1  0.883500  0.909000  0.780000  1.0  0.0884
  H  H13  1  0.069800  0.946200  0.609500  1.0  0.1053
  H  H14  1  0.232800  0.978100  0.552400  1.0  0.1145
  H  H15  1  0.216500  0.866500  0.481300  1.0  0.1036
  H  H16  1  0.049600  0.720600  0.469600  1.0  0.0822
  H  H17  1  0.984600  0.260900  0.165200  1.0  0.0742
  H  H18  1  0.301300  0.033500  0.156800  1.0  0.1219
  H  H19  1  0.279700  0.991400  0.238100  1.0  0.1146
  H  H20  1  0.116500  0.091000  0.280000  1.0  0.0879
  H  H21  1  0.930200  0.053800  0.109500  1.0  0.1058
  H  H22  1  0.767200  0.021900  0.052400  1.0  0.1149
  H  H23  1  0.783500  0.133500  0.981300  1.0  0.1031
  H  H24  1  0.950400  0.279400  0.969600  1.0  0.0825
  H  H25  1  0.760900  0.515400  0.415200  1.0  0.0741
  H  H26  1  0.533500  0.198700  0.406800  1.0  0.1207
  H  H27  1  0.491400  0.220300  0.488100  1.0  0.1149
  H  H28  1  0.591000  0.383500  0.530000  1.0  0.0883
  H  H29  1  0.553800  0.569800  0.359500  1.0  0.1053
  H  H30  1  0.521900  0.732800  0.302400  1.0  0.1147
  H  H31  1  0.633500  0.716500  0.231300  1.0  0.1037
  H  H32  1  0.779400  0.549600  0.219600  1.0  0.0821
  H  H33  1  0.239100  0.484600  0.915200  1.0  0.0736
  H  H34  1  0.466500  0.801300  0.906800  1.0  0.1219
  H  H35  1  0.508600  0.779700  0.988100  1.0  0.1146
  H  H36  1  0.409000  0.616500  0.030000  1.0  0.0877
  H  H37  1  0.446200  0.430200  0.859500  1.0  0.1053
  H  H38  1  0.478100  0.267200  0.802400  1.0  0.1144
  H  H39  1  0.366500  0.283500  0.731300  1.0  0.104
  H  H40  1  0.220600  0.450400  0.719600  1.0  0.082
  H  H41  1  0.484600  0.239100  0.084800  1.0  0.0741
  H  H42  1  0.801300  0.466500  0.093200  1.0  0.1214
  H  H43  1  0.779700  0.508600  0.011900  1.0  0.115
  H  H44  1  0.616500  0.409000  0.970000  1.0  0.0882
  H  H45  1  0.430200  0.446200  0.140500  1.0  0.1049
  H  H46  1  0.267200  0.478100  0.197600  1.0  0.1152
  H  H47  1  0.283500  0.366500  0.268700  1.0  0.1036
  H  H48  1  0.450400  0.220600  0.280400  1.0  0.0827
  H  H49  1  0.515400  0.760900  0.584800  1.0  0.0743
  H  H50  1  0.198700  0.533500  0.593200  1.0  0.1217
  H  H51  1  0.220300  0.491400  0.511900  1.0  0.1149
  H  H52  1  0.383500  0.591000  0.470000  1.0  0.0886
  H  H53  1  0.569800  0.553800  0.640500  1.0  0.1055
  H  H54  1  0.732800  0.521900  0.697600  1.0  0.1139
  H  H55  1  0.716500  0.633500  0.768700  1.0  0.1035
  H  H56  1  0.549600  0.779400  0.780400  1.0  0.082
  H  H57  1  0.739100  0.015400  0.334800  1.0  0.0736
  H  H58  1  0.966500  0.698700  0.343200  1.0  0.1216
  H  H59  1  0.008600  0.720300  0.261900  1.0  0.1148
  H  H60  1  0.909000  0.883500  0.220000  1.0  0.0879
  H  H61  1  0.946200  0.069800  0.390500  1.0  0.1053
  H  H62  1  0.978100  0.232800  0.447600  1.0  0.1142
  H  H63  1  0.866500  0.216500  0.518700  1.0  0.1033
  H  H64  1  0.720600  0.049600  0.530400  1.0  0.0819
  H  H65  1  0.260900  0.984600  0.834800  1.0  0.0744
  H  H66  1  0.033500  0.301300  0.843200  1.0  0.1211
  H  H67  1  0.991400  0.279700  0.761900  1.0  0.1154
  H  H68  1  0.091000  0.116500  0.720000  1.0  0.0882
  H  H69  1  0.053800  0.930200  0.890500  1.0  0.1046
  H  H70  1  0.021900  0.767200  0.947600  1.0  0.114
  H  H71  1  0.133500  0.783500  0.018700  1.0  0.1042
  H  H72  1  0.279400  0.950400  0.030400  1.0  0.0819
  C  C73  1  0.954100  0.792100  0.680160  1.0  0.152
  C  C74  1  0.856400  0.848600  0.652860  1.0  -0.0318
  C  C75  1  0.766100  0.929000  0.674300  1.0  -0.0316
  C  C76  1  0.778200  0.952700  0.722740  1.0  -0.1875
  C  C77  1  0.876400  0.892800  0.747560  1.0  0.1635
  C  C78  1  0.844800  0.815200  0.601490  1.0  0.1821
  C  C79  1  0.963200  0.821500  0.570320  1.0  0.1536
  C  C80  1  0.065700  0.903300  0.580330  1.0  -0.1499
  C  C81  1  0.163300  0.921700  0.546660  1.0  -0.0668
  C  C82  1  0.154000  0.854500  0.504900  1.0  -0.0937
  C  C83  1  0.052000  0.768700  0.497630  1.0  0.1435
  C  C84  1  0.045900  0.207900  0.180160  1.0  0.1513
  C  C85  1  0.143600  0.151400  0.152860  1.0  -0.032
  C  C86  1  0.233900  0.071000  0.174300  1.0  -0.0326
  C  C87  1  0.221800  0.047300  0.222740  1.0  -0.1887
  C  C88  1  0.123600  0.107200  0.247560  1.0  0.1642
  C  C89  1  0.155200  0.184800  0.101490  1.0  0.1844
  C  C90  1  0.036800  0.178500  0.070320  1.0  0.1529
  C  C91  1  0.934300  0.096700  0.080330  1.0  -0.1479
  C  C92  1  0.836700  0.078300  0.046660  1.0  -0.0695
  C  C93  1  0.846000  0.145500  0.004900  1.0  -0.0953
  C  C94  1  0.948000  0.231300  0.997630  1.0  0.1446
  C  C95  1  0.707900  0.454100  0.430160  1.0  0.1521
  C  C96  1  0.651400  0.356400  0.402860  1.0  -0.0336
  C  C97  1  0.571000  0.266100  0.424300  1.0  -0.0314
  C  C98  1  0.547300  0.278200  0.472740  1.0  -0.19
  C  C99  1  0.607200  0.376400  0.497560  1.0  0.1634
  C  C100  1  0.684800  0.344800  0.351490  1.0  0.1865
  C  C101  1  0.678500  0.463200  0.320320  1.0  0.153
  C  C102  1  0.596700  0.565700  0.330330  1.0  -0.1465
  C  C103  1  0.578300  0.663300  0.296660  1.0  -0.069
  C  C104  1  0.645500  0.654000  0.254900  1.0  -0.0931
  C  C105  1  0.731300  0.552000  0.247630  1.0  0.1433
  C  C106  1  0.292100  0.545900  0.930160  1.0  0.1523
  C  C107  1  0.348600  0.643600  0.902860  1.0  -0.033
  C  C108  1  0.429000  0.733900  0.924300  1.0  -0.0331
  C  C109  1  0.452700  0.721800  0.972740  1.0  -0.1884
  C  C110  1  0.392800  0.623600  0.997560  1.0  0.164
  C  C111  1  0.315200  0.655200  0.851490  1.0  0.1853
  C  C112  1  0.321500  0.536800  0.820320  1.0  0.1532
  C  C113  1  0.403300  0.434300  0.830330  1.0  -0.146
  C  C114  1  0.421700  0.336700  0.796660  1.0  -0.0679
  C  C115  1  0.354500  0.346000  0.754900  1.0  -0.0925
  C  C116  1  0.268700  0.448000  0.747630  1.0  0.1467
  C  C117  1  0.545900  0.292100  0.069840  1.0  0.1531
  C  C118  1  0.643600  0.348600  0.097140  1.0  -0.0325
  C  C119  1  0.733900  0.429000  0.075700  1.0  -0.0319
  C  C120  1  0.721800  0.452700  0.027260  1.0  -0.188
  C  C121  1  0.623600  0.392800  0.002440  1.0  0.1647
  C  C122  1  0.655200  0.315200  0.148510  1.0  0.1851
  C  C123  1  0.536800  0.321500  0.179680  1.0  0.1533
  C  C124  1  0.434300  0.403300  0.169670  1.0  -0.1478
  C  C125  1  0.336700  0.421700  0.203340  1.0  -0.0678
  C  C126  1  0.346000  0.354500  0.245100  1.0  -0.0959
  C  C127  1  0.448000  0.268700  0.252370  1.0  0.146
  C  C128  1  0.454100  0.707900  0.569840  1.0  0.1512
  C  C129  1  0.356400  0.651400  0.597140  1.0  -0.0325
  C  C130  1  0.266100  0.571000  0.575700  1.0  -0.0289
  C  C131  1  0.278200  0.547300  0.527260  1.0  -0.1886
  C  C132  1  0.376400  0.607200  0.502440  1.0  0.1661
  C  C133  1  0.344800  0.684800  0.648510  1.0  0.1832
  C  C134  1  0.463200  0.678500  0.679680  1.0  0.1536
  C  C135  1  0.565700  0.596700  0.669670  1.0  -0.1492
  C  C136  1  0.663300  0.578300  0.703340  1.0  -0.0683
  C  C137  1  0.654000  0.645500  0.745100  1.0  -0.0938
  C  C138  1  0.552000  0.731300  0.752370  1.0  0.1442
  C  C139  1  0.792100  0.954100  0.319840  1.0  0.1515
  C  C140  1  0.848600  0.856400  0.347140  1.0  -0.0338
  C  C141  1  0.929000  0.766100  0.325700  1.0  -0.0309
  C  C142  1  0.952700  0.778200  0.277260  1.0  -0.1886
  C  C143  1  0.892800  0.876400  0.252440  1.0  0.1654
  C  C144  1  0.815200  0.844800  0.398510  1.0  0.1872
  C  C145  1  0.821500  0.963200  0.429680  1.0  0.1534
  C  C146  1  0.903300  0.065700  0.419670  1.0  -0.1455
  C  C147  1  0.921700  0.163300  0.453340  1.0  -0.0667
  C  C148  1  0.854500  0.154000  0.495100  1.0  -0.092
  C  C149  1  0.768700  0.052000  0.502370  1.0  0.146
  C  C150  1  0.207900  0.045900  0.819840  1.0  0.152
  C  C151  1  0.151400  0.143600  0.847140  1.0  -0.0342
  C  C152  1  0.071000  0.233900  0.825700  1.0  -0.0322
  C  C153  1  0.047300  0.221800  0.777260  1.0  -0.1905
  C  C154  1  0.107200  0.123600  0.752440  1.0  0.1646
  C  C155  1  0.184800  0.155200  0.898510  1.0  0.1858
  C  C156  1  0.178500  0.036800  0.929680  1.0  0.1532
  C  C157  1  0.096700  0.934300  0.919670  1.0  -0.1457
  C  C158  1  0.078300  0.836700  0.953340  1.0  -0.0681
  C  C159  1  0.145500  0.846000  0.995100  1.0  -0.0945
  C  C160  1  0.231300  0.948000  0.002370  1.0  0.1456
  N  N161  1  0.963600  0.810800  0.726900  1.0  -0.3424
  N  N162  1  0.956200  0.752100  0.529590  1.0  -0.373
  N  N163  1  0.036400  0.189200  0.226900  1.0  -0.3431
  N  N164  1  0.043800  0.247900  0.029590  1.0  -0.3742
  N  N165  1  0.689200  0.463600  0.476900  1.0  -0.3425
  N  N166  1  0.747900  0.456200  0.279590  1.0  -0.3718
  N  N167  1  0.310800  0.536400  0.976900  1.0  -0.3434
  N  N168  1  0.252100  0.543800  0.779590  1.0  -0.3721
  N  N169  1  0.536400  0.310800  0.023100  1.0  -0.3456
  N  N170  1  0.543800  0.252100  0.220410  1.0  -0.3708
  N  N171  1  0.463600  0.689200  0.523100  1.0  -0.344
  N  N172  1  0.456200  0.747900  0.720410  1.0  -0.3731
  N  N173  1  0.810800  0.963600  0.273100  1.0  -0.3425
  N  N174  1  0.752100  0.956200  0.470410  1.0  -0.3729
  N  N175  1  0.189200  0.036400  0.773100  1.0  -0.3437
  N  N176  1  0.247900  0.043800  0.970410  1.0  -0.3739
  O  O177  1  0.740200  0.788000  0.584500  1.0  -0.6377
  O  O178  1  0.259800  0.212000  0.084500  1.0  -0.6357
  O  O179  1  0.712000  0.240200  0.334500  1.0  -0.6347
  O  O180  1  0.288000  0.759800  0.834500  1.0  -0.6375
  O  O181  1  0.759800  0.288000  0.165500  1.0  -0.6358
  O  O182  1  0.240200  0.712000  0.665500  1.0  -0.6383
  O  O183  1  0.788000  0.740200  0.415500  1.0  -0.6348
  O  O184  1  0.212000  0.259800  0.915500  1.0  -0.6384
