# generated using pymatgen
data_AgH8C11N2O
_symmetry_space_group_name_H-M   'P 1'
_cell_length_a   10.23550000
_cell_length_b   10.23550000
_cell_length_c   28.10500000
_cell_angle_alpha   90.00000000
_cell_angle_beta   90.00000000
_cell_angle_gamma   90.00000000
_symmetry_Int_Tables_number   1
_chemical_formula_structural   AgH8C11N2O
_chemical_formula_sum   'Ag8 H64 C88 N16 O8'
_cell_volume   2944.43326033
_cell_formula_units_Z   8
loop_
 _symmetry_equiv_pos_site_id
 _symmetry_equiv_pos_as_xyz
  1  'x, y, z'
loop_
 _atom_site_type_symbol
 _atom_site_label
 _atom_site_symmetry_multiplicity
 _atom_site_fract_x
 _atom_site_fract_y
 _atom_site_fract_z
 _atom_site_occupancy
 _atom_site_charge
  Ag  Ag1  1  0.606140  0.196790  0.233600  1.0  0.3113
  Ag  Ag2  1  0.393860  0.803210  0.733600  1.0  0.3131
  Ag  Ag3  1  0.303210  0.106140  0.483600  1.0  0.3117
  Ag  Ag4  1  0.696790  0.893860  0.983600  1.0  0.3089
  Ag  Ag5  1  0.893860  0.696790  0.016400  1.0  0.3127
  Ag  Ag6  1  0.106140  0.303210  0.516400  1.0  0.3101
  Ag  Ag7  1  0.196790  0.606140  0.766400  1.0  0.3106
  Ag  Ag8  1  0.803210  0.393860  0.266400  1.0  0.3087
  H  H9  1  0.739300  0.984600  0.084900  1.0  0.0656
  H  H10  1  0.966700  0.300800  0.093300  1.0  0.1207
  H  H11  1  0.008800  0.279600  0.011900  1.0  0.1137
  H  H12  1  0.909100  0.116200  0.970000  1.0  0.0877
  H  H13  1  0.945900  0.930200  0.140500  1.0  0.105
  H  H14  1  0.977600  0.766800  0.197700  1.0  0.114
  H  H15  1  0.866100  0.783600  0.268800  1.0  0.1056
  H  H16  1  0.720500  0.950400  0.280400  1.0  0.081
  H  H17  1  0.260700  0.015400  0.584900  1.0  0.0661
  H  H18  1  0.033300  0.699200  0.593300  1.0  0.1205
  H  H19  1  0.991200  0.720400  0.511900  1.0  0.1133
  H  H20  1  0.090900  0.883800  0.470000  1.0  0.0884
  H  H21  1  0.054100  0.069800  0.640500  1.0  0.1043
  H  H22  1  0.022400  0.233200  0.697700  1.0  0.1144
  H  H23  1  0.133900  0.216400  0.768800  1.0  0.1057
  H  H24  1  0.279500  0.049600  0.780400  1.0  0.0803
  H  H25  1  0.515400  0.239300  0.334900  1.0  0.0668
  H  H26  1  0.199200  0.466700  0.343300  1.0  0.1207
  H  H27  1  0.220400  0.508800  0.261900  1.0  0.114
  H  H28  1  0.383800  0.409100  0.220000  1.0  0.0887
  H  H29  1  0.569800  0.445900  0.390500  1.0  0.1049
  H  H30  1  0.733200  0.477600  0.447700  1.0  0.1146
  H  H31  1  0.716400  0.366100  0.518800  1.0  0.1053
  H  H32  1  0.549600  0.220500  0.530400  1.0  0.0807
  H  H33  1  0.484600  0.760700  0.834900  1.0  0.0663
  H  H34  1  0.800800  0.533300  0.843300  1.0  0.1213
  H  H35  1  0.779600  0.491200  0.761900  1.0  0.1131
  H  H36  1  0.616200  0.590900  0.720000  1.0  0.0883
  H  H37  1  0.430200  0.554100  0.890500  1.0  0.1049
  H  H38  1  0.266800  0.522400  0.947700  1.0  0.1146
  H  H39  1  0.283600  0.633900  0.018800  1.0  0.1051
  H  H40  1  0.450400  0.779500  0.030400  1.0  0.0811
  H  H41  1  0.760700  0.484600  0.165100  1.0  0.0665
  H  H42  1  0.533300  0.800800  0.156700  1.0  0.1211
  H  H43  1  0.491200  0.779600  0.238100  1.0  0.1138
  H  H44  1  0.590900  0.616200  0.280000  1.0  0.0881
  H  H45  1  0.554100  0.430200  0.109500  1.0  0.1053
  H  H46  1  0.522400  0.266800  0.052300  1.0  0.1137
  H  H47  1  0.633900  0.283600  0.981200  1.0  0.105
  H  H48  1  0.779500  0.450400  0.969600  1.0  0.0809
  H  H49  1  0.239300  0.515400  0.665100  1.0  0.0656
  H  H50  1  0.466700  0.199200  0.656700  1.0  0.1213
  H  H51  1  0.508800  0.220400  0.738100  1.0  0.1135
  H  H52  1  0.409100  0.383800  0.780000  1.0  0.0881
  H  H53  1  0.445900  0.569800  0.609500  1.0  0.1048
  H  H54  1  0.477600  0.733200  0.552300  1.0  0.1134
  H  H55  1  0.366100  0.716400  0.481200  1.0  0.1054
  H  H56  1  0.220500  0.549600  0.469600  1.0  0.0806
  H  H57  1  0.984600  0.739300  0.915100  1.0  0.0661
  H  H58  1  0.300800  0.966700  0.906700  1.0  0.1211
  H  H59  1  0.279600  0.008800  0.988100  1.0  0.1134
  H  H60  1  0.116200  0.909100  0.030000  1.0  0.0879
  H  H61  1  0.930200  0.945900  0.859500  1.0  0.1051
  H  H62  1  0.766800  0.977600  0.802300  1.0  0.1149
  H  H63  1  0.783600  0.866100  0.731200  1.0  0.1045
  H  H64  1  0.950400  0.720500  0.719600  1.0  0.0815
  H  H65  1  0.015400  0.260700  0.415100  1.0  0.0667
  H  H66  1  0.699200  0.033300  0.406700  1.0  0.1211
  H  H67  1  0.720400  0.991200  0.488100  1.0  0.1137
  H  H68  1  0.883800  0.090900  0.530000  1.0  0.0884
  H  H69  1  0.069800  0.054100  0.359500  1.0  0.105
  H  H70  1  0.233200  0.022400  0.302300  1.0  0.1141
  H  H71  1  0.216400  0.133900  0.231200  1.0  0.1049
  H  H72  1  0.049600  0.279500  0.219600  1.0  0.0812
  C  C73  1  0.792200  0.046000  0.069880  1.0  0.146
  C  C74  1  0.848500  0.143600  0.097070  1.0  -0.0213
  C  C75  1  0.929100  0.233600  0.075720  1.0  -0.0084
  C  C76  1  0.952900  0.221700  0.027300  1.0  -0.1804
  C  C77  1  0.892800  0.123400  0.002470  1.0  0.163
  C  C78  1  0.815100  0.155100  0.148510  1.0  0.1922
  C  C79  1  0.821400  0.036600  0.179660  1.0  0.1549
  C  C80  1  0.903000  0.934300  0.169660  1.0  -0.1444
  C  C81  1  0.921400  0.836400  0.203420  1.0  -0.1056
  C  C82  1  0.854100  0.846100  0.245110  1.0  -0.1074
  C  C83  1  0.768500  0.948000  0.252350  1.0  0.157
  C  C84  1  0.207800  0.954000  0.569880  1.0  0.1456
  C  C85  1  0.151500  0.856400  0.597070  1.0  -0.0216
  C  C86  1  0.070900  0.766400  0.575720  1.0  -0.0062
  C  C87  1  0.047100  0.778300  0.527300  1.0  -0.1823
  C  C88  1  0.107200  0.876600  0.502470  1.0  0.1635
  C  C89  1  0.184900  0.844900  0.648510  1.0  0.1938
  C  C90  1  0.178600  0.963400  0.679660  1.0  0.1547
  C  C91  1  0.097000  0.065700  0.669660  1.0  -0.1444
  C  C92  1  0.078600  0.163600  0.703420  1.0  -0.1053
  C  C93  1  0.145900  0.153900  0.745110  1.0  -0.1086
  C  C94  1  0.231500  0.052000  0.752350  1.0  0.1566
  C  C95  1  0.454000  0.292200  0.319880  1.0  0.1458
  C  C96  1  0.356400  0.348500  0.347070  1.0  -0.0203
  C  C97  1  0.266400  0.429100  0.325720  1.0  -0.0075
  C  C98  1  0.278300  0.452900  0.277300  1.0  -0.1807
  C  C99  1  0.376600  0.392800  0.252470  1.0  0.1631
  C  C100  1  0.344900  0.315100  0.398510  1.0  0.1892
  C  C101  1  0.463400  0.321400  0.429660  1.0  0.1551
  C  C102  1  0.565700  0.403000  0.419660  1.0  -0.1489
  C  C103  1  0.663600  0.421400  0.453420  1.0  -0.1043
  C  C104  1  0.653900  0.354100  0.495110  1.0  -0.1082
  C  C105  1  0.552000  0.268500  0.502350  1.0  0.1572
  C  C106  1  0.546000  0.707800  0.819880  1.0  0.1447
  C  C107  1  0.643600  0.651500  0.847070  1.0  -0.02
  C  C108  1  0.733600  0.570900  0.825720  1.0  -0.0088
  C  C109  1  0.721700  0.547100  0.777300  1.0  -0.1814
  C  C110  1  0.623400  0.607200  0.752470  1.0  0.1636
  C  C111  1  0.655100  0.684900  0.898510  1.0  0.1918
  C  C112  1  0.536600  0.678600  0.929660  1.0  0.1545
  C  C113  1  0.434300  0.597000  0.919660  1.0  -0.1477
  C  C114  1  0.336400  0.578600  0.953420  1.0  -0.1063
  C  C115  1  0.346100  0.645900  0.995110  1.0  -0.11
  C  C116  1  0.448000  0.731500  0.002350  1.0  0.1572
  C  C117  1  0.707800  0.546000  0.180120  1.0  0.1456
  C  C118  1  0.651500  0.643600  0.152930  1.0  -0.0209
  C  C119  1  0.570900  0.733600  0.174280  1.0  -0.0084
  C  C120  1  0.547100  0.721700  0.222700  1.0  -0.1813
  C  C121  1  0.607200  0.623400  0.247530  1.0  0.1618
  C  C122  1  0.684900  0.655100  0.101490  1.0  0.1921
  C  C123  1  0.678600  0.536600  0.070340  1.0  0.1544
  C  C124  1  0.597000  0.434300  0.080340  1.0  -0.1438
  C  C125  1  0.578600  0.336400  0.046580  1.0  -0.1067
  C  C126  1  0.645900  0.346100  0.004890  1.0  -0.1075
  C  C127  1  0.731500  0.448000  0.997650  1.0  0.1559
  C  C128  1  0.292200  0.454000  0.680120  1.0  0.1454
  C  C129  1  0.348500  0.356400  0.652930  1.0  -0.0201
  C  C130  1  0.429100  0.266400  0.674280  1.0  -0.0082
  C  C131  1  0.452900  0.278300  0.722700  1.0  -0.1797
  C  C132  1  0.392800  0.376600  0.747530  1.0  0.1637
  C  C133  1  0.315100  0.344900  0.601490  1.0  0.1927
  C  C134  1  0.321400  0.463400  0.570340  1.0  0.1547
  C  C135  1  0.403000  0.565700  0.580340  1.0  -0.1447
  C  C136  1  0.421400  0.663600  0.546580  1.0  -0.1043
  C  C137  1  0.354100  0.653900  0.504890  1.0  -0.1072
  C  C138  1  0.268500  0.552000  0.497650  1.0  0.1566
  C  C139  1  0.046000  0.792200  0.930120  1.0  0.1464
  C  C140  1  0.143600  0.848500  0.902930  1.0  -0.0192
  C  C141  1  0.233600  0.929100  0.924280  1.0  -0.0095
  C  C142  1  0.221700  0.952900  0.972700  1.0  -0.1794
  C  C143  1  0.123400  0.892800  0.997530  1.0  0.1624
  C  C144  1  0.155100  0.815100  0.851490  1.0  0.1907
  C  C145  1  0.036600  0.821400  0.820340  1.0  0.1545
  C  C146  1  0.934300  0.903000  0.830340  1.0  -0.1489
  C  C147  1  0.836400  0.921400  0.796580  1.0  -0.1039
  C  C148  1  0.846100  0.854100  0.754890  1.0  -0.1092
  C  C149  1  0.948000  0.768500  0.747650  1.0  0.1567
  C  C150  1  0.954000  0.207800  0.430120  1.0  0.1452
  C  C151  1  0.856400  0.151500  0.402930  1.0  -0.0195
  C  C152  1  0.766400  0.070900  0.424280  1.0  -0.0062
  C  C153  1  0.778300  0.047100  0.472700  1.0  -0.1795
  C  C154  1  0.876600  0.107200  0.497530  1.0  0.1629
  C  C155  1  0.844900  0.184900  0.351490  1.0  0.1887
  C  C156  1  0.963400  0.178600  0.320340  1.0  0.1546
  C  C157  1  0.065700  0.097000  0.330340  1.0  -0.1473
  C  C158  1  0.163600  0.078600  0.296580  1.0  -0.1072
  C  C159  1  0.153900  0.145900  0.254890  1.0  -0.1082
  C  C160  1  0.052000  0.231500  0.247650  1.0  0.1561
  N  N161  1  0.810600  0.036200  0.023030  1.0  -0.3501
  N  N162  1  0.751900  0.043900  0.220320  1.0  -0.3733
  N  N163  1  0.189400  0.963800  0.523030  1.0  -0.3471
  N  N164  1  0.248100  0.956100  0.720320  1.0  -0.3728
  N  N165  1  0.463800  0.310600  0.273030  1.0  -0.3496
  N  N166  1  0.456100  0.251900  0.470320  1.0  -0.3739
  N  N167  1  0.536200  0.689400  0.773030  1.0  -0.3475
  N  N168  1  0.543900  0.748100  0.970320  1.0  -0.3751
  N  N169  1  0.689400  0.536200  0.226970  1.0  -0.3457
  N  N170  1  0.748100  0.543900  0.029680  1.0  -0.375
  N  N171  1  0.310600  0.463800  0.726970  1.0  -0.3474
  N  N172  1  0.251900  0.456100  0.529680  1.0  -0.3747
  N  N173  1  0.036200  0.810600  0.976970  1.0  -0.3482
  N  N174  1  0.043900  0.751900  0.779680  1.0  -0.3725
  N  N175  1  0.963800  0.189400  0.476970  1.0  -0.3484
  N  N176  1  0.956100  0.248100  0.279680  1.0  -0.3742
  O  O177  1  0.787700  0.259600  0.165500  1.0  -0.6251
  O  O178  1  0.212300  0.740400  0.665500  1.0  -0.6252
  O  O179  1  0.240400  0.287700  0.415500  1.0  -0.6267
  O  O180  1  0.759600  0.712300  0.915500  1.0  -0.6255
  O  O181  1  0.712300  0.759600  0.084500  1.0  -0.6256
  O  O182  1  0.287700  0.240400  0.584500  1.0  -0.6253
  O  O183  1  0.259600  0.787700  0.834500  1.0  -0.6256
  O  O184  1  0.740400  0.212300  0.334500  1.0  -0.6267
