# generated using pymatgen
data_Cu7H12C18I4N15
_symmetry_space_group_name_H-M   'P 1'
_cell_length_a   14.84900000
_cell_length_b   14.84900000
_cell_length_c   21.80600000
_cell_angle_alpha   90.00000000
_cell_angle_beta   90.00000000
_cell_angle_gamma   120.00000000
_symmetry_Int_Tables_number   1
_chemical_formula_structural   Cu7H12C18I4N15
_chemical_formula_sum   'Cu28 H48 C72 I16 N60'
_cell_volume   4163.90731519
_cell_formula_units_Z   4
loop_
 _symmetry_equiv_pos_site_id
 _symmetry_equiv_pos_as_xyz
  1  'x, y, z'
loop_
 _atom_site_type_symbol
 _atom_site_label
 _atom_site_symmetry_multiplicity
 _atom_site_fract_x
 _atom_site_fract_y
 _atom_site_fract_z
 _atom_site_occupancy
 _atom_site_charge
  Cu  Cu1  1  0.863430  0.378980  0.251620  1.0  0.3205
  Cu  Cu2  1  0.760360  0.234650  0.118060  1.0  0.3086
  Cu  Cu3  1  0.621020  0.484450  0.251620  1.0  0.3185
  Cu  Cu4  1  0.765350  0.525710  0.118060  1.0  0.3094
  Cu  Cu5  1  0.515550  0.136570  0.251620  1.0  0.319
  Cu  Cu6  1  0.474290  0.239640  0.118060  1.0  0.3088
  Cu  Cu7  1  0.378980  0.863430  0.248380  1.0  0.3194
  Cu  Cu8  1  0.234650  0.760360  0.381940  1.0  0.3081
  Cu  Cu9  1  0.484450  0.621020  0.248380  1.0  0.3207
  Cu  Cu10  1  0.525710  0.765350  0.381940  1.0  0.3083
  Cu  Cu11  1  0.136570  0.515550  0.248380  1.0  0.3194
  Cu  Cu12  1  0.239640  0.474290  0.381940  1.0  0.3105
  Cu  Cu13  1  0.136570  0.621020  0.748380  1.0  0.3213
  Cu  Cu14  1  0.239640  0.765350  0.881940  1.0  0.3088
  Cu  Cu15  1  0.378980  0.515550  0.748380  1.0  0.3197
  Cu  Cu16  1  0.234650  0.474290  0.881940  1.0  0.3105
  Cu  Cu17  1  0.484450  0.863430  0.748380  1.0  0.3192
  Cu  Cu18  1  0.525710  0.760360  0.881940  1.0  0.3078
  Cu  Cu19  1  0.621020  0.136570  0.751620  1.0  0.3189
  Cu  Cu20  1  0.765350  0.239640  0.618060  1.0  0.3089
  Cu  Cu21  1  0.515550  0.378980  0.751620  1.0  0.3213
  Cu  Cu22  1  0.474290  0.234650  0.618060  1.0  0.3088
  Cu  Cu23  1  0.863430  0.484450  0.751620  1.0  0.3188
  Cu  Cu24  1  0.760360  0.525710  0.618060  1.0  0.3097
  Cu  Cu25  1  0.666667  0.333333  0.283410  1.0  0.1781
  Cu  Cu26  1  0.333333  0.666667  0.216590  1.0  0.1771
  Cu  Cu27  1  0.333333  0.666667  0.716590  1.0  0.1771
  Cu  Cu28  1  0.666667  0.333333  0.783410  1.0  0.1781
  H  H29  1  0.145600  0.472400  0.001600  1.0  0.0844
  H  H30  1  0.004600  0.326600  0.850400  1.0  0.0854
  H  H31  1  0.843000  0.258300  0.898000  1.0  0.0987
  H  H32  1  0.835300  0.279900  0.003400  1.0  0.0937
  H  H33  1  0.527600  0.673200  0.001600  1.0  0.0851
  H  H34  1  0.673400  0.678000  0.850400  1.0  0.0855
  H  H35  1  0.741700  0.584700  0.898000  1.0  0.0976
  H  H36  1  0.720100  0.555400  0.003400  1.0  0.0938
  H  H37  1  0.326800  0.854400  0.001600  1.0  0.0843
  H  H38  1  0.322000  0.995400  0.850400  1.0  0.0857
  H  H39  1  0.415300  0.157000  0.898000  1.0  0.0977
  H  H40  1  0.444600  0.164700  0.003400  1.0  0.0928
  H  H41  1  0.472400  0.145600  0.498400  1.0  0.0846
  H  H42  1  0.326600  0.004600  0.649600  1.0  0.0861
  H  H43  1  0.258300  0.843000  0.602000  1.0  0.0983
  H  H44  1  0.279900  0.835300  0.496600  1.0  0.0928
  H  H45  1  0.673200  0.527600  0.498400  1.0  0.0853
  H  H46  1  0.678000  0.673400  0.649600  1.0  0.0856
  H  H47  1  0.584700  0.741700  0.602000  1.0  0.0994
  H  H48  1  0.555400  0.720100  0.496600  1.0  0.0933
  H  H49  1  0.854400  0.326800  0.498400  1.0  0.0858
  H  H50  1  0.995400  0.322000  0.649600  1.0  0.0852
  H  H51  1  0.157000  0.415300  0.602000  1.0  0.0983
  H  H52  1  0.164700  0.444600  0.496600  1.0  0.0931
  H  H53  1  0.854400  0.527600  0.998400  1.0  0.0849
  H  H54  1  0.995400  0.673400  0.149600  1.0  0.0855
  H  H55  1  0.157000  0.741700  0.102000  1.0  0.0991
  H  H56  1  0.164700  0.720100  0.996600  1.0  0.0939
  H  H57  1  0.472400  0.326800  0.998400  1.0  0.0861
  H  H58  1  0.326600  0.322000  0.149600  1.0  0.0853
  H  H59  1  0.258300  0.415300  0.102000  1.0  0.0984
  H  H60  1  0.279900  0.444600  0.996600  1.0  0.0927
  H  H61  1  0.673200  0.145600  0.998400  1.0  0.0847
  H  H62  1  0.678000  0.004600  0.149600  1.0  0.0854
  H  H63  1  0.584700  0.843000  0.102000  1.0  0.0984
  H  H64  1  0.555400  0.835300  0.996600  1.0  0.0928
  H  H65  1  0.527600  0.854400  0.501600  1.0  0.084
  H  H66  1  0.673400  0.995400  0.350400  1.0  0.0858
  H  H67  1  0.741700  0.157000  0.398000  1.0  0.0982
  H  H68  1  0.720100  0.164700  0.503400  1.0  0.093
  H  H69  1  0.326800  0.472400  0.501600  1.0  0.0843
  H  H70  1  0.322000  0.326600  0.350400  1.0  0.0854
  H  H71  1  0.415300  0.258300  0.398000  1.0  0.0985
  H  H72  1  0.444600  0.279900  0.503400  1.0  0.0947
  H  H73  1  0.145600  0.673200  0.501600  1.0  0.0853
  H  H74  1  0.004600  0.678000  0.350400  1.0  0.0856
  H  H75  1  0.843000  0.584700  0.398000  1.0  0.0978
  H  H76  1  0.835300  0.555400  0.503400  1.0  0.0929
  C  C77  1  0.085100  0.424300  0.981600  1.0  0.1666
  C  C78  1  0.994500  0.393700  0.082400  1.0  0.2853
  C  C79  1  0.991300  0.374000  0.015500  1.0  -0.0807
  C  C80  1  0.001300  0.341500  0.891400  1.0  0.1302
  C  C81  1  0.903700  0.297000  0.920500  1.0  -0.1133
  C  C82  1  0.899000  0.311400  0.983200  1.0  -0.0674
  C  C83  1  0.575700  0.660800  0.981600  1.0  0.166
  C  C84  1  0.606300  0.600800  0.082400  1.0  0.2859
  C  C85  1  0.626000  0.617300  0.015500  1.0  -0.0805
  C  C86  1  0.658500  0.659800  0.891400  1.0  0.1276
  C  C87  1  0.703000  0.606700  0.920500  1.0  -0.1133
  C  C88  1  0.688600  0.587600  0.983200  1.0  -0.0685
  C  C89  1  0.339200  0.914900  0.981600  1.0  0.1676
  C  C90  1  0.399200  0.005500  0.082400  1.0  0.2875
  C  C91  1  0.382700  0.008700  0.015500  1.0  -0.0789
  C  C92  1  0.340200  0.998700  0.891400  1.0  0.1314
  C  C93  1  0.393300  0.096300  0.920500  1.0  -0.1099
  C  C94  1  0.412400  0.101000  0.983200  1.0  -0.0678
  C  C95  1  0.424300  0.085100  0.518400  1.0  0.1682
  C  C96  1  0.393700  0.994500  0.417600  1.0  0.2877
  C  C97  1  0.374000  0.991300  0.484500  1.0  -0.0771
  C  C98  1  0.341500  0.001300  0.608600  1.0  0.1307
  C  C99  1  0.297000  0.903700  0.579500  1.0  -0.1083
  C  C100  1  0.311400  0.899000  0.516800  1.0  -0.0678
  C  C101  1  0.660800  0.575700  0.518400  1.0  0.1663
  C  C102  1  0.600800  0.606300  0.417600  1.0  0.2855
  C  C103  1  0.617300  0.626000  0.484500  1.0  -0.0776
  C  C104  1  0.659800  0.658500  0.608600  1.0  0.1288
  C  C105  1  0.606700  0.703000  0.579500  1.0  -0.112
  C  C106  1  0.587600  0.688600  0.516800  1.0  -0.0668
  C  C107  1  0.914900  0.339200  0.518400  1.0  0.1662
  C  C108  1  0.005500  0.399200  0.417600  1.0  0.2854
  C  C109  1  0.008700  0.382700  0.484500  1.0  -0.0783
  C  C110  1  0.998700  0.340200  0.608600  1.0  0.128
  C  C111  1  0.096300  0.393300  0.579500  1.0  -0.1127
  C  C112  1  0.101000  0.412400  0.516800  1.0  -0.0678
  C  C113  1  0.914900  0.575700  0.018400  1.0  0.17
  C  C114  1  0.005500  0.606300  0.917600  1.0  0.2856
  C  C115  1  0.008700  0.626000  0.984500  1.0  -0.0783
  C  C116  1  0.998700  0.658500  0.108600  1.0  0.1283
  C  C117  1  0.096300  0.703000  0.079500  1.0  -0.1116
  C  C118  1  0.101000  0.688600  0.016800  1.0  -0.0668
  C  C119  1  0.424300  0.339200  0.018400  1.0  0.169
  C  C120  1  0.393700  0.399200  0.917600  1.0  0.2854
  C  C121  1  0.374000  0.382700  0.984500  1.0  -0.079
  C  C122  1  0.341500  0.340200  0.108600  1.0  0.1277
  C  C123  1  0.297000  0.393300  0.079500  1.0  -0.1131
  C  C124  1  0.311400  0.412400  0.016800  1.0  -0.0669
  C  C125  1  0.660800  0.085100  0.018400  1.0  0.1705
  C  C126  1  0.600800  0.994500  0.917600  1.0  0.2872
  C  C127  1  0.617300  0.991300  0.984500  1.0  -0.0763
  C  C128  1  0.659800  0.001300  0.108600  1.0  0.1317
  C  C129  1  0.606700  0.903700  0.079500  1.0  -0.1091
  C  C130  1  0.587600  0.899000  0.016800  1.0  -0.0681
  C  C131  1  0.575700  0.914900  0.481600  1.0  0.1704
  C  C132  1  0.606300  0.005500  0.582400  1.0  0.2871
  C  C133  1  0.626000  0.008700  0.515500  1.0  -0.0796
  C  C134  1  0.658500  0.998700  0.391400  1.0  0.1311
  C  C135  1  0.703000  0.096300  0.420500  1.0  -0.1117
  C  C136  1  0.688600  0.101000  0.483200  1.0  -0.0684
  C  C137  1  0.339200  0.424300  0.481600  1.0  0.1707
  C  C138  1  0.399200  0.393700  0.582400  1.0  0.2851
  C  C139  1  0.382700  0.374000  0.515500  1.0  -0.0813
  C  C140  1  0.340200  0.341500  0.391400  1.0  0.1313
  C  C141  1  0.393300  0.297000  0.420500  1.0  -0.1128
  C  C142  1  0.412400  0.311400  0.483200  1.0  -0.0674
  C  C143  1  0.085100  0.660800  0.481600  1.0  0.1691
  C  C144  1  0.994500  0.600800  0.582400  1.0  0.2859
  C  C145  1  0.991300  0.617300  0.515500  1.0  -0.0812
  C  C146  1  0.001300  0.659800  0.391400  1.0  0.1283
  C  C147  1  0.903700  0.606700  0.420500  1.0  -0.1138
  C  C148  1  0.899000  0.587600  0.483200  1.0  -0.0679
  I  I149  1  0.711290  0.185180  0.240930  1.0  -0.1793
  I  I150  1  0.814820  0.526110  0.240930  1.0  -0.1787
  I  I151  1  0.473890  0.288710  0.240930  1.0  -0.1793
  I  I152  1  0.185180  0.711290  0.259070  1.0  -0.1784
  I  I153  1  0.526110  0.814820  0.259070  1.0  -0.1791
  I  I154  1  0.288710  0.473890  0.259070  1.0  -0.1796
  I  I155  1  0.288710  0.814820  0.759070  1.0  -0.1788
  I  I156  1  0.185180  0.473890  0.759070  1.0  -0.1787
  I  I157  1  0.526110  0.711290  0.759070  1.0  -0.1792
  I  I158  1  0.814820  0.288710  0.740930  1.0  -0.1801
  I  I159  1  0.473890  0.185180  0.740930  1.0  -0.1788
  I  I160  1  0.711290  0.526110  0.740930  1.0  -0.1779
  I  I161  1  0.666667  0.333333  0.069880  1.0  -0.221
  I  I162  1  0.333333  0.666667  0.430120  1.0  -0.2211
  I  I163  1  0.333333  0.666667  0.930120  1.0  -0.2211
  I  I164  1  0.666667  0.333333  0.569880  1.0  -0.221
  N  N165  1  0.950600  0.390300  0.175800  1.0  -0.0628
  N  N166  1  0.052500  0.456900  0.171200  1.0  -0.0614
  N  N167  1  0.082400  0.460600  0.112300  1.0  -0.3561
  N  N168  1  0.912400  0.348200  0.120700  1.0  -0.3272
  N  N169  1  0.090700  0.405600  0.921700  1.0  -0.3157
  N  N170  1  0.609700  0.560300  0.175800  1.0  -0.0607
  N  N171  1  0.543100  0.595600  0.171200  1.0  -0.0627
  N  N172  1  0.539400  0.621800  0.112300  1.0  -0.3545
  N  N173  1  0.651800  0.564200  0.120700  1.0  -0.329
  N  N174  1  0.594400  0.685100  0.921700  1.0  -0.3145
  N  N175  1  0.439700  0.049400  0.175800  1.0  -0.0614
  N  N176  1  0.404400  0.947500  0.171200  1.0  -0.0624
  N  N177  1  0.378200  0.917600  0.112300  1.0  -0.3544
  N  N178  1  0.435800  0.087600  0.120700  1.0  -0.3266
  N  N179  1  0.314900  0.909300  0.921700  1.0  -0.3133
  N  N180  1  0.390300  0.950600  0.324200  1.0  -0.0594
  N  N181  1  0.456900  0.052500  0.328800  1.0  -0.0646
  N  N182  1  0.460600  0.082400  0.387700  1.0  -0.3564
  N  N183  1  0.348200  0.912400  0.379300  1.0  -0.3272
  N  N184  1  0.405600  0.090700  0.578300  1.0  -0.3121
  N  N185  1  0.560300  0.609700  0.324200  1.0  -0.0591
  N  N186  1  0.595600  0.543100  0.328800  1.0  -0.0633
  N  N187  1  0.621800  0.539400  0.387700  1.0  -0.3571
  N  N188  1  0.564200  0.651800  0.379300  1.0  -0.329
  N  N189  1  0.685100  0.594400  0.578300  1.0  -0.3146
  N  N190  1  0.049400  0.439700  0.324200  1.0  -0.0588
  N  N191  1  0.947500  0.404400  0.328800  1.0  -0.0633
  N  N192  1  0.917600  0.378200  0.387700  1.0  -0.3554
  N  N193  1  0.087600  0.435800  0.379300  1.0  -0.3308
  N  N194  1  0.909300  0.314900  0.578300  1.0  -0.3125
  N  N195  1  0.049400  0.609700  0.824200  1.0  -0.0592
  N  N196  1  0.947500  0.543100  0.828800  1.0  -0.0631
  N  N197  1  0.917600  0.539400  0.887700  1.0  -0.3602
  N  N198  1  0.087600  0.651800  0.879300  1.0  -0.3276
  N  N199  1  0.909300  0.594400  0.078300  1.0  -0.3135
  N  N200  1  0.390300  0.439700  0.824200  1.0  -0.0588
  N  N201  1  0.456900  0.404400  0.828800  1.0  -0.0624
  N  N202  1  0.460600  0.378200  0.887700  1.0  -0.3614
  N  N203  1  0.348200  0.435800  0.879300  1.0  -0.3296
  N  N204  1  0.405600  0.314900  0.078300  1.0  -0.3133
  N  N205  1  0.560300  0.950600  0.824200  1.0  -0.0597
  N  N206  1  0.595600  0.052500  0.828800  1.0  -0.0635
  N  N207  1  0.621800  0.082400  0.887700  1.0  -0.3602
  N  N208  1  0.564200  0.912400  0.879300  1.0  -0.3297
  N  N209  1  0.685100  0.090700  0.078300  1.0  -0.3135
  N  N210  1  0.609700  0.049400  0.675800  1.0  -0.0605
  N  N211  1  0.543100  0.947500  0.671200  1.0  -0.0621
  N  N212  1  0.539400  0.917600  0.612300  1.0  -0.3595
  N  N213  1  0.651800  0.087600  0.620700  1.0  -0.3288
  N  N214  1  0.594400  0.909300  0.421700  1.0  -0.313
  N  N215  1  0.439700  0.390300  0.675800  1.0  -0.0607
  N  N216  1  0.404400  0.456900  0.671200  1.0  -0.0623
  N  N217  1  0.378200  0.460600  0.612300  1.0  -0.3591
  N  N218  1  0.435800  0.348200  0.620700  1.0  -0.3252
  N  N219  1  0.314900  0.405600  0.421700  1.0  -0.3137
  N  N220  1  0.950600  0.560300  0.675800  1.0  -0.0607
  N  N221  1  0.052500  0.595600  0.671200  1.0  -0.0624
  N  N222  1  0.082400  0.621800  0.612300  1.0  -0.3607
  N  N223  1  0.912400  0.564200  0.620700  1.0  -0.3286
  N  N224  1  0.090700  0.685100  0.421700  1.0  -0.3166
