# generated using pymatgen
data_Ag2H3W6C7NO19
_symmetry_space_group_name_H-M   'P 1'
_cell_length_a   12.70310000
_cell_length_b   12.70310000
_cell_length_c   35.75900000
_cell_angle_alpha   90.00000000
_cell_angle_beta   90.00000000
_cell_angle_gamma   90.00000000
_symmetry_Int_Tables_number   1
_chemical_formula_structural   Ag2H3W6C7NO19
_chemical_formula_sum   'Ag16 H24 W48 C56 N8 O152'
_cell_volume   5770.38511730
_cell_formula_units_Z   8
loop_
 _symmetry_equiv_pos_site_id
 _symmetry_equiv_pos_as_xyz
  1  'x, y, z'
loop_
 _atom_site_type_symbol
 _atom_site_label
 _atom_site_symmetry_multiplicity
 _atom_site_fract_x
 _atom_site_fract_y
 _atom_site_fract_z
 _atom_site_occupancy
 _atom_site_charge
  Ag  Ag1  1  0.146400  0.177300  0.982270  1.0  0.9413
  Ag  Ag2  1  0.950890  0.433310  0.890350  1.0  0.1938
  Ag  Ag3  1  0.853600  0.822700  0.482270  1.0  0.9387
  Ag  Ag4  1  0.049110  0.566690  0.390350  1.0  0.1942
  Ag  Ag5  1  0.322700  0.646400  0.232270  1.0  0.9437
  Ag  Ag6  1  0.066690  0.450890  0.140350  1.0  0.1919
  Ag  Ag7  1  0.677300  0.353600  0.732270  1.0  0.9433
  Ag  Ag8  1  0.933310  0.549110  0.640350  1.0  0.1918
  Ag  Ag9  1  0.353600  0.677300  0.267730  1.0  0.9333
  Ag  Ag10  1  0.549110  0.933310  0.359650  1.0  0.193
  Ag  Ag11  1  0.646400  0.322700  0.767730  1.0  0.933
  Ag  Ag12  1  0.450890  0.066690  0.859650  1.0  0.193
  Ag  Ag13  1  0.177300  0.146400  0.017730  1.0  0.9357
  Ag  Ag14  1  0.433310  0.950890  0.109650  1.0  0.1904
  Ag  Ag15  1  0.822700  0.853600  0.517730  1.0  0.9372
  Ag  Ag16  1  0.566690  0.049110  0.609650  1.0  0.1904
  H  H17  1  0.948200  0.298200  0.077700  1.0  0.1308
  H  H18  1  0.684100  0.274900  0.138000  1.0  0.1674
  H  H19  1  0.773500  0.038000  0.069800  1.0  0.1688
  H  H20  1  0.051800  0.701800  0.577700  1.0  0.1308
  H  H21  1  0.315900  0.725100  0.638000  1.0  0.168
  H  H22  1  0.226500  0.962000  0.569800  1.0  0.1696
  H  H23  1  0.201800  0.448200  0.327700  1.0  0.1309
  H  H24  1  0.225100  0.184100  0.388000  1.0  0.1676
  H  H25  1  0.462000  0.273500  0.319800  1.0  0.1672
  H  H26  1  0.798200  0.551800  0.827700  1.0  0.1305
  H  H27  1  0.774900  0.815900  0.888000  1.0  0.1671
  H  H28  1  0.538000  0.726500  0.819800  1.0  0.1668
  H  H29  1  0.551800  0.798200  0.172300  1.0  0.1309
  H  H30  1  0.815900  0.774900  0.112000  1.0  0.1672
  H  H31  1  0.726500  0.538000  0.180200  1.0  0.1692
  H  H32  1  0.448200  0.201800  0.672300  1.0  0.1308
  H  H33  1  0.184100  0.225100  0.612000  1.0  0.1675
  H  H34  1  0.273500  0.462000  0.680200  1.0  0.1695
  H  H35  1  0.298200  0.948200  0.922300  1.0  0.1305
  H  H36  1  0.274900  0.684100  0.862000  1.0  0.167
  H  H37  1  0.038000  0.773500  0.930200  1.0  0.1666
  H  H38  1  0.701800  0.051800  0.422300  1.0  0.1305
  H  H39  1  0.725100  0.315900  0.362000  1.0  0.1668
  H  H40  1  0.962000  0.226500  0.430200  1.0  0.1673
  W  W41  1  0.694430  0.499560  0.045470  1.0  1.3892
  W  W42  1  0.672260  0.502780  0.942250  1.0  1.4813
  W  W43  1  0.640410  0.253130  0.993950  1.0  1.4381
  W  W44  1  0.419370  0.227510  0.948040  1.0  2.6
  W  W45  1  0.423850  0.207300  0.038700  1.0  1.3677
  W  W46  1  0.489250  0.438950  0.097270  1.0  1.417
  W  W47  1  0.305570  0.500440  0.545470  1.0  1.389
  W  W48  1  0.327740  0.497220  0.442250  1.0  1.4825
  W  W49  1  0.359590  0.746870  0.493950  1.0  1.4436
  W  W50  1  0.580630  0.772490  0.448040  1.0  2.6005
  W  W51  1  0.576150  0.792700  0.538700  1.0  1.375
  W  W52  1  0.510750  0.561050  0.597270  1.0  1.4195
  W  W53  1  0.000440  0.194430  0.295470  1.0  1.4004
  W  W54  1  0.997220  0.172260  0.192250  1.0  1.4964
  W  W55  1  0.246870  0.140410  0.243950  1.0  1.4515
  W  W56  1  0.272490  0.919370  0.198040  1.0  2.6007
  W  W57  1  0.292700  0.923850  0.288700  1.0  1.3653
  W  W58  1  0.061050  0.989250  0.347270  1.0  1.4177
  W  W59  1  0.999560  0.805570  0.795470  1.0  1.3925
  W  W60  1  0.002780  0.827740  0.692250  1.0  1.4886
  W  W61  1  0.753130  0.859590  0.743950  1.0  1.4445
  W  W62  1  0.727510  0.080630  0.698040  1.0  2.6017
  W  W63  1  0.707300  0.076150  0.788700  1.0  1.3666
  W  W64  1  0.938950  0.010750  0.847270  1.0  1.4179
  W  W65  1  0.805570  0.999560  0.204530  1.0  1.3891
  W  W66  1  0.827740  0.002780  0.307750  1.0  1.484
  W  W67  1  0.859590  0.753130  0.256050  1.0  1.4368
  W  W68  1  0.080630  0.727510  0.301960  1.0  2.6006
  W  W69  1  0.076150  0.707300  0.211300  1.0  1.3714
  W  W70  1  0.010750  0.938950  0.152730  1.0  1.4213
  W  W71  1  0.194430  0.000440  0.704530  1.0  1.3897
  W  W72  1  0.172260  0.997220  0.807750  1.0  1.4818
  W  W73  1  0.140410  0.246870  0.756050  1.0  1.4415
  W  W74  1  0.919370  0.272490  0.801960  1.0  2.6017
  W  W75  1  0.923850  0.292700  0.711300  1.0  1.38
  W  W76  1  0.989250  0.061050  0.652730  1.0  1.4227
  W  W77  1  0.499560  0.694430  0.954530  1.0  1.4011
  W  W78  1  0.502780  0.672260  0.057750  1.0  1.4967
  W  W79  1  0.253130  0.640410  0.006050  1.0  1.4465
  W  W80  1  0.227510  0.419370  0.051960  1.0  2.6013
  W  W81  1  0.207300  0.423850  0.961300  1.0  1.3694
  W  W82  1  0.438950  0.489250  0.902730  1.0  1.4212
  W  W83  1  0.500440  0.305570  0.454530  1.0  1.3927
  W  W84  1  0.497220  0.327740  0.557750  1.0  1.4907
  W  W85  1  0.746870  0.359590  0.506050  1.0  1.4429
  W  W86  1  0.772490  0.580630  0.551960  1.0  2.6023
  W  W87  1  0.792700  0.576150  0.461300  1.0  1.3676
  W  W88  1  0.561050  0.510750  0.402730  1.0  1.4195
  C  C89  1  0.717700  0.146400  0.106600  1.0  -0.076
  C  C90  1  0.890100  0.258900  0.085200  1.0  0.2577
  C  C91  1  0.618800  0.089900  0.117900  1.0  0.7242
  C  C92  1  0.732900  0.245100  0.121700  1.0  0.1702
  C  C93  1  0.786000  0.104100  0.080000  1.0  0.0554
  C  C94  1  0.946900  0.125100  0.038700  1.0  0.7749
  C  C95  1  0.873500  0.163000  0.068900  1.0  -0.1283
  C  C96  1  0.282300  0.853600  0.606600  1.0  -0.0781
  C  C97  1  0.109900  0.741100  0.585200  1.0  0.2574
  C  C98  1  0.381200  0.910100  0.617900  1.0  0.7224
  C  C99  1  0.267100  0.754900  0.621700  1.0  0.1712
  C  C100  1  0.214000  0.895900  0.580000  1.0  0.0555
  C  C101  1  0.053100  0.874900  0.538700  1.0  0.776
  C  C102  1  0.126500  0.837000  0.568900  1.0  -0.1267
  C  C103  1  0.353600  0.217700  0.356600  1.0  -0.0775
  C  C104  1  0.241100  0.390100  0.335200  1.0  0.2584
  C  C105  1  0.410100  0.118800  0.367900  1.0  0.724
  C  C106  1  0.254900  0.232900  0.371700  1.0  0.1726
  C  C107  1  0.395900  0.286000  0.330000  1.0  0.0558
  C  C108  1  0.374900  0.446900  0.288700  1.0  0.7771
  C  C109  1  0.337000  0.373500  0.318900  1.0  -0.128
  C  C110  1  0.646400  0.782300  0.856600  1.0  -0.0759
  C  C111  1  0.758900  0.609900  0.835200  1.0  0.2572
  C  C112  1  0.589900  0.881200  0.867900  1.0  0.7241
  C  C113  1  0.745100  0.767100  0.871700  1.0  0.1732
  C  C114  1  0.604100  0.714000  0.830000  1.0  0.0541
  C  C115  1  0.625100  0.553100  0.788700  1.0  0.7781
  C  C116  1  0.663000  0.626500  0.818900  1.0  -0.1286
  C  C117  1  0.782300  0.646400  0.143400  1.0  -0.0778
  C  C118  1  0.609900  0.758900  0.164800  1.0  0.2571
  C  C119  1  0.881200  0.589900  0.132100  1.0  0.722
  C  C120  1  0.767100  0.745100  0.128300  1.0  0.1705
  C  C121  1  0.714000  0.604100  0.170000  1.0  0.0565
  C  C122  1  0.553100  0.625100  0.211300  1.0  0.7768
  C  C123  1  0.626500  0.663000  0.181100  1.0  -0.1273
  C  C124  1  0.217700  0.353600  0.643400  1.0  -0.0761
  C  C125  1  0.390100  0.241100  0.664800  1.0  0.2566
  C  C126  1  0.118800  0.410100  0.632100  1.0  0.7245
  C  C127  1  0.232900  0.254900  0.628300  1.0  0.172
  C  C128  1  0.286000  0.395900  0.670000  1.0  0.0555
  C  C129  1  0.446900  0.374900  0.711300  1.0  0.7762
  C  C130  1  0.373500  0.337000  0.681100  1.0  -0.1289
  C  C131  1  0.146400  0.717700  0.893400  1.0  -0.0765
  C  C132  1  0.258900  0.890100  0.914800  1.0  0.2568
  C  C133  1  0.089900  0.618800  0.882100  1.0  0.7228
  C  C134  1  0.245100  0.732900  0.878300  1.0  0.1733
  C  C135  1  0.104100  0.786000  0.920000  1.0  0.055
  C  C136  1  0.125100  0.946900  0.961300  1.0  0.7773
  C  C137  1  0.163000  0.873500  0.931100  1.0  -0.1278
  C  C138  1  0.853600  0.282300  0.393400  1.0  -0.0777
  C  C139  1  0.741100  0.109900  0.414800  1.0  0.2583
  C  C140  1  0.910100  0.381200  0.382100  1.0  0.7247
  C  C141  1  0.754900  0.267100  0.378300  1.0  0.1739
  C  C142  1  0.895900  0.214000  0.420000  1.0  0.0557
  C  C143  1  0.874900  0.053100  0.461300  1.0  0.7793
  C  C144  1  0.837000  0.126500  0.431100  1.0  -0.1289
  N  N145  1  0.825600  0.299100  0.111500  1.0  -0.377
  N  N146  1  0.174400  0.700900  0.611500  1.0  -0.378
  N  N147  1  0.200900  0.325600  0.361500  1.0  -0.3749
  N  N148  1  0.799100  0.674400  0.861500  1.0  -0.3749
  N  N149  1  0.674400  0.799100  0.138500  1.0  -0.3775
  N  N150  1  0.325600  0.200900  0.638500  1.0  -0.3754
  N  N151  1  0.299100  0.825600  0.888500  1.0  -0.3744
  N  N152  1  0.700900  0.174400  0.388500  1.0  -0.3743
  O  O153  1  0.562300  0.179700  0.952600  1.0  -0.6665
  O  O154  1  0.703600  0.531800  0.994400  1.0  -0.658
  O  O155  1  0.517700  0.504700  0.040600  1.0  -0.9281
  O  O156  1  0.681300  0.354200  0.029500  1.0  -0.6677
  O  O157  1  0.478800  0.306800  0.074800  1.0  -0.6702
  O  O158  1  0.382200  0.141900  0.993000  1.0  -0.7318
  O  O159  1  0.450900  0.338600  0.916600  1.0  -0.7207
  O  O160  1  0.611700  0.993900  0.108900  1.0  -0.5413
  O  O161  1  0.594800  0.483200  0.897500  1.0  -0.6309
  O  O162  1  0.285900  0.297600  0.957300  1.0  -0.7625
  O  O163  1  0.667000  0.361600  0.956300  1.0  -0.669
  O  O164  1  0.572400  0.167200  0.029200  1.0  -0.6672
  O  O165  1  0.480000  0.314700  0.994980  1.0  -0.865
  O  O166  1  0.380600  0.130500  0.916800  1.0  -0.6817
  O  O167  1  0.636700  0.448800  0.093780  1.0  -0.6588
  O  O168  1  0.654900  0.638000  0.059700  1.0  -0.634
  O  O169  1  0.549300  0.139400  0.135400  1.0  -0.4858
  O  O170  1  0.932700  0.034200  0.027000  1.0  -0.4506
  O  O171  1  0.015400  0.187900  0.028000  1.0  -0.6152
  O  O172  1  0.437700  0.820300  0.452600  1.0  -0.6678
  O  O173  1  0.296400  0.468200  0.494400  1.0  -0.6606
  O  O174  1  0.482300  0.495300  0.540600  1.0  -0.928
  O  O175  1  0.318700  0.645800  0.529500  1.0  -0.6696
  O  O176  1  0.521200  0.693200  0.574800  1.0  -0.6685
  O  O177  1  0.617800  0.858100  0.493000  1.0  -0.7321
  O  O178  1  0.549100  0.661400  0.416600  1.0  -0.7219
  O  O179  1  0.388300  0.006100  0.608900  1.0  -0.5393
  O  O180  1  0.405200  0.516800  0.397500  1.0  -0.633
  O  O181  1  0.714100  0.702400  0.457300  1.0  -0.7629
  O  O182  1  0.333000  0.638400  0.456300  1.0  -0.6716
  O  O183  1  0.427600  0.832800  0.529200  1.0  -0.6688
  O  O184  1  0.520000  0.685300  0.494980  1.0  -0.8653
  O  O185  1  0.619400  0.869500  0.416800  1.0  -0.6807
  O  O186  1  0.363300  0.551200  0.593780  1.0  -0.6592
  O  O187  1  0.345100  0.362000  0.559700  1.0  -0.6362
  O  O188  1  0.450700  0.860600  0.635400  1.0  -0.4869
  O  O189  1  0.067300  0.965800  0.527000  1.0  -0.4512
  O  O190  1  0.984600  0.812100  0.528000  1.0  -0.616
  O  O191  1  0.320300  0.062300  0.202600  1.0  -0.6692
  O  O192  1  0.968200  0.203600  0.244400  1.0  -0.6643
  O  O193  1  0.995300  0.017700  0.290600  1.0  -0.9288
  O  O194  1  0.145800  0.181300  0.279500  1.0  -0.6724
  O  O195  1  0.193200  0.978800  0.324800  1.0  -0.667
  O  O196  1  0.358100  0.882200  0.243000  1.0  -0.7328
  O  O197  1  0.161400  0.950900  0.166600  1.0  -0.7223
  O  O198  1  0.506100  0.111700  0.358900  1.0  -0.5417
  O  O199  1  0.016800  0.094800  0.147500  1.0  -0.6312
  O  O200  1  0.202400  0.785900  0.207300  1.0  -0.7645
  O  O201  1  0.138400  0.167000  0.206300  1.0  -0.6741
  O  O202  1  0.332800  0.072400  0.279200  1.0  -0.6681
  O  O203  1  0.185300  0.980000  0.244980  1.0  -0.8645
  O  O204  1  0.369500  0.880600  0.166800  1.0  -0.6806
  O  O205  1  0.051200  0.136700  0.343780  1.0  -0.66
  O  O206  1  0.862000  0.154900  0.309700  1.0  -0.6365
  O  O207  1  0.360600  0.049300  0.385400  1.0  -0.4766
  O  O208  1  0.465800  0.432700  0.277000  1.0  -0.4556
  O  O209  1  0.312100  0.515400  0.278000  1.0  -0.6147
  O  O210  1  0.679700  0.937700  0.702600  1.0  -0.6662
  O  O211  1  0.031800  0.796400  0.744400  1.0  -0.6631
  O  O212  1  0.004700  0.982300  0.790600  1.0  -0.9286
  O  O213  1  0.854200  0.818700  0.779500  1.0  -0.6718
  O  O214  1  0.806800  0.021200  0.824800  1.0  -0.6684
  O  O215  1  0.641900  0.117800  0.743000  1.0  -0.7312
  O  O216  1  0.838600  0.049100  0.666667  1.0  -0.7216
  O  O217  1  0.493900  0.888300  0.858900  1.0  -0.5401
  O  O218  1  0.983200  0.905200  0.647500  1.0  -0.6319
  O  O219  1  0.797600  0.214100  0.707300  1.0  -0.7648
  O  O220  1  0.861600  0.833000  0.706300  1.0  -0.6739
  O  O221  1  0.667200  0.927600  0.779200  1.0  -0.6701
  O  O222  1  0.814700  0.020000  0.744980  1.0  -0.8649
  O  O223  1  0.630500  0.119400  0.666800  1.0  -0.6809
  O  O224  1  0.948800  0.863300  0.843780  1.0  -0.6601
  O  O225  1  0.138000  0.845100  0.809700  1.0  -0.6353
  O  O226  1  0.639400  0.950700  0.885400  1.0  -0.4772
  O  O227  1  0.534200  0.567300  0.777000  1.0  -0.4559
  O  O228  1  0.687900  0.484600  0.778000  1.0  -0.6156
  O  O229  1  0.937700  0.679700  0.297400  1.0  -0.6664
  O  O230  1  0.796400  0.031800  0.255600  1.0  -0.6607
  O  O231  1  0.982300  0.004700  0.209400  1.0  -0.9264
  O  O232  1  0.818700  0.854200  0.220500  1.0  -0.6702
  O  O233  1  0.021200  0.806800  0.175200  1.0  -0.6671
  O  O234  1  0.117800  0.641900  0.257000  1.0  -0.7316
  O  O235  1  0.049100  0.838600  0.333400  1.0  -0.7209
  O  O236  1  0.888300  0.493900  0.141100  1.0  -0.5397
  O  O237  1  0.905200  0.983200  0.352500  1.0  -0.6311
  O  O238  1  0.214100  0.797600  0.292700  1.0  -0.7634
  O  O239  1  0.833000  0.861600  0.293700  1.0  -0.6699
  O  O240  1  0.927600  0.667200  0.220800  1.0  -0.6674
  O  O241  1  0.020000  0.814700  0.255020  1.0  -0.8641
  O  O242  1  0.119400  0.630500  0.333200  1.0  -0.6815
  O  O243  1  0.863300  0.948800  0.156220  1.0  -0.6594
  O  O244  1  0.845100  0.138000  0.190300  1.0  -0.6355
  O  O245  1  0.950700  0.639400  0.114600  1.0  -0.4838
  O  O246  1  0.567300  0.534200  0.223000  1.0  -0.4504
  O  O247  1  0.484600  0.687900  0.222000  1.0  -0.6181
  O  O248  1  0.062300  0.320300  0.797400  1.0  -0.6677
  O  O249  1  0.203600  0.968200  0.755600  1.0  -0.6577
  O  O250  1  0.017700  0.995300  0.709400  1.0  -0.9264
  O  O251  1  0.181300  0.145800  0.720500  1.0  -0.6677
  O  O252  1  0.978800  0.193200  0.675200  1.0  -0.6671
  O  O253  1  0.882200  0.358100  0.757000  1.0  -0.7321
  O  O254  1  0.950900  0.161400  0.833400  1.0  -0.7197
  O  O255  1  0.111700  0.506100  0.641100  1.0  -0.5398
  O  O256  1  0.094800  0.016800  0.852500  1.0  -0.631
  O  O257  1  0.785900  0.202400  0.792700  1.0  -0.7623
  O  O258  1  0.167000  0.138400  0.793700  1.0  -0.6707
  O  O259  1  0.072400  0.332800  0.720800  1.0  -0.6673
  O  O260  1  0.980000  0.185300  0.755020  1.0  -0.866
  O  O261  1  0.880600  0.369500  0.833200  1.0  -0.6817
  O  O262  1  0.136700  0.051200  0.656220  1.0  -0.6584
  O  O263  1  0.154900  0.862000  0.690300  1.0  -0.6349
  O  O264  1  0.049300  0.360600  0.614600  1.0  -0.4872
  O  O265  1  0.432700  0.465800  0.723000  1.0  -0.451
  O  O266  1  0.515400  0.312100  0.722000  1.0  -0.6176
  O  O267  1  0.179700  0.562300  0.047400  1.0  -0.6674
  O  O268  1  0.531800  0.703600  0.005600  1.0  -0.6621
  O  O269  1  0.504700  0.517700  0.959400  1.0  -0.9268
  O  O270  1  0.354200  0.681300  0.970500  1.0  -0.6722
  O  O271  1  0.306800  0.478800  0.925200  1.0  -0.6663
  O  O272  1  0.141900  0.382200  0.007000  1.0  -0.7314
  O  O273  1  0.338600  0.450900  0.083400  1.0  -0.7215
  O  O274  1  0.993900  0.611700  0.891100  1.0  -0.5404
  O  O275  1  0.483200  0.594800  0.102500  1.0  -0.6307
  O  O276  1  0.297600  0.285900  0.042700  1.0  -0.7648
  O  O277  1  0.361600  0.667000  0.043700  1.0  -0.675
  O  O278  1  0.167200  0.572400  0.970800  1.0  -0.6689
  O  O279  1  0.314700  0.480000  0.005020  1.0  -0.8657
  O  O280  1  0.130500  0.380600  0.083200  1.0  -0.6816
  O  O281  1  0.448800  0.636700  0.906220  1.0  -0.66
  O  O282  1  0.638000  0.654900  0.940300  1.0  -0.6352
  O  O283  1  0.139400  0.549300  0.864600  1.0  -0.4761
  O  O284  1  0.034200  0.932700  0.973000  1.0  -0.4565
  O  O285  1  0.187900  0.015400  0.972000  1.0  -0.6184
  O  O286  1  0.820300  0.437700  0.547400  1.0  -0.668
  O  O287  1  0.468200  0.296400  0.505600  1.0  -0.6651
  O  O288  1  0.495300  0.482300  0.459400  1.0  -0.9265
  O  O289  1  0.645800  0.318700  0.470500  1.0  -0.6724
  O  O290  1  0.693200  0.521200  0.425200  1.0  -0.6654
  O  O291  1  0.858100  0.617800  0.507000  1.0  -0.7331
  O  O292  1  0.661400  0.549100  0.583400  1.0  -0.7209
  O  O293  1  0.006100  0.388300  0.391100  1.0  -0.5409
  O  O294  1  0.516800  0.405200  0.602500  1.0  -0.6306
  O  O295  1  0.702400  0.714100  0.542700  1.0  -0.7664
  O  O296  1  0.638400  0.333000  0.543700  1.0  -0.6748
  O  O297  1  0.832800  0.427600  0.470800  1.0  -0.6673
  O  O298  1  0.685300  0.520000  0.505020  1.0  -0.8644
  O  O299  1  0.869500  0.619400  0.583200  1.0  -0.6811
  O  O300  1  0.551200  0.363300  0.406220  1.0  -0.6601
  O  O301  1  0.362000  0.345100  0.440300  1.0  -0.6357
  O  O302  1  0.860600  0.450700  0.364600  1.0  -0.4789
  O  O303  1  0.965800  0.067300  0.473000  1.0  -0.4564
  O  O304  1  0.812100  0.984600  0.472000  1.0  -0.6171
