# generated using pymatgen
data_CoH12C16N3O2
_symmetry_space_group_name_H-M   'P 1'
_cell_length_a   15.13160000
_cell_length_b   24.73690000
_cell_length_c   15.36130000
_cell_angle_alpha   90.00000000
_cell_angle_beta   110.84700000
_cell_angle_gamma   90.00000000
_symmetry_Int_Tables_number   1
_chemical_formula_structural   CoH12C16N3O2
_chemical_formula_sum   'Co4 H48 C64 N12 O8'
_cell_volume   5373.45026609
_cell_formula_units_Z   4
loop_
 _symmetry_equiv_pos_site_id
 _symmetry_equiv_pos_as_xyz
  1  'x, y, z'
loop_
 _atom_site_type_symbol
 _atom_site_label
 _atom_site_symmetry_multiplicity
 _atom_site_fract_x
 _atom_site_fract_y
 _atom_site_fract_z
 _atom_site_occupancy
 _atom_site_charge
  Co  Co1  1  0.897880  0.520650  0.110140  1.0  0.7486
  Co  Co2  1  0.102120  0.020650  0.889860  1.0  0.7491
  Co  Co3  1  0.102120  0.479350  0.889860  1.0  0.75
  Co  Co4  1  0.897880  0.979350  0.110140  1.0  0.7496
  H  H5  1  0.060800  0.441800  0.428100  1.0  0.0857
  H  H6  1  0.560100  0.529700  0.897000  1.0  0.1002
  H  H7  1  0.026100  0.457300  0.276700  1.0  0.0805
  H  H8  1  0.747900  0.491700  0.196700  1.0  0.0972
  H  H9  1  0.913000  0.572300  0.441000  1.0  0.1005
  H  H10  1  0.712900  0.542600  0.947500  1.0  0.0513
  H  H11  1  0.889400  0.589200  0.282500  1.0  0.0765
  H  H12  1  0.585400  0.476300  0.142800  1.0  0.0925
  H  H13  1  0.030800  0.612900  0.170300  1.0  0.0478
  H  H14  1  0.041400  0.707400  0.180500  1.0  0.0934
  H  H15  1  0.763900  0.709800  0.059000  1.0  0.1239
  H  H16  1  0.764700  0.618100  0.050200  1.0  0.0428
  H  H17  1  0.939200  0.941800  0.571900  1.0  0.0846
  H  H18  1  0.439900  0.029700  0.103000  1.0  0.1008
  H  H19  1  0.973900  0.957300  0.723300  1.0  0.0809
  H  H20  1  0.252100  0.991700  0.803300  1.0  0.0963
  H  H21  1  0.087000  0.072300  0.559000  1.0  0.0992
  H  H22  1  0.287100  0.042600  0.052500  1.0  0.0504
  H  H23  1  0.110600  0.089200  0.717500  1.0  0.0769
  H  H24  1  0.414600  0.976300  0.857200  1.0  0.0909
  H  H25  1  0.969200  0.112900  0.829700  1.0  0.0483
  H  H26  1  0.958600  0.207400  0.819500  1.0  0.0934
  H  H27  1  0.236100  0.209800  0.941000  1.0  0.1228
  H  H28  1  0.235300  0.118100  0.949800  1.0  0.0421
  H  H29  1  0.939200  0.558200  0.571900  1.0  0.0854
  H  H30  1  0.439900  0.470300  0.103000  1.0  0.1007
  H  H31  1  0.973900  0.542700  0.723300  1.0  0.0812
  H  H32  1  0.252100  0.508300  0.803300  1.0  0.0963
  H  H33  1  0.087000  0.427700  0.559000  1.0  0.0997
  H  H34  1  0.287100  0.457400  0.052500  1.0  0.0507
  H  H35  1  0.110600  0.410800  0.717500  1.0  0.0773
  H  H36  1  0.414600  0.523700  0.857200  1.0  0.0915
  H  H37  1  0.969200  0.387100  0.829700  1.0  0.0486
  H  H38  1  0.958600  0.292600  0.819500  1.0  0.0937
  H  H39  1  0.236100  0.290200  0.941000  1.0  0.1225
  H  H40  1  0.235300  0.381900  0.949800  1.0  0.0423
  H  H41  1  0.060800  0.058200  0.428100  1.0  0.0865
  H  H42  1  0.560100  0.970300  0.897000  1.0  0.1001
  H  H43  1  0.026100  0.042700  0.276700  1.0  0.0814
  H  H44  1  0.747900  0.008300  0.196700  1.0  0.097
  H  H45  1  0.913000  0.927700  0.441000  1.0  0.1007
  H  H46  1  0.712900  0.957400  0.947500  1.0  0.0511
  H  H47  1  0.889400  0.910800  0.282500  1.0  0.0769
  H  H48  1  0.585400  0.023700  0.142800  1.0  0.0929
  H  H49  1  0.030800  0.887100  0.170300  1.0  0.0478
  H  H50  1  0.041400  0.792600  0.180500  1.0  0.0935
  H  H51  1  0.763900  0.790200  0.059000  1.0  0.1238
  H  H52  1  0.764700  0.881900  0.050200  1.0  0.0431
  C  C53  1  0.023800  0.471400  0.400100  1.0  -0.1778
  C  C54  1  0.992800  0.505800  0.451200  1.0  0.0017
  C  C55  1  0.044100  0.498300  0.043600  1.0  0.6028
  C  C56  1  0.595700  0.521000  0.958400  1.0  -0.207
  C  C57  1  0.551900  0.501900  0.015000  1.0  0.1015
  C  C58  1  0.001100  0.480200  0.310000  1.0  0.1402
  C  C59  1  0.903000  0.722000  0.116000  1.0  0.0922
  C  C60  1  0.710600  0.497900  0.134700  1.0  0.0644
  C  C61  1  0.937600  0.549000  0.407800  1.0  -0.2091
  C  C62  1  0.687600  0.527400  0.988900  1.0  0.1337
  C  C63  1  0.918800  0.557500  0.310900  1.0  0.0902
  C  C64  1  0.611600  0.490400  0.101400  1.0  -0.1287
  C  C65  1  0.975000  0.632600  0.146500  1.0  0.1576
  C  C66  1  0.982700  0.691100  0.152300  1.0  -0.2359
  C  C67  1  0.821700  0.691900  0.081300  1.0  -0.1806
  C  C68  1  0.822200  0.635700  0.078000  1.0  0.1567
  C  C69  1  0.976200  0.971400  0.599900  1.0  -0.1776
  C  C70  1  0.007200  0.005800  0.548800  1.0  0.0031
  C  C71  1  0.955900  0.998300  0.956400  1.0  0.6018
  C  C72  1  0.404300  0.021000  0.041600  1.0  -0.2077
  C  C73  1  0.448100  0.001900  0.985000  1.0  0.1024
  C  C74  1  0.998900  0.980200  0.690000  1.0  0.1417
  C  C75  1  0.097000  0.222000  0.884000  1.0  0.0919
  C  C76  1  0.289400  0.997900  0.865300  1.0  0.0647
  C  C77  1  0.062400  0.049000  0.592200  1.0  -0.2078
  C  C78  1  0.312400  0.027400  0.011100  1.0  0.1338
  C  C79  1  0.081200  0.057500  0.689100  1.0  0.0904
  C  C80  1  0.388400  0.990400  0.898600  1.0  -0.1302
  C  C81  1  0.025000  0.132600  0.853500  1.0  0.156
  C  C82  1  0.017300  0.191100  0.847700  1.0  -0.2375
  C  C83  1  0.178300  0.191900  0.918700  1.0  -0.1814
  C  C84  1  0.177800  0.135700  0.922000  1.0  0.1579
  C  C85  1  0.976200  0.528600  0.599900  1.0  -0.1733
  C  C86  1  0.007200  0.494200  0.548800  1.0  0.0028
  C  C87  1  0.955900  0.501700  0.956400  1.0  0.6018
  C  C88  1  0.404300  0.479000  0.041600  1.0  -0.2064
  C  C89  1  0.448100  0.498100  0.985000  1.0  0.1032
  C  C90  1  0.998900  0.519800  0.690000  1.0  0.1395
  C  C91  1  0.097000  0.278000  0.884000  1.0  0.0914
  C  C92  1  0.289400  0.502100  0.865300  1.0  0.0661
  C  C93  1  0.062400  0.451000  0.592200  1.0  -0.2057
  C  C94  1  0.312400  0.472600  0.011100  1.0  0.1344
  C  C95  1  0.081200  0.442500  0.689100  1.0  0.0902
  C  C96  1  0.388400  0.509600  0.898600  1.0  -0.1272
  C  C97  1  0.025000  0.367400  0.853500  1.0  0.1564
  C  C98  1  0.017300  0.308900  0.847700  1.0  -0.2377
  C  C99  1  0.178300  0.308100  0.918700  1.0  -0.1813
  C  C100  1  0.177800  0.364300  0.922000  1.0  0.1584
  C  C101  1  0.023800  0.028600  0.400100  1.0  -0.1731
  C  C102  1  0.992800  0.994200  0.451200  1.0  0.0014
  C  C103  1  0.044100  0.001700  0.043600  1.0  0.6028
  C  C104  1  0.595700  0.979000  0.958400  1.0  -0.2059
  C  C105  1  0.551900  0.998100  0.015000  1.0  0.1027
  C  C106  1  0.001100  0.019800  0.310000  1.0  0.1396
  C  C107  1  0.903000  0.778000  0.116000  1.0  0.0915
  C  C108  1  0.710600  0.002100  0.134700  1.0  0.0655
  C  C109  1  0.937600  0.951000  0.407800  1.0  -0.2061
  C  C110  1  0.687600  0.972600  0.988900  1.0  0.1344
  C  C111  1  0.918800  0.942500  0.310900  1.0  0.0905
  C  C112  1  0.611600  0.009600  0.101400  1.0  -0.1255
  C  C113  1  0.975000  0.867400  0.146500  1.0  0.1582
  C  C114  1  0.982700  0.808900  0.152300  1.0  -0.2368
  C  C115  1  0.821700  0.808100  0.081300  1.0  -0.1806
  C  C116  1  0.822200  0.864300  0.078000  1.0  0.1577
  N  N117  1  0.942600  0.521300  0.262500  1.0  -0.3332
  N  N118  1  0.747800  0.514500  0.071700  1.0  -0.3334
  N  N119  1  0.898400  0.606000  0.111600  1.0  -0.3168
  N  N120  1  0.057400  0.021300  0.737500  1.0  -0.3338
  N  N121  1  0.252200  0.014500  0.928300  1.0  -0.3315
  N  N122  1  0.101600  0.106000  0.888400  1.0  -0.3151
  N  N123  1  0.057400  0.478700  0.737500  1.0  -0.3341
  N  N124  1  0.252200  0.485500  0.928300  1.0  -0.3321
  N  N125  1  0.101600  0.394000  0.888400  1.0  -0.3176
  N  N126  1  0.942600  0.978700  0.262500  1.0  -0.3326
  N  N127  1  0.747800  0.985500  0.071700  1.0  -0.3343
  N  N128  1  0.898400  0.894000  0.111600  1.0  -0.318
  O  O129  1  0.039500  0.509100  0.122200  1.0  -0.581
  O  O130  1  0.118700  0.484100  0.029700  1.0  -0.5828
  O  O131  1  0.960500  0.009100  0.877800  1.0  -0.5829
  O  O132  1  0.881300  0.984100  0.970300  1.0  -0.5839
  O  O133  1  0.960500  0.490900  0.877800  1.0  -0.5831
  O  O134  1  0.881300  0.515900  0.970300  1.0  -0.5832
  O  O135  1  0.039500  0.990900  0.122200  1.0  -0.5813
  O  O136  1  0.118700  0.015900  0.029700  1.0  -0.5827
