# generated using pymatgen
data_Cd2H28C36O17
_symmetry_space_group_name_H-M   'P 1'
_cell_length_a   10.27000000
_cell_length_b   16.59400000
_cell_length_c   28.68300000
_cell_angle_alpha   90.00000000
_cell_angle_beta   90.00000000
_cell_angle_gamma   104.96400000
_symmetry_Int_Tables_number   1
_chemical_formula_structural   Cd2H28C36O17
_chemical_formula_sum   'Cd8 H112 C144 O68'
_cell_volume   4722.40146788
_cell_formula_units_Z   4
loop_
 _symmetry_equiv_pos_site_id
 _symmetry_equiv_pos_as_xyz
  1  'x, y, z'
loop_
 _atom_site_type_symbol
 _atom_site_label
 _atom_site_symmetry_multiplicity
 _atom_site_fract_x
 _atom_site_fract_y
 _atom_site_fract_z
 _atom_site_occupancy
 _atom_site_charge
  Cd  Cd1  1  0.960570  0.668120  0.347410  1.0  1.0747
  Cd  Cd2  1  0.602000  0.600100  0.308250  1.0  1.0155
  Cd  Cd3  1  0.039430  0.831880  0.847410  1.0  1.0739
  Cd  Cd4  1  0.398000  0.899900  0.808250  1.0  1.0161
  Cd  Cd5  1  0.039430  0.331880  0.652590  1.0  1.0727
  Cd  Cd6  1  0.398000  0.399900  0.691750  1.0  1.0166
  Cd  Cd7  1  0.960570  0.168120  0.152590  1.0  1.0735
  Cd  Cd8  1  0.602000  0.100100  0.191750  1.0  1.0157
  H  H9  1  0.735300  0.888300  0.246800  1.0  0.1279
  H  H10  1  0.024700  0.075400  0.300300  1.0  0.1385
  H  H11  1  0.922900  0.855600  0.366600  1.0  0.1295
  H  H12  1  0.100500  0.934600  0.423700  1.0  0.1237
  H  H13  1  0.960000  0.956200  0.424700  1.0  0.0772
  H  H14  1  0.879300  0.151500  0.436800  1.0  0.1209
  H  H15  1  0.839600  0.054500  0.443800  1.0  0.1376
  H  H16  1  0.925100  0.094100  0.400400  1.0  0.1239
  H  H17  1  0.207500  0.296100  0.543500  1.0  0.1341
  H  H18  1  0.351900  0.281100  0.540900  1.0  0.1226
  H  H19  1  0.249800  0.236000  0.579200  1.0  0.1339
  H  H20  1  0.269200  0.952800  0.447400  1.0  0.123
  H  H21  1  0.343600  0.977600  0.495100  1.0  0.1341
  H  H22  1  0.400300  0.026400  0.449500  1.0  0.1385
  H  H23  1  0.742300  0.508700  0.479800  1.0  0.1231
  H  H24  1  0.823200  0.303300  0.533100  1.0  0.1343
  H  H25  1  0.033800  0.420200  0.424400  1.0  0.1427
  H  H26  1  0.895500  0.197400  0.504200  1.0  0.1002
  H  H27  1  0.009300  0.249000  0.537300  1.0  0.1051
  H  H28  1  0.340700  0.997700  0.645900  1.0  0.1339
  H  H29  1  0.623600  0.176100  0.582600  1.0  0.1257
  H  H30  1  0.696300  0.095000  0.708600  1.0  0.1369
  H  H31  1  0.474300  0.112900  0.514800  1.0  0.083
  H  H32  1  0.448200  0.189500  0.542200  1.0  0.1006
  H  H33  1  0.399000  0.656000  0.360000  1.0  0.4292
  H  H34  1  0.343000  0.642000  0.314000  1.0  0.4018
  H  H35  1  0.667000  0.539000  0.392000  1.0  0.4348
  H  H36  1  0.542000  0.554000  0.407100  1.0  0.4158
  H  H37  1  0.264700  0.611700  0.746800  1.0  0.1276
  H  H38  1  0.975300  0.424600  0.800300  1.0  0.139
  H  H39  1  0.077100  0.644400  0.866600  1.0  0.1297
  H  H40  1  0.899500  0.565400  0.923700  1.0  0.1233
  H  H41  1  0.040000  0.543800  0.924700  1.0  0.0782
  H  H42  1  0.120700  0.348500  0.936800  1.0  0.1218
  H  H43  1  0.160400  0.445500  0.943800  1.0  0.1369
  H  H44  1  0.074900  0.405900  0.900400  1.0  0.1234
  H  H45  1  0.792500  0.203900  0.043500  1.0  0.1323
  H  H46  1  0.648100  0.218900  0.040900  1.0  0.1232
  H  H47  1  0.750200  0.264000  0.079200  1.0  0.1344
  H  H48  1  0.730800  0.547200  0.947400  1.0  0.1237
  H  H49  1  0.656400  0.522400  0.995100  1.0  0.1342
  H  H50  1  0.599700  0.473600  0.949500  1.0  0.1378
  H  H51  1  0.257700  0.991300  0.979800  1.0  0.1233
  H  H52  1  0.176800  0.196700  0.033100  1.0  0.1346
  H  H53  1  0.966200  0.079800  0.924400  1.0  0.1436
  H  H54  1  0.104500  0.302600  0.004200  1.0  0.1009
  H  H55  1  0.990700  0.251000  0.037300  1.0  0.1056
  H  H56  1  0.659300  0.502300  0.145900  1.0  0.1334
  H  H57  1  0.376400  0.323900  0.082600  1.0  0.1257
  H  H58  1  0.303700  0.405000  0.208600  1.0  0.1369
  H  H59  1  0.525700  0.387100  0.014800  1.0  0.0822
  H  H60  1  0.551800  0.310500  0.042200  1.0  0.1001
  H  H61  1  0.601000  0.844000  0.860000  1.0  0.428
  H  H62  1  0.657000  0.858000  0.814000  1.0  0.3991
  H  H63  1  0.333000  0.961000  0.892000  1.0  0.433
  H  H64  1  0.458000  0.946000  0.907100  1.0  0.4165
  H  H65  1  0.264700  0.111700  0.753200  1.0  0.1287
  H  H66  1  0.975300  0.924600  0.699700  1.0  0.1396
  H  H67  1  0.077100  0.144400  0.633400  1.0  0.1305
  H  H68  1  0.899500  0.065400  0.576300  1.0  0.1233
  H  H69  1  0.040000  0.043800  0.575300  1.0  0.0787
  H  H70  1  0.120700  0.848500  0.563200  1.0  0.1213
  H  H71  1  0.160400  0.945500  0.556200  1.0  0.1377
  H  H72  1  0.074900  0.905900  0.599600  1.0  0.124
  H  H73  1  0.792500  0.703900  0.456500  1.0  0.1335
  H  H74  1  0.648100  0.718900  0.459100  1.0  0.1236
  H  H75  1  0.750200  0.764000  0.420800  1.0  0.1345
  H  H76  1  0.730800  0.047200  0.552600  1.0  0.1223
  H  H77  1  0.656400  0.022400  0.504900  1.0  0.1344
  H  H78  1  0.599700  0.973600  0.550500  1.0  0.1377
  H  H79  1  0.257700  0.491300  0.520200  1.0  0.1236
  H  H80  1  0.176800  0.696700  0.466900  1.0  0.1344
  H  H81  1  0.966200  0.579800  0.575600  1.0  0.1444
  H  H82  1  0.104500  0.802600  0.495800  1.0  0.1019
  H  H83  1  0.990700  0.751000  0.462700  1.0  0.1063
  H  H84  1  0.659300  0.002300  0.354100  1.0  0.1332
  H  H85  1  0.376400  0.823900  0.417400  1.0  0.1255
  H  H86  1  0.303700  0.905000  0.291400  1.0  0.1354
  H  H87  1  0.525700  0.887100  0.485200  1.0  0.0828
  H  H88  1  0.551800  0.810500  0.457800  1.0  0.0999
  H  H89  1  0.601000  0.344000  0.640000  1.0  0.428
  H  H90  1  0.657000  0.358000  0.686000  1.0  0.3996
  H  H91  1  0.333000  0.461000  0.608000  1.0  0.4333
  H  H92  1  0.458000  0.446000  0.592900  1.0  0.4164
  H  H93  1  0.735300  0.388300  0.253200  1.0  0.1286
  H  H94  1  0.024700  0.575400  0.199700  1.0  0.1388
  H  H95  1  0.922900  0.355600  0.133400  1.0  0.1302
  H  H96  1  0.100500  0.434600  0.076300  1.0  0.1236
  H  H97  1  0.960000  0.456200  0.075300  1.0  0.0781
  H  H98  1  0.879300  0.651500  0.063200  1.0  0.1211
  H  H99  1  0.839600  0.554500  0.056200  1.0  0.1393
  H  H100  1  0.925100  0.594100  0.099600  1.0  0.1239
  H  H101  1  0.207500  0.796100  0.956500  1.0  0.1344
  H  H102  1  0.351900  0.781100  0.959100  1.0  0.1224
  H  H103  1  0.249800  0.736000  0.920800  1.0  0.1351
  H  H104  1  0.269200  0.452800  0.052600  1.0  0.1223
  H  H105  1  0.343600  0.477600  0.004900  1.0  0.1343
  H  H106  1  0.400300  0.526400  0.050500  1.0  0.1367
  H  H107  1  0.742300  0.008700  0.020200  1.0  0.1233
  H  H108  1  0.823200  0.803300  0.966900  1.0  0.134
  H  H109  1  0.033800  0.920200  0.075600  1.0  0.1439
  H  H110  1  0.895500  0.697400  0.995800  1.0  0.1018
  H  H111  1  0.009300  0.749000  0.962700  1.0  0.1053
  H  H112  1  0.340700  0.497700  0.854100  1.0  0.1341
  H  H113  1  0.623600  0.676100  0.917400  1.0  0.1253
  H  H114  1  0.696300  0.595000  0.791400  1.0  0.1355
  H  H115  1  0.474300  0.612900  0.985200  1.0  0.083
  H  H116  1  0.448200  0.689500  0.957800  1.0  0.0998
  H  H117  1  0.399000  0.156000  0.140000  1.0  0.4294
  H  H118  1  0.343000  0.142000  0.186000  1.0  0.3992
  H  H119  1  0.667000  0.039000  0.108000  1.0  0.4351
  H  H120  1  0.542000  0.054000  0.092900  1.0  0.416
  C  C121  1  0.740500  0.767400  0.306600  1.0  0.6993
  C  C122  1  0.817200  0.857200  0.306100  1.0  -0.1275
  C  C123  1  0.799700  0.908700  0.269600  1.0  0.0388
  C  C124  1  0.877700  0.990000  0.267100  1.0  -0.1375
  C  C125  1  0.971200  0.021000  0.302100  1.0  -0.0785
  C  C126  1  0.985200  0.971300  0.339700  1.0  0.2725
  C  C127  1  0.911300  0.889400  0.341900  1.0  -0.1906
  C  C128  1  0.864500  0.046000  0.226000  1.0  0.7243
  C  C129  1  0.055600  0.978800  0.419000  1.0  0.0639
  C  C130  1  0.112200  0.050000  0.452100  1.0  -0.049
  C  C131  1  0.035500  0.108100  0.460000  1.0  0.0845
  C  C132  1  0.080500  0.171800  0.492300  1.0  -0.077
  C  C133  1  0.205900  0.182500  0.514400  1.0  0.0399
  C  C134  1  0.281100  0.124200  0.506200  1.0  -0.0811
  C  C135  1  0.235600  0.058900  0.474900  1.0  0.0869
  C  C136  1  0.908400  0.101400  0.432800  1.0  -0.3541
  C  C137  1  0.258700  0.255700  0.547600  1.0  -0.3269
  C  C138  1  0.319800  0.998400  0.465900  1.0  -0.3423
  C  C139  1  0.920200  0.543800  0.411000  1.0  0.6826
  C  C140  1  0.891600  0.475300  0.446400  1.0  -0.1457
  C  C141  1  0.792900  0.469600  0.479400  1.0  -0.0187
  C  C142  1  0.767800  0.406300  0.512200  1.0  -0.1354
  C  C143  1  0.840500  0.346400  0.511400  1.0  -0.2077
  C  C144  1  0.938400  0.351700  0.478000  1.0  0.2994
  C  C145  1  0.965400  0.416300  0.446200  1.0  -0.0585
  C  C146  1  0.660400  0.399800  0.549800  1.0  0.6951
  C  C147  1  0.989600  0.228200  0.505800  1.0  0.0864
  C  C148  1  0.466500  0.981300  0.725000  1.0  0.7443
  C  C149  1  0.510100  0.036300  0.683800  1.0  -0.1031
  C  C150  1  0.426000  0.034600  0.646000  1.0  -0.1329
  C  C151  1  0.467200  0.087200  0.608200  1.0  0.2978
  C  C152  1  0.595000  0.141400  0.608100  1.0  -0.1764
  C  C153  1  0.680000  0.144300  0.645700  1.0  -0.1122
  C  C154  1  0.638800  0.092700  0.683300  1.0  0.0322
  C  C155  1  0.815500  0.204800  0.646500  1.0  0.6869
  C  C156  1  0.409100  0.131900  0.533400  1.0  0.0857
  C  C157  1  0.259500  0.732600  0.806600  1.0  0.6988
  C  C158  1  0.182800  0.642800  0.806100  1.0  -0.124
  C  C159  1  0.200300  0.591300  0.769600  1.0  0.0395
  C  C160  1  0.122300  0.510000  0.767100  1.0  -0.139
  C  C161  1  0.028800  0.479000  0.802100  1.0  -0.0769
  C  C162  1  0.014800  0.528700  0.839700  1.0  0.2708
  C  C163  1  0.088700  0.610600  0.841900  1.0  -0.1926
  C  C164  1  0.135500  0.454000  0.726000  1.0  0.7228
  C  C165  1  0.944400  0.521200  0.919000  1.0  0.0635
  C  C166  1  0.887800  0.450000  0.952100  1.0  -0.0517
  C  C167  1  0.964500  0.391900  0.960000  1.0  0.0831
  C  C168  1  0.919500  0.328200  0.992300  1.0  -0.0775
  C  C169  1  0.794100  0.317500  0.014400  1.0  0.0393
  C  C170  1  0.718900  0.375800  0.006200  1.0  -0.0833
  C  C171  1  0.764400  0.441100  0.974900  1.0  0.0853
  C  C172  1  0.091600  0.398600  0.932800  1.0  -0.3569
  C  C173  1  0.741300  0.244300  0.047600  1.0  -0.3269
  C  C174  1  0.680200  0.501600  0.965900  1.0  -0.3419
  C  C175  1  0.079800  0.956200  0.911000  1.0  0.6837
  C  C176  1  0.108400  0.024700  0.946400  1.0  -0.146
  C  C177  1  0.207100  0.030400  0.979400  1.0  -0.0185
  C  C178  1  0.232200  0.093700  0.012200  1.0  -0.1357
  C  C179  1  0.159500  0.153600  0.011400  1.0  -0.2094
  C  C180  1  0.061600  0.148300  0.978000  1.0  0.3002
  C  C181  1  0.034600  0.083700  0.946200  1.0  -0.0573
  C  C182  1  0.339600  0.100200  0.049800  1.0  0.6972
  C  C183  1  0.010400  0.271800  0.005800  1.0  0.0868
  C  C184  1  0.533500  0.518700  0.225000  1.0  0.7444
  C  C185  1  0.489900  0.463700  0.183800  1.0  -0.1042
  C  C186  1  0.574000  0.465400  0.146000  1.0  -0.1332
  C  C187  1  0.532800  0.412800  0.108200  1.0  0.2965
  C  C188  1  0.405000  0.358600  0.108100  1.0  -0.1758
  C  C189  1  0.320000  0.355700  0.145700  1.0  -0.1107
  C  C190  1  0.361200  0.407300  0.183300  1.0  0.0309
  C  C191  1  0.184500  0.295200  0.146500  1.0  0.6842
  C  C192  1  0.590900  0.368100  0.033400  1.0  0.086
  C  C193  1  0.259500  0.232600  0.693400  1.0  0.7004
  C  C194  1  0.182800  0.142800  0.693900  1.0  -0.1247
  C  C195  1  0.200300  0.091300  0.730400  1.0  0.0393
  C  C196  1  0.122300  0.010000  0.732900  1.0  -0.1381
  C  C197  1  0.028800  0.979000  0.697900  1.0  -0.0772
  C  C198  1  0.014800  0.028700  0.660300  1.0  0.274
  C  C199  1  0.088700  0.110600  0.658100  1.0  -0.194
  C  C200  1  0.135500  0.954000  0.774000  1.0  0.7228
  C  C201  1  0.944400  0.021200  0.581000  1.0  0.0612
  C  C202  1  0.887800  0.950000  0.547900  1.0  -0.0509
  C  C203  1  0.964500  0.891900  0.540000  1.0  0.0853
  C  C204  1  0.919500  0.828200  0.507700  1.0  -0.0749
  C  C205  1  0.794100  0.817500  0.485600  1.0  0.04
  C  C206  1  0.718900  0.875800  0.493800  1.0  -0.0824
  C  C207  1  0.764400  0.941100  0.525100  1.0  0.0861
  C  C208  1  0.091600  0.898600  0.567200  1.0  -0.3551
  C  C209  1  0.741300  0.744300  0.452400  1.0  -0.3281
  C  C210  1  0.680200  0.001600  0.534100  1.0  -0.342
  C  C211  1  0.079800  0.456200  0.589000  1.0  0.6821
  C  C212  1  0.108400  0.524700  0.553600  1.0  -0.1446
  C  C213  1  0.207100  0.530400  0.520600  1.0  -0.0186
  C  C214  1  0.232200  0.593700  0.487800  1.0  -0.135
  C  C215  1  0.159500  0.653600  0.488600  1.0  -0.2099
  C  C216  1  0.061600  0.648300  0.522000  1.0  0.2998
  C  C217  1  0.034600  0.583700  0.553800  1.0  -0.0589
  C  C218  1  0.339600  0.600200  0.450200  1.0  0.6967
  C  C219  1  0.010400  0.771800  0.494200  1.0  0.0856
  C  C220  1  0.533500  0.018700  0.275000  1.0  0.7449
  C  C221  1  0.489900  0.963700  0.316200  1.0  -0.103
  C  C222  1  0.574000  0.965400  0.354000  1.0  -0.1334
  C  C223  1  0.532800  0.912800  0.391800  1.0  0.2971
  C  C224  1  0.405000  0.858600  0.391900  1.0  -0.175
  C  C225  1  0.320000  0.855700  0.354300  1.0  -0.1138
  C  C226  1  0.361200  0.907300  0.316700  1.0  0.0325
  C  C227  1  0.184500  0.795200  0.353500  1.0  0.683
  C  C228  1  0.590900  0.868100  0.466600  1.0  0.0864
  C  C229  1  0.740500  0.267400  0.193400  1.0  0.7004
  C  C230  1  0.817200  0.357200  0.193900  1.0  -0.124
  C  C231  1  0.799700  0.408700  0.230400  1.0  0.0394
  C  C232  1  0.877700  0.490000  0.232900  1.0  -0.1386
  C  C233  1  0.971200  0.521000  0.197900  1.0  -0.0773
  C  C234  1  0.985200  0.471300  0.160300  1.0  0.2739
  C  C235  1  0.911300  0.389400  0.158100  1.0  -0.1903
  C  C236  1  0.864500  0.546000  0.274000  1.0  0.7237
  C  C237  1  0.055600  0.478800  0.081000  1.0  0.062
  C  C238  1  0.112200  0.550000  0.047900  1.0  -0.0497
  C  C239  1  0.035500  0.608100  0.040000  1.0  0.0859
  C  C240  1  0.080500  0.671800  0.007700  1.0  -0.0737
  C  C241  1  0.205900  0.682500  0.985600  1.0  0.0415
  C  C242  1  0.281100  0.624200  0.993800  1.0  -0.0816
  C  C243  1  0.235600  0.558900  0.025100  1.0  0.0859
  C  C244  1  0.908400  0.601400  0.067200  1.0  -0.3558
  C  C245  1  0.258700  0.755700  0.952400  1.0  -0.3279
  C  C246  1  0.319800  0.498400  0.034100  1.0  -0.3426
  C  C247  1  0.920200  0.043800  0.089000  1.0  0.6835
  C  C248  1  0.891600  0.975300  0.053600  1.0  -0.1464
  C  C249  1  0.792900  0.969600  0.020600  1.0  -0.0188
  C  C250  1  0.767800  0.906300  0.987800  1.0  -0.1355
  C  C251  1  0.840500  0.846400  0.988600  1.0  -0.2092
  C  C252  1  0.938400  0.851700  0.022000  1.0  0.2996
  C  C253  1  0.965400  0.916300  0.053800  1.0  -0.0564
  C  C254  1  0.660400  0.899800  0.950200  1.0  0.6952
  C  C255  1  0.989600  0.728200  0.994200  1.0  0.0847
  C  C256  1  0.466500  0.481300  0.775000  1.0  0.7443
  C  C257  1  0.510100  0.536300  0.816200  1.0  -0.1038
  C  C258  1  0.426000  0.534600  0.854000  1.0  -0.133
  C  C259  1  0.467200  0.587200  0.891800  1.0  0.2973
  C  C260  1  0.595000  0.641400  0.891900  1.0  -0.1762
  C  C261  1  0.680000  0.644300  0.854300  1.0  -0.1133
  C  C262  1  0.638800  0.592700  0.816700  1.0  0.0313
  C  C263  1  0.815500  0.704800  0.853500  1.0  0.6843
  C  C264  1  0.409100  0.631900  0.966600  1.0  0.0873
  O  O265  1  0.773800  0.716200  0.333790  1.0  -0.656
  O  O266  1  0.641900  0.744500  0.280370  1.0  -0.6569
  O  O267  1  0.769400  0.023900  0.198200  1.0  -0.6246
  O  O268  1  0.954400  0.113000  0.223430  1.0  -0.5828
  O  O269  1  0.077100  0.009900  0.372830  1.0  -0.2517
  O  O270  1  0.849900  0.595100  0.409890  1.0  -0.581
  O  O271  1  0.017200  0.549300  0.382260  1.0  -0.6065
  O  O272  1  0.589200  0.452100  0.549000  1.0  -0.6086
  O  O273  1  0.634800  0.339400  0.576300  1.0  -0.5699
  O  O274  1  0.016200  0.295500  0.473500  1.0  -0.2588
  O  O275  1  0.375200  0.915800  0.721600  1.0  -0.595
  O  O276  1  0.524100  0.003500  0.763600  1.0  -0.5806
  O  O277  1  0.868400  0.227500  0.685440  1.0  -0.6204
  O  O278  1  0.873900  0.232000  0.610620  1.0  -0.5703
  O  O279  1  0.374400  0.081500  0.573730  1.0  -0.2509
  O  O280  1  0.406000  0.629300  0.333333  1.0  -0.7278
  O  O281  1  0.586300  0.542400  0.382100  1.0  -0.7397
  O  O282  1  0.226200  0.783800  0.833790  1.0  -0.6556
  O  O283  1  0.358100  0.755500  0.780370  1.0  -0.6597
  O  O284  1  0.230600  0.476100  0.698200  1.0  -0.6243
  O  O285  1  0.045600  0.387000  0.723430  1.0  -0.5821
  O  O286  1  0.922900  0.490100  0.872830  1.0  -0.2518
  O  O287  1  0.150100  0.904900  0.909890  1.0  -0.5811
  O  O288  1  0.982800  0.950700  0.882260  1.0  -0.6069
  O  O289  1  0.410800  0.047900  0.049000  1.0  -0.6083
  O  O290  1  0.365200  0.160600  0.076300  1.0  -0.57
  O  O291  1  0.983800  0.204500  0.973500  1.0  -0.2594
  O  O292  1  0.624800  0.584200  0.221600  1.0  -0.5947
  O  O293  1  0.475900  0.496500  0.263600  1.0  -0.5797
  O  O294  1  0.131600  0.272500  0.185440  1.0  -0.6196
  O  O295  1  0.126100  0.268000  0.110620  1.0  -0.5694
  O  O296  1  0.625600  0.418500  0.073730  1.0  -0.2526
  O  O297  1  0.594000  0.870700  0.833300  1.0  -0.7318
  O  O298  1  0.413700  0.957600  0.882100  1.0  -0.7394
  O  O299  1  0.226200  0.283800  0.666210  1.0  -0.6553
  O  O300  1  0.358100  0.255500  0.719630  1.0  -0.6562
  O  O301  1  0.230600  0.976100  0.801800  1.0  -0.625
  O  O302  1  0.045600  0.887000  0.776570  1.0  -0.5822
  O  O303  1  0.922900  0.990100  0.627170  1.0  -0.2509
  O  O304  1  0.150100  0.404900  0.590110  1.0  -0.5815
  O  O305  1  0.982800  0.450700  0.617740  1.0  -0.6086
  O  O306  1  0.410800  0.547900  0.451000  1.0  -0.6087
  O  O307  1  0.365200  0.660600  0.423700  1.0  -0.5707
  O  O308  1  0.983800  0.704500  0.526500  1.0  -0.255
  O  O309  1  0.624800  0.084200  0.278400  1.0  -0.5954
  O  O310  1  0.475900  0.996500  0.236400  1.0  -0.5799
  O  O311  1  0.131600  0.772500  0.314560  1.0  -0.6142
  O  O312  1  0.126100  0.768000  0.389380  1.0  -0.5691
  O  O313  1  0.625600  0.918500  0.426270  1.0  -0.2529
  O  O314  1  0.594000  0.370700  0.666667  1.0  -0.7325
  O  O315  1  0.413700  0.457600  0.617900  1.0  -0.7417
  O  O316  1  0.773800  0.216200  0.166210  1.0  -0.6559
  O  O317  1  0.641900  0.244500  0.219630  1.0  -0.657
  O  O318  1  0.769400  0.523900  0.301800  1.0  -0.6242
  O  O319  1  0.954400  0.613000  0.276570  1.0  -0.583
  O  O320  1  0.077100  0.509900  0.127170  1.0  -0.249
  O  O321  1  0.849900  0.095100  0.090110  1.0  -0.5808
  O  O322  1  0.017200  0.049300  0.117740  1.0  -0.6097
  O  O323  1  0.589200  0.952100  0.951000  1.0  -0.6091
  O  O324  1  0.634800  0.839400  0.923700  1.0  -0.5706
  O  O325  1  0.016200  0.795500  0.026500  1.0  -0.2554
  O  O326  1  0.375200  0.415800  0.778400  1.0  -0.5942
  O  O327  1  0.524100  0.503500  0.736400  1.0  -0.5805
  O  O328  1  0.868400  0.727500  0.814560  1.0  -0.6163
  O  O329  1  0.873900  0.732000  0.889380  1.0  -0.5703
  O  O330  1  0.374400  0.581500  0.926270  1.0  -0.2517
  O  O331  1  0.406000  0.129300  0.166700  1.0  -0.7321
  O  O332  1  0.586300  0.042400  0.117900  1.0  -0.742
