# generated using pymatgen
data_Mn5H26C32(NO)12
_symmetry_space_group_name_H-M   'P 1'
_cell_length_a   11.10530000
_cell_length_b   12.57670000
_cell_length_c   20.07510000
_cell_angle_alpha   82.84000000
_cell_angle_beta   77.76500000
_cell_angle_gamma   79.25800000
_symmetry_Int_Tables_number   1
_chemical_formula_structural   Mn5H26C32(NO)12
_chemical_formula_sum   'Mn10 H52 C64 N24 O24'
_cell_volume   2681.54211404
_cell_formula_units_Z   2
loop_
 _symmetry_equiv_pos_site_id
 _symmetry_equiv_pos_as_xyz
  1  'x, y, z'
loop_
 _atom_site_type_symbol
 _atom_site_label
 _atom_site_symmetry_multiplicity
 _atom_site_fract_x
 _atom_site_fract_y
 _atom_site_fract_z
 _atom_site_occupancy
 _atom_site_charge
  Mn  Mn1  1  0.476760  0.768620  0.755260  1.0  0.8632
  Mn  Mn2  1  0.371420  0.510550  0.772200  1.0  1.0803
  Mn  Mn3  1  0.628480  0.282460  0.734600  1.0  1.0645
  Mn  Mn4  1  0.326300  0.255470  0.770270  1.0  1.0682
  Mn  Mn5  1  0.580370  0.025300  0.742340  1.0  0.8518
  Mn  Mn6  1  0.523240  0.231380  0.244740  1.0  0.8645
  Mn  Mn7  1  0.628580  0.489450  0.227800  1.0  1.0803
  Mn  Mn8  1  0.371520  0.717540  0.265400  1.0  1.0647
  Mn  Mn9  1  0.673700  0.744530  0.229730  1.0  1.0686
  Mn  Mn10  1  0.419630  0.974700  0.257660  1.0  0.8662
  H  H11  1  0.943700  0.886400  0.749500  1.0  0.0954
  H  H12  1  0.147400  0.801100  0.751000  1.0  0.14
  H  H13  1  0.031100  0.185400  0.757500  1.0  0.1271
  H  H14  1  0.004900  0.648600  0.772600  1.0  0.0998
  H  H15  1  0.800700  0.733900  0.769600  1.0  0.1328
  H  H16  1  0.924200  0.352700  0.752200  1.0  0.1266
  H  H17  1  0.449500  0.934400  0.472300  1.0  0.095
  H  H18  1  0.465000  0.908200  0.587800  1.0  0.1274
  H  H19  1  0.297800  0.660100  0.486800  1.0  0.1268
  H  H20  1  0.569900  0.555000  0.016100  1.0  0.0955
  H  H21  1  0.518300  0.608100  0.909400  1.0  0.1292
  H  H22  1  0.678600  0.845000  0.023400  1.0  0.1273
  H  H23  1  0.286200  0.619600  0.906400  1.0  0.0636
  H  H24  1  0.184000  0.672400  0.862400  1.0  0.0895
  H  H25  1  0.174600  0.754900  0.945700  1.0  0.1112
  H  H26  1  0.315900  0.774900  0.920000  1.0  0.101
  H  H27  1  0.212000  0.828000  0.875800  1.0  0.1028
  H  H28  1  0.777100  0.857200  0.658000  1.0  0.0691
  H  H29  1  0.686600  0.922200  0.610100  1.0  0.1004
  H  H30  1  0.791300  0.783500  0.570400  1.0  0.1027
  H  H31  1  0.736400  0.709800  0.636700  1.0  0.1042
  H  H32  1  0.645600  0.775600  0.588100  1.0  0.1003
  H  H33  1  0.517300  0.164300  0.840500  1.0  0.3812
  H  H34  1  0.437600  0.380700  0.667800  1.0  0.3922
  H  H35  1  0.279500  0.698200  0.791200  1.0  0.1272
  H  H36  1  0.580300  0.937700  0.693500  1.0  0.1835
  H  H37  1  0.056300  0.113600  0.250500  1.0  0.0947
  H  H38  1  0.852600  0.198900  0.249000  1.0  0.1393
  H  H39  1  0.968900  0.814600  0.242500  1.0  0.1268
  H  H40  1  0.995100  0.351400  0.227400  1.0  0.0997
  H  H41  1  0.199300  0.266100  0.230400  1.0  0.1328
  H  H42  1  0.075800  0.647300  0.247800  1.0  0.1267
  H  H43  1  0.550500  0.065600  0.527700  1.0  0.0955
  H  H44  1  0.535000  0.091800  0.412200  1.0  0.127
  H  H45  1  0.702200  0.339900  0.513200  1.0  0.126
  H  H46  1  0.430100  0.445000  0.983900  1.0  0.0964
  H  H47  1  0.481700  0.391900  0.090600  1.0  0.1285
  H  H48  1  0.321400  0.155000  0.976600  1.0  0.1277
  H  H49  1  0.713800  0.380400  0.093600  1.0  0.0626
  H  H50  1  0.816000  0.327600  0.137600  1.0  0.0917
  H  H51  1  0.825400  0.245100  0.054300  1.0  0.1135
  H  H52  1  0.684100  0.225100  0.080000  1.0  0.1017
  H  H53  1  0.788000  0.172000  0.124200  1.0  0.0994
  H  H54  1  0.222900  0.142800  0.342000  1.0  0.0693
  H  H55  1  0.313400  0.077800  0.389900  1.0  0.0984
  H  H56  1  0.208700  0.216500  0.429600  1.0  0.1081
  H  H57  1  0.263600  0.290200  0.363300  1.0  0.1047
  H  H58  1  0.354400  0.224400  0.411900  1.0  0.0986
  H  H59  1  0.482700  0.835700  0.159500  1.0  0.3816
  H  H60  1  0.562400  0.619300  0.332200  1.0  0.3923
  H  H61  1  0.720500  0.301800  0.208800  1.0  0.1254
  H  H62  1  0.419700  0.062300  0.306500  1.0  0.1832
  C  C63  1  0.836900  0.093200  0.747100  1.0  0.7271
  C  C64  1  0.969600  0.043500  0.751900  1.0  -0.1019
  C  C65  1  0.005400  0.928800  0.750800  1.0  -0.0239
  C  C66  1  0.124600  0.877600  0.751700  1.0  -0.1499
  C  C67  1  0.212800  0.944700  0.753800  1.0  0.1157
  C  C68  1  0.177400  0.057200  0.756500  1.0  0.0927
  C  C69  1  0.054700  0.109100  0.755600  1.0  -0.0993
  C  C70  1  0.115000  0.444200  0.766100  1.0  0.7237
  C  C71  1  0.981600  0.492600  0.762800  1.0  -0.1117
  C  C72  1  0.944600  0.606800  0.768100  1.0  -0.0274
  C  C73  1  0.824700  0.657700  0.766900  1.0  -0.1057
  C  C74  1  0.738400  0.591100  0.761300  1.0  0.1179
  C  C75  1  0.775500  0.479100  0.756700  1.0  0.1264
  C  C76  1  0.899000  0.428300  0.756500  1.0  -0.0944
  C  C77  1  0.375900  0.813100  0.392500  1.0  0.7009
  C  C78  1  0.376800  0.797500  0.468200  1.0  -0.1212
  C  C79  1  0.424200  0.871900  0.499300  1.0  -0.0455
  C  C80  1  0.435000  0.856900  0.567300  1.0  -0.1677
  C  C81  1  0.399400  0.761800  0.604400  1.0  0.1004
  C  C82  1  0.349800  0.689300  0.574600  1.0  0.1306
  C  C83  1  0.335100  0.707700  0.506300  1.0  -0.0834
  C  C84  1  0.653600  0.659700  0.100100  1.0  0.7305
  C  C85  1  0.627800  0.695200  0.029600  1.0  -0.1068
  C  C86  1  0.580700  0.625400  0.994900  1.0  -0.0254
  C  C87  1  0.550100  0.655600  0.932000  1.0  -0.1106
  C  C88  1  0.568100  0.760800  0.902300  1.0  0.1102
  C  C89  1  0.616000  0.830100  0.935800  1.0  0.1031
  C  C90  1  0.646500  0.798000  0.000500  1.0  -0.0675
  C  C91  1  0.264400  0.681400  0.873100  1.0  0.0883
  C  C92  1  0.240400  0.764300  0.905400  1.0  -0.3604
  C  C93  1  0.698500  0.856600  0.642400  1.0  0.0668
  C  C94  1  0.719100  0.777100  0.607500  1.0  -0.3633
  C  C95  1  0.163100  0.906800  0.252900  1.0  0.728
  C  C96  1  0.030400  0.956500  0.248100  1.0  -0.1024
  C  C97  1  0.994600  0.071200  0.249200  1.0  -0.0239
  C  C98  1  0.875400  0.122400  0.248300  1.0  -0.1513
  C  C99  1  0.787200  0.055300  0.246200  1.0  0.1167
  C  C100  1  0.822600  0.942800  0.243500  1.0  0.0909
  C  C101  1  0.945300  0.890900  0.244400  1.0  -0.098
  C  C102  1  0.885000  0.555800  0.233900  1.0  0.7239
  C  C103  1  0.018400  0.507400  0.237200  1.0  -0.1116
  C  C104  1  0.055400  0.393200  0.231900  1.0  -0.0286
  C  C105  1  0.175300  0.342300  0.233100  1.0  -0.105
  C  C106  1  0.261600  0.408900  0.238700  1.0  0.1189
  C  C107  1  0.224500  0.520900  0.243300  1.0  0.1276
  C  C108  1  0.101000  0.571700  0.243500  1.0  -0.0958
  C  C109  1  0.624100  0.186900  0.607500  1.0  0.702
  C  C110  1  0.623200  0.202500  0.531800  1.0  -0.121
  C  C111  1  0.575800  0.128100  0.500700  1.0  -0.0474
  C  C112  1  0.565000  0.143100  0.432700  1.0  -0.1671
  C  C113  1  0.600600  0.238200  0.395600  1.0  0.098
  C  C114  1  0.650200  0.310700  0.425400  1.0  0.1331
  C  C115  1  0.664900  0.292300  0.493700  1.0  -0.0814
  C  C116  1  0.346400  0.340300  0.899900  1.0  0.7133
  C  C117  1  0.372200  0.304800  0.970400  1.0  -0.1068
  C  C118  1  0.419300  0.374600  0.005100  1.0  -0.0253
  C  C119  1  0.449900  0.344400  0.068000  1.0  -0.1108
  C  C120  1  0.431900  0.239200  0.097700  1.0  0.1113
  C  C121  1  0.384000  0.169900  0.064200  1.0  0.1043
  C  C122  1  0.353500  0.202000  0.999500  1.0  -0.065
  C  C123  1  0.735600  0.318600  0.126900  1.0  0.0861
  C  C124  1  0.759600  0.235700  0.094600  1.0  -0.3626
  C  C125  1  0.301500  0.143400  0.357600  1.0  0.0676
  C  C126  1  0.280900  0.222900  0.392500  1.0  -0.362
  N  N127  1  0.337700  0.920800  0.753200  1.0  -0.2605
  N  N128  1  0.375900  0.014000  0.755300  1.0  -0.1753
  N  N129  1  0.283300  0.098500  0.757400  1.0  -0.3511
  N  N130  1  0.670700  0.437900  0.753400  1.0  -0.3405
  N  N131  1  0.577000  0.522500  0.755700  1.0  -0.0822
  N  N132  1  0.614800  0.614900  0.760000  1.0  -0.2273
  N  N133  1  0.327700  0.604400  0.621700  1.0  -0.2633
  N  N134  1  0.364000  0.623600  0.676700  1.0  -0.0998
  N  N135  1  0.407200  0.717800  0.669100  1.0  -0.2811
  N  N136  1  0.546700  0.815400  0.841800  1.0  -0.2736
  N  N137  1  0.581200  0.913100  0.839700  1.0  -0.124
  N  N138  1  0.622100  0.926200  0.894900  1.0  -0.3024
  N  N139  1  0.662300  0.079200  0.246800  1.0  -0.261
  N  N140  1  0.624100  0.986000  0.244700  1.0  -0.1744
  N  N141  1  0.716700  0.901500  0.242600  1.0  -0.35
  N  N142  1  0.329300  0.562100  0.246600  1.0  -0.3407
  N  N143  1  0.423000  0.477500  0.244300  1.0  -0.0832
  N  N144  1  0.385200  0.385100  0.240000  1.0  -0.2269
  N  N145  1  0.672300  0.395600  0.378300  1.0  -0.2605
  N  N146  1  0.636000  0.376400  0.323300  1.0  -0.1009
  N  N147  1  0.592800  0.282200  0.330900  1.0  -0.28
  N  N148  1  0.453300  0.184600  0.158200  1.0  -0.2728
  N  N149  1  0.418800  0.086900  0.160300  1.0  -0.1237
  N  N150  1  0.377900  0.073800  0.105100  1.0  -0.3019
  O  O151  1  0.771500  0.032400  0.732410  1.0  -0.6013
  O  O152  1  0.801200  0.191900  0.757390  1.0  -0.5823
  O  O153  1  0.152700  0.347400  0.750940  1.0  -0.5943
  O  O154  1  0.179900  0.503300  0.783810  1.0  -0.5953
  O  O155  1  0.326200  0.747800  0.368830  1.0  -0.5793
  O  O156  1  0.427300  0.889100  0.358310  1.0  -0.5997
  O  O157  1  0.611500  0.576900  0.130500  1.0  -0.5922
  O  O158  1  0.710700  0.717100  0.125520  1.0  -0.5882
  O  O159  1  0.514000  0.173600  0.790690  1.0  -0.9457
  O  O160  1  0.441900  0.366800  0.717450  1.0  -0.9449
  O  O161  1  0.344100  0.665800  0.819090  1.0  -0.4244
  O  O162  1  0.611900  0.871600  0.694020  1.0  -0.3244
  O  O163  1  0.228500  0.967600  0.267590  1.0  -0.6008
  O  O164  1  0.198800  0.808100  0.242610  1.0  -0.5833
  O  O165  1  0.847300  0.652600  0.249060  1.0  -0.5939
  O  O166  1  0.820100  0.496700  0.216190  1.0  -0.5955
  O  O167  1  0.673800  0.252200  0.631170  1.0  -0.5791
  O  O168  1  0.572700  0.110900  0.641690  1.0  -0.5993
  O  O169  1  0.388500  0.423100  0.869500  1.0  -0.5931
  O  O170  1  0.289300  0.282900  0.874480  1.0  -0.5868
  O  O171  1  0.486000  0.826400  0.209310  1.0  -0.9455
  O  O172  1  0.558100  0.633200  0.282550  1.0  -0.9444
  O  O173  1  0.655900  0.334200  0.180910  1.0  -0.425
  O  O174  1  0.388100  0.128400  0.305980  1.0  -0.3241
