# generated using pymatgen
data_NdH4C12(SO4)2
_symmetry_space_group_name_H-M   'P 1'
_cell_length_a   11.60050000
_cell_length_b   16.44880000
_cell_length_c   12.08280000
_cell_angle_alpha   90.00000000
_cell_angle_beta   112.29500000
_cell_angle_gamma   90.00000000
_symmetry_Int_Tables_number   1
_chemical_formula_structural   NdH4C12(SO4)2
_chemical_formula_sum   'Nd4 H16 C48 S8 O32'
_cell_volume   2133.21310515
_cell_formula_units_Z   4
loop_
 _symmetry_equiv_pos_site_id
 _symmetry_equiv_pos_as_xyz
  1  'x, y, z'
loop_
 _atom_site_type_symbol
 _atom_site_label
 _atom_site_symmetry_multiplicity
 _atom_site_fract_x
 _atom_site_fract_y
 _atom_site_fract_z
 _atom_site_occupancy
 _atom_site_charge
  Nd  Nd1  1  0.193760  0.026400  0.576940  1.0  2.3176
  Nd  Nd2  1  0.806240  0.526400  0.923060  1.0  2.313
  Nd  Nd3  1  0.806240  0.973600  0.423060  1.0  2.3219
  Nd  Nd4  1  0.193760  0.473600  0.076940  1.0  2.3197
  H  H5  1  0.777300  0.148600  0.218700  1.0  0.1228
  H  H6  1  0.743000  0.270500  0.096200  1.0  0.128
  H  H7  1  0.335100  0.242800  0.942900  1.0  0.133
  H  H8  1  0.457700  0.367600  0.001000  1.0  0.1256
  H  H9  1  0.222700  0.648600  0.281300  1.0  0.1234
  H  H10  1  0.257000  0.770500  0.403800  1.0  0.1282
  H  H11  1  0.664900  0.742800  0.557100  1.0  0.1325
  H  H12  1  0.542300  0.867600  0.499000  1.0  0.126
  H  H13  1  0.222700  0.851400  0.781300  1.0  0.1236
  H  H14  1  0.257000  0.729500  0.903800  1.0  0.1285
  H  H15  1  0.664900  0.757200  0.057100  1.0  0.1328
  H  H16  1  0.542300  0.632400  0.999000  1.0  0.1258
  H  H17  1  0.777300  0.351400  0.718700  1.0  0.1233
  H  H18  1  0.743000  0.229500  0.596200  1.0  0.1284
  H  H19  1  0.335100  0.257200  0.442900  1.0  0.1333
  H  H20  1  0.457700  0.132400  0.501000  1.0  0.1257
  C  C21  1  0.961300  0.152400  0.249600  1.0  -0.1888
  C  C22  1  0.840400  0.176100  0.204600  1.0  -0.031
  C  C23  1  0.820700  0.246500  0.134700  1.0  -0.0412
  C  C24  1  0.928900  0.276000  0.129400  1.0  -0.1933
  C  C25  1  0.020900  0.083300  0.329700  1.0  0.7713
  C  C26  1  0.948100  0.350900  0.070000  1.0  0.7857
  C  C27  1  0.395200  0.225700  0.805200  1.0  -0.1879
  C  C28  1  0.383700  0.263100  0.903200  1.0  -0.0415
  C  C29  1  0.453900  0.335500  0.936200  1.0  -0.0389
  C  C30  1  0.515700  0.353500  0.863000  1.0  -0.1706
  C  C31  1  0.335000  0.151000  0.739600  1.0  0.7718
  C  C32  1  0.598900  0.423900  0.869900  1.0  0.7529
  C  C33  1  0.038700  0.652400  0.250400  1.0  -0.1892
  C  C34  1  0.159600  0.676100  0.295400  1.0  -0.0315
  C  C35  1  0.179300  0.746500  0.365300  1.0  -0.0419
  C  C36  1  0.071100  0.776000  0.370600  1.0  -0.1947
  C  C37  1  0.979100  0.583300  0.170300  1.0  0.7729
  C  C38  1  0.051900  0.850900  0.430000  1.0  0.7855
  C  C39  1  0.604800  0.725700  0.694800  1.0  -0.1877
  C  C40  1  0.616300  0.763100  0.596800  1.0  -0.0429
  C  C41  1  0.546100  0.835500  0.563800  1.0  -0.0391
  C  C42  1  0.484300  0.853500  0.637000  1.0  -0.1686
  C  C43  1  0.665000  0.651000  0.760400  1.0  0.7724
  C  C44  1  0.401100  0.923900  0.630100  1.0  0.7536
  C  C45  1  0.038700  0.847600  0.750400  1.0  -0.1891
  C  C46  1  0.159600  0.823900  0.795400  1.0  -0.0314
  C  C47  1  0.179300  0.753500  0.865300  1.0  -0.0423
  C  C48  1  0.071100  0.724000  0.870600  1.0  -0.195
  C  C49  1  0.979100  0.916700  0.670300  1.0  0.7725
  C  C50  1  0.051900  0.649100  0.930000  1.0  0.7856
  C  C51  1  0.604800  0.774300  0.194800  1.0  -0.188
  C  C52  1  0.616300  0.736900  0.096800  1.0  -0.0431
  C  C53  1  0.546100  0.664500  0.063800  1.0  -0.0392
  C  C54  1  0.484300  0.646500  0.137000  1.0  -0.1684
  C  C55  1  0.665000  0.849000  0.260400  1.0  0.7723
  C  C56  1  0.401100  0.576100  0.130100  1.0  0.7542
  C  C57  1  0.961300  0.347600  0.749600  1.0  -0.1887
  C  C58  1  0.840400  0.323900  0.704600  1.0  -0.0315
  C  C59  1  0.820700  0.253500  0.634700  1.0  -0.0412
  C  C60  1  0.928900  0.224000  0.629400  1.0  -0.1938
  C  C61  1  0.020900  0.416700  0.829700  1.0  0.7716
  C  C62  1  0.948100  0.149100  0.570000  1.0  0.7858
  C  C63  1  0.395200  0.274300  0.305200  1.0  -0.1878
  C  C64  1  0.383700  0.236900  0.403200  1.0  -0.0426
  C  C65  1  0.453900  0.164500  0.436200  1.0  -0.0392
  C  C66  1  0.515700  0.146500  0.363000  1.0  -0.1708
  C  C67  1  0.335000  0.349000  0.239600  1.0  0.7718
  C  C68  1  0.598900  0.076100  0.369900  1.0  0.7528
  S  S69  1  0.054500  0.217590  0.210100  1.0  0.1822
  S  S70  1  0.489900  0.281460  0.753600  1.0  0.1784
  S  S71  1  0.945500  0.717590  0.289900  1.0  0.1835
  S  S72  1  0.510100  0.781460  0.746400  1.0  0.1786
  S  S73  1  0.945500  0.782410  0.789900  1.0  0.1839
  S  S74  1  0.510100  0.718540  0.246400  1.0  0.1785
  S  S75  1  0.054500  0.282410  0.710100  1.0  0.1825
  S  S76  1  0.489900  0.218540  0.253600  1.0  0.1785
  O  O77  1  0.137300  0.079400  0.374100  1.0  -0.6266
  O  O78  1  0.950200  0.031900  0.349900  1.0  -0.7623
  O  O79  1  0.054800  0.361200  0.068000  1.0  -0.6779
  O  O80  1  0.855100  0.397500  0.024300  1.0  -0.7011
  O  O81  1  0.275200  0.104200  0.781300  1.0  -0.609
  O  O82  1  0.345800  0.138400  0.641500  1.0  -0.6801
  O  O83  1  0.644600  0.432000  0.790800  1.0  -0.7102
  O  O84  1  0.619600  0.473300  0.956000  1.0  -0.6097
  O  O85  1  0.862700  0.579400  0.125900  1.0  -0.6246
  O  O86  1  0.049800  0.531900  0.150100  1.0  -0.7642
  O  O87  1  0.945200  0.861200  0.432000  1.0  -0.6777
  O  O88  1  0.144900  0.897500  0.475700  1.0  -0.7008
  O  O89  1  0.724800  0.604200  0.718700  1.0  -0.61
  O  O90  1  0.654200  0.638400  0.858500  1.0  -0.6798
  O  O91  1  0.355400  0.932000  0.709200  1.0  -0.7143
  O  O92  1  0.380400  0.973300  0.544000  1.0  -0.6081
  O  O93  1  0.862700  0.920600  0.625900  1.0  -0.6243
  O  O94  1  0.049800  0.968100  0.650100  1.0  -0.7654
  O  O95  1  0.945200  0.638800  0.932000  1.0  -0.6782
  O  O96  1  0.144900  0.602500  0.975700  1.0  -0.7005
  O  O97  1  0.724800  0.895800  0.218700  1.0  -0.6106
  O  O98  1  0.654200  0.861600  0.358500  1.0  -0.6798
  O  O99  1  0.355400  0.568000  0.209200  1.0  -0.714
  O  O100  1  0.380400  0.526700  0.044000  1.0  -0.6072
  O  O101  1  0.137300  0.420600  0.874100  1.0  -0.6258
  O  O102  1  0.950200  0.468100  0.849900  1.0  -0.7629
  O  O103  1  0.054800  0.138800  0.568000  1.0  -0.6778
  O  O104  1  0.855100  0.102500  0.524300  1.0  -0.7011
  O  O105  1  0.275200  0.395800  0.281300  1.0  -0.6095
  O  O106  1  0.345800  0.361600  0.141500  1.0  -0.6797
  O  O107  1  0.644600  0.068000  0.290800  1.0  -0.7101
  O  O108  1  0.619600  0.026700  0.456000  1.0  -0.6076
