# generated using pymatgen
data_ErH4C12(SO4)2
_symmetry_space_group_name_H-M   'P 1'
_cell_length_a   11.61400000
_cell_length_b   16.08880000
_cell_length_c   12.02040000
_cell_angle_alpha   90.00000000
_cell_angle_beta   112.69900000
_cell_angle_gamma   90.00000000
_symmetry_Int_Tables_number   1
_chemical_formula_structural   ErH4C12(SO4)2
_chemical_formula_sum   'Er4 H16 C48 S8 O32'
_cell_volume   2072.10553770
_cell_formula_units_Z   4
loop_
 _symmetry_equiv_pos_site_id
 _symmetry_equiv_pos_as_xyz
  1  'x, y, z'
loop_
 _atom_site_type_symbol
 _atom_site_label
 _atom_site_symmetry_multiplicity
 _atom_site_fract_x
 _atom_site_fract_y
 _atom_site_fract_z
 _atom_site_occupancy
 _atom_site_charge
  Er  Er1  1  0.194450  0.027890  0.579390  1.0  1.4487
  Er  Er2  1  0.805550  0.527890  0.920610  1.0  1.4532
  Er  Er3  1  0.805550  0.972110  0.420610  1.0  1.4507
  Er  Er4  1  0.194450  0.472110  0.079390  1.0  1.4502
  H  H5  1  0.769400  0.148800  0.207900  1.0  0.1478
  H  H6  1  0.744000  0.277100  0.093300  1.0  0.1485
  H  H7  1  0.336200  0.243900  0.940200  1.0  0.1526
  H  H8  1  0.456700  0.372000  0.999100  1.0  0.1482
  H  H9  1  0.230600  0.648800  0.292100  1.0  0.149
  H  H10  1  0.256000  0.777100  0.406700  1.0  0.1489
  H  H11  1  0.663800  0.743900  0.559800  1.0  0.1525
  H  H12  1  0.543300  0.872000  0.500900  1.0  0.1493
  H  H13  1  0.230600  0.851200  0.792100  1.0  0.1499
  H  H14  1  0.256000  0.722900  0.906700  1.0  0.1491
  H  H15  1  0.663800  0.756100  0.059800  1.0  0.1521
  H  H16  1  0.543300  0.628000  0.000900  1.0  0.1483
  H  H17  1  0.769400  0.351200  0.707900  1.0  0.1491
  H  H18  1  0.744000  0.222900  0.593300  1.0  0.1486
  H  H19  1  0.336200  0.256100  0.440200  1.0  0.1531
  H  H20  1  0.456700  0.128000  0.499100  1.0  0.1487
  C  C21  1  0.957300  0.154000  0.250200  1.0  -0.1608
  C  C22  1  0.834800  0.177700  0.199300  1.0  -0.0147
  C  C23  1  0.820600  0.251200  0.132500  1.0  -0.0122
  C  C24  1  0.929100  0.280800  0.130700  1.0  -0.1632
  C  C25  1  0.010900  0.080800  0.330100  1.0  0.7878
  C  C26  1  0.950700  0.356100  0.069500  1.0  0.8176
  C  C27  1  0.393300  0.228500  0.801100  1.0  -0.155
  C  C28  1  0.383900  0.265300  0.900100  1.0  -0.0207
  C  C29  1  0.454400  0.339000  0.934700  1.0  -0.0222
  C  C30  1  0.518500  0.356800  0.864200  1.0  -0.1527
  C  C31  1  0.330800  0.152100  0.734800  1.0  0.7825
  C  C32  1  0.603400  0.426700  0.872300  1.0  0.7798
  C  C33  1  0.042700  0.654000  0.249800  1.0  -0.1614
  C  C34  1  0.165200  0.677700  0.300700  1.0  -0.0149
  C  C35  1  0.179400  0.751200  0.367500  1.0  -0.0131
  C  C36  1  0.070900  0.780800  0.369300  1.0  -0.1631
  C  C37  1  0.989100  0.580800  0.169900  1.0  0.7886
  C  C38  1  0.049300  0.856100  0.430500  1.0  0.8178
  C  C39  1  0.606700  0.728500  0.698900  1.0  -0.1559
  C  C40  1  0.616100  0.765300  0.599900  1.0  -0.0204
  C  C41  1  0.545600  0.839000  0.565300  1.0  -0.0222
  C  C42  1  0.481500  0.856800  0.635800  1.0  -0.1519
  C  C43  1  0.669200  0.652100  0.765200  1.0  0.7828
  C  C44  1  0.396600  0.926700  0.627700  1.0  0.78
  C  C45  1  0.042700  0.846000  0.749800  1.0  -0.161
  C  C46  1  0.165200  0.822300  0.800700  1.0  -0.0143
  C  C47  1  0.179400  0.748800  0.867500  1.0  -0.014
  C  C48  1  0.070900  0.719200  0.869300  1.0  -0.1631
  C  C49  1  0.989100  0.919200  0.669900  1.0  0.7881
  C  C50  1  0.049300  0.643900  0.930500  1.0  0.818
  C  C51  1  0.606700  0.771500  0.198900  1.0  -0.1565
  C  C52  1  0.616100  0.734700  0.099900  1.0  -0.02
  C  C53  1  0.545600  0.661000  0.065300  1.0  -0.0225
  C  C54  1  0.481500  0.643200  0.135800  1.0  -0.1519
  C  C55  1  0.669200  0.847900  0.265200  1.0  0.7828
  C  C56  1  0.396600  0.573300  0.127700  1.0  0.7809
  C  C57  1  0.957300  0.346000  0.750200  1.0  -0.1601
  C  C58  1  0.834800  0.322300  0.699300  1.0  -0.0146
  C  C59  1  0.820600  0.248800  0.632500  1.0  -0.0128
  C  C60  1  0.929100  0.219200  0.630700  1.0  -0.1632
  C  C61  1  0.010900  0.419200  0.830100  1.0  0.7877
  C  C62  1  0.950700  0.143900  0.569500  1.0  0.8178
  C  C63  1  0.393300  0.271500  0.301100  1.0  -0.1553
  C  C64  1  0.383900  0.234700  0.400100  1.0  -0.021
  C  C65  1  0.454400  0.161000  0.434700  1.0  -0.0223
  C  C66  1  0.518500  0.143200  0.364200  1.0  -0.1529
  C  C67  1  0.330800  0.347900  0.234800  1.0  0.7824
  C  C68  1  0.603400  0.073300  0.372300  1.0  0.7798
  S  S69  1  0.052970  0.219830  0.214610  1.0  0.2091
  S  S70  1  0.490080  0.283760  0.750240  1.0  0.1981
  S  S71  1  0.947030  0.719830  0.285390  1.0  0.2117
  S  S72  1  0.509920  0.783760  0.749760  1.0  0.1971
  S  S73  1  0.947030  0.780170  0.785390  1.0  0.2121
  S  S74  1  0.509920  0.716240  0.249760  1.0  0.197
  S  S75  1  0.052970  0.280170  0.714610  1.0  0.2097
  S  S76  1  0.490080  0.216240  0.250240  1.0  0.198
  O  O77  1  0.127600  0.076400  0.382600  1.0  -0.61
  O  O78  1  0.933500  0.030000  0.342000  1.0  -0.6918
  O  O79  1  0.058800  0.365100  0.069300  1.0  -0.6411
  O  O80  1  0.859700  0.404100  0.023700  1.0  -0.6182
  O  O81  1  0.275100  0.103600  0.778800  1.0  -0.5819
  O  O82  1  0.334200  0.140500  0.632300  1.0  -0.553
  O  O83  1  0.650200  0.434600  0.793900  1.0  -0.6563
  O  O84  1  0.627000  0.477500  0.958900  1.0  -0.5726
  O  O85  1  0.872400  0.576400  0.117400  1.0  -0.6104
  O  O86  1  0.066500  0.530000  0.158000  1.0  -0.688
  O  O87  1  0.941200  0.865100  0.430700  1.0  -0.6411
  O  O88  1  0.140300  0.904100  0.476300  1.0  -0.6172
  O  O89  1  0.724900  0.603600  0.721200  1.0  -0.5827
  O  O90  1  0.665800  0.640500  0.867700  1.0  -0.5547
  O  O91  1  0.349800  0.934600  0.706100  1.0  -0.6582
  O  O92  1  0.373000  0.977500  0.541100  1.0  -0.5706
  O  O93  1  0.872400  0.923600  0.617400  1.0  -0.6107
  O  O94  1  0.066500  0.970000  0.658000  1.0  -0.6894
  O  O95  1  0.941200  0.634900  0.930700  1.0  -0.6407
  O  O96  1  0.140300  0.595900  0.976300  1.0  -0.6175
  O  O97  1  0.724900  0.896400  0.221200  1.0  -0.5822
  O  O98  1  0.665800  0.859500  0.367700  1.0  -0.5547
  O  O99  1  0.349800  0.565400  0.206100  1.0  -0.6578
  O  O100  1  0.373000  0.522500  0.041100  1.0  -0.5704
  O  O101  1  0.127600  0.423600  0.882600  1.0  -0.61
  O  O102  1  0.933500  0.470000  0.842000  1.0  -0.6916
  O  O103  1  0.058800  0.134900  0.569300  1.0  -0.6408
  O  O104  1  0.859700  0.095900  0.523700  1.0  -0.6189
  O  O105  1  0.275100  0.396400  0.278800  1.0  -0.5819
  O  O106  1  0.334200  0.359500  0.132300  1.0  -0.5532
  O  O107  1  0.650200  0.065400  0.293900  1.0  -0.656
  O  O108  1  0.627000  0.022500  0.458900  1.0  -0.5719
