# generated using pymatgen
data_TbH4C12(SO4)2
_symmetry_space_group_name_H-M   'P 1'
_cell_length_a   11.60170000
_cell_length_b   16.21880000
_cell_length_c   12.02310000
_cell_angle_alpha   90.00000000
_cell_angle_beta   112.57100000
_cell_angle_gamma   90.00000000
_symmetry_Int_Tables_number   1
_chemical_formula_structural   TbH4C12(SO4)2
_chemical_formula_sum   'Tb4 H16 C48 S8 O32'
_cell_volume   2089.05005647
_cell_formula_units_Z   4
loop_
 _symmetry_equiv_pos_site_id
 _symmetry_equiv_pos_as_xyz
  1  'x, y, z'
loop_
 _atom_site_type_symbol
 _atom_site_label
 _atom_site_symmetry_multiplicity
 _atom_site_fract_x
 _atom_site_fract_y
 _atom_site_fract_z
 _atom_site_occupancy
 _atom_site_charge
  Tb  Tb1  1  0.194380  0.027510  0.078810  1.0  2.2658
  Tb  Tb2  1  0.805620  0.527510  0.421190  1.0  2.2646
  Tb  Tb3  1  0.805620  0.972490  0.921190  1.0  2.2681
  Tb  Tb4  1  0.194380  0.472490  0.578810  1.0  2.2677
  H  H5  1  0.771200  0.150100  0.711300  1.0  0.1207
  H  H6  1  0.742300  0.275100  0.593800  1.0  0.1198
  H  H7  1  0.334600  0.244300  0.440000  1.0  0.1196
  H  H8  1  0.455300  0.371700  0.497200  1.0  0.1189
  H  H9  1  0.228800  0.650100  0.788700  1.0  0.1212
  H  H10  1  0.257700  0.775100  0.906200  1.0  0.1199
  H  H11  1  0.665400  0.744300  0.060000  1.0  0.1191
  H  H12  1  0.544700  0.871700  0.002800  1.0  0.1195
  H  H13  1  0.228800  0.849900  0.288700  1.0  0.1217
  H  H14  1  0.257700  0.724900  0.406200  1.0  0.1203
  H  H15  1  0.665400  0.755700  0.560000  1.0  0.1187
  H  H16  1  0.544700  0.628300  0.502800  1.0  0.1187
  H  H17  1  0.771200  0.349900  0.211300  1.0  0.1215
  H  H18  1  0.742300  0.224900  0.093800  1.0  0.12
  H  H19  1  0.334600  0.255700  0.940000  1.0  0.1202
  H  H20  1  0.455300  0.128300  0.997200  1.0  0.119
  C  C21  1  0.957800  0.152500  0.749400  1.0  -0.1878
  C  C22  1  0.836100  0.178000  0.700400  1.0  -0.0368
  C  C23  1  0.819400  0.249800  0.632700  1.0  -0.0431
  C  C24  1  0.928300  0.279100  0.629400  1.0  -0.1943
  C  C25  1  0.013000  0.081800  0.829000  1.0  0.7852
  C  C26  1  0.950000  0.354500  0.569500  1.0  0.8004
  C  C27  1  0.393400  0.228400  0.302200  1.0  -0.1662
  C  C28  1  0.382800  0.265100  0.400000  1.0  -0.0644
  C  C29  1  0.453300  0.338300  0.433600  1.0  -0.0497
  C  C30  1  0.517800  0.355000  0.363100  1.0  -0.1884
  C  C31  1  0.331500  0.152900  0.236100  1.0  0.7558
  C  C32  1  0.600000  0.426300  0.371100  1.0  0.7509
  C  C33  1  0.042200  0.652500  0.750600  1.0  -0.1897
  C  C34  1  0.163900  0.678000  0.799600  1.0  -0.0369
  C  C35  1  0.180600  0.749800  0.867300  1.0  -0.0432
  C  C36  1  0.071700  0.779100  0.870600  1.0  -0.1961
  C  C37  1  0.987000  0.581800  0.671000  1.0  0.786
  C  C38  1  0.050000  0.854500  0.930500  1.0  0.8005
  C  C39  1  0.606600  0.728400  0.197800  1.0  -0.1665
  C  C40  1  0.617200  0.765100  0.100000  1.0  -0.0642
  C  C41  1  0.546700  0.838300  0.066400  1.0  -0.0496
  C  C42  1  0.482200  0.855000  0.136900  1.0  -0.1871
  C  C43  1  0.668500  0.652900  0.263900  1.0  0.7563
  C  C44  1  0.400000  0.926300  0.128900  1.0  0.752
  C  C45  1  0.042200  0.847500  0.250600  1.0  -0.1895
  C  C46  1  0.163900  0.822000  0.299600  1.0  -0.0364
  C  C47  1  0.180600  0.750200  0.367300  1.0  -0.0436
  C  C48  1  0.071700  0.720900  0.370600  1.0  -0.1962
  C  C49  1  0.987000  0.918200  0.171000  1.0  0.7856
  C  C50  1  0.050000  0.645500  0.430500  1.0  0.8011
  C  C51  1  0.606600  0.771600  0.697800  1.0  -0.1669
  C  C52  1  0.617200  0.734900  0.600000  1.0  -0.0642
  C  C53  1  0.546700  0.661700  0.566400  1.0  -0.0495
  C  C54  1  0.482200  0.645000  0.636900  1.0  -0.1874
  C  C55  1  0.668500  0.847100  0.763900  1.0  0.7558
  C  C56  1  0.400000  0.573700  0.628900  1.0  0.7527
  C  C57  1  0.957800  0.347500  0.249400  1.0  -0.1876
  C  C58  1  0.836100  0.322000  0.200400  1.0  -0.037
  C  C59  1  0.819400  0.250200  0.132700  1.0  -0.0433
  C  C60  1  0.928300  0.220900  0.129400  1.0  -0.1944
  C  C61  1  0.013000  0.418200  0.329000  1.0  0.7852
  C  C62  1  0.950000  0.145500  0.069500  1.0  0.801
  C  C63  1  0.393400  0.271600  0.802200  1.0  -0.1661
  C  C64  1  0.382800  0.234900  0.900000  1.0  -0.0652
  C  C65  1  0.453300  0.161700  0.933600  1.0  -0.0496
  C  C66  1  0.517800  0.145000  0.863100  1.0  -0.1889
  C  C67  1  0.331500  0.347100  0.736100  1.0  0.7552
  C  C68  1  0.600000  0.073700  0.871100  1.0  0.7513
  S  S69  1  0.053050  0.219230  0.712550  1.0  0.1814
  S  S70  1  0.490070  0.283270  0.251050  1.0  0.1844
  S  S71  1  0.946950  0.719230  0.787450  1.0  0.1826
  S  S72  1  0.509930  0.783270  0.248950  1.0  0.1835
  S  S73  1  0.946950  0.780770  0.287450  1.0  0.1829
  S  S74  1  0.509930  0.716730  0.748950  1.0  0.1831
  S  S75  1  0.053050  0.280770  0.212550  1.0  0.1817
  S  S76  1  0.490070  0.216730  0.751050  1.0  0.184
  O  O77  1  0.130600  0.076800  0.879500  1.0  -0.6494
  O  O78  1  0.938300  0.030500  0.843700  1.0  -0.7463
  O  O79  1  0.056800  0.364300  0.569200  1.0  -0.6722
  O  O80  1  0.858900  0.401100  0.524700  1.0  -0.6928
  O  O81  1  0.275100  0.104100  0.280100  1.0  -0.6154
  O  O82  1  0.337300  0.140300  0.135300  1.0  -0.6018
  O  O83  1  0.648300  0.433700  0.292700  1.0  -0.6885
  O  O84  1  0.623600  0.476900  0.457400  1.0  -0.6099
  O  O85  1  0.869400  0.576800  0.620500  1.0  -0.6484
  O  O86  1  0.061700  0.530500  0.656300  1.0  -0.7447
  O  O87  1  0.943200  0.864300  0.930800  1.0  -0.6722
  O  O88  1  0.141100  0.901100  0.975300  1.0  -0.6926
  O  O89  1  0.724900  0.604100  0.219900  1.0  -0.6145
  O  O90  1  0.662700  0.640300  0.364700  1.0  -0.6016
  O  O91  1  0.351700  0.933700  0.207300  1.0  -0.6893
  O  O92  1  0.376400  0.976900  0.042600  1.0  -0.6083
  O  O93  1  0.869400  0.923200  0.120500  1.0  -0.6482
  O  O94  1  0.061700  0.969500  0.156300  1.0  -0.7448
  O  O95  1  0.943200  0.635700  0.430800  1.0  -0.672
  O  O96  1  0.141100  0.598900  0.475300  1.0  -0.6924
  O  O97  1  0.724900  0.895900  0.719900  1.0  -0.6136
  O  O98  1  0.662700  0.859700  0.864700  1.0  -0.6017
  O  O99  1  0.351700  0.566300  0.707300  1.0  -0.6899
  O  O100  1  0.376400  0.523100  0.542600  1.0  -0.6087
  O  O101  1  0.130600  0.423200  0.379500  1.0  -0.6493
  O  O102  1  0.938300  0.469500  0.343700  1.0  -0.746
  O  O103  1  0.056800  0.135700  0.069200  1.0  -0.672
  O  O104  1  0.858900  0.098900  0.024700  1.0  -0.6931
  O  O105  1  0.275100  0.395900  0.780100  1.0  -0.6151
  O  O106  1  0.337300  0.359700  0.635300  1.0  -0.6018
  O  O107  1  0.648300  0.066300  0.792700  1.0  -0.6888
  O  O108  1  0.623600  0.023100  0.957400  1.0  -0.6088
