# generated using pymatgen
data_GdH4C12(SO4)2
_symmetry_space_group_name_H-M   'P 1'
_cell_length_a   11.60540000
_cell_length_b   16.26620000
_cell_length_c   12.04790000
_cell_angle_alpha   90.00000000
_cell_angle_beta   112.49700000
_cell_angle_gamma   90.00000000
_symmetry_Int_Tables_number   1
_chemical_formula_structural   GdH4C12(SO4)2
_chemical_formula_sum   'Gd4 H16 C48 S8 O32'
_cell_volume   2101.27232193
_cell_formula_units_Z   4
loop_
 _symmetry_equiv_pos_site_id
 _symmetry_equiv_pos_as_xyz
  1  'x, y, z'
loop_
 _atom_site_type_symbol
 _atom_site_label
 _atom_site_symmetry_multiplicity
 _atom_site_fract_x
 _atom_site_fract_y
 _atom_site_fract_z
 _atom_site_occupancy
 _atom_site_charge
  Gd  Gd1  1  0.194170  0.027350  0.078250  1.0  2.2193
  Gd  Gd2  1  0.805830  0.527350  0.421750  1.0  2.2191
  Gd  Gd3  1  0.805830  0.972650  0.921750  1.0  2.2213
  Gd  Gd4  1  0.194170  0.472650  0.578250  1.0  2.2209
  H  H5  1  0.772900  0.148500  0.713700  1.0  0.1217
  H  H6  1  0.743300  0.274000  0.594300  1.0  0.1222
  H  H7  1  0.336400  0.243200  0.441200  1.0  0.1277
  H  H8  1  0.454500  0.370300  0.497600  1.0  0.1219
  H  H9  1  0.227100  0.648500  0.786300  1.0  0.1229
  H  H10  1  0.256700  0.774000  0.905700  1.0  0.1221
  H  H11  1  0.663600  0.743200  0.058800  1.0  0.127
  H  H12  1  0.545500  0.870300  0.002400  1.0  0.1225
  H  H13  1  0.227100  0.851500  0.286300  1.0  0.1231
  H  H14  1  0.256700  0.726000  0.405700  1.0  0.1225
  H  H15  1  0.663600  0.756800  0.558800  1.0  0.1267
  H  H16  1  0.545500  0.629700  0.502400  1.0  0.1218
  H  H17  1  0.772900  0.351500  0.213700  1.0  0.1223
  H  H18  1  0.743300  0.226000  0.094300  1.0  0.1224
  H  H19  1  0.336400  0.256800  0.941200  1.0  0.1283
  H  H20  1  0.454500  0.129700  0.997600  1.0  0.1221
  C  C21  1  0.958800  0.152600  0.749200  1.0  -0.1873
  C  C22  1  0.837200  0.176600  0.702000  1.0  -0.0403
  C  C23  1  0.820300  0.249000  0.633200  1.0  -0.0431
  C  C24  1  0.928500  0.278300  0.629700  1.0  -0.1863
  C  C25  1  0.014800  0.082100  0.829900  1.0  0.7765
  C  C26  1  0.949400  0.353300  0.569600  1.0  0.7931
  C  C27  1  0.394100  0.228000  0.303100  1.0  -0.1536
  C  C28  1  0.383900  0.264500  0.400800  1.0  -0.0391
  C  C29  1  0.452700  0.337400  0.433900  1.0  -0.0465
  C  C30  1  0.516800  0.354900  0.362400  1.0  -0.184
  C  C31  1  0.333200  0.152500  0.237300  1.0  0.7764
  C  C32  1  0.600100  0.425700  0.370900  1.0  0.7621
  C  C33  1  0.041200  0.652600  0.750800  1.0  -0.1874
  C  C34  1  0.162800  0.676600  0.798000  1.0  -0.0404
  C  C35  1  0.179700  0.749000  0.866800  1.0  -0.0426
  C  C36  1  0.071500  0.778300  0.870300  1.0  -0.1877
  C  C37  1  0.985200  0.582100  0.670100  1.0  0.7759
  C  C38  1  0.050600  0.853300  0.930400  1.0  0.7934
  C  C39  1  0.605900  0.728000  0.196900  1.0  -0.1543
  C  C40  1  0.616100  0.764500  0.099200  1.0  -0.0394
  C  C41  1  0.547300  0.837400  0.066100  1.0  -0.0466
  C  C42  1  0.483200  0.854900  0.137600  1.0  -0.1825
  C  C43  1  0.666800  0.652500  0.262700  1.0  0.777
  C  C44  1  0.399900  0.925700  0.129100  1.0  0.7621
  C  C45  1  0.041200  0.847400  0.250800  1.0  -0.1873
  C  C46  1  0.162800  0.823400  0.298000  1.0  -0.0395
  C  C47  1  0.179700  0.751000  0.366800  1.0  -0.043
  C  C48  1  0.071500  0.721700  0.370300  1.0  -0.188
  C  C49  1  0.985200  0.917900  0.170100  1.0  0.7752
  C  C50  1  0.050600  0.646700  0.430400  1.0  0.7935
  C  C51  1  0.605900  0.772000  0.696900  1.0  -0.1545
  C  C52  1  0.616100  0.735500  0.599200  1.0  -0.0393
  C  C53  1  0.547300  0.662600  0.566100  1.0  -0.0469
  C  C54  1  0.483200  0.645100  0.637600  1.0  -0.1824
  C  C55  1  0.666800  0.847500  0.762700  1.0  0.7766
  C  C56  1  0.399900  0.574300  0.629100  1.0  0.7624
  C  C57  1  0.958800  0.347400  0.249200  1.0  -0.1871
  C  C58  1  0.837200  0.323400  0.202000  1.0  -0.0401
  C  C59  1  0.820300  0.251000  0.133200  1.0  -0.0433
  C  C60  1  0.928500  0.221700  0.129700  1.0  -0.1866
  C  C61  1  0.014800  0.417900  0.329900  1.0  0.7763
  C  C62  1  0.949400  0.146700  0.069600  1.0  0.7933
  C  C63  1  0.394100  0.272000  0.803100  1.0  -0.1533
  C  C64  1  0.383900  0.235500  0.900800  1.0  -0.0399
  C  C65  1  0.452700  0.162600  0.933900  1.0  -0.0467
  C  C66  1  0.516800  0.145100  0.862400  1.0  -0.1842
  C  C67  1  0.333200  0.347500  0.737300  1.0  0.7757
  C  C68  1  0.600100  0.074300  0.870900  1.0  0.7618
  S  S69  1  0.053290  0.218580  0.711960  1.0  0.1849
  S  S70  1  0.489920  0.283050  0.251640  1.0  0.1817
  S  S71  1  0.946710  0.718580  0.788040  1.0  0.1862
  S  S72  1  0.510080  0.783050  0.248360  1.0  0.183
  S  S73  1  0.946710  0.781420  0.288040  1.0  0.1864
  S  S74  1  0.510080  0.716950  0.748360  1.0  0.1827
  S  S75  1  0.053290  0.281420  0.211960  1.0  0.1852
  S  S76  1  0.489920  0.216950  0.751640  1.0  0.1815
  O  O77  1  0.131700  0.077900  0.878800  1.0  -0.6518
  O  O78  1  0.941100  0.030460  0.846000  1.0  -0.7422
  O  O79  1  0.056200  0.363200  0.568400  1.0  -0.6792
  O  O80  1  0.857600  0.400460  0.524200  1.0  -0.6995
  O  O81  1  0.275000  0.104400  0.279300  1.0  -0.6262
  O  O82  1  0.339300  0.140000  0.136500  1.0  -0.6148
  O  O83  1  0.647300  0.433500  0.292300  1.0  -0.6907
  O  O84  1  0.623100  0.475710  0.457500  1.0  -0.6064
  O  O85  1  0.868300  0.577900  0.621200  1.0  -0.6521
  O  O86  1  0.058900  0.530460  0.654000  1.0  -0.7405
  O  O87  1  0.943800  0.863200  0.931600  1.0  -0.6787
  O  O88  1  0.142400  0.900460  0.975800  1.0  -0.6988
  O  O89  1  0.725000  0.604400  0.220700  1.0  -0.6269
  O  O90  1  0.660700  0.640000  0.363500  1.0  -0.6136
  O  O91  1  0.352700  0.933500  0.207700  1.0  -0.6925
  O  O92  1  0.376900  0.975710  0.042500  1.0  -0.6048
  O  O93  1  0.868300  0.922100  0.121200  1.0  -0.6518
  O  O94  1  0.058900  0.969540  0.154000  1.0  -0.7407
  O  O95  1  0.943800  0.636800  0.431600  1.0  -0.6788
  O  O96  1  0.142400  0.599540  0.475800  1.0  -0.6986
  O  O97  1  0.725000  0.895600  0.720700  1.0  -0.6272
  O  O98  1  0.660700  0.860000  0.863500  1.0  -0.614
  O  O99  1  0.352700  0.566500  0.707700  1.0  -0.6926
  O  O100  1  0.376900  0.524290  0.542500  1.0  -0.6051
  O  O101  1  0.131700  0.422100  0.378800  1.0  -0.6516
  O  O102  1  0.941100  0.469540  0.346000  1.0  -0.742
  O  O103  1  0.056200  0.136800  0.068400  1.0  -0.6791
  O  O104  1  0.857600  0.099540  0.024200  1.0  -0.6998
  O  O105  1  0.275000  0.395600  0.779300  1.0  -0.6267
  O  O106  1  0.339300  0.360000  0.636500  1.0  -0.6145
  O  O107  1  0.647300  0.066500  0.792300  1.0  -0.6906
  O  O108  1  0.623100  0.024290  0.957500  1.0  -0.6051
