# generated using pymatgen
data_EuH4C12(SO4)2
_symmetry_space_group_name_H-M   'P 1'
_cell_length_a   11.57760000
_cell_length_b   16.29840000
_cell_length_c   12.03260000
_cell_angle_alpha   90.00000000
_cell_angle_beta   112.50000000
_cell_angle_gamma   90.00000000
_symmetry_Int_Tables_number   1
_chemical_formula_structural   EuH4C12(SO4)2
_chemical_formula_sum   'Eu4 H16 C48 S8 O32'
_cell_volume   2097.67565829
_cell_formula_units_Z   4
loop_
 _symmetry_equiv_pos_site_id
 _symmetry_equiv_pos_as_xyz
  1  'x, y, z'
loop_
 _atom_site_type_symbol
 _atom_site_label
 _atom_site_symmetry_multiplicity
 _atom_site_fract_x
 _atom_site_fract_y
 _atom_site_fract_z
 _atom_site_occupancy
 _atom_site_charge
  Eu  Eu1  1  0.194200  0.027220  0.578100  1.0  2.1318
  Eu  Eu2  1  0.805800  0.527220  0.921900  1.0  2.1313
  Eu  Eu3  1  0.805800  0.972780  0.421900  1.0  2.1328
  Eu  Eu4  1  0.194200  0.472780  0.078100  1.0  2.1314
  H  H5  1  0.772100  0.148200  0.213700  1.0  0.1184
  H  H6  1  0.741600  0.273200  0.094300  1.0  0.1253
  H  H7  1  0.336600  0.243700  0.943600  1.0  0.1321
  H  H8  1  0.453300  0.371500  0.996000  1.0  0.1234
  H  H9  1  0.227900  0.648200  0.286300  1.0  0.1189
  H  H10  1  0.258400  0.773200  0.405700  1.0  0.1252
  H  H11  1  0.663400  0.743700  0.556400  1.0  0.1313
  H  H12  1  0.546700  0.871500  0.504000  1.0  0.1227
  H  H13  1  0.227900  0.851800  0.786300  1.0  0.1195
  H  H14  1  0.258400  0.726800  0.905700  1.0  0.1256
  H  H15  1  0.663400  0.756300  0.056400  1.0  0.1312
  H  H16  1  0.546700  0.628500  0.004000  1.0  0.122
  H  H17  1  0.772100  0.351800  0.713700  1.0  0.1193
  H  H18  1  0.741600  0.226800  0.594300  1.0  0.1255
  H  H19  1  0.336600  0.256300  0.443600  1.0  0.1329
  H  H20  1  0.453300  0.128500  0.496000  1.0  0.1235
  C  C21  1  0.958500  0.152200  0.248900  1.0  -0.1792
  C  C22  1  0.836300  0.176200  0.201700  1.0  -0.0351
  C  C23  1  0.818900  0.248300  0.133000  1.0  -0.0413
  C  C24  1  0.928600  0.278000  0.129200  1.0  -0.1855
  C  C25  1  0.015500  0.082800  0.328300  1.0  0.769
  C  C26  1  0.948800  0.352700  0.068700  1.0  0.7951
  C  C27  1  0.394000  0.227700  0.803200  1.0  -0.1816
  C  C28  1  0.383500  0.264800  0.902400  1.0  -0.031
  C  C29  1  0.452000  0.337800  0.933200  1.0  -0.0571
  C  C30  1  0.515700  0.354200  0.862700  1.0  -0.133
  C  C31  1  0.332200  0.152300  0.737900  1.0  0.778
  C  C32  1  0.598900  0.425500  0.870700  1.0  0.7608
  C  C33  1  0.041500  0.652200  0.251100  1.0  -0.1804
  C  C34  1  0.163700  0.676200  0.298300  1.0  -0.0365
  C  C35  1  0.181100  0.748300  0.367000  1.0  -0.0416
  C  C36  1  0.071400  0.778000  0.370800  1.0  -0.1865
  C  C37  1  0.984500  0.582800  0.171700  1.0  0.7693
  C  C38  1  0.051200  0.852700  0.431300  1.0  0.7953
  C  C39  1  0.606000  0.727700  0.696800  1.0  -0.1814
  C  C40  1  0.616500  0.764800  0.597600  1.0  -0.0324
  C  C41  1  0.548000  0.837800  0.566800  1.0  -0.0568
  C  C42  1  0.484300  0.854200  0.637300  1.0  -0.1329
  C  C43  1  0.667800  0.652300  0.762100  1.0  0.7786
  C  C44  1  0.401100  0.925500  0.629300  1.0  0.7607
  C  C45  1  0.041500  0.847800  0.751100  1.0  -0.1802
  C  C46  1  0.163700  0.823800  0.798300  1.0  -0.036
  C  C47  1  0.181100  0.751700  0.867000  1.0  -0.042
  C  C48  1  0.071400  0.722000  0.870800  1.0  -0.187
  C  C49  1  0.984500  0.917200  0.671700  1.0  0.7691
  C  C50  1  0.051200  0.647300  0.931300  1.0  0.7955
  C  C51  1  0.606000  0.772300  0.196800  1.0  -0.1817
  C  C52  1  0.616500  0.735200  0.097600  1.0  -0.0327
  C  C53  1  0.548000  0.662200  0.066800  1.0  -0.057
  C  C54  1  0.484300  0.645800  0.137300  1.0  -0.1327
  C  C55  1  0.667800  0.847700  0.262100  1.0  0.7784
  C  C56  1  0.401100  0.574500  0.129300  1.0  0.7614
  C  C57  1  0.958500  0.347800  0.748900  1.0  -0.179
  C  C58  1  0.836300  0.323800  0.701700  1.0  -0.0352
  C  C59  1  0.818900  0.251700  0.633000  1.0  -0.0413
  C  C60  1  0.928600  0.222000  0.629200  1.0  -0.1861
  C  C61  1  0.015500  0.417200  0.828300  1.0  0.7689
  C  C62  1  0.948800  0.147300  0.568700  1.0  0.7954
  C  C63  1  0.394000  0.272300  0.303200  1.0  -0.1815
  C  C64  1  0.383500  0.235200  0.402400  1.0  -0.0322
  C  C65  1  0.452000  0.162200  0.433200  1.0  -0.0571
  C  C66  1  0.515700  0.145800  0.362700  1.0  -0.1327
  C  C67  1  0.332200  0.347700  0.237900  1.0  0.7774
  C  C68  1  0.598900  0.074500  0.370700  1.0  0.7608
  S  S69  1  0.053700  0.218230  0.211410  1.0  0.1862
  S  S70  1  0.489690  0.282760  0.751530  1.0  0.1746
  S  S71  1  0.946300  0.718230  0.288590  1.0  0.1877
  S  S72  1  0.510310  0.782760  0.748470  1.0  0.1741
  S  S73  1  0.946300  0.781770  0.788590  1.0  0.188
  S  S74  1  0.510310  0.717240  0.248470  1.0  0.1737
  S  S75  1  0.053700  0.281770  0.711410  1.0  0.1868
  S  S76  1  0.489690  0.217240  0.251530  1.0  0.1742
  O  O77  1  0.132900  0.078100  0.377200  1.0  -0.6472
  O  O78  1  0.942400  0.030900  0.346000  1.0  -0.7369
  O  O79  1  0.055900  0.362900  0.067600  1.0  -0.6779
  O  O80  1  0.856600  0.399500  0.022700  1.0  -0.7037
  O  O81  1  0.275100  0.104200  0.781000  1.0  -0.6024
  O  O82  1  0.341400  0.139400  0.638700  1.0  -0.6074
  O  O83  1  0.645800  0.433200  0.791600  1.0  -0.6879
  O  O84  1  0.621300  0.475900  0.956700  1.0  -0.5855
  O  O85  1  0.867100  0.578100  0.122800  1.0  -0.648
  O  O86  1  0.057600  0.530900  0.154000  1.0  -0.7361
  O  O87  1  0.944100  0.862900  0.432400  1.0  -0.6774
  O  O88  1  0.143400  0.899500  0.477300  1.0  -0.7031
  O  O89  1  0.724900  0.604200  0.719000  1.0  -0.6029
  O  O90  1  0.658600  0.639400  0.861300  1.0  -0.6073
  O  O91  1  0.354200  0.933200  0.708400  1.0  -0.6904
  O  O92  1  0.378700  0.975900  0.543300  1.0  -0.5846
  O  O93  1  0.867100  0.921900  0.622800  1.0  -0.6478
  O  O94  1  0.057600  0.969100  0.654000  1.0  -0.7364
  O  O95  1  0.944100  0.637100  0.932400  1.0  -0.6771
  O  O96  1  0.143400  0.600500  0.977300  1.0  -0.7032
  O  O97  1  0.724900  0.895800  0.219000  1.0  -0.603
  O  O98  1  0.658600  0.860600  0.361300  1.0  -0.6072
  O  O99  1  0.354200  0.566800  0.208400  1.0  -0.69
  O  O100  1  0.378700  0.524100  0.043300  1.0  -0.5843
  O  O101  1  0.132900  0.421900  0.877200  1.0  -0.6473
  O  O102  1  0.942400  0.469100  0.846000  1.0  -0.7371
  O  O103  1  0.055900  0.137100  0.567600  1.0  -0.6775
  O  O104  1  0.856600  0.100500  0.522700  1.0  -0.7045
  O  O105  1  0.275100  0.395800  0.281000  1.0  -0.603
  O  O106  1  0.341400  0.360600  0.138700  1.0  -0.6068
  O  O107  1  0.645800  0.066800  0.291600  1.0  -0.6883
  O  O108  1  0.621300  0.024100  0.456700  1.0  -0.5838
