# generated using pymatgen
data_YbH10C15S2N2O9
_symmetry_space_group_name_H-M   'P 1'
_cell_length_a   11.50470000
_cell_length_b   14.02140000
_cell_length_c   15.83150000
_cell_angle_alpha   93.83120000
_cell_angle_beta   90.00000000
_cell_angle_gamma   90.00000000
_symmetry_Int_Tables_number   1
_chemical_formula_structural   YbH10C15S2N2O9
_chemical_formula_sum   'Yb4 H40 C60 S8 N8 O36'
_cell_volume   2548.10376065
_cell_formula_units_Z   4
loop_
 _symmetry_equiv_pos_site_id
 _symmetry_equiv_pos_as_xyz
  1  'x, y, z'
loop_
 _atom_site_type_symbol
 _atom_site_label
 _atom_site_symmetry_multiplicity
 _atom_site_fract_x
 _atom_site_fract_y
 _atom_site_fract_z
 _atom_site_occupancy
 _atom_site_charge
  Yb  Yb1  1  0.888690  0.661420  0.014050  1.0  1.3932
  Yb  Yb2  1  0.388690  0.838580  0.485950  1.0  1.3978
  Yb  Yb3  1  0.111310  0.338580  0.985950  1.0  1.3975
  Yb  Yb4  1  0.611310  0.161420  0.514050  1.0  1.3974
  H  H5  1  0.684900  0.416200  0.118200  1.0  0.2385
  H  H6  1  0.564900  0.652200  0.039300  1.0  0.2508
  H  H7  1  0.931200  0.699700  0.807200  1.0  0.1426
  H  H8  1  0.949700  0.708000  0.654100  1.0  0.1464
  H  H9  1  0.853700  0.998100  0.180100  1.0  0.1534
  H  H10  1  0.738900  0.075700  0.294500  1.0  0.1479
  H  H11  1  0.487700  0.609700  0.182300  1.0  0.1239
  H  H12  1  0.404600  0.577600  0.106000  1.0  0.1183
  H  H13  1  0.464400  0.423700  0.105100  1.0  0.12
  H  H14  1  0.509500  0.451300  0.197900  1.0  0.1172
  H  H15  1  0.184900  0.083800  0.381800  1.0  0.2386
  H  H16  1  0.064900  0.847800  0.460700  1.0  0.2514
  H  H17  1  0.431200  0.800300  0.692800  1.0  0.1424
  H  H18  1  0.449700  0.792000  0.845900  1.0  0.1467
  H  H19  1  0.353700  0.501900  0.319900  1.0  0.1543
  H  H20  1  0.238900  0.424300  0.205500  1.0  0.1482
  H  H21  1  0.987700  0.890300  0.317700  1.0  0.1236
  H  H22  1  0.904600  0.922400  0.394000  1.0  0.1179
  H  H23  1  0.964400  0.076300  0.394900  1.0  0.1204
  H  H24  1  0.009500  0.048700  0.302100  1.0  0.1182
  H  H25  1  0.315100  0.583800  0.881800  1.0  0.2379
  H  H26  1  0.435100  0.347800  0.960700  1.0  0.2518
  H  H27  1  0.068800  0.300300  0.192800  1.0  0.1424
  H  H28  1  0.050300  0.292000  0.345900  1.0  0.1462
  H  H29  1  0.146300  0.001900  0.819900  1.0  0.1547
  H  H30  1  0.261100  0.924300  0.705500  1.0  0.1481
  H  H31  1  0.512300  0.390300  0.817700  1.0  0.1234
  H  H32  1  0.595400  0.422400  0.894000  1.0  0.1132
  H  H33  1  0.535600  0.576300  0.894900  1.0  0.1208
  H  H34  1  0.490500  0.548700  0.802100  1.0  0.1178
  H  H35  1  0.815100  0.916200  0.618200  1.0  0.2386
  H  H36  1  0.935100  0.152200  0.539300  1.0  0.2507
  H  H37  1  0.568800  0.199700  0.307200  1.0  0.1426
  H  H38  1  0.550300  0.208000  0.154100  1.0  0.1459
  H  H39  1  0.646300  0.498100  0.680100  1.0  0.1537
  H  H40  1  0.761100  0.575700  0.794500  1.0  0.1475
  H  H41  1  0.012300  0.109700  0.682300  1.0  0.1237
  H  H42  1  0.095400  0.077600  0.606000  1.0  0.1132
  H  H43  1  0.035600  0.923700  0.605100  1.0  0.1208
  H  H44  1  0.990500  0.951300  0.697900  1.0  0.117
  C  C45  1  0.106400  0.713800  0.820700  1.0  -0.1738
  C  C46  1  0.001800  0.707000  0.779700  1.0  -0.0291
  C  C47  1  0.012500  0.712300  0.691100  1.0  -0.0298
  C  C48  1  0.125000  0.724700  0.665700  1.0  -0.1756
  C  C49  1  0.132600  0.715200  0.913000  1.0  0.7237
  C  C50  1  0.168700  0.739800  0.579500  1.0  0.7733
  C  C51  1  0.764100  0.874300  0.191000  1.0  -0.1749
  C  C52  1  0.795100  0.967700  0.208500  1.0  -0.0245
  C  C53  1  0.728600  0.012500  0.274100  1.0  -0.0195
  C  C54  1  0.647100  0.953100  0.304600  1.0  -0.1755
  C  C55  1  0.815900  0.799800  0.131400  1.0  0.7218
  C  C56  1  0.562600  0.970700  0.374400  1.0  0.7425
  C  C57  1  0.658800  0.538500  0.064400  1.0  0.55
  C  C58  1  0.482300  0.571800  0.128800  1.0  0.052
  C  C59  1  0.514200  0.466800  0.139200  1.0  0.0581
  C  C60  1  0.606400  0.786200  0.679300  1.0  -0.1742
  C  C61  1  0.501800  0.793000  0.720300  1.0  -0.0293
  C  C62  1  0.512500  0.787700  0.808900  1.0  -0.0289
  C  C63  1  0.625000  0.775300  0.834300  1.0  -0.1757
  C  C64  1  0.632600  0.784800  0.587000  1.0  0.7236
  C  C65  1  0.668700  0.760200  0.920500  1.0  0.7736
  C  C66  1  0.264100  0.625700  0.309000  1.0  -0.1755
  C  C67  1  0.295100  0.532300  0.291500  1.0  -0.0246
  C  C68  1  0.228600  0.487500  0.225900  1.0  -0.0201
  C  C69  1  0.147100  0.546900  0.195400  1.0  -0.1765
  C  C70  1  0.315900  0.700200  0.368600  1.0  0.7219
  C  C71  1  0.062600  0.529300  0.125600  1.0  0.7419
  C  C72  1  0.158800  0.961500  0.435600  1.0  0.5501
  C  C73  1  0.982300  0.928200  0.371200  1.0  0.0535
  C  C74  1  0.014200  0.033200  0.360800  1.0  0.0596
  C  C75  1  0.893600  0.286200  0.179300  1.0  -0.1746
  C  C76  1  0.998200  0.293000  0.220300  1.0  -0.029
  C  C77  1  0.987500  0.287700  0.308900  1.0  -0.0276
  C  C78  1  0.875000  0.275300  0.334300  1.0  -0.1762
  C  C79  1  0.867400  0.284800  0.087000  1.0  0.7237
  C  C80  1  0.831300  0.260200  0.420500  1.0  0.7737
  C  C81  1  0.235900  0.125700  0.809000  1.0  -0.1753
  C  C82  1  0.204900  0.032300  0.791500  1.0  -0.026
  C  C83  1  0.271400  0.987500  0.725900  1.0  -0.0201
  C  C84  1  0.352900  0.046900  0.695400  1.0  -0.1784
  C  C85  1  0.184100  0.200200  0.868600  1.0  0.7208
  C  C86  1  0.437400  0.029300  0.625600  1.0  0.7421
  C  C87  1  0.341200  0.461500  0.935600  1.0  0.547
  C  C88  1  0.517700  0.428200  0.871200  1.0  0.0512
  C  C89  1  0.485800  0.533200  0.860800  1.0  0.0591
  C  C90  1  0.393600  0.213800  0.320700  1.0  -0.1741
  C  C91  1  0.498200  0.207000  0.279700  1.0  -0.029
  C  C92  1  0.487500  0.212300  0.191100  1.0  -0.0291
  C  C93  1  0.375000  0.224700  0.165700  1.0  -0.1768
  C  C94  1  0.367400  0.215200  0.413000  1.0  0.7229
  C  C95  1  0.331300  0.239800  0.079500  1.0  0.7733
  C  C96  1  0.735900  0.374300  0.691000  1.0  -0.1745
  C  C97  1  0.704900  0.467700  0.708500  1.0  -0.0253
  C  C98  1  0.771400  0.512500  0.774100  1.0  -0.0197
  C  C99  1  0.852900  0.453100  0.804600  1.0  -0.1765
  C  C100  1  0.684100  0.299800  0.631400  1.0  0.7212
  C  C101  1  0.937400  0.470700  0.874400  1.0  0.7425
  C  C102  1  0.841200  0.038500  0.564400  1.0  0.5466
  C  C103  1  0.017700  0.071800  0.628800  1.0  0.0518
  C  C104  1  0.985800  0.966800  0.639200  1.0  0.0576
  S  S105  1  0.218580  0.727830  0.750590  1.0  0.1269
  S  S106  1  0.651140  0.841210  0.253390  1.0  0.1984
  S  S107  1  0.718580  0.772170  0.749410  1.0  0.1267
  S  S108  1  0.151140  0.658790  0.246610  1.0  0.1972
  S  S109  1  0.781420  0.272170  0.249410  1.0  0.127
  S  S110  1  0.348860  0.158790  0.746610  1.0  0.197
  S  S111  1  0.281420  0.227830  0.250590  1.0  0.1272
  S  S112  1  0.848860  0.341210  0.753390  1.0  0.1979
  N  N113  1  0.634000  0.463000  0.108500  1.0  -0.3308
  N  N114  1  0.569800  0.600100  0.069400  1.0  -0.3398
  N  N115  1  0.134000  0.037000  0.391500  1.0  -0.3314
  N  N116  1  0.069800  0.899900  0.430600  1.0  -0.3387
  N  N117  1  0.366000  0.537000  0.891500  1.0  -0.3314
  N  N118  1  0.430200  0.399900  0.930600  1.0  -0.3387
  N  N119  1  0.866000  0.963000  0.608500  1.0  -0.3305
  N  N120  1  0.930200  0.100100  0.569400  1.0  -0.3394
  O  O121  1  0.046300  0.725970  0.962670  1.0  -0.6709
  O  O122  1  0.235700  0.710500  0.935100  1.0  -0.5068
  O  O123  1  0.272900  0.771010  0.576210  1.0  -0.6455
  O  O124  1  0.103900  0.723300  0.518000  1.0  -0.5083
  O  O125  1  0.780500  0.714880  0.134580  1.0  -0.5652
  O  O126  1  0.892900  0.821800  0.079800  1.0  -0.5691
  O  O127  1  0.560800  0.050960  0.413460  1.0  -0.6715
  O  O128  1  0.496100  0.902070  0.388570  1.0  -0.6537
  O  O129  1  0.750400  0.548900  0.023400  1.0  -0.6336
  O  O130  1  0.546300  0.774030  0.537330  1.0  -0.6705
  O  O131  1  0.735700  0.789500  0.564900  1.0  -0.5057
  O  O132  1  0.772900  0.728990  0.923790  1.0  -0.6459
  O  O133  1  0.603900  0.776700  0.982000  1.0  -0.5074
  O  O134  1  0.280500  0.785120  0.365420  1.0  -0.5631
  O  O135  1  0.392900  0.678200  0.420200  1.0  -0.5683
  O  O136  1  0.060800  0.449040  0.086540  1.0  -0.6728
  O  O137  1  0.996100  0.597930  0.111430  1.0  -0.6529
  O  O138  1  0.250400  0.951100  0.476600  1.0  -0.6336
  O  O139  1  0.953700  0.274030  0.037330  1.0  -0.6697
  O  O140  1  0.764300  0.289500  0.064900  1.0  -0.5055
  O  O141  1  0.727100  0.228990  0.423790  1.0  -0.6475
  O  O142  1  0.896100  0.276700  0.482000  1.0  -0.5086
  O  O143  1  0.219500  0.285120  0.865420  1.0  -0.5626
  O  O144  1  0.107100  0.178200  0.920200  1.0  -0.5689
  O  O145  1  0.439200  0.949040  0.586540  1.0  -0.673
  O  O146  1  0.503900  0.097930  0.611430  1.0  -0.6525
  O  O147  1  0.249600  0.451100  0.976600  1.0  -0.6341
  O  O148  1  0.453700  0.225970  0.462670  1.0  -0.6718
  O  O149  1  0.264300  0.210500  0.435100  1.0  -0.5066
  O  O150  1  0.227100  0.271010  0.076210  1.0  -0.6465
  O  O151  1  0.396100  0.223300  0.018000  1.0  -0.5091
  O  O152  1  0.719500  0.214880  0.634580  1.0  -0.5652
  O  O153  1  0.607100  0.321800  0.579800  1.0  -0.5683
  O  O154  1  0.939200  0.550960  0.913460  1.0  -0.6718
  O  O155  1  0.003900  0.402070  0.888570  1.0  -0.6525
  O  O156  1  0.749600  0.048900  0.523400  1.0  -0.6346
