# generated using pymatgen
data_DyH4C12(SO4)2
_symmetry_space_group_name_H-M   'P 1'
_cell_length_a   11.54080000
_cell_length_b   16.15900000
_cell_length_c   12.00190000
_cell_angle_alpha   90.00000000
_cell_angle_beta   112.73300000
_cell_angle_gamma   90.00000000
_symmetry_Int_Tables_number   1
_chemical_formula_structural   DyH4C12(SO4)2
_chemical_formula_sum   'Dy4 H16 C48 S8 O32'
_cell_volume   2064.33410312
_cell_formula_units_Z   4
loop_
 _symmetry_equiv_pos_site_id
 _symmetry_equiv_pos_as_xyz
  1  'x, y, z'
loop_
 _atom_site_type_symbol
 _atom_site_label
 _atom_site_symmetry_multiplicity
 _atom_site_fract_x
 _atom_site_fract_y
 _atom_site_fract_z
 _atom_site_occupancy
 _atom_site_charge
  Dy  Dy1  1  0.194490  0.027810  0.078780  1.0  2.2971
  Dy  Dy2  1  0.805510  0.527810  0.421220  1.0  2.2954
  Dy  Dy3  1  0.805510  0.972190  0.921220  1.0  2.2987
  Dy  Dy4  1  0.194490  0.472190  0.578780  1.0  2.2983
  H  H5  1  0.768500  0.148300  0.708900  1.0  0.1171
  H  H6  1  0.740300  0.274900  0.591400  1.0  0.1216
  H  H7  1  0.334800  0.244300  0.441200  1.0  0.1213
  H  H8  1  0.454400  0.371900  0.498200  1.0  0.1163
  H  H9  1  0.231500  0.648300  0.791100  1.0  0.1176
  H  H10  1  0.259700  0.774900  0.908600  1.0  0.1215
  H  H11  1  0.665200  0.744300  0.058800  1.0  0.1211
  H  H12  1  0.545600  0.871900  0.001800  1.0  0.117
  H  H13  1  0.231500  0.851700  0.291100  1.0  0.1181
  H  H14  1  0.259700  0.725100  0.408600  1.0  0.1219
  H  H15  1  0.665200  0.755700  0.558800  1.0  0.1207
  H  H16  1  0.545600  0.628100  0.501800  1.0  0.1161
  H  H17  1  0.768500  0.351700  0.208900  1.0  0.118
  H  H18  1  0.740300  0.225100  0.091400  1.0  0.1217
  H  H19  1  0.334800  0.255700  0.941200  1.0  0.1219
  H  H20  1  0.454400  0.128100  0.998200  1.0  0.1163
  C  C21  1  0.956700  0.152400  0.748200  1.0  -0.1923
  C  C22  1  0.833800  0.176700  0.698700  1.0  -0.0432
  C  C23  1  0.817800  0.249510  0.630800  1.0  -0.0493
  C  C24  1  0.927600  0.279390  0.628200  1.0  -0.1915
  C  C25  1  0.011600  0.081460  0.828800  1.0  0.7843
  C  C26  1  0.949100  0.354100  0.568600  1.0  0.7811
  C  C27  1  0.392900  0.228040  0.303400  1.0  -0.1887
  C  C28  1  0.382900  0.265400  0.400800  1.0  -0.0551
  C  C29  1  0.452100  0.338710  0.434100  1.0  -0.0555
  C  C30  1  0.516200  0.356270  0.362100  1.0  -0.2017
  C  C31  1  0.331200  0.152470  0.237300  1.0  0.7745
  C  C32  1  0.600100  0.427270  0.370900  1.0  0.7669
  C  C33  1  0.043300  0.652400  0.751800  1.0  -0.1934
  C  C34  1  0.166200  0.676700  0.801300  1.0  -0.0436
  C  C35  1  0.182200  0.749510  0.869200  1.0  -0.0493
  C  C36  1  0.072400  0.779390  0.871800  1.0  -0.1929
  C  C37  1  0.988400  0.581460  0.671200  1.0  0.7839
  C  C38  1  0.050900  0.854100  0.931400  1.0  0.7815
  C  C39  1  0.607100  0.728040  0.196600  1.0  -0.189
  C  C40  1  0.617100  0.765400  0.099200  1.0  -0.055
  C  C41  1  0.547900  0.838710  0.065900  1.0  -0.0557
  C  C42  1  0.483800  0.856270  0.137900  1.0  -0.1984
  C  C43  1  0.668800  0.652470  0.262700  1.0  0.7748
  C  C44  1  0.399900  0.927270  0.129100  1.0  0.7679
  C  C45  1  0.043300  0.847600  0.251800  1.0  -0.1933
  C  C46  1  0.166200  0.823300  0.301300  1.0  -0.0428
  C  C47  1  0.182200  0.750490  0.369200  1.0  -0.05
  C  C48  1  0.072400  0.720610  0.371800  1.0  -0.1929
  C  C49  1  0.988400  0.918540  0.171200  1.0  0.7832
  C  C50  1  0.050900  0.645900  0.431400  1.0  0.7819
  C  C51  1  0.607100  0.771960  0.696600  1.0  -0.1898
  C  C52  1  0.617100  0.734600  0.599200  1.0  -0.0548
  C  C53  1  0.547900  0.661290  0.565900  1.0  -0.0563
  C  C54  1  0.483800  0.643730  0.637900  1.0  -0.1984
  C  C55  1  0.668800  0.847530  0.762700  1.0  0.7745
  C  C56  1  0.399900  0.572730  0.629100  1.0  0.7691
  C  C57  1  0.956700  0.347600  0.248200  1.0  -0.1921
  C  C58  1  0.833800  0.323300  0.198700  1.0  -0.043
  C  C59  1  0.817800  0.250490  0.130800  1.0  -0.0502
  C  C60  1  0.927600  0.220610  0.128200  1.0  -0.1916
  C  C61  1  0.011600  0.418540  0.328800  1.0  0.7839
  C  C62  1  0.949100  0.145900  0.068600  1.0  0.7815
  C  C63  1  0.392900  0.271960  0.803400  1.0  -0.1891
  C  C64  1  0.382900  0.234600  0.900800  1.0  -0.0557
  C  C65  1  0.452100  0.161290  0.934100  1.0  -0.056
  C  C66  1  0.516200  0.143730  0.862100  1.0  -0.2021
  C  C67  1  0.331200  0.347530  0.737300  1.0  0.7741
  C  C68  1  0.600100  0.072730  0.870900  1.0  0.7676
  S  S69  1  0.052940  0.218910  0.712430  1.0  0.1776
  S  S70  1  0.489250  0.283590  0.250720  1.0  0.1749
  S  S71  1  0.947060  0.718910  0.787570  1.0  0.1783
  S  S72  1  0.510750  0.783590  0.249280  1.0  0.1739
  S  S73  1  0.947060  0.781090  0.287570  1.0  0.1785
  S  S74  1  0.510750  0.716410  0.749280  1.0  0.1736
  S  S75  1  0.052940  0.281090  0.212430  1.0  0.1779
  S  S76  1  0.489250  0.216410  0.750720  1.0  0.1745
  O  O77  1  0.129310  0.076230  0.879580  1.0  -0.6288
  O  O78  1  0.936910  0.029490  0.843110  1.0  -0.7407
  O  O79  1  0.056750  0.363730  0.567880  1.0  -0.6865
  O  O80  1  0.857250  0.402060  0.523290  1.0  -0.7024
  O  O81  1  0.274700  0.104330  0.279880  1.0  -0.6066
  O  O82  1  0.337400  0.139710  0.135680  1.0  -0.6106
  O  O83  1  0.647680  0.434790  0.292650  1.0  -0.685
  O  O84  1  0.623480  0.477350  0.456930  1.0  -0.5973
  O  O85  1  0.870690  0.576230  0.620420  1.0  -0.6287
  O  O86  1  0.063090  0.529490  0.656890  1.0  -0.7376
  O  O87  1  0.943250  0.863730  0.932120  1.0  -0.6866
  O  O88  1  0.142750  0.902060  0.976710  1.0  -0.7022
  O  O89  1  0.725300  0.604330  0.220120  1.0  -0.6055
  O  O90  1  0.662600  0.639710  0.364320  1.0  -0.6106
  O  O91  1  0.352320  0.934790  0.207350  1.0  -0.687
  O  O92  1  0.376520  0.977350  0.043070  1.0  -0.5952
  O  O93  1  0.870690  0.923770  0.120420  1.0  -0.6287
  O  O94  1  0.063090  0.970510  0.156890  1.0  -0.7389
  O  O95  1  0.943250  0.636270  0.432120  1.0  -0.6867
  O  O96  1  0.142750  0.597940  0.476710  1.0  -0.7022
  O  O97  1  0.725300  0.895670  0.720120  1.0  -0.6051
  O  O98  1  0.662600  0.860290  0.864320  1.0  -0.6107
  O  O99  1  0.352320  0.565210  0.707350  1.0  -0.6873
  O  O100  1  0.376520  0.522650  0.543070  1.0  -0.5957
  O  O101  1  0.129310  0.423770  0.379580  1.0  -0.629
  O  O102  1  0.936910  0.470510  0.343110  1.0  -0.7409
  O  O103  1  0.056750  0.136270  0.067880  1.0  -0.6866
  O  O104  1  0.857250  0.097940  0.023290  1.0  -0.7029
  O  O105  1  0.274700  0.395670  0.779880  1.0  -0.6065
  O  O106  1  0.337400  0.360290  0.635680  1.0  -0.6107
  O  O107  1  0.647680  0.065210  0.792650  1.0  -0.6853
  O  O108  1  0.623480  0.022650  0.956930  1.0  -0.5966
