# generated using pymatgen
data_Nd2H6C18(SO4)3
_symmetry_space_group_name_H-M   'P 1'
_cell_length_a   11.68710000
_cell_length_b   17.34130000
_cell_length_c   25.85120000
_cell_angle_alpha   102.30100000
_cell_angle_beta   90.00000000
_cell_angle_gamma   90.00000000
_symmetry_Int_Tables_number   1
_chemical_formula_structural   Nd2H6C18(SO4)3
_chemical_formula_sum   'Nd8 H24 C72 S12 O48'
_cell_volume   5118.96651122
_cell_formula_units_Z   4
loop_
 _symmetry_equiv_pos_site_id
 _symmetry_equiv_pos_as_xyz
  1  'x, y, z'
loop_
 _atom_site_type_symbol
 _atom_site_label
 _atom_site_symmetry_multiplicity
 _atom_site_fract_x
 _atom_site_fract_y
 _atom_site_fract_z
 _atom_site_occupancy
 _atom_site_charge
  Nd  Nd1  1  0.028270  0.486780  0.419030  1.0  2.2418
  Nd  Nd2  1  0.492060  0.039280  0.580590  1.0  2.2511
  Nd  Nd3  1  0.028270  0.013220  0.080970  1.0  2.2419
  Nd  Nd4  1  0.492060  0.460720  0.919410  1.0  2.2503
  Nd  Nd5  1  0.971730  0.513220  0.580970  1.0  2.2418
  Nd  Nd6  1  0.507940  0.960720  0.419410  1.0  2.2505
  Nd  Nd7  1  0.971730  0.986780  0.919030  1.0  2.2422
  Nd  Nd8  1  0.507940  0.539280  0.080590  1.0  2.2499
  H  H9  1  0.775700  0.249500  0.395300  1.0  0.1264
  H  H10  1  0.672200  0.134600  0.411800  1.0  0.1098
  H  H11  1  0.028100  0.576500  0.236600  1.0  0.1239
  H  H12  1  0.912200  0.580100  0.158700  1.0  0.122
  H  H13  1  0.735000  0.644200  0.573800  1.0  0.0924
  H  H14  1  0.628300  0.767100  0.592200  1.0  0.1207
  H  H15  1  0.775700  0.250500  0.104700  1.0  0.1267
  H  H16  1  0.672200  0.365400  0.088200  1.0  0.1105
  H  H17  1  0.028100  0.923500  0.263400  1.0  0.1232
  H  H18  1  0.912200  0.919900  0.341300  1.0  0.1229
  H  H19  1  0.735000  0.855800  0.926200  1.0  0.0905
  H  H20  1  0.628300  0.732900  0.907800  1.0  0.121
  H  H21  1  0.224300  0.750500  0.604700  1.0  0.1267
  H  H22  1  0.327800  0.865400  0.588200  1.0  0.1106
  H  H23  1  0.971900  0.423500  0.763400  1.0  0.1237
  H  H24  1  0.087800  0.419900  0.841300  1.0  0.1233
  H  H25  1  0.265000  0.355800  0.426200  1.0  0.0901
  H  H26  1  0.371700  0.232900  0.407800  1.0  0.1213
  H  H27  1  0.224300  0.749500  0.895300  1.0  0.1265
  H  H28  1  0.327800  0.634600  0.911800  1.0  0.1103
  H  H29  1  0.971900  0.076500  0.736600  1.0  0.1239
  H  H30  1  0.087800  0.080100  0.658700  1.0  0.1214
  H  H31  1  0.265000  0.144200  0.073800  1.0  0.0917
  H  H32  1  0.371700  0.267100  0.092200  1.0  0.1209
  C  C33  1  0.816400  0.282000  0.473100  1.0  -0.212
  C  C34  1  0.769100  0.237500  0.428600  1.0  -0.057
  C  C35  1  0.709000  0.171200  0.438100  1.0  -0.0436
  C  C36  1  0.710900  0.167000  0.489900  1.0  -0.2008
  C  C37  1  0.882600  0.356800  0.480400  1.0  0.818
  C  C38  1  0.655100  0.110400  0.517600  1.0  0.7912
  C  C39  1  0.905600  0.511500  0.263700  1.0  -0.1682
  C  C40  1  0.956700  0.552600  0.230300  1.0  -0.08
  C  C41  1  0.889800  0.554700  0.185300  1.0  -0.0597
  C  C42  1  0.789800  0.516100  0.185100  1.0  -0.1876
  C  C43  1  0.949600  0.499990  0.315090  1.0  0.7164
  C  C44  1  0.696000  0.511900  0.146200  1.0  0.6701
  C  C45  1  0.769000  0.658850  0.499750  1.0  -0.2179
  C  C46  1  0.725300  0.676100  0.549400  1.0  -0.06
  C  C47  1  0.664200  0.747100  0.560000  1.0  -0.0592
  C  C48  1  0.662500  0.783700  0.518800  1.0  -0.1978
  C  C49  1  0.840500  0.591300  0.474800  1.0  0.7798
  C  C50  1  0.609300  0.860100  0.514800  1.0  0.8258
  C  C51  1  0.816400  0.218000  0.026900  1.0  -0.2121
  C  C52  1  0.769100  0.262500  0.071400  1.0  -0.0557
  C  C53  1  0.709000  0.328800  0.061900  1.0  -0.0438
  C  C54  1  0.710900  0.333000  0.010100  1.0  -0.2001
  C  C55  1  0.882600  0.143200  0.019600  1.0  0.8178
  C  C56  1  0.655100  0.389600  0.982400  1.0  0.7908
  C  C57  1  0.905600  0.988500  0.236300  1.0  -0.1672
  C  C58  1  0.956700  0.947400  0.269700  1.0  -0.0798
  C  C59  1  0.889800  0.945300  0.314700  1.0  -0.0596
  C  C60  1  0.789800  0.983900  0.314900  1.0  -0.1883
  C  C61  1  0.949600  0.000010  0.184910  1.0  0.7147
  C  C62  1  0.696000  0.988100  0.353800  1.0  0.6773
  C  C63  1  0.769000  0.841150  0.000250  1.0  -0.217
  C  C64  1  0.725300  0.823900  0.950600  1.0  -0.0594
  C  C65  1  0.664200  0.752900  0.940000  1.0  -0.0584
  C  C66  1  0.662500  0.716300  0.981200  1.0  -0.1984
  C  C67  1  0.840500  0.908700  0.025200  1.0  0.7811
  C  C68  1  0.609300  0.639900  0.985200  1.0  0.826
  C  C69  1  0.183600  0.718000  0.526900  1.0  -0.2121
  C  C70  1  0.230900  0.762500  0.571400  1.0  -0.0562
  C  C71  1  0.291000  0.828800  0.561900  1.0  -0.0434
  C  C72  1  0.289100  0.833000  0.510100  1.0  -0.2002
  C  C73  1  0.117400  0.643200  0.519600  1.0  0.8174
  C  C74  1  0.344900  0.889600  0.482400  1.0  0.7899
  C  C75  1  0.094400  0.488500  0.736300  1.0  -0.1666
  C  C76  1  0.043300  0.447400  0.769700  1.0  -0.0801
  C  C77  1  0.110200  0.445300  0.814700  1.0  -0.0602
  C  C78  1  0.210200  0.483900  0.814900  1.0  -0.1878
  C  C79  1  0.050400  0.500010  0.684910  1.0  0.7151
  C  C80  1  0.304000  0.488100  0.853800  1.0  0.6713
  C  C81  1  0.231000  0.341150  0.500250  1.0  -0.2162
  C  C82  1  0.274700  0.323900  0.450600  1.0  -0.0593
  C  C83  1  0.335800  0.252900  0.440000  1.0  -0.0584
  C  C84  1  0.337500  0.216300  0.481200  1.0  -0.1994
  C  C85  1  0.159500  0.408700  0.525200  1.0  0.7731
  C  C86  1  0.390700  0.139900  0.485200  1.0  0.8253
  C  C87  1  0.183600  0.782000  0.973100  1.0  -0.2119
  C  C88  1  0.230900  0.737500  0.928600  1.0  -0.0568
  C  C89  1  0.291000  0.671200  0.938100  1.0  -0.0436
  C  C90  1  0.289100  0.667000  0.989900  1.0  -0.2011
  C  C91  1  0.117400  0.856800  0.980400  1.0  0.8177
  C  C92  1  0.344900  0.610400  0.017600  1.0  0.7899
  C  C93  1  0.094400  0.011500  0.763700  1.0  -0.1674
  C  C94  1  0.043300  0.052600  0.730300  1.0  -0.0805
  C  C95  1  0.110200  0.054700  0.685300  1.0  -0.0598
  C  C96  1  0.210200  0.016100  0.685100  1.0  -0.1874
  C  C97  1  0.050400  0.999990  0.815090  1.0  0.7164
  C  C98  1  0.304000  0.011900  0.646200  1.0  0.6775
  C  C99  1  0.231000  0.158850  0.999750  1.0  -0.2173
  C  C100  1  0.274700  0.176100  0.049400  1.0  -0.0601
  C  C101  1  0.335800  0.247100  0.060000  1.0  -0.0579
  C  C102  1  0.337500  0.283700  0.018800  1.0  -0.1985
  C  C103  1  0.159500  0.091300  0.974800  1.0  0.772
  C  C104  1  0.390700  0.360100  0.014800  1.0  0.8259
  S  S105  1  0.786020  0.244070  0.527690  1.0  0.1711
  S  S106  1  0.733680  0.729170  0.465250  1.0  0.198
  S  S107  1  0.775380  0.474430  0.239490  1.0  0.1533
  S  S108  1  0.786020  0.255930  0.972310  1.0  0.1713
  S  S109  1  0.733680  0.770830  0.034750  1.0  0.1974
  S  S110  1  0.775380  0.025570  0.260510  1.0  0.153
  S  S111  1  0.213980  0.755930  0.472310  1.0  0.1713
  S  S112  1  0.266320  0.270830  0.534750  1.0  0.197
  S  S113  1  0.224620  0.525570  0.760510  1.0  0.1524
  S  S114  1  0.213980  0.744070  0.027690  1.0  0.1707
  S  S115  1  0.266320  0.229170  0.965250  1.0  0.1975
  S  S116  1  0.224620  0.974430  0.739490  1.0  0.1521
  O  O117  1  0.904900  0.382220  0.439320  1.0  -0.729
  O  O118  1  0.909600  0.387750  0.526750  1.0  -0.7502
  O  O119  1  0.648700  0.129760  0.566560  1.0  -0.7214
  O  O120  1  0.612400  0.046670  0.491870  1.0  -0.8133
  O  O121  1  0.033400  0.539510  0.335510  1.0  -0.7282
  O  O122  1  0.901100  0.449940  0.336640  1.0  -0.7008
  O  O123  1  0.603500  0.480250  0.152650  1.0  -0.7176
  O  O124  1  0.713700  0.543630  0.107030  1.0  -0.6647
  O  O125  1  0.880200  0.545750  0.503450  1.0  -0.8779
  O  O126  1  0.863000  0.580310  0.426810  1.0  -0.6072
  O  O127  1  0.598100  0.872400  0.469000  1.0  -0.7418
  O  O128  1  0.581200  0.905870  0.557170  1.0  -0.7155
  O  O129  1  0.904900  0.117780  0.060680  1.0  -0.7299
  O  O130  1  0.909600  0.112250  0.973250  1.0  -0.7518
  O  O131  1  0.648700  0.370240  0.933440  1.0  -0.7199
  O  O132  1  0.612400  0.453330  0.008130  1.0  -0.8145
  O  O133  1  0.033400  0.960490  0.164490  1.0  -0.7267
  O  O134  1  0.901100  0.050060  0.163360  1.0  -0.7012
  O  O135  1  0.603500  0.019750  0.347350  1.0  -0.7172
  O  O136  1  0.713700  0.956370  0.392970  1.0  -0.6631
  O  O137  1  0.880200  0.954250  0.996550  1.0  -0.8775
  O  O138  1  0.863000  0.919690  0.073190  1.0  -0.6078
  O  O139  1  0.598100  0.627600  0.031000  1.0  -0.7415
  O  O140  1  0.581200  0.594130  0.942830  1.0  -0.7125
  O  O141  1  0.095100  0.617780  0.560680  1.0  -0.7297
  O  O142  1  0.090400  0.612250  0.473250  1.0  -0.7511
  O  O143  1  0.351300  0.870240  0.433440  1.0  -0.7214
  O  O144  1  0.387600  0.953330  0.508130  1.0  -0.814
  O  O145  1  0.966600  0.460490  0.664490  1.0  -0.7285
  O  O146  1  0.098900  0.550060  0.663360  1.0  -0.7014
  O  O147  1  0.396500  0.519750  0.847350  1.0  -0.7183
  O  O148  1  0.286300  0.456370  0.892970  1.0  -0.6638
  O  O149  1  0.119800  0.454250  0.496550  1.0  -0.8773
  O  O150  1  0.137000  0.419690  0.573190  1.0  -0.6074
  O  O151  1  0.401900  0.127600  0.531000  1.0  -0.7419
  O  O152  1  0.418800  0.094130  0.442830  1.0  -0.715
  O  O153  1  0.095100  0.882220  0.939320  1.0  -0.7293
  O  O154  1  0.090400  0.887750  0.026750  1.0  -0.7502
  O  O155  1  0.351300  0.629760  0.066560  1.0  -0.7242
  O  O156  1  0.387600  0.546670  0.991870  1.0  -0.8122
  O  O157  1  0.966600  0.039510  0.835510  1.0  -0.7283
  O  O158  1  0.098900  0.949940  0.836640  1.0  -0.7018
  O  O159  1  0.396500  0.980250  0.652650  1.0  -0.7177
  O  O160  1  0.286300  0.043630  0.607030  1.0  -0.6657
  O  O161  1  0.119800  0.045750  0.003450  1.0  -0.8773
  O  O162  1  0.137000  0.080310  0.926810  1.0  -0.6067
  O  O163  1  0.401900  0.372400  0.969000  1.0  -0.7416
  O  O164  1  0.418800  0.405870  0.057170  1.0  -0.7141
