# generated using pymatgen
data_Nd2H6C18(SO4)3
_symmetry_space_group_name_H-M   'P 1'
_cell_length_a   12.17990000
_cell_length_b   16.98360000
_cell_length_c   25.78020000
_cell_angle_alpha   102.10900000
_cell_angle_beta   90.00000000
_cell_angle_gamma   90.00000000
_symmetry_Int_Tables_number   1
_chemical_formula_structural   Nd2H6C18(SO4)3
_chemical_formula_sum   'Nd8 H24 C72 S12 O48'
_cell_volume   5214.20035114
_cell_formula_units_Z   4
loop_
 _symmetry_equiv_pos_site_id
 _symmetry_equiv_pos_as_xyz
  1  'x, y, z'
loop_
 _atom_site_type_symbol
 _atom_site_label
 _atom_site_symmetry_multiplicity
 _atom_site_fract_x
 _atom_site_fract_y
 _atom_site_fract_z
 _atom_site_occupancy
 _atom_site_charge
  Nd  Nd1  1  0.476390  0.485660  0.418480  1.0  2.2439
  Nd  Nd2  1  0.998450  0.960570  0.417490  1.0  2.2537
  Nd  Nd3  1  0.476390  0.014340  0.081520  1.0  2.2445
  Nd  Nd4  1  0.998450  0.539430  0.082510  1.0  2.2556
  Nd  Nd5  1  0.523610  0.514340  0.581520  1.0  2.2446
  Nd  Nd6  1  0.001550  0.039430  0.582510  1.0  2.2551
  Nd  Nd7  1  0.523610  0.985660  0.918480  1.0  2.2439
  Nd  Nd8  1  0.001550  0.460570  0.917490  1.0  2.2547
  H  H9  1  0.714700  0.670000  0.579200  1.0  0.0935
  H  H10  1  0.825000  0.794000  0.594600  1.0  0.1224
  H  H11  1  0.489700  0.580800  0.239000  1.0  0.1211
  H  H12  1  0.600000  0.588600  0.161500  1.0  0.1229
  H  H13  1  0.268300  0.744200  0.602400  1.0  0.1273
  H  H14  1  0.173200  0.864700  0.589300  1.0  0.1159
  H  H15  1  0.714700  0.830000  0.920800  1.0  0.0932
  H  H16  1  0.825000  0.706000  0.905400  1.0  0.1222
  H  H17  1  0.489700  0.919200  0.261000  1.0  0.1215
  H  H18  1  0.600000  0.911400  0.338500  1.0  0.1253
  H  H19  1  0.268300  0.755800  0.897600  1.0  0.1274
  H  H20  1  0.173200  0.635300  0.910700  1.0  0.1154
  H  H21  1  0.285300  0.330000  0.420800  1.0  0.0933
  H  H22  1  0.175000  0.206000  0.405400  1.0  0.1217
  H  H23  1  0.510300  0.419200  0.761000  1.0  0.1209
  H  H24  1  0.400000  0.411400  0.838500  1.0  0.1243
  H  H25  1  0.731700  0.255800  0.397600  1.0  0.1273
  H  H26  1  0.826800  0.135300  0.410700  1.0  0.1159
  H  H27  1  0.285300  0.170000  0.079200  1.0  0.094
  H  H28  1  0.175000  0.294000  0.094600  1.0  0.1216
  H  H29  1  0.510300  0.080800  0.739000  1.0  0.1213
  H  H30  1  0.400000  0.088600  0.661500  1.0  0.1234
  H  H31  1  0.731700  0.244200  0.102400  1.0  0.1271
  H  H32  1  0.826800  0.364700  0.089300  1.0  0.1163
  C  C33  1  0.720000  0.664300  0.499600  1.0  -0.2115
  C  C34  1  0.740000  0.693900  0.552200  1.0  -0.065
  C  C35  1  0.805100  0.765400  0.561100  1.0  -0.0595
  C  C36  1  0.834100  0.786600  0.515900  1.0  -0.2041
  C  C37  1  0.650300  0.595700  0.475400  1.0  0.7806
  C  C38  1  0.897300  0.858500  0.511200  1.0  0.8424
  C  C39  1  0.606700  0.516100  0.265300  1.0  -0.1691
  C  C40  1  0.558700  0.557300  0.232600  1.0  -0.0638
  C  C41  1  0.622100  0.562000  0.187800  1.0  -0.0682
  C  C42  1  0.720200  0.522900  0.187600  1.0  -0.193
  C  C43  1  0.563100  0.500400  0.315600  1.0  0.7272
  C  C44  1  0.810700  0.520800  0.149400  1.0  0.695
  C  C45  1  0.314800  0.718000  0.525200  1.0  -0.2131
  C  C46  1  0.265200  0.759900  0.570000  1.0  -0.0545
  C  C47  1  0.209000  0.828900  0.562400  1.0  -0.0391
  C  C48  1  0.213400  0.837100  0.510800  1.0  -0.2065
  C  C49  1  0.381200  0.643000  0.517300  1.0  0.8219
  C  C50  1  0.160000  0.897700  0.485200  1.0  0.7959
  C  C51  1  0.720000  0.835700  0.000400  1.0  -0.2105
  C  C52  1  0.740000  0.806100  0.947800  1.0  -0.0652
  C  C53  1  0.805100  0.734600  0.938900  1.0  -0.06
  C  C54  1  0.834100  0.713400  0.984100  1.0  -0.2021
  C  C55  1  0.650300  0.904300  0.024600  1.0  0.7814
  C  C56  1  0.897300  0.641500  0.988800  1.0  0.8422
  C  C57  1  0.606700  0.983900  0.234700  1.0  -0.1692
  C  C58  1  0.558700  0.942700  0.267400  1.0  -0.0637
  C  C59  1  0.622100  0.938000  0.312200  1.0  -0.0687
  C  C60  1  0.720200  0.977100  0.312400  1.0  -0.1922
  C  C61  1  0.563100  0.999600  0.184400  1.0  0.7268
  C  C62  1  0.810700  0.979200  0.350600  1.0  0.6949
  C  C63  1  0.314800  0.782000  0.974800  1.0  -0.212
  C  C64  1  0.265200  0.740100  0.930000  1.0  -0.055
  C  C65  1  0.209000  0.671100  0.937600  1.0  -0.0388
  C  C66  1  0.213400  0.662900  0.989200  1.0  -0.2075
  C  C67  1  0.381200  0.857000  0.982700  1.0  0.8222
  C  C68  1  0.160000  0.602300  0.014800  1.0  0.7961
  C  C69  1  0.280000  0.335700  0.500400  1.0  -0.2107
  C  C70  1  0.260000  0.306100  0.447800  1.0  -0.0658
  C  C71  1  0.194900  0.234600  0.438900  1.0  -0.0597
  C  C72  1  0.165900  0.213400  0.484100  1.0  -0.2019
  C  C73  1  0.349700  0.404300  0.524600  1.0  0.7815
  C  C74  1  0.102700  0.141500  0.488800  1.0  0.8419
  C  C75  1  0.393300  0.483900  0.734700  1.0  -0.1697
  C  C76  1  0.441300  0.442700  0.767400  1.0  -0.0649
  C  C77  1  0.377900  0.438000  0.812200  1.0  -0.068
  C  C78  1  0.279800  0.477100  0.812400  1.0  -0.1931
  C  C79  1  0.436900  0.499600  0.684400  1.0  0.7265
  C  C80  1  0.189300  0.479200  0.850600  1.0  0.6945
  C  C81  1  0.685200  0.282000  0.474800  1.0  -0.2123
  C  C82  1  0.734800  0.240100  0.430000  1.0  -0.0544
  C  C83  1  0.791000  0.171100  0.437600  1.0  -0.0393
  C  C84  1  0.786600  0.162900  0.489200  1.0  -0.2079
  C  C85  1  0.618800  0.357000  0.482700  1.0  0.8218
  C  C86  1  0.840000  0.102300  0.514800  1.0  0.7957
  C  C87  1  0.280000  0.164300  0.999600  1.0  -0.2114
  C  C88  1  0.260000  0.193900  0.052200  1.0  -0.0651
  C  C89  1  0.194900  0.265400  0.061100  1.0  -0.0603
  C  C90  1  0.165900  0.286600  0.015900  1.0  -0.2038
  C  C91  1  0.349700  0.095700  0.975400  1.0  0.7807
  C  C92  1  0.102700  0.358500  0.011200  1.0  0.842
  C  C93  1  0.393300  0.016100  0.765300  1.0  -0.17
  C  C94  1  0.441300  0.057300  0.732600  1.0  -0.0644
  C  C95  1  0.377900  0.062000  0.687800  1.0  -0.0682
  C  C96  1  0.279800  0.022900  0.687600  1.0  -0.1936
  C  C97  1  0.436900  0.000400  0.815600  1.0  0.7271
  C  C98  1  0.189300  0.020800  0.649400  1.0  0.6943
  C  C99  1  0.685200  0.218000  0.025200  1.0  -0.2136
  C  C100  1  0.734800  0.259900  0.070000  1.0  -0.0545
  C  C101  1  0.791000  0.328900  0.062400  1.0  -0.0393
  C  C102  1  0.786600  0.337100  0.010800  1.0  -0.2073
  C  C103  1  0.618800  0.143000  0.017300  1.0  0.8214
  C  C104  1  0.840000  0.397700  0.985200  1.0  0.7956
  S  S105  1  0.782200  0.721860  0.462360  1.0  0.1886
  S  S106  1  0.732400  0.480230  0.241490  1.0  0.1551
  S  S107  1  0.289400  0.761600  0.472070  1.0  0.1699
  S  S108  1  0.782200  0.778140  0.037640  1.0  0.1903
  S  S109  1  0.732400  0.019770  0.258510  1.0  0.155
  S  S110  1  0.289400  0.738400  0.027930  1.0  0.1704
  S  S111  1  0.217800  0.278140  0.537640  1.0  0.1914
  S  S112  1  0.267600  0.519770  0.758510  1.0  0.1563
  S  S113  1  0.710600  0.238400  0.527930  1.0  0.1701
  S  S114  1  0.217800  0.221860  0.962360  1.0  0.1899
  S  S115  1  0.267600  0.980230  0.741490  1.0  0.1575
  S  S116  1  0.710600  0.261600  0.972070  1.0  0.1701
  O  O117  1  0.608500  0.553200  0.505600  1.0  -0.8803
  O  O118  1  0.633500  0.582800  0.427600  1.0  -0.5981
  O  O119  1  0.923500  0.863400  0.465000  1.0  -0.7526
  O  O120  1  0.919000  0.907200  0.552700  1.0  -0.7543
  O  O121  1  0.610600  0.452400  0.338000  1.0  -0.6862
  O  O122  1  0.477700  0.536800  0.334500  1.0  -0.7494
  O  O123  1  0.798900  0.559800  0.112600  1.0  -0.6775
  O  O124  1  0.896200  0.482500  0.153300  1.0  -0.733
  O  O125  1  0.409500  0.613200  0.471100  1.0  -0.7499
  O  O126  1  0.400000  0.615500  0.558000  1.0  -0.732
  O  O127  1  0.165100  0.886700  0.436000  1.0  -0.709
  O  O128  1  0.112800  0.957400  0.513500  1.0  -0.8046
  O  O129  1  0.608500  0.946800  0.994400  1.0  -0.8792
  O  O130  1  0.633500  0.917200  0.072400  1.0  -0.5992
  O  O131  1  0.923500  0.636600  0.035000  1.0  -0.7545
  O  O132  1  0.919000  0.592800  0.947300  1.0  -0.7529
  O  O133  1  0.610600  0.047600  0.162000  1.0  -0.6878
  O  O134  1  0.477700  0.963200  0.165500  1.0  -0.7503
  O  O135  1  0.798900  0.940200  0.387400  1.0  -0.6752
  O  O136  1  0.896200  0.017500  0.346700  1.0  -0.7347
  O  O137  1  0.409500  0.886800  0.028900  1.0  -0.7499
  O  O138  1  0.400000  0.884500  0.942000  1.0  -0.7321
  O  O139  1  0.165100  0.613300  0.064000  1.0  -0.7198
  O  O140  1  0.112800  0.542600  0.986500  1.0  -0.8035
  O  O141  1  0.391500  0.446800  0.494400  1.0  -0.8795
  O  O142  1  0.366500  0.417200  0.572400  1.0  -0.5997
  O  O143  1  0.076500  0.136600  0.535000  1.0  -0.7541
  O  O144  1  0.081000  0.092800  0.447300  1.0  -0.7534
  O  O145  1  0.389400  0.547600  0.662000  1.0  -0.6867
  O  O146  1  0.522300  0.463200  0.665500  1.0  -0.7483
  O  O147  1  0.201100  0.440200  0.887400  1.0  -0.6749
  O  O148  1  0.103800  0.517500  0.846700  1.0  -0.7348
  O  O149  1  0.590500  0.386800  0.528900  1.0  -0.7488
  O  O150  1  0.600000  0.384500  0.442000  1.0  -0.7325
  O  O151  1  0.834900  0.113300  0.564000  1.0  -0.7231
  O  O152  1  0.887200  0.042600  0.486500  1.0  -0.803
  O  O153  1  0.391500  0.053200  0.005600  1.0  -0.8805
  O  O154  1  0.366500  0.082800  0.927600  1.0  -0.5982
  O  O155  1  0.076500  0.363400  0.965000  1.0  -0.7522
  O  O156  1  0.081000  0.407200  0.052700  1.0  -0.7552
  O  O157  1  0.389400  0.952400  0.838000  1.0  -0.6852
  O  O158  1  0.522300  0.036800  0.834500  1.0  -0.75
  O  O159  1  0.201100  0.059800  0.612600  1.0  -0.6771
  O  O160  1  0.103800  0.982500  0.653300  1.0  -0.733
  O  O161  1  0.590500  0.113200  0.971100  1.0  -0.749
  O  O162  1  0.600000  0.115500  0.058000  1.0  -0.7322
  O  O163  1  0.834900  0.386700  0.936000  1.0  -0.7121
  O  O164  1  0.887200  0.457400  0.013500  1.0  -0.8044
