# generated using pymatgen
data_Nd2H6C18(SO4)3
_symmetry_space_group_name_H-M   'P 1'
_cell_length_a   12.14550000
_cell_length_b   17.00720000
_cell_length_c   25.59370000
_cell_angle_alpha   102.38500000
_cell_angle_beta   90.00000000
_cell_angle_gamma   90.00000000
_symmetry_Int_Tables_number   1
_chemical_formula_structural   Nd2H6C18(SO4)3
_chemical_formula_sum   'Nd8 H24 C72 S12 O48'
_cell_volume   5163.63024286
_cell_formula_units_Z   4
loop_
 _symmetry_equiv_pos_site_id
 _symmetry_equiv_pos_as_xyz
  1  'x, y, z'
loop_
 _atom_site_type_symbol
 _atom_site_label
 _atom_site_symmetry_multiplicity
 _atom_site_fract_x
 _atom_site_fract_y
 _atom_site_fract_z
 _atom_site_occupancy
 _atom_site_charge
  Nd  Nd1  1  0.027400  0.985370  0.418990  1.0  2.2391
  Nd  Nd2  1  0.500920  0.460750  0.417180  1.0  2.2574
  Nd  Nd3  1  0.027400  0.514630  0.081010  1.0  2.2392
  Nd  Nd4  1  0.500920  0.039250  0.082820  1.0  2.2585
  Nd  Nd5  1  0.972600  0.014630  0.581010  1.0  2.2392
  Nd  Nd6  1  0.499080  0.539250  0.582820  1.0  2.2584
  Nd  Nd7  1  0.972600  0.485370  0.918990  1.0  2.2395
  Nd  Nd8  1  0.499080  0.960750  0.917180  1.0  2.2557
  H  H9  1  0.016100  0.075400  0.235700  1.0  0.1236
  H  H10  1  0.900300  0.083500  0.159000  1.0  0.1219
  H  H11  1  0.231900  0.248000  0.603900  1.0  0.1278
  H  H12  1  0.329500  0.366200  0.589400  1.0  0.1112
  H  H13  1  0.633000  0.267500  0.591500  1.0  0.1252
  H  H14  1  0.745000  0.146600  0.574700  1.0  0.0887
  H  H15  1  0.016100  0.424600  0.264300  1.0  0.1239
  H  H16  1  0.900300  0.416500  0.341000  1.0  0.1219
  H  H17  1  0.231900  0.252000  0.896100  1.0  0.1271
  H  H18  1  0.329500  0.133800  0.910600  1.0  0.1117
  H  H19  1  0.633000  0.232500  0.908500  1.0  0.1254
  H  H20  1  0.745000  0.353400  0.925300  1.0  0.0876
  H  H21  1  0.983900  0.924600  0.764300  1.0  0.124
  H  H22  1  0.099700  0.916500  0.841000  1.0  0.1226
  H  H23  1  0.768100  0.752000  0.396100  1.0  0.1272
  H  H24  1  0.670500  0.633800  0.410600  1.0  0.1111
  H  H25  1  0.367000  0.732500  0.408500  1.0  0.1256
  H  H26  1  0.255000  0.853400  0.425300  1.0  0.0876
  H  H27  1  0.983900  0.575400  0.735700  1.0  0.1236
  H  H28  1  0.099700  0.583500  0.659000  1.0  0.1216
  H  H29  1  0.768100  0.748000  0.103900  1.0  0.1279
  H  H30  1  0.670500  0.866200  0.089400  1.0  0.1107
  H  H31  1  0.367000  0.767500  0.091500  1.0  0.1253
  H  H32  1  0.255000  0.646600  0.074700  1.0  0.0889
  C  C33  1  0.897200  0.012100  0.263300  1.0  -0.1439
  C  C34  1  0.946100  0.052900  0.230100  1.0  -0.0775
  C  C35  1  0.879100  0.057700  0.186000  1.0  -0.0625
  C  C36  1  0.781200  0.021000  0.187000  1.0  -0.1897
  C  C37  1  0.943100  0.996600  0.314300  1.0  0.714
  C  C38  1  0.689700  0.020200  0.149100  1.0  0.6787
  C  C39  1  0.183500  0.220800  0.526400  1.0  -0.2077
  C  C40  1  0.234700  0.262800  0.571000  1.0  -0.0576
  C  C41  1  0.292100  0.330500  0.562600  1.0  -0.0362
  C  C42  1  0.286800  0.338000  0.511100  1.0  -0.2061
  C  C43  1  0.115900  0.145000  0.518900  1.0  0.8137
  C  C44  1  0.339100  0.397200  0.485000  1.0  0.7936
  C  C45  1  0.658800  0.280600  0.515600  1.0  -0.2043
  C  C46  1  0.666800  0.246600  0.558900  1.0  -0.061
  C  C47  1  0.731000  0.177100  0.549300  1.0  -0.0588
  C  C48  1  0.770900  0.158500  0.498200  1.0  -0.2213
  C  C49  1  0.600900  0.356700  0.511400  1.0  0.8298
  C  C50  1  0.846700  0.092200  0.473600  1.0  0.7797
  C  C51  1  0.897200  0.487900  0.236700  1.0  -0.1422
  C  C52  1  0.946100  0.447100  0.269900  1.0  -0.0779
  C  C53  1  0.879100  0.442300  0.314000  1.0  -0.0618
  C  C54  1  0.781200  0.479000  0.313000  1.0  -0.1903
  C  C55  1  0.943100  0.503400  0.185700  1.0  0.7138
  C  C56  1  0.689700  0.479800  0.350900  1.0  0.6789
  C  C57  1  0.183500  0.279200  0.973600  1.0  -0.2078
  C  C58  1  0.234700  0.237200  0.929000  1.0  -0.0587
  C  C59  1  0.292100  0.169500  0.937400  1.0  -0.0352
  C  C60  1  0.286800  0.162000  0.988900  1.0  -0.2067
  C  C61  1  0.115900  0.355000  0.981100  1.0  0.8144
  C  C62  1  0.339100  0.102800  0.015000  1.0  0.7944
  C  C63  1  0.658800  0.219400  0.984400  1.0  -0.2045
  C  C64  1  0.666800  0.253400  0.941100  1.0  -0.0598
  C  C65  1  0.731000  0.322900  0.950700  1.0  -0.058
  C  C66  1  0.770900  0.341500  0.001800  1.0  -0.2212
  C  C67  1  0.600900  0.143300  0.988600  1.0  0.8299
  C  C68  1  0.846700  0.407800  0.026400  1.0  0.7795
  C  C69  1  0.102800  0.987900  0.736700  1.0  -0.1417
  C  C70  1  0.053900  0.947100  0.769900  1.0  -0.0769
  C  C71  1  0.120900  0.942300  0.814000  1.0  -0.0626
  C  C72  1  0.218800  0.979000  0.813000  1.0  -0.1898
  C  C73  1  0.056900  0.003400  0.685700  1.0  0.7136
  C  C74  1  0.310300  0.979800  0.850900  1.0  0.6801
  C  C75  1  0.816500  0.779200  0.473600  1.0  -0.2084
  C  C76  1  0.765300  0.737200  0.429000  1.0  -0.0596
  C  C77  1  0.707900  0.669500  0.437400  1.0  -0.0347
  C  C78  1  0.713200  0.662000  0.488900  1.0  -0.2063
  C  C79  1  0.884100  0.855000  0.481100  1.0  0.8143
  C  C80  1  0.660900  0.602800  0.515000  1.0  0.7951
  C  C81  1  0.341200  0.719400  0.484400  1.0  -0.2054
  C  C82  1  0.333200  0.753400  0.441100  1.0  -0.0601
  C  C83  1  0.269000  0.822900  0.450700  1.0  -0.0584
  C  C84  1  0.229100  0.841500  0.501800  1.0  -0.2211
  C  C85  1  0.399100  0.643300  0.488600  1.0  0.8301
  C  C86  1  0.153300  0.907800  0.526400  1.0  0.781
  C  C87  1  0.102800  0.512100  0.763300  1.0  -0.1426
  C  C88  1  0.053900  0.552900  0.730100  1.0  -0.0773
  C  C89  1  0.120900  0.557700  0.686000  1.0  -0.0626
  C  C90  1  0.218800  0.521000  0.687000  1.0  -0.1897
  C  C91  1  0.056900  0.496600  0.814300  1.0  0.7139
  C  C92  1  0.310300  0.520200  0.649100  1.0  0.6802
  C  C93  1  0.816500  0.720800  0.026400  1.0  -0.2083
  C  C94  1  0.765300  0.762800  0.071000  1.0  -0.058
  C  C95  1  0.707900  0.830500  0.062600  1.0  -0.0356
  C  C96  1  0.713200  0.838000  0.011100  1.0  -0.206
  C  C97  1  0.884100  0.645000  0.018900  1.0  0.8137
  C  C98  1  0.660900  0.897200  0.985000  1.0  0.7941
  C  C99  1  0.341200  0.780600  0.015600  1.0  -0.2052
  C  C100  1  0.333200  0.746600  0.058900  1.0  -0.0603
  C  C101  1  0.269000  0.677100  0.049300  1.0  -0.0597
  C  C102  1  0.229100  0.658500  0.998200  1.0  -0.2211
  C  C103  1  0.399100  0.856700  0.011400  1.0  0.8303
  C  C104  1  0.153300  0.592200  0.973600  1.0  0.7814
  S  S105  1  0.769830  0.977870  0.241480  1.0  0.162
  S  S106  1  0.209910  0.261590  0.472430  1.0  0.1765
  S  S107  1  0.724730  0.224980  0.461740  1.0  0.2129
  S  S108  1  0.769830  0.522130  0.258520  1.0  0.1623
  S  S109  1  0.209910  0.238410  0.027570  1.0  0.1758
  S  S110  1  0.724730  0.275020  0.038260  1.0  0.2132
  S  S111  1  0.230170  0.022130  0.758520  1.0  0.1617
  S  S112  1  0.790090  0.738410  0.527570  1.0  0.1764
  S  S113  1  0.275270  0.775020  0.538260  1.0  0.2131
  S  S114  1  0.230170  0.477870  0.741480  1.0  0.1606
  S  S115  1  0.790090  0.761590  0.972430  1.0  0.1761
  S  S116  1  0.275270  0.724980  0.961740  1.0  0.2128
  O  O117  1  0.895200  0.948100  0.337200  1.0  -0.6811
  O  O118  1  0.028400  0.033900  0.333500  1.0  -0.7389
  O  O119  1  0.700500  0.059200  0.112700  1.0  -0.6589
  O  O120  1  0.601100  0.982600  0.154300  1.0  -0.7427
  O  O121  1  0.088800  0.113980  0.472080  1.0  -0.7438
  O  O122  1  0.093000  0.119200  0.560100  1.0  -0.7321
  O  O123  1  0.388900  0.457600  0.512000  1.0  -0.8204
  O  O124  1  0.334900  0.385600  0.434700  1.0  -0.7414
  O  O125  1  0.579700  0.365100  0.465100  1.0  -0.7389
  O  O126  1  0.579900  0.405800  0.554500  1.0  -0.7527
  O  O127  1  0.869600  0.083300  0.425200  1.0  -0.6069
  O  O128  1  0.887800  0.048550  0.502450  1.0  -0.8717
  O  O129  1  0.895200  0.551900  0.162800  1.0  -0.6814
  O  O130  1  0.028400  0.466100  0.166500  1.0  -0.738
  O  O131  1  0.700500  0.440800  0.387300  1.0  -0.6586
  O  O132  1  0.601100  0.517400  0.345700  1.0  -0.745
  O  O133  1  0.088800  0.386020  0.027920  1.0  -0.7426
  O  O134  1  0.093000  0.380800  0.939900  1.0  -0.7325
  O  O135  1  0.388900  0.042400  0.988000  1.0  -0.8187
  O  O136  1  0.334900  0.114400  0.065300  1.0  -0.7434
  O  O137  1  0.579700  0.134900  0.034900  1.0  -0.7397
  O  O138  1  0.579900  0.094200  0.945500  1.0  -0.7517
  O  O139  1  0.869600  0.416700  0.074800  1.0  -0.606
  O  O140  1  0.887800  0.451450  0.997550  1.0  -0.8716
  O  O141  1  0.104800  0.051900  0.662800  1.0  -0.6816
  O  O142  1  0.971600  0.966100  0.666500  1.0  -0.7416
  O  O143  1  0.299500  0.940800  0.887300  1.0  -0.6587
  O  O144  1  0.398900  0.017400  0.845700  1.0  -0.7466
  O  O145  1  0.911200  0.886020  0.527920  1.0  -0.7435
  O  O146  1  0.907000  0.880800  0.439900  1.0  -0.7323
  O  O147  1  0.611100  0.542400  0.488000  1.0  -0.8199
  O  O148  1  0.665100  0.614400  0.565300  1.0  -0.7423
  O  O149  1  0.420300  0.634900  0.534900  1.0  -0.7405
  O  O150  1  0.420100  0.594200  0.445500  1.0  -0.7527
  O  O151  1  0.130400  0.916700  0.574800  1.0  -0.6053
  O  O152  1  0.112200  0.951450  0.497550  1.0  -0.8714
  O  O153  1  0.104800  0.448100  0.837200  1.0  -0.6816
  O  O154  1  0.971600  0.533900  0.833500  1.0  -0.7405
  O  O155  1  0.299500  0.559200  0.612700  1.0  -0.6603
  O  O156  1  0.398900  0.482600  0.654300  1.0  -0.7439
  O  O157  1  0.911200  0.613980  0.972080  1.0  -0.7451
  O  O158  1  0.907000  0.619200  0.060100  1.0  -0.7324
  O  O159  1  0.611100  0.957600  0.012000  1.0  -0.8215
  O  O160  1  0.665100  0.885600  0.934700  1.0  -0.7399
  O  O161  1  0.420300  0.865100  0.965100  1.0  -0.7393
  O  O162  1  0.420100  0.905800  0.054500  1.0  -0.7512
  O  O163  1  0.130400  0.583300  0.925200  1.0  -0.6065
  O  O164  1  0.112200  0.548550  0.002450  1.0  -0.8715
