# generated using pymatgen
data_CuH8(C2N)4
_symmetry_space_group_name_H-M   'P 1'
_cell_length_a   18.90110000
_cell_length_b   14.84880000
_cell_length_c   12.93020000
_cell_angle_alpha   90.00000000
_cell_angle_beta   90.00000000
_cell_angle_gamma   90.00000000
_symmetry_Int_Tables_number   1
_chemical_formula_structural   CuH8(C2N)4
_chemical_formula_sum   'Cu8 H64 C64 N32'
_cell_volume   3628.97252381
_cell_formula_units_Z   8
loop_
 _symmetry_equiv_pos_site_id
 _symmetry_equiv_pos_as_xyz
  1  'x, y, z'
loop_
 _atom_site_type_symbol
 _atom_site_label
 _atom_site_symmetry_multiplicity
 _atom_site_fract_x
 _atom_site_fract_y
 _atom_site_fract_z
 _atom_site_occupancy
 _atom_site_charge
  Cu  Cu1  1  0.500000  0.500000  0.724000  1.0  0.4019
  Cu  Cu2  1  0.500000  0.000000  0.224000  1.0  0.4019
  Cu  Cu3  1  0.000000  0.500000  0.224000  1.0  0.4019
  Cu  Cu4  1  0.000000  0.000000  0.724000  1.0  0.4019
  Cu  Cu5  1  0.750000  0.750000  0.974000  1.0  0.4019
  Cu  Cu6  1  0.750000  0.250000  0.474000  1.0  0.4019
  Cu  Cu7  1  0.250000  0.750000  0.474000  1.0  0.4019
  Cu  Cu8  1  0.250000  0.250000  0.974000  1.0  0.4019
  H  H9  1  0.582900  0.500300  0.521800  1.0  0.0578
  H  H10  1  0.671000  0.421500  0.448100  1.0  0.035
  H  H11  1  0.668100  0.251000  0.676900  1.0  0.053
  H  H12  1  0.579400  0.330300  0.750900  1.0  0.0327
  H  H13  1  0.582900  0.000300  0.021800  1.0  0.0578
  H  H14  1  0.671000  0.921500  0.948100  1.0  0.035
  H  H15  1  0.668100  0.751000  0.176900  1.0  0.053
  H  H16  1  0.579400  0.830300  0.250900  1.0  0.0327
  H  H17  1  0.082900  0.500300  0.021800  1.0  0.0578
  H  H18  1  0.171000  0.421500  0.948100  1.0  0.035
  H  H19  1  0.168100  0.251000  0.176900  1.0  0.053
  H  H20  1  0.079400  0.330300  0.250900  1.0  0.0327
  H  H21  1  0.082900  0.000300  0.521800  1.0  0.0578
  H  H22  1  0.171000  0.921500  0.448100  1.0  0.035
  H  H23  1  0.168100  0.751000  0.676900  1.0  0.053
  H  H24  1  0.079400  0.830300  0.750900  1.0  0.0327
  H  H25  1  0.417100  0.499700  0.521800  1.0  0.0589
  H  H26  1  0.329000  0.578500  0.448100  1.0  0.0346
  H  H27  1  0.331900  0.749000  0.676900  1.0  0.0532
  H  H28  1  0.420600  0.669700  0.750900  1.0  0.0329
  H  H29  1  0.417100  0.999700  0.021800  1.0  0.0589
  H  H30  1  0.329000  0.078500  0.948100  1.0  0.0346
  H  H31  1  0.331900  0.249000  0.176900  1.0  0.0532
  H  H32  1  0.420600  0.169700  0.250900  1.0  0.0329
  H  H33  1  0.917100  0.499700  0.021800  1.0  0.0589
  H  H34  1  0.829000  0.578500  0.948100  1.0  0.0346
  H  H35  1  0.831900  0.749000  0.176900  1.0  0.0532
  H  H36  1  0.920600  0.669700  0.250900  1.0  0.0329
  H  H37  1  0.917100  0.999700  0.521800  1.0  0.0589
  H  H38  1  0.829000  0.078500  0.448100  1.0  0.0346
  H  H39  1  0.831900  0.249000  0.676900  1.0  0.0532
  H  H40  1  0.920600  0.169700  0.750900  1.0  0.0329
  H  H41  1  0.832900  0.749700  0.771800  1.0  0.0575
  H  H42  1  0.921000  0.828500  0.698100  1.0  0.0354
  H  H43  1  0.918100  0.999000  0.926900  1.0  0.0528
  H  H44  1  0.829400  0.919700  0.000900  1.0  0.0326
  H  H45  1  0.832900  0.249700  0.271800  1.0  0.0575
  H  H46  1  0.921000  0.328500  0.198100  1.0  0.0354
  H  H47  1  0.918100  0.499000  0.426900  1.0  0.0528
  H  H48  1  0.829400  0.419700  0.500900  1.0  0.0326
  H  H49  1  0.332900  0.749700  0.271800  1.0  0.0575
  H  H50  1  0.421000  0.828500  0.198100  1.0  0.0354
  H  H51  1  0.418100  0.999000  0.426900  1.0  0.0528
  H  H52  1  0.329400  0.919700  0.500900  1.0  0.0326
  H  H53  1  0.332900  0.249700  0.771800  1.0  0.0575
  H  H54  1  0.421000  0.328500  0.698100  1.0  0.0354
  H  H55  1  0.418100  0.499000  0.926900  1.0  0.0528
  H  H56  1  0.329400  0.419700  0.000900  1.0  0.0326
  H  H57  1  0.667100  0.750300  0.771800  1.0  0.0589
  H  H58  1  0.579000  0.671500  0.698100  1.0  0.0353
  H  H59  1  0.581900  0.501000  0.926900  1.0  0.0533
  H  H60  1  0.670600  0.580300  0.000900  1.0  0.0331
  H  H61  1  0.667100  0.250300  0.271800  1.0  0.0589
  H  H62  1  0.579000  0.171500  0.198100  1.0  0.0353
  H  H63  1  0.581900  0.001000  0.426900  1.0  0.0533
  H  H64  1  0.670600  0.080300  0.500900  1.0  0.0331
  H  H65  1  0.167100  0.750300  0.271800  1.0  0.0589
  H  H66  1  0.079000  0.671500  0.198100  1.0  0.0353
  H  H67  1  0.081900  0.501000  0.426900  1.0  0.0533
  H  H68  1  0.170600  0.580300  0.500900  1.0  0.0331
  H  H69  1  0.167100  0.250300  0.771800  1.0  0.0589
  H  H70  1  0.079000  0.171500  0.698100  1.0  0.0353
  H  H71  1  0.081900  0.001000  0.926900  1.0  0.0533
  H  H72  1  0.170600  0.080300  0.000900  1.0  0.0331
  C  C73  1  0.599900  0.449100  0.555000  1.0  0.0599
  C  C74  1  0.653000  0.401600  0.511100  1.0  0.1135
  C  C75  1  0.651400  0.302500  0.644000  1.0  0.0628
  C  C76  1  0.597900  0.350300  0.688300  1.0  0.1025
  C  C77  1  0.599900  0.949100  0.055000  1.0  0.0599
  C  C78  1  0.653000  0.901600  0.011100  1.0  0.1135
  C  C79  1  0.651400  0.802500  0.144000  1.0  0.0628
  C  C80  1  0.597900  0.850300  0.188300  1.0  0.1025
  C  C81  1  0.099900  0.449100  0.055000  1.0  0.0599
  C  C82  1  0.153000  0.401600  0.011100  1.0  0.1135
  C  C83  1  0.151400  0.302500  0.144000  1.0  0.0628
  C  C84  1  0.097900  0.350300  0.188300  1.0  0.1025
  C  C85  1  0.099900  0.949100  0.555000  1.0  0.0599
  C  C86  1  0.153000  0.901600  0.511100  1.0  0.1135
  C  C87  1  0.151400  0.802500  0.644000  1.0  0.0628
  C  C88  1  0.097900  0.850300  0.688300  1.0  0.1025
  C  C89  1  0.400100  0.550900  0.555000  1.0  0.06
  C  C90  1  0.347000  0.598400  0.511100  1.0  0.1129
  C  C91  1  0.348600  0.697500  0.644000  1.0  0.0606
  C  C92  1  0.402100  0.649700  0.688300  1.0  0.1032
  C  C93  1  0.400100  0.050900  0.055000  1.0  0.06
  C  C94  1  0.347000  0.098400  0.011100  1.0  0.1129
  C  C95  1  0.348600  0.197500  0.144000  1.0  0.0606
  C  C96  1  0.402100  0.149700  0.188300  1.0  0.1032
  C  C97  1  0.900100  0.550900  0.055000  1.0  0.06
  C  C98  1  0.847000  0.598400  0.011100  1.0  0.1129
  C  C99  1  0.848600  0.697500  0.144000  1.0  0.0606
  C  C100  1  0.902100  0.649700  0.188300  1.0  0.1032
  C  C101  1  0.900100  0.050900  0.555000  1.0  0.06
  C  C102  1  0.847000  0.098400  0.511100  1.0  0.1129
  C  C103  1  0.848600  0.197500  0.644000  1.0  0.0606
  C  C104  1  0.902100  0.149700  0.688300  1.0  0.1032
  C  C105  1  0.849900  0.800900  0.805000  1.0  0.0597
  C  C106  1  0.903000  0.848400  0.761100  1.0  0.1134
  C  C107  1  0.901400  0.947500  0.894000  1.0  0.0618
  C  C108  1  0.847900  0.899700  0.938300  1.0  0.1023
  C  C109  1  0.849900  0.300900  0.305000  1.0  0.0597
  C  C110  1  0.903000  0.348400  0.261100  1.0  0.1134
  C  C111  1  0.901400  0.447500  0.394000  1.0  0.0618
  C  C112  1  0.847900  0.399700  0.438300  1.0  0.1023
  C  C113  1  0.349900  0.800900  0.305000  1.0  0.0597
  C  C114  1  0.403000  0.848400  0.261100  1.0  0.1134
  C  C115  1  0.401400  0.947500  0.394000  1.0  0.0618
  C  C116  1  0.347900  0.899700  0.438300  1.0  0.1023
  C  C117  1  0.349900  0.300900  0.805000  1.0  0.0597
  C  C118  1  0.403000  0.348400  0.761100  1.0  0.1134
  C  C119  1  0.401400  0.447500  0.894000  1.0  0.0618
  C  C120  1  0.347900  0.399700  0.938300  1.0  0.1023
  C  C121  1  0.650100  0.699100  0.805000  1.0  0.0605
  C  C122  1  0.597000  0.651600  0.761100  1.0  0.1131
  C  C123  1  0.598600  0.552500  0.894000  1.0  0.062
  C  C124  1  0.652100  0.600300  0.938300  1.0  0.104
  C  C125  1  0.650100  0.199100  0.305000  1.0  0.0605
  C  C126  1  0.597000  0.151600  0.261100  1.0  0.1131
  C  C127  1  0.598600  0.052500  0.394000  1.0  0.062
  C  C128  1  0.652100  0.100300  0.438300  1.0  0.104
  C  C129  1  0.150100  0.699100  0.305000  1.0  0.0605
  C  C130  1  0.097000  0.651600  0.261100  1.0  0.1131
  C  C131  1  0.098600  0.552500  0.394000  1.0  0.062
  C  C132  1  0.152100  0.600300  0.438300  1.0  0.104
  C  C133  1  0.150100  0.199100  0.805000  1.0  0.0605
  C  C134  1  0.097000  0.151600  0.761100  1.0  0.1131
  C  C135  1  0.098600  0.052500  0.894000  1.0  0.062
  C  C136  1  0.152100  0.100300  0.938300  1.0  0.104
  N  N137  1  0.571100  0.424000  0.646100  1.0  -0.3575
  N  N138  1  0.680700  0.328100  0.553100  1.0  -0.361
  N  N139  1  0.571100  0.924000  0.146100  1.0  -0.3575
  N  N140  1  0.680700  0.828100  0.053100  1.0  -0.361
  N  N141  1  0.071100  0.424000  0.146100  1.0  -0.3575
  N  N142  1  0.180700  0.328100  0.053100  1.0  -0.361
  N  N143  1  0.071100  0.924000  0.646100  1.0  -0.3575
  N  N144  1  0.180700  0.828100  0.553100  1.0  -0.361
  N  N145  1  0.428900  0.576000  0.646100  1.0  -0.3593
  N  N146  1  0.319300  0.671900  0.553100  1.0  -0.3588
  N  N147  1  0.428900  0.076000  0.146100  1.0  -0.3593
  N  N148  1  0.319300  0.171900  0.053100  1.0  -0.3588
  N  N149  1  0.928900  0.576000  0.146100  1.0  -0.3593
  N  N150  1  0.819300  0.671900  0.053100  1.0  -0.3588
  N  N151  1  0.928900  0.076000  0.646100  1.0  -0.3593
  N  N152  1  0.819300  0.171900  0.553100  1.0  -0.3588
  N  N153  1  0.821100  0.826000  0.896100  1.0  -0.3573
  N  N154  1  0.930700  0.921900  0.803100  1.0  -0.361
  N  N155  1  0.821100  0.326000  0.396100  1.0  -0.3573
  N  N156  1  0.930700  0.421900  0.303100  1.0  -0.361
  N  N157  1  0.321100  0.826000  0.396100  1.0  -0.3573
  N  N158  1  0.430700  0.921900  0.303100  1.0  -0.361
  N  N159  1  0.321100  0.326000  0.896100  1.0  -0.3573
  N  N160  1  0.430700  0.421900  0.803100  1.0  -0.361
  N  N161  1  0.678900  0.674000  0.896100  1.0  -0.3594
  N  N162  1  0.569300  0.578100  0.803100  1.0  -0.359
  N  N163  1  0.678900  0.174000  0.396100  1.0  -0.3594
  N  N164  1  0.569300  0.078100  0.303100  1.0  -0.359
  N  N165  1  0.178900  0.674000  0.396100  1.0  -0.3594
  N  N166  1  0.069300  0.578100  0.303100  1.0  -0.359
  N  N167  1  0.178900  0.174000  0.896100  1.0  -0.3594
  N  N168  1  0.069300  0.078100  0.803100  1.0  -0.359
