# generated using pymatgen
data_CuH8C12(NO2)2
_symmetry_space_group_name_H-M   'P 1'
_cell_length_a   11.67550000
_cell_length_b   12.25210000
_cell_length_c   12.49480000
_cell_angle_alpha   90.00000000
_cell_angle_beta   117.04600000
_cell_angle_gamma   90.00000000
_symmetry_Int_Tables_number   1
_chemical_formula_structural   CuH8C12(NO2)2
_chemical_formula_sum   'Cu4 H32 C48 N8 O16'
_cell_volume   1591.90951788
_cell_formula_units_Z   4
loop_
 _symmetry_equiv_pos_site_id
 _symmetry_equiv_pos_as_xyz
  1  'x, y, z'
loop_
 _atom_site_type_symbol
 _atom_site_label
 _atom_site_symmetry_multiplicity
 _atom_site_fract_x
 _atom_site_fract_y
 _atom_site_fract_z
 _atom_site_occupancy
 _atom_site_charge
  Cu  Cu1  1  0.178800  0.964380  0.467380  1.0  0.7946
  Cu  Cu2  1  0.321200  0.464380  0.032620  1.0  0.7945
  Cu  Cu3  1  0.821200  0.035620  0.532620  1.0  0.7941
  Cu  Cu4  1  0.678800  0.535620  0.967380  1.0  0.7942
  H  H5  1  0.111900  0.757400  0.147600  1.0  0.1232
  H  H6  1  0.132100  0.619300  0.034300  1.0  0.078
  H  H7  1  0.500700  0.599800  0.242600  1.0  0.086
  H  H8  1  0.492000  0.743400  0.355200  1.0  0.1104
  H  H9  1  0.388100  0.257400  0.352400  1.0  0.1228
  H  H10  1  0.367900  0.119300  0.465700  1.0  0.0785
  H  H11  1  0.999300  0.099800  0.257400  1.0  0.0851
  H  H12  1  0.008000  0.243400  0.144800  1.0  0.1104
  H  H13  1  0.027200  0.204600  0.743500  1.0  0.1202
  H  H14  1  0.099700  0.341600  0.883200  1.0  0.0748
  H  H15  1  0.383900  0.172200  0.784800  1.0  0.1123
  H  H16  1  0.447500  0.307700  0.928100  1.0  0.073
  H  H17  1  0.472800  0.704600  0.756500  1.0  0.1211
  H  H18  1  0.400300  0.841600  0.616800  1.0  0.0747
  H  H19  1  0.116100  0.672200  0.715200  1.0  0.1126
  H  H20  1  0.052500  0.807700  0.571900  1.0  0.0739
  H  H21  1  0.972800  0.795400  0.256500  1.0  0.1208
  H  H22  1  0.900300  0.658400  0.116800  1.0  0.0743
  H  H23  1  0.616100  0.827800  0.215200  1.0  0.1124
  H  H24  1  0.552500  0.692300  0.071900  1.0  0.0732
  H  H25  1  0.527200  0.295400  0.243500  1.0  0.1199
  H  H26  1  0.599700  0.158400  0.383200  1.0  0.0748
  H  H27  1  0.883900  0.327800  0.284800  1.0  0.1124
  H  H28  1  0.947500  0.192300  0.428100  1.0  0.0726
  H  H29  1  0.888100  0.242600  0.852400  1.0  0.1229
  H  H30  1  0.867900  0.380700  0.965700  1.0  0.0785
  H  H31  1  0.499300  0.400200  0.757400  1.0  0.0855
  H  H32  1  0.508000  0.256600  0.644800  1.0  0.1106
  H  H33  1  0.611900  0.742600  0.647600  1.0  0.1232
  H  H34  1  0.632100  0.880700  0.534300  1.0  0.078
  H  H35  1  0.000700  0.900200  0.742600  1.0  0.0859
  H  H36  1  0.992000  0.756600  0.855200  1.0  0.1105
  C  C37  1  0.293300  0.850900  0.351500  1.0  0.6793
  C  C38  1  0.192100  0.726700  0.168300  1.0  -0.1573
  C  C39  1  0.205000  0.643300  0.101400  1.0  0.16
  C  C40  1  0.301100  0.764800  0.267900  1.0  -0.086
  C  C41  1  0.421700  0.632500  0.222800  1.0  0.1746
  C  C42  1  0.416800  0.717700  0.292000  1.0  -0.1276
  C  C43  1  0.206700  0.350900  0.148500  1.0  0.6797
  C  C44  1  0.307900  0.226700  0.331700  1.0  -0.1561
  C  C45  1  0.295000  0.143300  0.398600  1.0  0.1605
  C  C46  1  0.198900  0.264800  0.232100  1.0  -0.0853
  C  C47  1  0.078300  0.132500  0.277200  1.0  0.1743
  C  C48  1  0.083200  0.217700  0.208000  1.0  -0.126
  C  C49  1  0.148500  0.085800  0.649800  1.0  0.6764
  C  C50  1  0.197900  0.173100  0.746100  1.0  -0.0846
  C  C51  1  0.113400  0.224700  0.778600  1.0  -0.1417
  C  C52  1  0.158300  0.306400  0.863800  1.0  0.18
  C  C53  1  0.323500  0.205300  0.803500  1.0  -0.0781
  C  C54  1  0.361400  0.287300  0.889800  1.0  0.1778
  C  C55  1  0.351500  0.585800  0.850200  1.0  0.6762
  C  C56  1  0.302100  0.673100  0.753900  1.0  -0.0836
  C  C57  1  0.386600  0.724700  0.721400  1.0  -0.1383
  C  C58  1  0.341700  0.806400  0.636200  1.0  0.1805
  C  C59  1  0.176500  0.705300  0.696500  1.0  -0.0761
  C  C60  1  0.138600  0.787300  0.610200  1.0  0.1767
  C  C61  1  0.851500  0.914200  0.350200  1.0  0.6763
  C  C62  1  0.802100  0.826900  0.253900  1.0  -0.0836
  C  C63  1  0.886600  0.775300  0.221400  1.0  -0.1385
  C  C64  1  0.841700  0.693600  0.136200  1.0  0.1802
  C  C65  1  0.676500  0.794700  0.196500  1.0  -0.0766
  C  C66  1  0.638600  0.712700  0.110200  1.0  0.1761
  C  C67  1  0.648500  0.414200  0.149800  1.0  0.6764
  C  C68  1  0.697900  0.326900  0.246100  1.0  -0.0842
  C  C69  1  0.613400  0.275300  0.278600  1.0  -0.1415
  C  C70  1  0.658300  0.193600  0.363800  1.0  0.18
  C  C71  1  0.823500  0.294700  0.303500  1.0  -0.0778
  C  C72  1  0.861400  0.212700  0.389800  1.0  0.1782
  C  C73  1  0.706700  0.149100  0.648500  1.0  0.6794
  C  C74  1  0.807900  0.273300  0.831700  1.0  -0.1559
  C  C75  1  0.795000  0.356700  0.898600  1.0  0.1602
  C  C76  1  0.698900  0.235200  0.732100  1.0  -0.0852
  C  C77  1  0.578300  0.367500  0.777200  1.0  0.1743
  C  C78  1  0.583200  0.282300  0.708000  1.0  -0.1264
  C  C79  1  0.793300  0.649100  0.851500  1.0  0.6792
  C  C80  1  0.692100  0.773300  0.668300  1.0  -0.157
  C  C81  1  0.705000  0.856700  0.601400  1.0  0.1601
  C  C82  1  0.801100  0.735200  0.767900  1.0  -0.0857
  C  C83  1  0.921700  0.867500  0.722800  1.0  0.1747
  C  C84  1  0.916800  0.782300  0.792000  1.0  -0.1282
  N  N85  1  0.317500  0.594900  0.128200  1.0  -0.311
  N  N86  1  0.182500  0.094900  0.371800  1.0  -0.3094
  N  N87  1  0.279600  0.337300  0.919300  1.0  -0.3021
  N  N88  1  0.220400  0.837300  0.580700  1.0  -0.3041
  N  N89  1  0.720400  0.662700  0.080700  1.0  -0.3039
  N  N90  1  0.779600  0.162700  0.419300  1.0  -0.3029
  N  N91  1  0.682500  0.405100  0.871800  1.0  -0.3083
  N  N92  1  0.817500  0.905100  0.628200  1.0  -0.31
  O  O93  1  0.181340  0.867130  0.342040  1.0  -0.5965
  O  O94  1  0.392500  0.895200  0.424500  1.0  -0.5337
  O  O95  1  0.318660  0.367130  0.157960  1.0  -0.5947
  O  O96  1  0.107500  0.395200  0.075500  1.0  -0.5333
  O  O97  1  0.043500  0.043600  0.624200  1.0  -0.6267
  O  O98  1  0.222300  0.064070  0.603300  1.0  -0.5802
  O  O99  1  0.456500  0.543600  0.875800  1.0  -0.6272
  O  O100  1  0.277700  0.564070  0.896700  1.0  -0.5808
  O  O101  1  0.956500  0.956400  0.375800  1.0  -0.6283
  O  O102  1  0.777700  0.935930  0.396700  1.0  -0.5805
  O  O103  1  0.543500  0.456400  0.124200  1.0  -0.6274
  O  O104  1  0.722300  0.435930  0.103300  1.0  -0.58
  O  O105  1  0.818660  0.132870  0.657960  1.0  -0.5949
  O  O106  1  0.607500  0.104800  0.575500  1.0  -0.5334
  O  O107  1  0.681340  0.632870  0.842040  1.0  -0.5965
  O  O108  1  0.892500  0.604800  0.924500  1.0  -0.5337
