# generated using pymatgen
data_Zn4H22C42N4O13
_symmetry_space_group_name_H-M   'P 1'
_cell_length_a   11.01920000
_cell_length_b   11.01920000
_cell_length_c   17.03880000
_cell_angle_alpha   91.65390000
_cell_angle_beta   91.65390000
_cell_angle_gamma   90.66770000
_symmetry_Int_Tables_number   1
_chemical_formula_structural   Zn4H22C42N4O13
_chemical_formula_sum   'Zn8 H44 C84 N8 O26'
_cell_volume   2067.01342818
_cell_formula_units_Z   2
loop_
 _symmetry_equiv_pos_site_id
 _symmetry_equiv_pos_as_xyz
  1  'x, y, z'
loop_
 _atom_site_type_symbol
 _atom_site_label
 _atom_site_symmetry_multiplicity
 _atom_site_fract_x
 _atom_site_fract_y
 _atom_site_fract_z
 _atom_site_occupancy
 _atom_site_charge
  Zn  Zn1  1  0.462980  0.656360  0.817430  1.0  1.0392
  Zn  Zn2  1  0.815510  0.302490  0.174820  1.0  0.9581
  Zn  Zn3  1  0.343640  0.537020  0.682570  1.0  1.0417
  Zn  Zn4  1  0.697510  0.184490  0.325180  1.0  0.9595
  Zn  Zn5  1  0.537020  0.343640  0.182570  1.0  1.0386
  Zn  Zn6  1  0.184490  0.697510  0.825180  1.0  0.9596
  Zn  Zn7  1  0.656360  0.462980  0.317430  1.0  1.0403
  Zn  Zn8  1  0.302490  0.815510  0.674820  1.0  0.959
  H  H9  1  0.560300  0.651700  0.037100  1.0  0.1008
  H  H10  1  0.694400  0.823000  0.231800  1.0  0.1016
  H  H11  1  0.678200  0.995400  0.029400  1.0  0.0987
  H  H12  1  0.007200  0.792000  0.127700  1.0  0.1246
  H  H13  1  0.922700  0.767300  0.984500  1.0  0.1184
  H  H14  1  0.672400  0.259000  0.882300  1.0  0.1241
  H  H15  1  0.724900  0.453500  0.851900  1.0  0.1121
  H  H16  1  0.827900  0.651500  0.891900  1.0  0.1129
  H  H17  1  0.031300  0.710700  0.248200  1.0  0.1311
  H  H18  1  0.706200  0.196600  0.007200  1.0  0.0788
  H  H19  1  0.961500  0.516300  0.268900  1.0  0.0709
  H  H20  1  0.348300  0.439700  0.462900  1.0  0.1003
  H  H21  1  0.177000  0.305600  0.268200  1.0  0.1006
  H  H22  1  0.004600  0.321800  0.470600  1.0  0.0986
  H  H23  1  0.208000  0.992800  0.372300  1.0  0.1245
  H  H24  1  0.232700  0.077300  0.515500  1.0  0.1194
  H  H25  1  0.741000  0.327600  0.617700  1.0  0.1248
  H  H26  1  0.546500  0.275100  0.648100  1.0  0.1114
  H  H27  1  0.348500  0.172100  0.608100  1.0  0.1132
  H  H28  1  0.289300  0.968700  0.251800  1.0  0.1309
  H  H29  1  0.803400  0.293800  0.492800  1.0  0.0786
  H  H30  1  0.483700  0.038500  0.231100  1.0  0.0714
  H  H31  1  0.439700  0.348300  0.962900  1.0  0.1011
  H  H32  1  0.305600  0.177000  0.768200  1.0  0.1014
  H  H33  1  0.321800  0.004600  0.970600  1.0  0.0994
  H  H34  1  0.992800  0.208000  0.872300  1.0  0.125
  H  H35  1  0.077300  0.232700  0.015500  1.0  0.12
  H  H36  1  0.327600  0.741000  0.117700  1.0  0.1246
  H  H37  1  0.275100  0.546500  0.148100  1.0  0.1115
  H  H38  1  0.172100  0.348500  0.108100  1.0  0.1124
  H  H39  1  0.968700  0.289300  0.751800  1.0  0.1307
  H  H40  1  0.293800  0.803400  0.992800  1.0  0.0798
  H  H41  1  0.038500  0.483700  0.731100  1.0  0.0712
  H  H42  1  0.651700  0.560300  0.537100  1.0  0.1001
  H  H43  1  0.823000  0.694400  0.731800  1.0  0.1008
  H  H44  1  0.995400  0.678200  0.529400  1.0  0.0989
  H  H45  1  0.792000  0.007200  0.627700  1.0  0.1256
  H  H46  1  0.767300  0.922700  0.484500  1.0  0.1195
  H  H47  1  0.259000  0.672400  0.382300  1.0  0.1239
  H  H48  1  0.453500  0.724900  0.351900  1.0  0.1125
  H  H49  1  0.651500  0.827900  0.391900  1.0  0.1138
  H  H50  1  0.710700  0.031300  0.748200  1.0  0.1305
  H  H51  1  0.196600  0.706200  0.507200  1.0  0.0783
  H  H52  1  0.516300  0.961500  0.768900  1.0  0.071
  C  C53  1  0.692800  0.927000  0.137200  1.0  -0.1727
  C  C54  1  0.594200  0.720800  0.061900  1.0  0.0098
  C  C55  1  0.737700  0.039100  0.178700  1.0  0.7005
  C  C56  1  0.611700  0.823900  0.019600  1.0  -0.1732
  C  C57  1  0.674400  0.823200  0.178400  1.0  0.0121
  C  C58  1  0.575800  0.823800  0.933200  1.0  0.6918
  C  C59  1  0.627000  0.719200  0.141700  1.0  -0.1949
  C  C60  1  0.663300  0.926300  0.057800  1.0  0.0182
  C  C61  1  0.610800  0.603600  0.184300  1.0  0.6875
  C  C62  1  0.978000  0.714200  0.136400  1.0  -0.0286
  C  C63  1  0.896700  0.689700  0.996700  1.0  -0.0982
  C  C64  1  0.708600  0.311400  0.920100  1.0  -0.1745
  C  C65  1  0.741300  0.425900  0.902200  1.0  -0.0029
  C  C66  1  0.840200  0.621000  0.941700  1.0  -0.0862
  C  C67  1  0.992800  0.666200  0.207400  1.0  -0.1554
  C  C68  1  0.798000  0.501600  0.956800  1.0  -0.0042
  C  C69  1  0.918600  0.647000  0.074800  1.0  0.002
  C  C70  1  0.730300  0.274900  0.995000  1.0  0.2082
  C  C71  1  0.876700  0.530500  0.092100  1.0  0.1408
  C  C72  1  0.949500  0.548700  0.219500  1.0  0.2063
  C  C73  1  0.817500  0.456700  0.032600  1.0  0.1583
  C  C74  1  0.073000  0.307200  0.362800  1.0  -0.1729
  C  C75  1  0.279200  0.405800  0.438100  1.0  0.0078
  C  C76  1  0.960900  0.262300  0.321300  1.0  0.6982
  C  C77  1  0.176100  0.388300  0.480400  1.0  -0.1757
  C  C78  1  0.176800  0.325600  0.321600  1.0  0.012
  C  C79  1  0.176200  0.424200  0.566800  1.0  0.6921
  C  C80  1  0.280800  0.373000  0.358300  1.0  -0.1939
  C  C81  1  0.073700  0.336700  0.442200  1.0  0.0187
  C  C82  1  0.396400  0.389200  0.315700  1.0  0.687
  C  C83  1  0.285800  0.022000  0.363600  1.0  -0.0276
  C  C84  1  0.310300  0.103300  0.503300  1.0  -0.0916
  C  C85  1  0.688600  0.291400  0.579900  1.0  -0.1763
  C  C86  1  0.574100  0.258700  0.597800  1.0  -0.0037
  C  C87  1  0.379000  0.159800  0.558300  1.0  -0.085
  C  C88  1  0.333800  0.007200  0.292600  1.0  -0.1552
  C  C89  1  0.498400  0.202000  0.543200  1.0  -0.0015
  C  C90  1  0.353000  0.081400  0.425200  1.0  0.0003
  C  C91  1  0.725100  0.269700  0.505000  1.0  0.208
  C  C92  1  0.469500  0.123300  0.407900  1.0  0.14
  C  C93  1  0.451300  0.050500  0.280500  1.0  0.2046
  C  C94  1  0.543300  0.182500  0.467400  1.0  0.1591
  C  C95  1  0.307200  0.073000  0.862800  1.0  -0.1741
  C  C96  1  0.405800  0.279200  0.938100  1.0  0.0097
  C  C97  1  0.262300  0.960900  0.821300  1.0  0.6999
  C  C98  1  0.388300  0.176100  0.980400  1.0  -0.1736
  C  C99  1  0.325600  0.176800  0.821600  1.0  0.0123
  C  C100  1  0.424200  0.176200  0.066800  1.0  0.6913
  C  C101  1  0.373000  0.280800  0.858300  1.0  -0.1944
  C  C102  1  0.336700  0.073700  0.942200  1.0  0.0196
  C  C103  1  0.389200  0.396400  0.815700  1.0  0.6878
  C  C104  1  0.022000  0.285800  0.863600  1.0  -0.0294
  C  C105  1  0.103300  0.310300  0.003300  1.0  -0.0959
  C  C106  1  0.291400  0.688600  0.079900  1.0  -0.1736
  C  C107  1  0.258700  0.574100  0.097800  1.0  -0.0019
  C  C108  1  0.159800  0.379000  0.058300  1.0  -0.0867
  C  C109  1  0.007200  0.333800  0.792600  1.0  -0.1548
  C  C110  1  0.202000  0.498400  0.043200  1.0  -0.0029
  C  C111  1  0.081400  0.353000  0.925200  1.0  0.0005
  C  C112  1  0.269700  0.725100  0.005000  1.0  0.2073
  C  C113  1  0.123300  0.469500  0.907900  1.0  0.1411
  C  C114  1  0.050500  0.451300  0.780500  1.0  0.2062
  C  C115  1  0.182500  0.543300  0.967400  1.0  0.1582
  C  C116  1  0.927000  0.692800  0.637200  1.0  -0.173
  C  C117  1  0.720800  0.594200  0.561900  1.0  0.0077
  C  C118  1  0.039100  0.737700  0.678700  1.0  0.6982
  C  C119  1  0.823900  0.611700  0.519600  1.0  -0.1749
  C  C120  1  0.823200  0.674400  0.678400  1.0  0.0114
  C  C121  1  0.823800  0.575800  0.433200  1.0  0.6922
  C  C122  1  0.719200  0.627000  0.641700  1.0  -0.1951
  C  C123  1  0.926300  0.663300  0.557800  1.0  0.0171
  C  C124  1  0.603600  0.610800  0.684300  1.0  0.6871
  C  C125  1  0.714200  0.978000  0.636400  1.0  -0.0278
  C  C126  1  0.689700  0.896700  0.496700  1.0  -0.0929
  C  C127  1  0.311400  0.708600  0.420100  1.0  -0.1767
  C  C128  1  0.425900  0.741300  0.402200  1.0  -0.0029
  C  C129  1  0.621000  0.840200  0.441700  1.0  -0.0874
  C  C130  1  0.666200  0.992800  0.707400  1.0  -0.1535
  C  C131  1  0.501600  0.798000  0.456800  1.0  -0.0015
  C  C132  1  0.647000  0.918600  0.574800  1.0  0.0003
  C  C133  1  0.274900  0.730300  0.495000  1.0  0.2082
  C  C134  1  0.530500  0.876700  0.592100  1.0  0.1401
  C  C135  1  0.548700  0.949500  0.719500  1.0  0.2051
  C  C136  1  0.456700  0.817500  0.532600  1.0  0.1579
  N  N137  1  0.892800  0.481800  0.164400  1.0  -0.3642
  N  N138  1  0.783300  0.343700  0.051600  1.0  -0.3638
  N  N139  1  0.518200  0.107200  0.335600  1.0  -0.3657
  N  N140  1  0.656300  0.216700  0.448400  1.0  -0.364
  N  N141  1  0.107200  0.518200  0.835600  1.0  -0.3652
  N  N142  1  0.216700  0.656300  0.948400  1.0  -0.3677
  N  N143  1  0.481800  0.892800  0.664400  1.0  -0.3648
  N  N144  1  0.343700  0.783300  0.551600  1.0  -0.3633
  O  O145  1  0.500400  0.738000  0.913310  1.0  -0.6412
  O  O146  1  0.616600  0.899000  0.890700  1.0  -0.5771
  O  O147  1  0.776400  0.125400  0.139140  1.0  -0.6057
  O  O148  1  0.735900  0.042300  0.252960  1.0  -0.6126
  O  O149  1  0.572100  0.511500  0.146450  1.0  -0.5977
  O  O150  1  0.639200  0.609200  0.256640  1.0  -0.6078
  O  O151  1  0.262000  0.499600  0.586690  1.0  -0.6413
  O  O152  1  0.101000  0.383400  0.609300  1.0  -0.5761
  O  O153  1  0.874600  0.223600  0.360860  1.0  -0.6065
  O  O154  1  0.957700  0.264100  0.247040  1.0  -0.6129
  O  O155  1  0.488500  0.427900  0.353550  1.0  -0.5969
  O  O156  1  0.390800  0.360800  0.243360  1.0  -0.6081
  O  O157  1  0.499600  0.262000  0.086690  1.0  -0.6419
  O  O158  1  0.383400  0.101000  0.109300  1.0  -0.5772
  O  O159  1  0.223600  0.874600  0.860860  1.0  -0.6063
  O  O160  1  0.264100  0.957700  0.747040  1.0  -0.6142
  O  O161  1  0.427900  0.488500  0.853550  1.0  -0.5977
  O  O162  1  0.360800  0.390800  0.743360  1.0  -0.6076
  O  O163  1  0.738000  0.500400  0.413310  1.0  -0.6408
  O  O164  1  0.899000  0.616600  0.390700  1.0  -0.576
  O  O165  1  0.125400  0.776400  0.639140  1.0  -0.6066
  O  O166  1  0.042300  0.735900  0.752960  1.0  -0.6143
  O  O167  1  0.511500  0.572100  0.646450  1.0  -0.5969
  O  O168  1  0.609200  0.639200  0.756640  1.0  -0.6085
  O  O169  1  0.319700  0.680300  0.750000  1.0  -1.0895
  O  O170  1  0.680300  0.319700  0.250000  1.0  -1.0902
