# generated using pymatgen
data_CuH8C5N3O
_symmetry_space_group_name_H-M   'P 1'
_cell_length_a   10.06310000
_cell_length_b   14.51660000
_cell_length_c   14.51660000
_cell_angle_alpha   65.17110000
_cell_angle_beta   76.63990000
_cell_angle_gamma   103.36000000
_symmetry_Int_Tables_number   1
_chemical_formula_structural   CuH8C5N3O
_chemical_formula_sum   'Cu6 H48 C30 N18 O6'
_cell_volume   1738.44917235
_cell_formula_units_Z   6
loop_
 _symmetry_equiv_pos_site_id
 _symmetry_equiv_pos_as_xyz
  1  'x, y, z'
loop_
 _atom_site_type_symbol
 _atom_site_label
 _atom_site_symmetry_multiplicity
 _atom_site_fract_x
 _atom_site_fract_y
 _atom_site_fract_z
 _atom_site_occupancy
 _atom_site_charge
  Cu  Cu1  1  0.382550  0.887600  0.549350  1.0  0.4444
  Cu  Cu2  1  0.931900  0.549350  0.563050  1.0  0.4471
  Cu  Cu3  1  0.494950  0.563050  0.887600  1.0  0.4469
  Cu  Cu4  1  0.617450  0.112400  0.450650  1.0  0.4465
  Cu  Cu5  1  0.068100  0.450650  0.436950  1.0  0.4486
  Cu  Cu6  1  0.505050  0.436950  0.112400  1.0  0.4455
  H  H7  1  0.473800  0.725000  0.691700  1.0  0.0321
  H  H8  1  0.031500  0.658400  0.932000  1.0  0.142
  H  H9  1  0.105600  0.778900  0.748300  1.0  0.082
  H  H10  1  0.090400  0.534600  0.075500  1.0  0.3126
  H  H11  1  0.244400  0.513000  0.047300  1.0  0.3108
  H  H12  1  0.627000  0.019400  0.291000  1.0  0.0419
  H  H13  1  0.451800  0.961400  0.313700  1.0  0.0653
  H  H14  1  0.532800  0.091400  0.257700  1.0  0.0692
  H  H15  1  0.165500  0.691700  0.583300  1.0  0.0315
  H  H16  1  0.963500  0.932000  0.409600  1.0  0.1417
  H  H17  1  0.853900  0.748300  0.472800  1.0  0.0809
  H  H18  1  0.165900  0.075500  0.389900  1.0  0.3098
  H  H19  1  0.291700  0.047300  0.439700  1.0  0.3073
  H  H20  1  0.918000  0.291000  0.689600  1.0  0.035
  H  H21  1  0.765500  0.313700  0.724900  1.0  0.0611
  H  H22  1  0.790500  0.257700  0.650900  1.0  0.0669
  H  H23  1  0.748800  0.583300  0.725000  1.0  0.0308
  H  H24  1  0.373100  0.409600  0.658400  1.0  0.1412
  H  H25  1  0.326700  0.472800  0.778900  1.0  0.079
  H  H26  1  0.555800  0.389900  0.534600  1.0  0.3102
  H  H27  1  0.731400  0.439700  0.513000  1.0  0.3107
  H  H28  1  0.607600  0.689600  0.019400  1.0  0.0433
  H  H29  1  0.490400  0.724900  0.961400  1.0  0.067
  H  H30  1  0.441400  0.650900  0.091400  1.0  0.0712
  H  H31  1  0.526200  0.275000  0.308300  1.0  0.0312
  H  H32  1  0.968500  0.341600  0.068000  1.0  0.1412
  H  H33  1  0.894400  0.221100  0.251700  1.0  0.0821
  H  H34  1  0.909600  0.465400  0.924500  1.0  0.3121
  H  H35  1  0.755600  0.487000  0.952700  1.0  0.3002
  H  H36  1  0.373000  0.980600  0.709000  1.0  0.0415
  H  H37  1  0.548200  0.038600  0.686300  1.0  0.0651
  H  H38  1  0.467200  0.908600  0.742300  1.0  0.0674
  H  H39  1  0.834500  0.308300  0.416700  1.0  0.0314
  H  H40  1  0.036500  0.068000  0.590400  1.0  0.1421
  H  H41  1  0.146100  0.251700  0.527200  1.0  0.0813
  H  H42  1  0.834100  0.924500  0.610100  1.0  0.3125
  H  H43  1  0.708300  0.952700  0.560300  1.0  0.3026
  H  H44  1  0.082000  0.709000  0.310400  1.0  0.0335
  H  H45  1  0.234500  0.686300  0.275100  1.0  0.06
  H  H46  1  0.209500  0.742300  0.349100  1.0  0.0663
  H  H47  1  0.251200  0.416700  0.275000  1.0  0.0304
  H  H48  1  0.626900  0.590400  0.341600  1.0  0.1415
  H  H49  1  0.673300  0.527200  0.221100  1.0  0.0814
  H  H50  1  0.444200  0.610100  0.465400  1.0  0.3088
  H  H51  1  0.268600  0.560300  0.487000  1.0  0.3107
  H  H52  1  0.392400  0.310400  0.980600  1.0  0.0448
  H  H53  1  0.509600  0.275100  0.038600  1.0  0.0646
  H  H54  1  0.558600  0.349100  0.908600  1.0  0.0695
  C  C55  1  0.123000  0.671700  0.882000  1.0  -0.4207
  C  C56  1  0.381900  0.710700  0.741900  1.0  0.3223
  C  C57  1  0.167000  0.742100  0.774200  1.0  0.1759
  C  C58  1  0.216800  0.617900  0.920000  1.0  0.5329
  C  C59  1  0.522600  0.024000  0.310900  1.0  0.0352
  C  C60  1  0.005000  0.882000  0.446300  1.0  -0.4191
  C  C61  1  0.123800  0.741900  0.547400  1.0  0.3238
  C  C62  1  0.941200  0.774200  0.483700  1.0  0.1746
  C  C63  1  0.136800  0.920000  0.462100  1.0  0.528
  C  C64  1  0.833500  0.310900  0.665100  1.0  0.0344
  C  C65  1  0.451300  0.446300  0.671700  1.0  -0.4177
  C  C66  1  0.671200  0.547400  0.710700  1.0  0.3233
  C  C67  1  0.424900  0.483700  0.742100  1.0  0.174
  C  C68  1  0.598900  0.462100  0.617900  1.0  0.5298
  C  C69  1  0.498600  0.665100  0.024000  1.0  0.0326
  C  C70  1  0.877000  0.328300  0.118000  1.0  -0.4078
  C  C71  1  0.618100  0.289300  0.258100  1.0  0.3221
  C  C72  1  0.833000  0.257900  0.225800  1.0  0.1721
  C  C73  1  0.783200  0.382100  0.080000  1.0  0.5315
  C  C74  1  0.477400  0.976000  0.689100  1.0  0.0359
  C  C75  1  0.995000  0.118000  0.553700  1.0  -0.4097
  C  C76  1  0.876200  0.258100  0.452600  1.0  0.3214
  C  C77  1  0.058800  0.225800  0.516300  1.0  0.171
  C  C78  1  0.863200  0.080000  0.537900  1.0  0.532
  C  C79  1  0.166500  0.689100  0.334900  1.0  0.0364
  C  C80  1  0.548700  0.553700  0.328300  1.0  -0.4097
  C  C81  1  0.328800  0.452600  0.289300  1.0  0.3239
  C  C82  1  0.575100  0.516300  0.257900  1.0  0.1706
  C  C83  1  0.401100  0.537900  0.382100  1.0  0.5334
  C  C84  1  0.501400  0.334900  0.976000  1.0  0.033
  N  N85  1  0.299700  0.763900  0.700600  1.0  -0.3972
  N  N86  1  0.348300  0.638900  0.845900  1.0  -0.4901
  N  N87  1  0.180800  0.548800  0.023700  1.0  -0.669
  N  N88  1  0.000300  0.700600  0.535500  1.0  -0.3957
  N  N89  1  0.194200  0.845900  0.515200  1.0  -0.4905
  N  N90  1  0.204500  0.023700  0.427500  1.0  -0.6696
  N  N91  1  0.535800  0.535500  0.763900  1.0  -0.397
  N  N92  1  0.709400  0.515200  0.638900  1.0  -0.4892
  N  N93  1  0.632000  0.427500  0.548800  1.0  -0.6698
  N  N94  1  0.700300  0.236100  0.299400  1.0  -0.396
  N  N95  1  0.651700  0.361100  0.154100  1.0  -0.4855
  N  N96  1  0.819200  0.451200  0.976300  1.0  -0.6702
  N  N97  1  0.999700  0.299400  0.464500  1.0  -0.3965
  N  N98  1  0.805800  0.154100  0.484800  1.0  -0.4848
  N  N99  1  0.795500  0.976300  0.572500  1.0  -0.668
  N  N100  1  0.464200  0.464500  0.236100  1.0  -0.3968
  N  N101  1  0.290600  0.484800  0.361100  1.0  -0.4844
  N  N102  1  0.368000  0.572500  0.451200  1.0  -0.67
  O  O103  1  0.487600  0.021700  0.413000  1.0  -0.5858
  O  O104  1  0.900600  0.413000  0.565300  1.0  -0.583
  O  O105  1  0.465900  0.565300  0.021700  1.0  -0.5862
  O  O106  1  0.512400  0.978300  0.587000  1.0  -0.5861
  O  O107  1  0.099400  0.587000  0.434700  1.0  -0.5851
  O  O108  1  0.534100  0.434700  0.978300  1.0  -0.5839
