# generated using pymatgen
data_ZnH22C16(N2O)2
_symmetry_space_group_name_H-M   'P 1'
_cell_length_a   10.30390000
_cell_length_b   24.94250000
_cell_length_c   11.57400000
_cell_angle_alpha   90.00000000
_cell_angle_beta   93.19700000
_cell_angle_gamma   90.00000000
_symmetry_Int_Tables_number   1
_chemical_formula_structural   ZnH22C16(N2O)2
_chemical_formula_sum   'Zn4 H88 C64 N16 O8'
_cell_volume   2969.94679237
_cell_formula_units_Z   4
loop_
 _symmetry_equiv_pos_site_id
 _symmetry_equiv_pos_as_xyz
  1  'x, y, z'
loop_
 _atom_site_type_symbol
 _atom_site_label
 _atom_site_symmetry_multiplicity
 _atom_site_fract_x
 _atom_site_fract_y
 _atom_site_fract_z
 _atom_site_occupancy
 _atom_site_charge
  Zn  Zn1  1  0.568230  0.220090  0.414410  1.0  0.8361
  Zn  Zn2  1  0.069930  0.146780  0.435020  1.0  0.7771
  Zn  Zn3  1  0.431770  0.720090  0.585590  1.0  0.8359
  Zn  Zn4  1  0.930070  0.646780  0.564980  1.0  0.7772
  H  H5  1  0.474600  0.126600  0.453700  1.0  0.2658
  H  H6  1  0.502400  0.128100  0.329000  1.0  0.274
  H  H7  1  0.654500  0.892500  0.141100  1.0  0.1572
  H  H8  1  0.793200  0.885900  0.180900  1.0  0.1696
  H  H9  1  0.750900  0.934500  0.114800  1.0  0.2093
  H  H10  1  0.963600  0.237300  0.378100  1.0  0.2521
  H  H11  1  0.025000  0.244100  0.496800  1.0  0.2714
  H  H12  1  0.198500  0.412300  0.194200  1.0  0.1661
  H  H13  1  0.263600  0.464600  0.218100  1.0  0.2293
  H  H14  1  0.121400  0.462700  0.188400  1.0  0.187
  H  H15  1  0.500600  0.336600  0.336500  1.0  0.0671
  H  H16  1  0.560500  0.424900  0.379000  1.0  0.0997
  H  H17  1  0.851500  0.368400  0.594200  1.0  0.1043
  H  H18  1  0.780700  0.282100  0.549600  1.0  0.069
  H  H19  1  0.719500  0.584700  0.428000  1.0  0.0537
  H  H20  1  0.647000  0.499800  0.389000  1.0  0.1042
  H  H21  1  0.882300  0.446700  0.654900  1.0  0.1035
  H  H22  1  0.958300  0.533700  0.680100  1.0  0.0483
  H  H23  1  0.248600  0.158600  0.226900  1.0  0.047
  H  H24  1  0.251200  0.161900  0.028600  1.0  0.0997
  H  H25  1  0.878900  0.112100  0.012000  1.0  0.0962
  H  H26  1  0.881900  0.116900  0.209400  1.0  0.0566
  H  H27  1  0.196800  0.201100  0.657200  1.0  0.054
  H  H28  1  0.199000  0.200100  0.855500  1.0  0.1043
  H  H29  1  0.930000  0.081700  0.830600  1.0  0.0968
  H  H30  1  0.931300  0.088800  0.633900  1.0  0.0541
  H  H31  1  0.654000  0.092200  0.509100  1.0  0.0721
  H  H32  1  0.664500  0.068000  0.269400  1.0  0.0636
  H  H33  1  0.758300  0.040900  0.367000  1.0  0.0644
  H  H34  1  0.484000  0.028100  0.361600  1.0  0.0537
  H  H35  1  0.588100  0.995400  0.441900  1.0  0.0612
  H  H36  1  0.506500  0.945200  0.271900  1.0  0.0493
  H  H37  1  0.576500  0.987800  0.192900  1.0  0.0539
  H  H38  1  0.694500  0.911400  0.342300  1.0  0.0424
  H  H39  1  0.775400  0.962200  0.302100  1.0  0.0578
  H  H40  1  0.137800  0.254200  0.289200  1.0  0.0698
  H  H41  1  0.161300  0.323900  0.483800  1.0  0.0548
  H  H42  1  0.244100  0.331200  0.372100  1.0  0.0542
  H  H43  1  0.967100  0.333200  0.359900  1.0  0.0534
  H  H44  1  0.057200  0.347500  0.256100  1.0  0.0549
  H  H45  1  0.972600  0.426500  0.338000  1.0  0.066
  H  H46  1  0.039400  0.411000  0.461300  1.0  0.0527
  H  H47  1  0.241400  0.423000  0.390200  1.0  0.045
  H  H48  1  0.156100  0.476400  0.383400  1.0  0.0565
  H  H49  1  0.525400  0.626600  0.546300  1.0  0.2667
  H  H50  1  0.497600  0.628100  0.671000  1.0  0.274
  H  H51  1  0.345500  0.392500  0.858900  1.0  0.1586
  H  H52  1  0.206800  0.385900  0.819100  1.0  0.1724
  H  H53  1  0.249100  0.434500  0.885200  1.0  0.2132
  H  H54  1  0.036400  0.737300  0.621900  1.0  0.2519
  H  H55  1  0.975000  0.744100  0.503200  1.0  0.2702
  H  H56  1  0.801500  0.912300  0.805800  1.0  0.1659
  H  H57  1  0.736400  0.964600  0.781900  1.0  0.227
  H  H58  1  0.878600  0.962700  0.811600  1.0  0.1873
  H  H59  1  0.499400  0.836600  0.663500  1.0  0.0672
  H  H60  1  0.439500  0.924900  0.621000  1.0  0.0999
  H  H61  1  0.148500  0.868400  0.405800  1.0  0.1036
  H  H62  1  0.219300  0.782100  0.450400  1.0  0.0685
  H  H63  1  0.280500  0.084700  0.572000  1.0  0.0537
  H  H64  1  0.353000  0.999800  0.611000  1.0  0.1034
  H  H65  1  0.117700  0.946700  0.345100  1.0  0.1031
  H  H66  1  0.041700  0.033700  0.319900  1.0  0.047
  H  H67  1  0.751400  0.658600  0.773100  1.0  0.0471
  H  H68  1  0.748800  0.661900  0.971400  1.0  0.0986
  H  H69  1  0.121100  0.612100  0.988000  1.0  0.0969
  H  H70  1  0.118100  0.616900  0.790600  1.0  0.0572
  H  H71  1  0.803200  0.701100  0.342800  1.0  0.0543
  H  H72  1  0.801000  0.700100  0.144500  1.0  0.1045
  H  H73  1  0.070000  0.581700  0.169400  1.0  0.0965
  H  H74  1  0.068700  0.588800  0.366100  1.0  0.0541
  H  H75  1  0.346000  0.592200  0.490900  1.0  0.0755
  H  H76  1  0.335500  0.568000  0.730600  1.0  0.0623
  H  H77  1  0.241700  0.540900  0.633000  1.0  0.0604
  H  H78  1  0.516000  0.528100  0.638400  1.0  0.0505
  H  H79  1  0.411900  0.495400  0.558100  1.0  0.0624
  H  H80  1  0.493500  0.445200  0.728100  1.0  0.0502
  H  H81  1  0.423500  0.487800  0.807100  1.0  0.0528
  H  H82  1  0.305500  0.411400  0.657700  1.0  0.043
  H  H83  1  0.224600  0.462200  0.697900  1.0  0.0608
  H  H84  1  0.862200  0.754200  0.710800  1.0  0.0677
  H  H85  1  0.838700  0.823900  0.516200  1.0  0.0546
  H  H86  1  0.755900  0.831200  0.627900  1.0  0.0511
  H  H87  1  0.032900  0.833200  0.640100  1.0  0.0575
  H  H88  1  0.942800  0.847500  0.743900  1.0  0.0529
  H  H89  1  0.027400  0.926500  0.662000  1.0  0.0648
  H  H90  1  0.960600  0.911000  0.538700  1.0  0.0539
  H  H91  1  0.758600  0.923000  0.609800  1.0  0.0438
  H  H92  1  0.843900  0.976400  0.616600  1.0  0.0565
  C  C93  1  0.572100  0.343150  0.390100  1.0  0.1234
  C  C94  1  0.607900  0.396170  0.414800  1.0  -0.2
  C  C95  1  0.712200  0.406600  0.491300  1.0  0.0576
  C  C96  1  0.778500  0.362970  0.541700  1.0  -0.2295
  C  C97  1  0.736000  0.311630  0.513900  1.0  0.1386
  C  C98  1  0.755800  0.556030  0.473000  1.0  0.1433
  C  C99  1  0.710600  0.505660  0.450300  1.0  -0.2394
  C  C100  1  0.757500  0.462770  0.516800  1.0  0.0584
  C  C101  1  0.849500  0.474390  0.605100  1.0  -0.2239
  C  C102  1  0.893500  0.526610  0.620500  1.0  0.1448
  C  C103  1  0.170500  0.150800  0.182600  1.0  0.1385
  C  C104  1  0.173500  0.152100  0.063700  1.0  -0.2482
  C  C105  1  0.062900  0.138960  0.995400  1.0  0.0775
  C  C106  1  0.955500  0.123880  0.054000  1.0  -0.2285
  C  C107  1  0.958900  0.125760  0.172300  1.0  0.1383
  C  C108  1  0.141400  0.176580  0.693400  1.0  0.1345
  C  C109  1  0.143700  0.176240  0.811800  1.0  -0.2419
  C  C110  1  0.063200  0.140210  0.867900  1.0  0.0489
  C  C111  1  0.985300  0.107130  0.797300  1.0  -0.2403
  C  C112  1  0.988100  0.111100  0.680000  1.0  0.1479
  C  C113  1  0.776200  0.141770  0.424300  1.0  0.6189
  C  C114  1  0.657000  0.105460  0.427800  1.0  -0.0031
  C  C115  1  0.670400  0.056210  0.351200  1.0  -0.1556
  C  C116  1  0.572500  0.012500  0.365200  1.0  -0.1355
  C  C117  1  0.581800  0.969700  0.269200  1.0  -0.1234
  C  C118  1  0.701500  0.938300  0.280100  1.0  0.03
  C  C119  1  0.273800  0.226270  0.411600  1.0  0.6736
  C  C120  1  0.150000  0.258060  0.375100  1.0  -0.0053
  C  C121  1  0.160600  0.317920  0.399200  1.0  -0.1565
  C  C122  1  0.050700  0.349750  0.341000  1.0  -0.1332
  C  C123  1  0.049700  0.409140  0.376800  1.0  -0.1351
  C  C124  1  0.164500  0.440000  0.350400  1.0  0.0016
  C  C125  1  0.427900  0.843150  0.609900  1.0  0.1232
  C  C126  1  0.392100  0.896170  0.585200  1.0  -0.2023
  C  C127  1  0.287800  0.906600  0.508700  1.0  0.0577
  C  C128  1  0.221500  0.862970  0.458300  1.0  -0.2275
  C  C129  1  0.264000  0.811630  0.486100  1.0  0.1381
  C  C130  1  0.244200  0.056030  0.527000  1.0  0.1452
  C  C131  1  0.289400  0.005660  0.549700  1.0  -0.2394
  C  C132  1  0.242500  0.962770  0.483200  1.0  0.0594
  C  C133  1  0.150500  0.974390  0.394900  1.0  -0.2218
  C  C134  1  0.106500  0.026610  0.379500  1.0  0.146
  C  C135  1  0.829500  0.650800  0.817400  1.0  0.1381
  C  C136  1  0.826500  0.652100  0.936300  1.0  -0.249
  C  C137  1  0.937100  0.638960  0.004600  1.0  0.0778
  C  C138  1  0.044500  0.623880  0.946000  1.0  -0.2291
  C  C139  1  0.041100  0.625760  0.827700  1.0  0.1369
  C  C140  1  0.858600  0.676580  0.306600  1.0  0.1372
  C  C141  1  0.856300  0.676240  0.188200  1.0  -0.2419
  C  C142  1  0.936800  0.640210  0.132100  1.0  0.0482
  C  C143  1  0.014700  0.607130  0.202700  1.0  -0.239
  C  C144  1  0.011900  0.611100  0.320000  1.0  0.1482
  C  C145  1  0.223800  0.641770  0.575700  1.0  0.6183
  C  C146  1  0.343000  0.605460  0.572200  1.0  -0.0039
  C  C147  1  0.329600  0.556210  0.648800  1.0  -0.1557
  C  C148  1  0.427500  0.512500  0.634800  1.0  -0.137
  C  C149  1  0.418200  0.469700  0.730800  1.0  -0.122
  C  C150  1  0.298500  0.438300  0.719900  1.0  0.0303
  C  C151  1  0.726200  0.726270  0.588400  1.0  0.6733
  C  C152  1  0.850000  0.758060  0.624900  1.0  -0.0029
  C  C153  1  0.839400  0.817920  0.600800  1.0  -0.1554
  C  C154  1  0.949300  0.849750  0.659000  1.0  -0.1358
  C  C155  1  0.950300  0.909140  0.623200  1.0  -0.1338
  C  C156  1  0.835500  0.940000  0.649600  1.0  0.0023
  N  N157  1  0.634700  0.301470  0.438900  1.0  -0.3627
  N  N158  1  0.848500  0.567550  0.554800  1.0  -0.3498
  N  N159  1  0.064600  0.139400  0.239400  1.0  -0.3384
  N  N160  1  0.066300  0.144660  0.625700  1.0  -0.3509
  N  N161  1  0.535400  0.136380  0.402300  1.0  -0.6797
  N  N162  1  0.727600  0.909990  0.168100  1.0  -0.4421
  N  N163  1  0.037500  0.230650  0.424200  1.0  -0.6716
  N  N164  1  0.189400  0.445450  0.225700  1.0  -0.4174
  N  N165  1  0.365300  0.801470  0.561100  1.0  -0.3616
  N  N166  1  0.151500  0.067550  0.445200  1.0  -0.3494
  N  N167  1  0.935400  0.639400  0.760600  1.0  -0.3399
  N  N168  1  0.933700  0.644660  0.374300  1.0  -0.3494
  N  N169  1  0.464600  0.636380  0.597700  1.0  -0.6785
  N  N170  1  0.272400  0.409990  0.831900  1.0  -0.4458
  N  N171  1  0.962500  0.730650  0.575800  1.0  -0.6733
  N  N172  1  0.810600  0.945450  0.774300  1.0  -0.4177
  O  O173  1  0.762000  0.191640  0.419900  1.0  -0.6082
  O  O174  1  0.883900  0.117110  0.427200  1.0  -0.6166
  O  O175  1  0.262800  0.178740  0.445100  1.0  -0.5826
  O  O176  1  0.379600  0.250030  0.400500  1.0  -0.6375
  O  O177  1  0.238000  0.691640  0.580100  1.0  -0.6068
  O  O178  1  0.116100  0.617110  0.572800  1.0  -0.6162
  O  O179  1  0.737200  0.678740  0.554900  1.0  -0.5819
  O  O180  1  0.620400  0.750030  0.599500  1.0  -0.6374
