# generated using pymatgen
data_Ca3Eu2H18C42(NO4)6
_symmetry_space_group_name_H-M   'P 1'
_cell_length_a   16.07000000
_cell_length_b   9.47100000
_cell_length_c   23.54000000
_cell_angle_alpha   90.00000000
_cell_angle_beta   107.68500000
_cell_angle_gamma   90.00000000
_symmetry_Int_Tables_number   1
_chemical_formula_structural   Ca3Eu2H18C42(NO4)6
_chemical_formula_sum   'Ca6 Eu4 H36 C84 N12 O48'
_cell_volume   3413.44608018
_cell_formula_units_Z   2
loop_
 _symmetry_equiv_pos_site_id
 _symmetry_equiv_pos_as_xyz
  1  'x, y, z'
loop_
 _atom_site_type_symbol
 _atom_site_label
 _atom_site_symmetry_multiplicity
 _atom_site_fract_x
 _atom_site_fract_y
 _atom_site_fract_z
 _atom_site_occupancy
 _atom_site_charge
  Ca  Ca1  1  0.500000  0.000000  0.000000  1.0  1.565
  Ca  Ca2  1  0.500000  0.000000  0.500000  1.0  1.565
  Ca  Ca3  1  0.500000  0.003500  0.250000  1.0  1.6434
  Ca  Ca4  1  0.500000  0.996500  0.750000  1.0  1.6424
  Ca  Ca5  1  0.000000  0.000000  0.000000  1.0  1.5706
  Ca  Ca6  1  0.000000  0.000000  0.500000  1.0  1.5707
  Eu  Eu7  1  0.296250  0.505540  0.097310  1.0  1.9959
  Eu  Eu8  1  0.703750  0.505540  0.402680  1.0  1.9968
  Eu  Eu9  1  0.703750  0.494460  0.902680  1.0  1.9967
  Eu  Eu10  1  0.296250  0.494460  0.597320  1.0  1.9956
  H  H11  1  0.291600  0.276500  0.307800  1.0  0.123
  H  H12  1  0.183800  0.422300  0.325300  1.0  0.1034
  H  H13  1  0.128300  0.612800  0.260800  1.0  0.1242
  H  H14  1  0.631100  0.687600  0.146400  1.0  0.1207
  H  H15  1  0.680000  0.523300  0.089600  1.0  0.1039
  H  H16  1  0.583200  0.345800  0.037200  1.0  0.1182
  H  H17  1  0.089800  0.692000  0.879300  1.0  0.1228
  H  H18  1  0.975700  0.528500  0.865400  1.0  0.1051
  H  H19  1  0.985800  0.352400  0.937800  1.0  0.1108
  H  H20  1  0.708400  0.276500  0.192200  1.0  0.1228
  H  H21  1  0.816200  0.422300  0.174700  1.0  0.1024
  H  H22  1  0.871700  0.612800  0.239200  1.0  0.1237
  H  H23  1  0.368900  0.687600  0.353600  1.0  0.1218
  H  H24  1  0.320000  0.523300  0.410400  1.0  0.1044
  H  H25  1  0.416800  0.345800  0.462800  1.0  0.1183
  H  H26  1  0.910200  0.692000  0.620700  1.0  0.1232
  H  H27  1  0.024300  0.528500  0.634600  1.0  0.1046
  H  H28  1  0.014200  0.352400  0.562200  1.0  0.1111
  H  H29  1  0.708400  0.723500  0.692200  1.0  0.1237
  H  H30  1  0.816200  0.577700  0.674700  1.0  0.1013
  H  H31  1  0.871700  0.387200  0.739200  1.0  0.123
  H  H32  1  0.368900  0.312400  0.853600  1.0  0.1202
  H  H33  1  0.320000  0.476700  0.910400  1.0  0.1053
  H  H34  1  0.416800  0.654200  0.962800  1.0  0.118
  H  H35  1  0.910200  0.308000  0.120700  1.0  0.1235
  H  H36  1  0.024300  0.471500  0.134600  1.0  0.1052
  H  H37  1  0.014200  0.647600  0.062200  1.0  0.1113
  H  H38  1  0.291600  0.723500  0.807800  1.0  0.1232
  H  H39  1  0.183800  0.577700  0.825300  1.0  0.1031
  H  H40  1  0.128300  0.387200  0.760800  1.0  0.1233
  H  H41  1  0.631100  0.312400  0.646400  1.0  0.1206
  H  H42  1  0.680000  0.476700  0.589600  1.0  0.1047
  H  H43  1  0.583200  0.654200  0.537200  1.0  0.1179
  H  H44  1  0.089800  0.308000  0.379300  1.0  0.1238
  H  H45  1  0.975700  0.471500  0.365400  1.0  0.105
  H  H46  1  0.985800  0.647600  0.437800  1.0  0.1119
  C  C47  1  0.362700  0.294100  0.216400  1.0  0.6648
  C  C48  1  0.296000  0.382300  0.233000  1.0  0.1402
  C  C49  1  0.268000  0.353300  0.282000  1.0  -0.1078
  C  C50  1  0.204500  0.439600  0.292200  1.0  -0.1202
  C  C51  1  0.171100  0.551800  0.253900  1.0  -0.0855
  C  C52  1  0.201500  0.572700  0.205700  1.0  0.142
  C  C53  1  0.165900  0.684900  0.158500  1.0  0.6456
  C  C54  1  0.468600  0.708800  0.161000  1.0  0.6507
  C  C55  1  0.508400  0.607000  0.126700  1.0  0.1337
  C  C56  1  0.593200  0.615800  0.124900  1.0  -0.0778
  C  C57  1  0.621800  0.519000  0.091500  1.0  -0.106
  C  C58  1  0.564600  0.414200  0.060300  1.0  -0.0968
  C  C59  1  0.479700  0.413000  0.064000  1.0  0.1265
  C  C60  1  0.411400  0.309800  0.031600  1.0  0.6799
  C  C61  1  0.243700  0.701700  0.971500  1.0  0.6788
  C  C62  1  0.164600  0.608100  0.958400  1.0  0.1214
  C  C63  1  0.092700  0.619600  0.907700  1.0  -0.1472
  C  C64  1  0.025400  0.523600  0.899800  1.0  -0.1057
  C  C65  1  0.031200  0.419700  0.942600  1.0  -0.0623
  C  C66  1  0.103800  0.415700  0.992100  1.0  0.1438
  C  C67  1  0.115600  0.310000  0.041500  1.0  0.678
  C  C68  1  0.637300  0.294100  0.283600  1.0  0.6659
  C  C69  1  0.704000  0.382300  0.267000  1.0  0.1413
  C  C70  1  0.732000  0.353300  0.218000  1.0  -0.1084
  C  C71  1  0.795500  0.439600  0.207800  1.0  -0.1217
  C  C72  1  0.828900  0.551800  0.246100  1.0  -0.0843
  C  C73  1  0.798500  0.572700  0.294300  1.0  0.1413
  C  C74  1  0.834100  0.684900  0.341500  1.0  0.6461
  C  C75  1  0.531400  0.708800  0.339000  1.0  0.6525
  C  C76  1  0.491600  0.607000  0.373300  1.0  0.1333
  C  C77  1  0.406800  0.615800  0.375100  1.0  -0.0801
  C  C78  1  0.378200  0.519000  0.408500  1.0  -0.1051
  C  C79  1  0.435400  0.414200  0.439700  1.0  -0.0965
  C  C80  1  0.520300  0.413000  0.436000  1.0  0.1265
  C  C81  1  0.588600  0.309800  0.468400  1.0  0.6796
  C  C82  1  0.756300  0.701700  0.528500  1.0  0.6774
  C  C83  1  0.835400  0.608100  0.541600  1.0  0.1215
  C  C84  1  0.907300  0.619600  0.592300  1.0  -0.1458
  C  C85  1  0.974600  0.523600  0.600200  1.0  -0.1039
  C  C86  1  0.968800  0.419700  0.557400  1.0  -0.0628
  C  C87  1  0.896200  0.415700  0.507900  1.0  0.1438
  C  C88  1  0.884400  0.310000  0.458500  1.0  0.6778
  C  C89  1  0.637300  0.705900  0.783600  1.0  0.6646
  C  C90  1  0.704000  0.617700  0.767000  1.0  0.1416
  C  C91  1  0.732000  0.646700  0.718000  1.0  -0.1077
  C  C92  1  0.795500  0.560400  0.707800  1.0  -0.122
  C  C93  1  0.828900  0.448200  0.746100  1.0  -0.0844
  C  C94  1  0.798500  0.427300  0.794300  1.0  0.1406
  C  C95  1  0.834100  0.315100  0.841500  1.0  0.6449
  C  C96  1  0.531400  0.291200  0.839000  1.0  0.6507
  C  C97  1  0.491600  0.393000  0.873300  1.0  0.1323
  C  C98  1  0.406800  0.384200  0.875100  1.0  -0.0791
  C  C99  1  0.378200  0.481000  0.908500  1.0  -0.1043
  C  C100  1  0.435400  0.585800  0.939700  1.0  -0.0963
  C  C101  1  0.520300  0.587000  0.936000  1.0  0.1277
  C  C102  1  0.588600  0.690200  0.968400  1.0  0.6801
  C  C103  1  0.756300  0.298300  0.028500  1.0  0.6766
  C  C104  1  0.835400  0.391900  0.041600  1.0  0.1215
  C  C105  1  0.907300  0.380400  0.092300  1.0  -0.1461
  C  C106  1  0.974600  0.476400  0.100200  1.0  -0.1039
  C  C107  1  0.968800  0.580300  0.057400  1.0  -0.0624
  C  C108  1  0.896200  0.584300  0.007900  1.0  0.1443
  C  C109  1  0.884400  0.690000  0.958500  1.0  0.678
  C  C110  1  0.362700  0.705900  0.716400  1.0  0.664
  C  C111  1  0.296000  0.617700  0.733000  1.0  0.1407
  C  C112  1  0.268000  0.646700  0.782000  1.0  -0.107
  C  C113  1  0.204500  0.560400  0.792200  1.0  -0.1207
  C  C114  1  0.171100  0.448200  0.753900  1.0  -0.0848
  C  C115  1  0.201500  0.427300  0.705700  1.0  0.1409
  C  C116  1  0.165900  0.315100  0.658500  1.0  0.6436
  C  C117  1  0.468600  0.291200  0.661000  1.0  0.6509
  C  C118  1  0.508400  0.393000  0.626700  1.0  0.1327
  C  C119  1  0.593200  0.384200  0.624900  1.0  -0.0787
  C  C120  1  0.621800  0.481000  0.591500  1.0  -0.1051
  C  C121  1  0.564600  0.585800  0.560300  1.0  -0.0959
  C  C122  1  0.479700  0.587000  0.564000  1.0  0.1264
  C  C123  1  0.411400  0.690200  0.531600  1.0  0.6816
  C  C124  1  0.243700  0.298300  0.471500  1.0  0.6788
  C  C125  1  0.164600  0.391900  0.458400  1.0  0.122
  C  C126  1  0.092700  0.380400  0.407700  1.0  -0.1484
  C  C127  1  0.025400  0.476400  0.399800  1.0  -0.106
  C  C128  1  0.031200  0.580300  0.442600  1.0  -0.0614
  C  C129  1  0.103800  0.584300  0.492100  1.0  0.1443
  C  C130  1  0.115600  0.690000  0.541500  1.0  0.6763
  N  N131  1  0.262400  0.488500  0.194880  1.0  -0.4241
  N  N132  1  0.452600  0.508800  0.096330  1.0  -0.4267
  N  N133  1  0.169300  0.508500  0.000410  1.0  -0.4503
  N  N134  1  0.737600  0.488500  0.305120  1.0  -0.4251
  N  N135  1  0.547400  0.508800  0.403670  1.0  -0.4255
  N  N136  1  0.830700  0.508500  0.499590  1.0  -0.4527
  N  N137  1  0.737600  0.511500  0.805120  1.0  -0.4249
  N  N138  1  0.547400  0.491200  0.903670  1.0  -0.4252
  N  N139  1  0.830700  0.491500  0.999590  1.0  -0.4527
  N  N140  1  0.262400  0.511500  0.694880  1.0  -0.4243
  N  N141  1  0.452600  0.491200  0.596330  1.0  -0.4264
  N  N142  1  0.169300  0.491500  0.500410  1.0  -0.4504
  O  O143  1  0.373600  0.323300  0.166210  1.0  -0.6606
  O  O144  1  0.401300  0.200000  0.251270  1.0  -0.7343
  O  O145  1  0.192900  0.678900  0.112970  1.0  -0.6734
  O  O146  1  0.113000  0.772200  0.166830  1.0  -0.5044
  O  O147  1  0.388600  0.687200  0.157050  1.0  -0.6646
  O  O148  1  0.515500  0.805800  0.189190  1.0  -0.7294
  O  O149  1  0.334400  0.331300  0.033390  1.0  -0.665
  O  O150  1  0.433500  0.209500  0.004280  1.0  -0.7523
  O  O151  1  0.299900  0.687100  0.022120  1.0  -0.668
  O  O152  1  0.249500  0.785800  0.931700  1.0  -0.541
  O  O153  1  0.182300  0.327300  0.086880  1.0  -0.6725
  O  O154  1  0.060400  0.214200  0.035270  1.0  -0.7482
  O  O155  1  0.626400  0.323300  0.333790  1.0  -0.6613
  O  O156  1  0.598700  0.200000  0.248730  1.0  -0.7357
  O  O157  1  0.807100  0.678900  0.387030  1.0  -0.6714
  O  O158  1  0.887000  0.772200  0.333170  1.0  -0.5032
  O  O159  1  0.611400  0.687200  0.342950  1.0  -0.6647
  O  O160  1  0.484500  0.805800  0.310810  1.0  -0.7281
  O  O161  1  0.665600  0.331300  0.466610  1.0  -0.6638
  O  O162  1  0.566500  0.209500  0.495720  1.0  -0.7512
  O  O163  1  0.700100  0.687100  0.477880  1.0  -0.6678
  O  O164  1  0.750500  0.785800  0.568300  1.0  -0.5403
  O  O165  1  0.817700  0.327300  0.413120  1.0  -0.6735
  O  O166  1  0.939600  0.214200  0.464730  1.0  -0.7495
  O  O167  1  0.626400  0.676700  0.833790  1.0  -0.6627
  O  O168  1  0.598700  0.800000  0.748730  1.0  -0.7343
  O  O169  1  0.807100  0.321100  0.887030  1.0  -0.6707
  O  O170  1  0.887000  0.227800  0.833170  1.0  -0.5032
  O  O171  1  0.611400  0.312800  0.842950  1.0  -0.6632
  O  O172  1  0.484500  0.194200  0.810810  1.0  -0.7265
  O  O173  1  0.665600  0.668700  0.966610  1.0  -0.6661
  O  O174  1  0.566500  0.790500  0.995720  1.0  -0.7532
  O  O175  1  0.700100  0.312900  0.977880  1.0  -0.668
  O  O176  1  0.750500  0.214200  0.068300  1.0  -0.5395
  O  O177  1  0.817700  0.672700  0.913120  1.0  -0.6733
  O  O178  1  0.939600  0.785800  0.964730  1.0  -0.7488
  O  O179  1  0.373600  0.676700  0.666210  1.0  -0.6618
  O  O180  1  0.401300  0.800000  0.751270  1.0  -0.734
  O  O181  1  0.192900  0.321100  0.612970  1.0  -0.6732
  O  O182  1  0.113000  0.227800  0.666830  1.0  -0.5051
  O  O183  1  0.388600  0.312800  0.657050  1.0  -0.6623
  O  O184  1  0.515500  0.194200  0.689190  1.0  -0.7287
  O  O185  1  0.334400  0.668700  0.533390  1.0  -0.6664
  O  O186  1  0.433500  0.790500  0.504280  1.0  -0.7547
  O  O187  1  0.299900  0.312900  0.522120  1.0  -0.6671
  O  O188  1  0.249500  0.214200  0.431700  1.0  -0.5416
  O  O189  1  0.182300  0.672700  0.586880  1.0  -0.6726
  O  O190  1  0.060400  0.785800  0.535270  1.0  -0.7477
