# generated using pymatgen
data_ScH6(C2O)6
_symmetry_space_group_name_H-M   'P 1'
_cell_length_a   8.71570000
_cell_length_b   11.24060000
_cell_length_c   17.72650000
_cell_angle_alpha   84.53110000
_cell_angle_beta   75.76890000
_cell_angle_gamma   67.18930000
_symmetry_Int_Tables_number   1
_chemical_formula_structural   ScH6(C2O)6
_chemical_formula_sum   'Sc4 H24 C48 O24'
_cell_volume   1551.71060873
_cell_formula_units_Z   4
loop_
 _symmetry_equiv_pos_site_id
 _symmetry_equiv_pos_as_xyz
  1  'x, y, z'
loop_
 _atom_site_type_symbol
 _atom_site_label
 _atom_site_symmetry_multiplicity
 _atom_site_fract_x
 _atom_site_fract_y
 _atom_site_fract_z
 _atom_site_occupancy
 _atom_site_charge
  Sc  Sc1  1  0.614450  0.750000  0.271100  1.0  2.0699
  Sc  Sc2  1  0.135550  0.750000  0.228900  1.0  2.0686
  Sc  Sc3  1  0.385550  0.250000  0.728900  1.0  2.0694
  Sc  Sc4  1  0.864450  0.250000  0.771100  1.0  2.0706
  H  H5  1  0.311320  0.372150  0.249180  1.0  0.114
  H  H6  1  0.695590  0.561020  0.482930  1.0  0.1147
  H  H7  1  0.203030  0.576350  0.398500  1.0  0.1058
  H  H8  1  0.939490  0.127850  0.249180  1.0  0.1158
  H  H9  1  0.321490  0.938980  0.482930  1.0  0.1137
  H  H10  1  0.898470  0.923650  0.398500  1.0  0.1039
  H  H11  1  0.816530  0.372150  0.250820  1.0  0.114
  H  H12  1  0.243390  0.561020  0.017070  1.0  0.114
  H  H13  1  0.720620  0.576350  0.101500  1.0  0.1039
  H  H14  1  0.432650  0.127850  0.250820  1.0  0.1156
  H  H15  1  0.239540  0.938980  0.017070  1.0  0.1107
  H  H16  1  0.677880  0.923650  0.101500  1.0  0.1044
  H  H17  1  0.688680  0.627850  0.750820  1.0  0.1147
  H  H18  1  0.306430  0.442020  0.513500  1.0  0.1118
  H  H19  1  0.796970  0.423650  0.601500  1.0  0.1039
  H  H20  1  0.060510  0.872150  0.750820  1.0  0.1157
  H  H21  1  0.678510  0.061020  0.517070  1.0  0.1141
  H  H22  1  0.103470  0.075730  0.601020  1.0  0.1053
  H  H23  1  0.183470  0.627850  0.749180  1.0  0.1148
  H  H24  1  0.756610  0.438980  0.982930  1.0  0.1146
  H  H25  1  0.280210  0.424270  0.898980  1.0  0.1066
  H  H26  1  0.567350  0.872150  0.749180  1.0  0.1154
  H  H27  1  0.761940  0.057980  0.986500  1.0  0.112
  H  H28  1  0.320810  0.075730  0.898980  1.0  0.1054
  C  C29  1  0.451810  0.317140  0.249760  1.0  -0.1107
  C  C30  1  0.896900  0.639240  0.367560  1.0  0.6956
  C  C31  1  0.952640  0.562900  0.436020  1.0  -0.0627
  C  C32  1  0.831060  0.530560  0.491520  1.0  -0.1168
  C  C33  1  0.114660  0.539200  0.444080  1.0  -0.1228
  C  C34  1  0.798430  0.182860  0.249760  1.0  -0.1119
  C  C35  1  0.235540  0.860760  0.367560  1.0  0.6915
  C  C36  1  0.111340  0.937100  0.436020  1.0  -0.0605
  C  C37  1  0.177420  0.969440  0.491520  1.0  -0.1219
  C  C38  1  0.941260  0.960800  0.444080  1.0  -0.1197
  C  C39  1  0.731050  0.317140  0.250240  1.0  -0.1115
  C  C40  1  0.963860  0.639240  0.132440  1.0  0.6946
  C  C41  1  0.984460  0.562900  0.063980  1.0  -0.0611
  C  C42  1  0.138380  0.530560  0.008480  1.0  -0.1224
  C  C43  1  0.846140  0.539200  0.055920  1.0  -0.1231
  C  C44  1  0.518710  0.182860  0.250240  1.0  -0.111
  C  C45  1  0.403700  0.860760  0.132440  1.0  0.693
  C  C46  1  0.451560  0.937100  0.063980  1.0  -0.0625
  C  C47  1  0.353140  0.969440  0.008480  1.0  -0.1229
  C  C48  1  0.597940  0.960800  0.055920  1.0  -0.1196
  C  C49  1  0.548190  0.682860  0.750240  1.0  -0.1115
  C  C50  1  0.103100  0.360760  0.632440  1.0  0.6951
  C  C51  1  0.047360  0.437100  0.563980  1.0  -0.0616
  C  C52  1  0.168940  0.469440  0.508480  1.0  -0.1219
  C  C53  1  0.885340  0.460800  0.555920  1.0  -0.1236
  C  C54  1  0.201570  0.817140  0.750240  1.0  -0.1092
  C  C55  1  0.764460  0.139240  0.632440  1.0  0.694
  C  C56  1  0.888660  0.062900  0.563980  1.0  -0.0599
  C  C57  1  0.822580  0.030560  0.508480  1.0  -0.1148
  C  C58  1  0.058740  0.039200  0.555920  1.0  -0.1201
  C  C59  1  0.268950  0.682860  0.749760  1.0  -0.1098
  C  C60  1  0.036140  0.360760  0.867560  1.0  0.6955
  C  C61  1  0.015540  0.437100  0.936020  1.0  -0.0612
  C  C62  1  0.861620  0.469440  0.991520  1.0  -0.1161
  C  C63  1  0.153860  0.460800  0.944080  1.0  -0.1242
  C  C64  1  0.481290  0.817140  0.749760  1.0  -0.1107
  C  C65  1  0.596300  0.139240  0.867560  1.0  0.6939
  C  C66  1  0.548440  0.062900  0.936020  1.0  -0.0624
  C  C67  1  0.646860  0.030560  0.991520  1.0  -0.121
  C  C68  1  0.402060  0.039200  0.944080  1.0  -0.1215
  C  C69  1  0.489500  0.521000  0.250000  1.0  0.6918
  C  C70  1  0.559640  0.380720  0.250000  1.0  -0.0638
  C  C71  1  0.760500  0.979000  0.250000  1.0  0.691
  C  C72  1  0.690360  0.119280  0.250000  1.0  -0.0643
  C  C73  1  0.510500  0.479000  0.750000  1.0  0.6918
  C  C74  1  0.440360  0.619280  0.750000  1.0  -0.0637
  C  C75  1  0.239500  0.021000  0.750000  1.0  0.6906
  C  C76  1  0.309640  0.880720  0.750000  1.0  -0.0639
  O  O77  1  0.565100  0.582560  0.270840  1.0  -0.6576
  O  O78  1  0.749860  0.669280  0.358520  1.0  -0.6359
  O  O79  1  0.003090  0.668620  0.315440  1.0  -0.6576
  O  O80  1  0.664060  0.917440  0.270840  1.0  -0.6577
  O  O81  1  0.391620  0.830720  0.358520  1.0  -0.639
  O  O82  1  0.181470  0.831380  0.315440  1.0  -0.6568
  O  O83  1  0.352340  0.582560  0.229160  1.0  -0.6564
  O  O84  1  0.080860  0.669280  0.141480  1.0  -0.636
  O  O85  1  0.828290  0.668620  0.184560  1.0  -0.6553
  O  O86  1  0.918500  0.917440  0.229160  1.0  -0.6573
  O  O87  1  0.277660  0.830720  0.141480  1.0  -0.637
  O  O88  1  0.487150  0.831380  0.184560  1.0  -0.6567
  O  O89  1  0.434900  0.417440  0.729160  1.0  -0.6562
  O  O90  1  0.250140  0.330720  0.641480  1.0  -0.6383
  O  O91  1  0.996910  0.331380  0.684560  1.0  -0.6575
  O  O92  1  0.335940  0.082560  0.729160  1.0  -0.6557
  O  O93  1  0.608380  0.169280  0.641480  1.0  -0.6374
  O  O94  1  0.818530  0.168620  0.684560  1.0  -0.6862
  O  O95  1  0.647660  0.417440  0.770840  1.0  -0.6578
  O  O96  1  0.919140  0.330720  0.858520  1.0  -0.6328
  O  O97  1  0.171710  0.331380  0.815440  1.0  -0.6864
  O  O98  1  0.081500  0.082560  0.770840  1.0  -0.6565
  O  O99  1  0.722340  0.169280  0.858520  1.0  -0.6407
  O  O100  1  0.512850  0.168620  0.815440  1.0  -0.6863
