# generated using pymatgen
data_ScH6(C2O)6
_symmetry_space_group_name_H-M   'P 1'
_cell_length_a   8.74210000
_cell_length_b   11.25340000
_cell_length_c   17.72220000
_cell_angle_alpha   84.50270000
_cell_angle_beta   75.72120000
_cell_angle_gamma   67.14380000
_symmetry_Int_Tables_number   1
_chemical_formula_structural   ScH6(C2O)6
_chemical_formula_sum   'Sc4 H24 C48 O24'
_cell_volume   1556.95498539
_cell_formula_units_Z   4
loop_
 _symmetry_equiv_pos_site_id
 _symmetry_equiv_pos_as_xyz
  1  'x, y, z'
loop_
 _atom_site_type_symbol
 _atom_site_label
 _atom_site_symmetry_multiplicity
 _atom_site_fract_x
 _atom_site_fract_y
 _atom_site_fract_z
 _atom_site_occupancy
 _atom_site_charge
  Sc  Sc1  1  0.885690  0.750000  0.728620  1.0  2.0903
  Sc  Sc2  1  0.364310  0.750000  0.771380  1.0  2.0919
  Sc  Sc3  1  0.114310  0.250000  0.271380  1.0  2.0943
  Sc  Sc4  1  0.635690  0.250000  0.228620  1.0  2.0932
  H  H5  1  0.557280  0.374010  0.751380  1.0  0.1007
  H  H6  1  0.172980  0.562890  0.521800  1.0  0.101
  H  H7  1  0.600880  0.577090  0.603010  1.0  0.0941
  H  H8  1  0.191340  0.125990  0.751380  1.0  0.1007
  H  H9  1  0.805220  0.937110  0.521800  1.0  0.0984
  H  H10  1  0.296120  0.922910  0.603010  1.0  0.0938
  H  H11  1  0.068710  0.374010  0.748620  1.0  0.1015
  H  H12  1  0.264130  0.562890  0.978200  1.0  0.0958
  H  H13  1  0.822030  0.577090  0.896990  1.0  0.0955
  H  H14  1  0.682670  0.125990  0.748620  1.0  0.0997
  H  H15  1  0.257670  0.937110  0.978200  1.0  0.0964
  H  H16  1  0.780970  0.922910  0.896990  1.0  0.0956
  H  H17  1  0.442720  0.625990  0.248620  1.0  0.1022
  H  H18  1  0.824370  0.443390  0.485420  1.0  0.1032
  H  H19  1  0.399120  0.422910  0.396990  1.0  0.0944
  H  H20  1  0.808660  0.874010  0.248620  1.0  0.1001
  H  H21  1  0.194780  0.062890  0.478200  1.0  0.1004
  H  H22  1  0.703880  0.077090  0.396990  1.0  0.0954
  H  H23  1  0.931290  0.625990  0.251380  1.0  0.1013
  H  H24  1  0.732250  0.443390  0.014580  1.0  0.1055
  H  H25  1  0.182130  0.424880  0.101530  1.0  0.0987
  H  H26  1  0.317330  0.874010  0.251380  1.0  0.101
  H  H27  1  0.753180  0.056610  0.014580  1.0  0.1066
  H  H28  1  0.216340  0.075120  0.101530  1.0  0.0993
  C  C29  1  0.698160  0.319060  0.750420  1.0  -0.0733
  C  C30  1  0.261140  0.639880  0.632440  1.0  0.6351
  C  C31  1  0.394540  0.562500  0.561420  1.0  -0.0649
  C  C32  1  0.317550  0.531120  0.508980  1.0  -0.0595
  C  C33  1  0.562520  0.539540  0.556020  1.0  -0.1091
  C  C34  1  0.051420  0.180940  0.750420  1.0  -0.0766
  C  C35  1  0.606420  0.860120  0.632440  1.0  0.6378
  C  C36  1  0.544040  0.937500  0.561420  1.0  -0.0663
  C  C37  1  0.673470  0.968880  0.508980  1.0  -0.0586
  C  C38  1  0.381460  0.960460  0.556020  1.0  -0.1018
  C  C39  1  0.982780  0.319060  0.749580  1.0  -0.0763
  C  C40  1  0.098980  0.639880  0.867560  1.0  0.6356
  C  C41  1  0.042960  0.562500  0.938580  1.0  -0.0667
  C  C42  1  0.151330  0.531120  0.991020  1.0  -0.0623
  C  C43  1  0.897940  0.539540  0.943980  1.0  -0.111
  C  C44  1  0.767640  0.180940  0.749580  1.0  -0.0751
  C  C45  1  0.533460  0.860120  0.867560  1.0  0.6381
  C  C46  1  0.518460  0.937500  0.938580  1.0  -0.068
  C  C47  1  0.357650  0.968880  0.991020  1.0  -0.0624
  C  C48  1  0.658080  0.960460  0.943980  1.0  -0.1138
  C  C49  1  0.301840  0.680940  0.249580  1.0  -0.0747
  C  C50  1  0.738860  0.360120  0.367560  1.0  0.6352
  C  C51  1  0.605460  0.437500  0.438580  1.0  -0.1156
  C  C52  1  0.682450  0.468880  0.491020  1.0  -0.0708
  C  C53  1  0.437480  0.460460  0.443980  1.0  -0.099
  C  C54  1  0.948580  0.819060  0.249580  1.0  -0.0742
  C  C55  1  0.393580  0.139880  0.367560  1.0  0.639
  C  C56  1  0.455960  0.062500  0.438580  1.0  -0.0656
  C  C57  1  0.326530  0.031120  0.491020  1.0  -0.0585
  C  C58  1  0.618540  0.039540  0.443980  1.0  -0.101
  C  C59  1  0.017220  0.680940  0.250420  1.0  -0.0719
  C  C60  1  0.901020  0.360120  0.132440  1.0  0.6398
  C  C61  1  0.957040  0.437500  0.061420  1.0  -0.1127
  C  C62  1  0.848670  0.468880  0.008980  1.0  -0.072
  C  C63  1  0.102060  0.460460  0.056020  1.0  -0.0975
  C  C64  1  0.232360  0.819060  0.250420  1.0  -0.0748
  C  C65  1  0.466540  0.139880  0.132440  1.0  0.6458
  C  C66  1  0.481540  0.062500  0.061420  1.0  -0.1119
  C  C67  1  0.642350  0.031120  0.008980  1.0  -0.071
  C  C68  1  0.341920  0.039540  0.056020  1.0  -0.1009
  C  C69  1  0.735960  0.528080  0.750000  1.0  0.6686
  C  C70  1  0.810340  0.379320  0.750000  1.0  -0.0845
  C  C71  1  0.014040  0.971920  0.750000  1.0  0.668
  C  C72  1  0.939660  0.120680  0.750000  1.0  -0.082
  C  C73  1  0.264040  0.471920  0.250000  1.0  0.6737
  C  C74  1  0.189660  0.620680  0.250000  1.0  -0.0813
  C  C75  1  0.985960  0.028080  0.250000  1.0  0.6734
  C  C76  1  0.060340  0.879320  0.250000  1.0  -0.0814
  O  O77  1  0.838350  0.584200  0.728860  1.0  -0.6551
  O  O78  1  0.107690  0.668940  0.640600  1.0  -0.5893
  O  O79  1  0.316580  0.669660  0.684680  1.0  -0.6865
  O  O80  1  0.932790  0.915800  0.728860  1.0  -0.6529
  O  O81  1  0.751710  0.831060  0.640600  1.0  -0.586
  O  O82  1  0.498740  0.830340  0.684680  1.0  -0.6865
  O  O83  1  0.577450  0.584200  0.771140  1.0  -0.6544
  O  O84  1  0.223370  0.668940  0.859400  1.0  -0.5873
  O  O85  1  0.013760  0.669660  0.815320  1.0  -0.6855
  O  O86  1  0.151410  0.915800  0.771140  1.0  -0.655
  O  O87  1  0.417230  0.831060  0.859400  1.0  -0.5852
  O  O88  1  0.670920  0.830340  0.815320  1.0  -0.6867
  O  O89  1  0.161650  0.415800  0.271140  1.0  -0.6519
  O  O90  1  0.892310  0.331060  0.359400  1.0  -0.6273
  O  O91  1  0.683420  0.330340  0.315320  1.0  -0.6874
  O  O92  1  0.067210  0.084200  0.271140  1.0  -0.6519
  O  O93  1  0.248290  0.168940  0.359400  1.0  -0.5884
  O  O94  1  0.501260  0.169660  0.315320  1.0  -0.6878
  O  O95  1  0.422550  0.415800  0.228860  1.0  -0.6623
  O  O96  1  0.776630  0.331060  0.140600  1.0  -0.6206
  O  O97  1  0.986240  0.330340  0.184680  1.0  -0.7118
  O  O98  1  0.848590  0.084200  0.228860  1.0  -0.664
  O  O99  1  0.582770  0.168940  0.140600  1.0  -0.6191
  O  O100  1  0.329080  0.169660  0.184680  1.0  -0.7113
