# generated using pymatgen
data_ScH6(C2O)6
_symmetry_space_group_name_H-M   'P 1'
_cell_length_a   8.72550000
_cell_length_b   11.24480000
_cell_length_c   17.72450000
_cell_angle_alpha   84.52010000
_cell_angle_beta   75.75080000
_cell_angle_gamma   67.17130000
_symmetry_Int_Tables_number   1
_chemical_formula_structural   ScH6(C2O)6
_chemical_formula_sum   'Sc4 H24 C48 O24'
_cell_volume   1553.53052934
_cell_formula_units_Z   4
loop_
 _symmetry_equiv_pos_site_id
 _symmetry_equiv_pos_as_xyz
  1  'x, y, z'
loop_
 _atom_site_type_symbol
 _atom_site_label
 _atom_site_symmetry_multiplicity
 _atom_site_fract_x
 _atom_site_fract_y
 _atom_site_fract_z
 _atom_site_occupancy
 _atom_site_charge
  Sc  Sc1  1  0.614280  0.750000  0.271440  1.0  2.0862
  Sc  Sc2  1  0.135720  0.750000  0.228560  1.0  2.0834
  Sc  Sc3  1  0.385720  0.250000  0.728560  1.0  2.0855
  Sc  Sc4  1  0.864280  0.250000  0.771440  1.0  2.0867
  H  H5  1  0.311440  0.373260  0.249390  1.0  0.1006
  H  H6  1  0.697830  0.557280  0.480070  1.0  0.0894
  H  H7  1  0.205490  0.572560  0.397100  1.0  0.0901
  H  H8  1  0.939170  0.126740  0.249390  1.0  0.1022
  H  H9  1  0.322090  0.942720  0.480070  1.0  0.0908
  H  H10  1  0.897410  0.927440  0.397100  1.0  0.0898
  H  H11  1  0.815310  0.373260  0.250610  1.0  0.1011
  H  H12  1  0.244880  0.557280  0.019930  1.0  0.0925
  H  H13  1  0.721950  0.572560  0.102900  1.0  0.0899
  H  H14  1  0.434090  0.126740  0.250610  1.0  0.1016
  H  H15  1  0.235190  0.942720  0.019930  1.0  0.0897
  H  H16  1  0.675150  0.927440  0.102900  1.0  0.0884
  H  H17  1  0.688560  0.626740  0.750610  1.0  0.1014
  H  H18  1  0.304750  0.446540  0.515470  1.0  0.1018
  H  H19  1  0.794510  0.427440  0.602900  1.0  0.09
  H  H20  1  0.060830  0.873260  0.750610  1.0  0.1027
  H  H21  1  0.677910  0.057280  0.519930  1.0  0.0885
  H  H22  1  0.104070  0.072080  0.602530  1.0  0.09
  H  H23  1  0.184690  0.626740  0.749390  1.0  0.1013
  H  H24  1  0.755120  0.442720  0.980070  1.0  0.0891
  H  H25  1  0.278680  0.427920  0.897470  1.0  0.0915
  H  H26  1  0.565910  0.873260  0.749390  1.0  0.1024
  H  H27  1  0.766760  0.053460  0.984530  1.0  0.1015
  H  H28  1  0.323850  0.072080  0.897470  1.0  0.092
  C  C29  1  0.451870  0.318260  0.249820  1.0  -0.1336
  C  C30  1  0.893750  0.640560  0.365940  1.0  0.6971
  C  C31  1  0.954560  0.564200  0.436280  1.0  -0.0546
  C  C32  1  0.830990  0.529640  0.490780  1.0  -0.0774
  C  C33  1  0.115300  0.538680  0.443720  1.0  -0.1129
  C  C34  1  0.798310  0.181740  0.249820  1.0  -0.1341
  C  C35  1  0.240310  0.859440  0.365940  1.0  0.6912
  C  C36  1  0.109160  0.935800  0.436280  1.0  -0.0479
  C  C37  1  0.178230  0.970360  0.490780  1.0  -0.0901
  C  C38  1  0.940980  0.961320  0.443720  1.0  -0.1086
  C  C39  1  0.729870  0.318260  0.250180  1.0  -0.1177
  C  C40  1  0.965690  0.640560  0.134060  1.0  0.6967
  C  C41  1  0.981240  0.564200  0.063720  1.0  -0.0478
  C  C42  1  0.139370  0.529640  0.009220  1.0  -0.09
  C  C43  1  0.846020  0.538680  0.056280  1.0  -0.1089
  C  C44  1  0.519950  0.181740  0.250180  1.0  -0.1331
  C  C45  1  0.400250  0.859440  0.134060  1.0  0.6913
  C  C46  1  0.455040  0.935800  0.063720  1.0  -0.0519
  C  C47  1  0.351410  0.970360  0.009220  1.0  -0.0931
  C  C48  1  0.597700  0.961320  0.056280  1.0  -0.1097
  C  C49  1  0.548130  0.681740  0.750180  1.0  -0.1361
  C  C50  1  0.106250  0.359440  0.634060  1.0  0.699
  C  C51  1  0.045440  0.435800  0.563720  1.0  -0.0951
  C  C52  1  0.169010  0.470360  0.509220  1.0  0.0057
  C  C53  1  0.884700  0.461320  0.556280  1.0  -0.109
  C  C54  1  0.201690  0.818260  0.750180  1.0  -0.1336
  C  C55  1  0.759690  0.140560  0.634060  1.0  0.6918
  C  C56  1  0.890840  0.064200  0.563720  1.0  -0.0476
  C  C57  1  0.821770  0.029640  0.509220  1.0  -0.0797
  C  C58  1  0.059020  0.038680  0.556280  1.0  -0.1058
  C  C59  1  0.270130  0.681740  0.749820  1.0  -0.1173
  C  C60  1  0.034310  0.359440  0.865940  1.0  0.6887
  C  C61  1  0.018760  0.435800  0.936280  1.0  -0.0503
  C  C62  1  0.860630  0.470360  0.990780  1.0  -0.0798
  C  C63  1  0.153980  0.461320  0.943720  1.0  -0.1106
  C  C64  1  0.480050  0.818260  0.749820  1.0  -0.1349
  C  C65  1  0.599750  0.140560  0.865940  1.0  0.6969
  C  C66  1  0.544960  0.064200  0.936280  1.0  -0.0966
  C  C67  1  0.648590  0.029640  0.990780  1.0  0.0075
  C  C68  1  0.402300  0.038680  0.943720  1.0  -0.1075
  C  C69  1  0.486660  0.526680  0.250000  1.0  0.6825
  C  C70  1  0.559450  0.381100  0.250000  1.0  -0.0911
  C  C71  1  0.763340  0.973320  0.250000  1.0  0.6824
  C  C72  1  0.690550  0.118900  0.250000  1.0  -0.0917
  C  C73  1  0.513340  0.473320  0.750000  1.0  0.6842
  C  C74  1  0.440550  0.618900  0.750000  1.0  -0.0884
  C  C75  1  0.236660  0.026680  0.750000  1.0  0.6823
  C  C76  1  0.309450  0.881100  0.750000  1.0  -0.088
  O  O77  1  0.566400  0.583360  0.270640  1.0  -0.6631
  O  O78  1  0.748320  0.669200  0.359160  1.0  -0.6176
  O  O79  1  0.002890  0.669640  0.315880  1.0  -0.6643
  O  O80  1  0.662960  0.916640  0.270640  1.0  -0.6619
  O  O81  1  0.392520  0.830800  0.359160  1.0  -0.6172
  O  O82  1  0.181230  0.830360  0.315880  1.0  -0.6642
  O  O83  1  0.350240  0.583360  0.229360  1.0  -0.662
  O  O84  1  0.082480  0.669200  0.140840  1.0  -0.6161
  O  O85  1  0.827470  0.669640  0.184120  1.0  -0.6628
  O  O86  1  0.920400  0.916640  0.229360  1.0  -0.6624
  O  O87  1  0.276680  0.830800  0.140840  1.0  -0.6177
  O  O88  1  0.488410  0.830360  0.184120  1.0  -0.6644
  O  O89  1  0.433600  0.416640  0.729360  1.0  -0.6638
  O  O90  1  0.251680  0.330800  0.640840  1.0  -0.6181
  O  O91  1  0.997110  0.330360  0.684120  1.0  -0.664
  O  O92  1  0.337040  0.083360  0.729360  1.0  -0.6635
  O  O93  1  0.607480  0.169200  0.640840  1.0  -0.618
  O  O94  1  0.818770  0.169640  0.684120  1.0  -0.6919
  O  O95  1  0.649760  0.416640  0.770640  1.0  -0.6656
  O  O96  1  0.917520  0.330800  0.859160  1.0  -0.6183
  O  O97  1  0.172530  0.330360  0.815880  1.0  -0.6919
  O  O98  1  0.079600  0.083360  0.770640  1.0  -0.6635
  O  O99  1  0.723320  0.169200  0.859160  1.0  -0.6189
  O  O100  1  0.511590  0.169640  0.815880  1.0  -0.6919
