# generated using pymatgen
data_ScH6(C2O)6
_symmetry_space_group_name_H-M   'P 1'
_cell_length_a   8.73460000
_cell_length_b   11.24890000
_cell_length_c   17.72290000
_cell_angle_alpha   84.51020000
_cell_angle_beta   75.73450000
_cell_angle_gamma   67.15510000
_symmetry_Int_Tables_number   1
_chemical_formula_structural   ScH6(C2O)6
_chemical_formula_sum   'Sc4 H24 C48 O24'
_cell_volume   1555.27968685
_cell_formula_units_Z   4
loop_
 _symmetry_equiv_pos_site_id
 _symmetry_equiv_pos_as_xyz
  1  'x, y, z'
loop_
 _atom_site_type_symbol
 _atom_site_label
 _atom_site_symmetry_multiplicity
 _atom_site_fract_x
 _atom_site_fract_y
 _atom_site_fract_z
 _atom_site_occupancy
 _atom_site_charge
  Sc  Sc1  1  0.364270  0.250000  0.271460  1.0  2.073
  Sc  Sc2  1  0.885730  0.250000  0.228540  1.0  2.071
  Sc  Sc3  1  0.635730  0.750000  0.728540  1.0  2.0772
  Sc  Sc4  1  0.114270  0.750000  0.771460  1.0  2.0761
  H  H5  1  0.684340  0.625590  0.247900  1.0  0.0891
  H  H6  1  0.256950  0.439310  0.475160  1.0  0.0908
  H  H7  1  0.778570  0.425370  0.396010  1.0  0.0772
  H  H8  1  0.067760  0.874410  0.247900  1.0  0.0899
  H  H9  1  0.267890  0.060690  0.475160  1.0  0.0868
  H  H10  1  0.825420  0.074630  0.396000  1.0  0.0808
  H  H11  1  0.190070  0.625590  0.252100  1.0  0.0892
  H  H12  1  0.803750  0.439310  0.024840  1.0  0.087
  H  H13  1  0.296050  0.425370  0.104000  1.0  0.0778
  H  H14  1  0.557830  0.874410  0.252100  1.0  0.0902
  H  H15  1  0.171410  0.060690  0.024840  1.0  0.0858
  H  H16  1  0.599950  0.074630  0.104000  1.0  0.0766
  H  H17  1  0.315660  0.374410  0.752100  1.0  0.089
  H  H18  1  0.743050  0.560690  0.524840  1.0  0.0861
  H  H19  1  0.221430  0.574630  0.603990  1.0  0.0783
  H  H20  1  0.932240  0.125590  0.752100  1.0  0.0896
  H  H21  1  0.727600  0.946970  0.515960  1.0  0.099
  H  H22  1  0.177550  0.926750  0.602950  1.0  0.0789
  H  H23  1  0.809930  0.374410  0.747900  1.0  0.0883
  H  H24  1  0.196250  0.560690  0.975160  1.0  0.087
  H  H25  1  0.707250  0.573250  0.897050  1.0  0.0805
  H  H26  1  0.442170  0.125590  0.747900  1.0  0.091
  H  H27  1  0.828590  0.939310  0.975160  1.0  0.0867
  H  H28  1  0.400050  0.925370  0.896000  1.0  0.0778
  C  C29  1  0.769150  0.680540  0.249360  1.0  0.0443
  C  C30  1  0.533310  0.359480  0.366500  1.0  0.6678
  C  C31  1  0.520620  0.437460  0.438500  1.0  -0.1449
  C  C32  1  0.356620  0.469460  0.489900  1.0  -0.0602
  C  C33  1  0.656500  0.460740  0.443660  1.0  -0.1058
  C  C34  1  0.981490  0.819460  0.249360  1.0  0.0404
  C  C35  1  0.100190  0.140520  0.366500  1.0  0.6605
  C  C36  1  0.040880  0.062540  0.438500  1.0  -0.1421
  C  C37  1  0.153480  0.030540  0.489900  1.0  -0.0564
  C  C38  1  0.899840  0.039260  0.443660  1.0  -0.1314
  C  C39  1  0.050310  0.680540  0.250640  1.0  0.0435
  C  C40  1  0.607210  0.359480  0.133500  1.0  0.6637
  C  C41  1  0.541920  0.437460  0.061500  1.0  -0.1538
  C  C42  1  0.673920  0.469460  0.010100  1.0  -0.0529
  C  C43  1  0.382760  0.460740  0.056340  1.0  -0.1066
  C  C44  1  0.699050  0.819460  0.250640  1.0  0.0399
  C  C45  1  0.259290  0.140520  0.133500  1.0  0.6608
  C  C46  1  0.396580  0.062540  0.061500  1.0  -0.1425
  C  C47  1  0.315980  0.030540  0.010100  1.0  -0.0533
  C  C48  1  0.560900  0.039260  0.056340  1.0  -0.1035
  C  C49  1  0.230850  0.319460  0.750640  1.0  0.0424
  C  C50  1  0.466690  0.640520  0.633500  1.0  0.6639
  C  C51  1  0.479380  0.562540  0.561500  1.0  -0.1428
  C  C52  1  0.643380  0.530540  0.510100  1.0  -0.0559
  C  C53  1  0.343500  0.539260  0.556340  1.0  -0.1064
  C  C54  1  0.018510  0.180540  0.750640  1.0  0.0448
  C  C55  1  0.899810  0.859480  0.633500  1.0  0.6205
  C  C56  1  0.959120  0.937460  0.561500  1.0  -0.1648
  C  C57  1  0.846520  0.969460  0.510100  1.0  -0.0629
  C  C58  1  0.100160  0.960740  0.556340  1.0  -0.0582
  C  C59  1  0.949690  0.319460  0.749360  1.0  0.046
  C  C60  1  0.392790  0.640520  0.866500  1.0  0.6639
  C  C61  1  0.458080  0.562540  0.938500  1.0  -0.1495
  C  C62  1  0.326080  0.530540  0.989900  1.0  -0.0515
  C  C63  1  0.617240  0.539260  0.943660  1.0  -0.0645
  C  C64  1  0.300950  0.180540  0.749360  1.0  0.0418
  C  C65  1  0.740710  0.859480  0.866500  1.0  0.6603
  C  C66  1  0.603420  0.937460  0.938500  1.0  -0.1424
  C  C67  1  0.684020  0.969460  0.989900  1.0  -0.0533
  C  C68  1  0.439100  0.960740  0.943660  1.0  -0.1046
  C  C69  1  0.013640  0.472720  0.250000  1.0  0.6676
  C  C70  1  0.939220  0.621560  0.250000  1.0  -0.0749
  C  C71  1  0.736360  0.027280  0.250000  1.0  0.669
  C  C72  1  0.810780  0.878440  0.250000  1.0  -0.0779
  C  C73  1  0.986360  0.527280  0.750000  1.0  0.6716
  C  C74  1  0.060780  0.378440  0.750000  1.0  -0.0752
  C  C75  1  0.263640  0.972720  0.750000  1.0  0.6711
  C  C76  1  0.189220  0.121560  0.750000  1.0  -0.0766
  O  O77  1  0.150990  0.416140  0.270780  1.0  -0.6926
  O  O78  1  0.416870  0.330760  0.359360  1.0  -0.5985
  O  O79  1  0.672330  0.329960  0.315780  1.0  -0.6954
  O  O80  1  0.578230  0.083860  0.270780  1.0  -0.6904
  O  O81  1  0.223770  0.169240  0.359360  1.0  -0.6017
  O  O82  1  0.011890  0.170040  0.315780  1.0  -0.6944
  O  O83  1  0.932870  0.416140  0.229220  1.0  -0.6904
  O  O84  1  0.752370  0.330760  0.140640  1.0  -0.6
  O  O85  1  0.497710  0.329960  0.184220  1.0  -0.6938
  O  O86  1  0.837910  0.083860  0.229220  1.0  -0.6912
  O  O87  1  0.106990  0.169240  0.140640  1.0  -0.5995
  O  O88  1  0.318070  0.170040  0.184220  1.0  -0.6949
  O  O89  1  0.849010  0.583860  0.729220  1.0  -0.6903
  O  O90  1  0.583130  0.669240  0.640640  1.0  -0.6018
  O  O91  1  0.327670  0.670040  0.684220  1.0  -0.694
  O  O92  1  0.421770  0.916140  0.729220  1.0  -0.6893
  O  O93  1  0.776230  0.830760  0.640640  1.0  -0.6297
  O  O94  1  0.988110  0.829960  0.684220  1.0  -0.6976
  O  O95  1  0.067130  0.583860  0.770780  1.0  -0.6899
  O  O96  1  0.247630  0.669240  0.859360  1.0  -0.6
  O  O97  1  0.502290  0.670040  0.815780  1.0  -0.6969
  O  O98  1  0.162090  0.916140  0.770780  1.0  -0.6895
  O  O99  1  0.893010  0.830760  0.859360  1.0  -0.602
  O  O100  1  0.681930  0.829960  0.815780  1.0  -0.6956
