# generated using pymatgen
data_ScH6(C2O)6
_symmetry_space_group_name_H-M   'P 1'
_cell_length_a   8.70470000
_cell_length_b   11.23660000
_cell_length_c   17.72930000
_cell_angle_alpha   84.54370000
_cell_angle_beta   75.78960000
_cell_angle_gamma   67.21100000
_symmetry_Int_Tables_number   1
_chemical_formula_structural   ScH6(C2O)6
_chemical_formula_sum   'Sc4 H24 C48 O24'
_cell_volume   1549.83402319
_cell_formula_units_Z   4
loop_
 _symmetry_equiv_pos_site_id
 _symmetry_equiv_pos_as_xyz
  1  'x, y, z'
loop_
 _atom_site_type_symbol
 _atom_site_label
 _atom_site_symmetry_multiplicity
 _atom_site_fract_x
 _atom_site_fract_y
 _atom_site_fract_z
 _atom_site_occupancy
 _atom_site_charge
  Sc  Sc1  1  0.635730  0.250000  0.728540  1.0  2.1024
  Sc  Sc2  1  0.114270  0.250000  0.771460  1.0  2.1024
  Sc  Sc3  1  0.364270  0.750000  0.271460  1.0  2.1032
  Sc  Sc4  1  0.885730  0.750000  0.228540  1.0  2.1018
  H  H5  1  0.933200  0.627370  0.751300  1.0  0.1093
  H  H6  1  0.742610  0.436350  0.516050  1.0  0.1092
  H  H7  1  0.181430  0.421210  0.599410  1.0  0.0988
  H  H8  1  0.315510  0.872630  0.751300  1.0  0.1087
  H  H9  1  0.741340  0.063650  0.516050  1.0  0.1117
  H  H10  1  0.219160  0.078790  0.599410  1.0  0.0988
  H  H11  1  0.439430  0.627370  0.748700  1.0  0.11
  H  H12  1  0.821050  0.436350  0.983950  1.0  0.1091
  H  H13  1  0.397360  0.421210  0.900590  1.0  0.0998
  H  H14  1  0.811860  0.872630  0.748700  1.0  0.1084
  H  H15  1  0.195000  0.063650  0.983950  1.0  0.1096
  H  H16  1  0.702050  0.078790  0.900590  1.0  0.1003
  H  H17  1  0.066800  0.372630  0.248700  1.0  0.1098
  H  H18  1  0.257390  0.563650  0.483950  1.0  0.108
  H  H19  1  0.818570  0.578790  0.400590  1.0  0.0999
  H  H20  1  0.684490  0.127370  0.248700  1.0  0.1083
  H  H21  1  0.254310  0.939020  0.486980  1.0  0.1135
  H  H22  1  0.780990  0.921340  0.400680  1.0  0.1005
  H  H23  1  0.560570  0.372630  0.251300  1.0  0.1097
  H  H24  1  0.178950  0.563650  0.016050  1.0  0.1093
  H  H25  1  0.603010  0.578660  0.099320  1.0  0.0993
  H  H26  1  0.188140  0.127370  0.251300  1.0  0.109
  H  H27  1  0.805000  0.936350  0.016050  1.0  0.1099
  H  H28  1  0.297670  0.921340  0.099320  1.0  0.0999
  C  C29  1  0.019560  0.682380  0.750380  1.0  -0.1049
  C  C30  1  0.900770  0.359700  0.632960  1.0  0.6838
  C  C31  1  0.952570  0.435180  0.564080  1.0  -0.0686
  C  C32  1  0.854970  0.468140  0.508520  1.0  -0.1103
  C  C33  1  0.098420  0.459700  0.555060  1.0  -0.109
  C  C34  1  0.230060  0.817620  0.750380  1.0  -0.1065
  C  C35  1  0.466270  0.140300  0.632960  1.0  0.6877
  C  C36  1  0.483350  0.064820  0.564080  1.0  -0.0717
  C  C37  1  0.636510  0.031860  0.508520  1.0  -0.1131
  C  C38  1  0.346520  0.040300  0.555060  1.0  -0.1027
  C  C39  1  0.298060  0.682380  0.749620  1.0  -0.1072
  C  C40  1  0.739530  0.359700  0.867040  1.0  0.6831
  C  C41  1  0.612250  0.435180  0.935920  1.0  -0.0684
  C  C42  1  0.676890  0.468140  0.991480  1.0  -0.1125
  C  C43  1  0.441880  0.459700  0.944940  1.0  -0.1098
  C  C44  1  0.952320  0.817620  0.749620  1.0  -0.1051
  C  C45  1  0.393430  0.140300  0.867040  1.0  0.6885
  C  C46  1  0.451830  0.064820  0.935920  1.0  -0.0699
  C  C47  1  0.331630  0.031860  0.991480  1.0  -0.1115
  C  C48  1  0.613180  0.040300  0.944940  1.0  -0.1129
  C  C49  1  0.980440  0.317620  0.249620  1.0  -0.1066
  C  C50  1  0.099230  0.640300  0.367040  1.0  0.6838
  C  C51  1  0.047430  0.564820  0.435920  1.0  -0.0677
  C  C52  1  0.145030  0.531860  0.491480  1.0  -0.1127
  C  C53  1  0.901580  0.540300  0.444940  1.0  -0.1093
  C  C54  1  0.769940  0.182380  0.249620  1.0  -0.105
  C  C55  1  0.533730  0.859700  0.367040  1.0  0.6999
  C  C56  1  0.516650  0.935180  0.435920  1.0  -0.0679
  C  C57  1  0.363490  0.968140  0.491480  1.0  -0.1141
  C  C58  1  0.653480  0.959700  0.444940  1.0  -0.1113
  C  C59  1  0.701940  0.317620  0.250380  1.0  -0.1043
  C  C60  1  0.260470  0.640300  0.132960  1.0  0.6842
  C  C61  1  0.387750  0.564820  0.064080  1.0  -0.0675
  C  C62  1  0.323110  0.531860  0.008520  1.0  -0.1104
  C  C63  1  0.558120  0.540300  0.055060  1.0  -0.1062
  C  C64  1  0.047680  0.182380  0.250380  1.0  -0.1082
  C  C65  1  0.606570  0.859700  0.132960  1.0  0.6871
  C  C66  1  0.548170  0.935180  0.064080  1.0  -0.0701
  C  C67  1  0.668370  0.968140  0.008520  1.0  -0.113
  C  C68  1  0.386820  0.959700  0.055060  1.0  -0.1096
  C  C69  1  0.262340  0.475320  0.750000  1.0  0.6837
  C  C70  1  0.191150  0.617700  0.750000  1.0  -0.0741
  C  C71  1  0.987660  0.024680  0.750000  1.0  0.6841
  C  C72  1  0.058850  0.882300  0.750000  1.0  -0.0752
  C  C73  1  0.737660  0.524680  0.250000  1.0  0.6839
  C  C74  1  0.808850  0.382300  0.250000  1.0  -0.0742
  C  C75  1  0.012340  0.975320  0.250000  1.0  0.6837
  C  C76  1  0.941150  0.117700  0.250000  1.0  -0.0745
  O  O77  1  0.420440  0.416440  0.729080  1.0  -0.6713
  O  O78  1  0.777690  0.330920  0.641700  1.0  -0.6065
  O  O79  1  0.986530  0.331400  0.684340  1.0  -0.6885
  O  O80  1  0.850480  0.083560  0.729080  1.0  -0.6718
  O  O81  1  0.580610  0.169080  0.641700  1.0  -0.6048
  O  O82  1  0.329130  0.168600  0.684340  1.0  -0.687
  O  O83  1  0.163120  0.416440  0.770920  1.0  -0.6709
  O  O84  1  0.891390  0.330920  0.858300  1.0  -0.6069
  O  O85  1  0.682070  0.331400  0.815660  1.0  -0.6881
  O  O86  1  0.065960  0.083560  0.770920  1.0  -0.6737
  O  O87  1  0.250310  0.169080  0.858300  1.0  -0.6044
  O  O88  1  0.502270  0.168600  0.815660  1.0  -0.6889
  O  O89  1  0.579560  0.583560  0.270920  1.0  -0.6713
  O  O90  1  0.222310  0.669080  0.358300  1.0  -0.6068
  O  O91  1  0.013470  0.668600  0.315660  1.0  -0.6885
  O  O92  1  0.149520  0.916440  0.270920  1.0  -0.6744
  O  O93  1  0.419390  0.830920  0.358300  1.0  -0.6044
  O  O94  1  0.670870  0.831400  0.315660  1.0  -0.6899
  O  O95  1  0.836880  0.583560  0.229080  1.0  -0.672
  O  O96  1  0.108610  0.669080  0.141700  1.0  -0.6063
  O  O97  1  0.317930  0.668600  0.184340  1.0  -0.6885
  O  O98  1  0.934040  0.916440  0.229080  1.0  -0.67
  O  O99  1  0.749690  0.830920  0.141700  1.0  -0.6051
  O  O100  1  0.497730  0.831400  0.184340  1.0  -0.6882
