# generated using pymatgen
data_ScH6(C2O)6
_symmetry_space_group_name_H-M   'P 1'
_cell_length_a   8.75470000
_cell_length_b   11.16970000
_cell_length_c   17.73590000
_cell_angle_alpha   95.24680000
_cell_angle_beta   104.28900000
_cell_angle_gamma   68.25250000
_symmetry_Int_Tables_number   1
_chemical_formula_structural   ScH6(C2O)6
_chemical_formula_sum   'Sc4 H24 C48 O24'
_cell_volume   1561.06977113
_cell_formula_units_Z   4
loop_
 _symmetry_equiv_pos_site_id
 _symmetry_equiv_pos_as_xyz
  1  'x, y, z'
loop_
 _atom_site_type_symbol
 _atom_site_label
 _atom_site_symmetry_multiplicity
 _atom_site_fract_x
 _atom_site_fract_y
 _atom_site_fract_z
 _atom_site_occupancy
 _atom_site_charge
  Sc  Sc1  1  0.365560  0.250000  0.731120  1.0  2.0946
  Sc  Sc2  1  0.634440  0.750000  0.268880  1.0  2.0754
  Sc  Sc3  1  0.886690  0.250000  0.773380  1.0  2.0822
  Sc  Sc4  1  0.113310  0.750000  0.226620  1.0  2.0828
  H  H5  1  0.180460  0.640390  0.742340  1.0  0.1216
  H  H6  1  0.699740  0.616050  0.756140  1.0  0.116
  H  H7  1  0.603690  0.086900  0.903780  1.0  0.109
  H  H8  1  0.185630  0.064130  0.986710  1.0  0.1075
  H  H9  1  0.265270  0.428880  0.513970  1.0  0.119
  H  H10  1  0.772200  0.441600  0.604140  1.0  0.1087
  H  H11  1  0.561890  0.859610  0.742340  1.0  0.1209
  H  H12  1  0.056790  0.883640  0.756140  1.0  0.1182
  H  H13  1  0.300090  0.413100  0.903780  1.0  0.1098
  H  H14  1  0.801080  0.435870  0.986710  1.0  0.1084
  H  H15  1  0.248690  0.071120  0.513970  1.0  0.1198
  H  H16  1  0.831940  0.058400  0.604140  1.0  0.109
  H  H17  1  0.819540  0.359610  0.257660  1.0  0.1207
  H  H18  1  0.300260  0.383950  0.243860  1.0  0.1171
  H  H19  1  0.396310  0.913100  0.096220  1.0  0.1091
  H  H20  1  0.814110  0.936370  0.012720  1.0  0.1176
  H  H21  1  0.735150  0.570880  0.486350  1.0  0.1266
  H  H22  1  0.227800  0.558400  0.395860  1.0  0.1097
  H  H23  1  0.438110  0.140390  0.257660  1.0  0.1224
  H  H24  1  0.943590  0.116050  0.243860  1.0  0.115
  H  H25  1  0.701030  0.586400  0.095820  1.0  0.1089
  H  H26  1  0.198920  0.564130  0.013290  1.0  0.108
  H  H27  1  0.751310  0.928880  0.486030  1.0  0.1251
  H  H28  1  0.168470  0.941820  0.396030  1.0  0.1083
  C  C29  1  0.024400  0.476520  0.752600  1.0  0.6781
  C  C30  1  0.949200  0.616310  0.753600  1.0  -0.0476
  C  C31  1  0.045000  0.689800  0.749200  1.0  -0.1122
  C  C32  1  0.778400  0.676400  0.753200  1.0  -0.1109
  C  C33  1  0.259190  0.140100  0.870580  1.0  0.7079
  C  C34  1  0.387850  0.063100  0.933700  1.0  -0.069
  C  C35  1  0.558480  0.043100  0.945560  1.0  -0.0968
  C  C36  1  0.327500  0.030500  0.991400  1.0  -0.1042
  C  C37  1  0.544370  0.359800  0.633940  1.0  0.6707
  C  C38  1  0.516880  0.435500  0.566360  1.0  -0.0442
  C  C39  1  0.369770  0.462500  0.507940  1.0  -0.099
  C  C40  1  0.649010  0.469500  0.557620  1.0  -0.093
  C  C41  1  0.728200  0.023480  0.752600  1.0  0.6788
  C  C42  1  0.804400  0.883690  0.753600  1.0  -0.0435
  C  C43  1  0.704200  0.810200  0.749200  1.0  -0.11
  C  C44  1  0.974800  0.823600  0.753200  1.0  -0.1202
  C  C45  1  0.611390  0.359900  0.870580  1.0  0.7069
  C  C46  1  0.545850  0.436900  0.933700  1.0  -0.0699
  C  C47  1  0.387080  0.456900  0.945560  1.0  -0.097
  C  C48  1  0.663900  0.469500  0.991400  1.0  -0.1049
  C  C49  1  0.089570  0.140200  0.633940  1.0  0.6686
  C  C50  1  0.049480  0.064500  0.566360  1.0  -0.0556
  C  C51  1  0.138170  0.037500  0.507940  1.0  -0.1005
  C  C52  1  0.908610  0.030500  0.557620  1.0  -0.0919
  C  C53  1  0.975600  0.523480  0.247400  1.0  0.68
  C  C54  1  0.050800  0.383690  0.246400  1.0  -0.0474
  C  C55  1  0.955000  0.310200  0.250800  1.0  -0.1115
  C  C56  1  0.221600  0.323600  0.246800  1.0  -0.1114
  C  C57  1  0.740810  0.859900  0.129420  1.0  0.7051
  C  C58  1  0.612150  0.936900  0.066300  1.0  -0.064
  C  C59  1  0.441520  0.956900  0.054440  1.0  -0.0952
  C  C60  1  0.672500  0.969500  0.008600  1.0  -0.0795
  C  C61  1  0.455630  0.640200  0.366060  1.0  0.6702
  C  C62  1  0.483120  0.564500  0.433640  1.0  -0.0319
  C  C63  1  0.630230  0.537500  0.492060  1.0  -0.0986
  C  C64  1  0.350990  0.530500  0.442380  1.0  -0.0956
  C  C65  1  0.271800  0.976520  0.247400  1.0  0.6779
  C  C66  1  0.195600  0.116310  0.246400  1.0  -0.0474
  C  C67  1  0.295800  0.189800  0.250800  1.0  -0.1114
  C  C68  1  0.025200  0.176400  0.246800  1.0  -0.1089
  C  C69  1  0.388610  0.640100  0.129420  1.0  0.7089
  C  C70  1  0.454150  0.563100  0.066300  1.0  -0.0695
  C  C71  1  0.612920  0.543100  0.054440  1.0  -0.0938
  C  C72  1  0.336100  0.530500  0.008600  1.0  -0.1028
  C  C73  1  0.910430  0.859800  0.366060  1.0  0.6686
  C  C74  1  0.950520  0.935500  0.433640  1.0  -0.0328
  C  C75  1  0.861830  0.962500  0.492060  1.0  -0.0989
  C  C76  1  0.091390  0.969500  0.442380  1.0  -0.0917
  O  O77  1  0.162460  0.422300  0.730520  1.0  -0.673
  O  O78  1  0.950000  0.410800  0.773600  1.0  -0.6926
  O  O79  1  0.309310  0.176300  0.819020  1.0  -0.7144
  O  O80  1  0.102280  0.164500  0.861360  1.0  -0.6315
  O  O81  1  0.428540  0.323800  0.643480  1.0  -0.6614
  O  O82  1  0.677870  0.343700  0.686940  1.0  -0.6866
  O  O83  1  0.568060  0.077700  0.730520  1.0  -0.6738
  O  O84  1  0.823600  0.089200  0.773600  1.0  -0.6919
  O  O85  1  0.509710  0.323700  0.819020  1.0  -0.713
  O  O86  1  0.759080  0.335500  0.861360  1.0  -0.6326
  O  O87  1  0.214940  0.176200  0.643480  1.0  -0.6614
  O  O88  1  0.009070  0.156300  0.686940  1.0  -0.6859
  O  O89  1  0.837540  0.577700  0.269480  1.0  -0.6749
  O  O90  1  0.050000  0.589200  0.226400  1.0  -0.6925
  O  O91  1  0.690690  0.823700  0.180980  1.0  -0.7154
  O  O92  1  0.897720  0.835500  0.138640  1.0  -0.6398
  O  O93  1  0.571460  0.676200  0.356520  1.0  -0.6614
  O  O94  1  0.322130  0.656300  0.313060  1.0  -0.6863
  O  O95  1  0.431940  0.922300  0.269480  1.0  -0.6748
  O  O96  1  0.176400  0.910800  0.226400  1.0  -0.6914
  O  O97  1  0.490290  0.676300  0.180980  1.0  -0.7125
  O  O98  1  0.240920  0.664500  0.138640  1.0  -0.6316
  O  O99  1  0.785060  0.823800  0.356520  1.0  -0.6631
  O  O100  1  0.990930  0.843700  0.313060  1.0  -0.6888
