# generated using pymatgen
data_ScH6(C2O)6
_symmetry_space_group_name_H-M   'P 1'
_cell_length_a   8.75290000
_cell_length_b   11.26260000
_cell_length_c   17.72760000
_cell_angle_alpha   84.49510000
_cell_angle_beta   75.70760000
_cell_angle_gamma   67.13400000
_symmetry_Int_Tables_number   1
_chemical_formula_structural   ScH6(C2O)6
_chemical_formula_sum   'Sc4 H24 C48 O24'
_cell_volume   1560.42140866
_cell_formula_units_Z   4
loop_
 _symmetry_equiv_pos_site_id
 _symmetry_equiv_pos_as_xyz
  1  'x, y, z'
loop_
 _atom_site_type_symbol
 _atom_site_label
 _atom_site_symmetry_multiplicity
 _atom_site_fract_x
 _atom_site_fract_y
 _atom_site_fract_z
 _atom_site_occupancy
 _atom_site_charge
  Sc  Sc1  1  0.635780  0.250000  0.728440  1.0  2.111
  Sc  Sc2  1  0.114220  0.250000  0.771560  1.0  2.1125
  Sc  Sc3  1  0.364220  0.750000  0.271560  1.0  2.1118
  Sc  Sc4  1  0.885780  0.750000  0.228440  1.0  2.1109
  H  H5  1  0.936800  0.628200  0.747310  1.0  0.1119
  H  H6  1  0.749370  0.433370  0.512910  1.0  0.1102
  H  H7  1  0.179840  0.423910  0.600320  1.0  0.1006
  H  H8  1  0.315890  0.871800  0.747310  1.0  0.1106
  H  H9  1  0.737720  0.066630  0.512910  1.0  0.1083
  H  H10  1  0.219830  0.076090  0.600320  1.0  0.1028
  H  H11  1  0.435000  0.628210  0.752690  1.0  0.1117
  H  H12  1  0.817260  0.433370  0.987090  1.0  0.1114
  H  H13  1  0.396250  0.423910  0.899680  1.0  0.1012
  H  H14  1  0.812310  0.871790  0.752690  1.0  0.1108
  H  H15  1  0.195650  0.066630  0.987090  1.0  0.1116
  H  H16  1  0.704070  0.076090  0.899680  1.0  0.1017
  H  H17  1  0.063200  0.371800  0.252690  1.0  0.1103
  H  H18  1  0.250630  0.566630  0.487090  1.0  0.1113
  H  H19  1  0.818980  0.575470  0.400130  1.0  0.1014
  H  H20  1  0.684110  0.128200  0.252690  1.0  0.1096
  H  H21  1  0.260900  0.934220  0.488060  1.0  0.1081
  H  H22  1  0.780900  0.924530  0.400130  1.0  0.1021
  H  H23  1  0.565000  0.371790  0.247310  1.0  0.1103
  H  H24  1  0.182740  0.566630  0.012910  1.0  0.1104
  H  H25  1  0.605560  0.575470  0.099870  1.0  0.1013
  H  H26  1  0.187690  0.128210  0.247310  1.0  0.1095
  H  H27  1  0.804350  0.933370  0.012910  1.0  0.1116
  H  H28  1  0.294570  0.924530  0.099870  1.0  0.1022
  C  C29  1  0.021170  0.683080  0.749220  1.0  -0.1068
  C  C30  1  0.905620  0.359080  0.630280  1.0  0.6575
  C  C31  1  0.952650  0.433800  0.564500  1.0  -0.0311
  C  C32  1  0.859410  0.466340  0.507380  1.0  -0.1166
  C  C33  1  0.097640  0.461100  0.555780  1.0  -0.1026
  C  C34  1  0.229610  0.816920  0.749220  1.0  -0.1085
  C  C35  1  0.464100  0.140920  0.630280  1.0  0.658
  C  C36  1  0.482850  0.066200  0.564500  1.0  -0.03
  C  C37  1  0.633210  0.033660  0.507380  1.0  -0.1188
  C  C38  1  0.346580  0.038900  0.555780  1.0  -0.1083
  C  C39  1  0.295750  0.683080  0.750780  1.0  -0.1074
  C  C40  1  0.735300  0.359080  0.869720  1.0  0.6551
  C  C41  1  0.613550  0.433800  0.935500  1.0  -0.0305
  C  C42  1  0.674250  0.466340  0.992620  1.0  -0.1184
  C  C43  1  0.441260  0.461100  0.944220  1.0  -0.1024
  C  C44  1  0.953470  0.816920  0.750780  1.0  -0.1054
  C  C45  1  0.394980  0.140920  0.869720  1.0  0.6589
  C  C46  1  0.450950  0.066200  0.935500  1.0  -0.0303
  C  C47  1  0.333130  0.033660  0.992620  1.0  -0.1172
  C  C48  1  0.614520  0.038900  0.944220  1.0  -0.1063
  C  C49  1  0.978830  0.316920  0.250780  1.0  -0.1069
  C  C50  1  0.094380  0.640920  0.369720  1.0  0.6544
  C  C51  1  0.047350  0.566200  0.435500  1.0  -0.0319
  C  C52  1  0.140590  0.533660  0.492620  1.0  -0.1186
  C  C53  1  0.902360  0.538900  0.444220  1.0  -0.0866
  C  C54  1  0.770390  0.183080  0.250780  1.0  -0.1058
  C  C55  1  0.535900  0.859080  0.369720  1.0  0.658
  C  C56  1  0.517150  0.933800  0.435500  1.0  -0.0321
  C  C57  1  0.366790  0.966340  0.492620  1.0  -0.1124
  C  C58  1  0.653420  0.961100  0.444220  1.0  -0.0928
  C  C59  1  0.704250  0.316920  0.249220  1.0  -0.1053
  C  C60  1  0.264700  0.640920  0.130280  1.0  0.6566
  C  C61  1  0.386450  0.566200  0.064500  1.0  -0.0322
  C  C62  1  0.325750  0.533660  0.007380  1.0  -0.1161
  C  C63  1  0.558740  0.538900  0.055780  1.0  -0.0866
  C  C64  1  0.046530  0.183080  0.249220  1.0  -0.1077
  C  C65  1  0.605020  0.859080  0.130280  1.0  0.6571
  C  C66  1  0.549050  0.933800  0.064500  1.0  -0.0318
  C  C67  1  0.666870  0.966340  0.007380  1.0  -0.1186
  C  C68  1  0.385480  0.961100  0.055780  1.0  -0.092
  C  C69  1  0.261010  0.477980  0.750000  1.0  0.714
  C  C70  1  0.191620  0.616760  0.750000  1.0  -0.0352
  C  C71  1  0.988990  0.022020  0.750000  1.0  0.7154
  C  C72  1  0.058380  0.883240  0.750000  1.0  -0.0346
  C  C73  1  0.738990  0.522020  0.250000  1.0  0.7126
  C  C74  1  0.808380  0.383240  0.250000  1.0  -0.0346
  C  C75  1  0.011010  0.977980  0.250000  1.0  0.7112
  C  C76  1  0.941620  0.116760  0.250000  1.0  -0.0351
  O  O77  1  0.420460  0.416400  0.729080  1.0  -0.6868
  O  O78  1  0.775820  0.330380  0.639980  1.0  -0.6381
  O  O79  1  0.985430  0.332560  0.684380  1.0  -0.6966
  O  O80  1  0.850460  0.083600  0.729080  1.0  -0.6892
  O  O81  1  0.584200  0.169620  0.639980  1.0  -0.6358
  O  O82  1  0.330190  0.167440  0.684380  1.0  -0.6952
  O  O83  1  0.163140  0.416400  0.770920  1.0  -0.6891
  O  O84  1  0.893800  0.330380  0.860020  1.0  -0.6385
  O  O85  1  0.682010  0.332560  0.815620  1.0  -0.6967
  O  O86  1  0.065940  0.083600  0.770920  1.0  -0.6895
  O  O87  1  0.246180  0.169620  0.860020  1.0  -0.6368
  O  O88  1  0.502370  0.167440  0.815620  1.0  -0.6968
  O  O89  1  0.579540  0.583600  0.270920  1.0  -0.6886
  O  O90  1  0.224180  0.669620  0.360020  1.0  -0.6383
  O  O91  1  0.014570  0.667440  0.315620  1.0  -0.6952
  O  O92  1  0.149540  0.916400  0.270920  1.0  -0.6904
  O  O93  1  0.415800  0.830380  0.360020  1.0  -0.6376
  O  O94  1  0.669810  0.832560  0.315620  1.0  -0.6976
  O  O95  1  0.836860  0.583600  0.229080  1.0  -0.6871
  O  O96  1  0.106200  0.669620  0.139980  1.0  -0.6377
  O  O97  1  0.317990  0.667440  0.184380  1.0  -0.6964
  O  O98  1  0.934060  0.916400  0.229080  1.0  -0.6883
  O  O99  1  0.753820  0.830380  0.139980  1.0  -0.6358
  O  O100  1  0.497630  0.832560  0.184380  1.0  -0.6964
