# generated using pymatgen
data_ScH6(C2O)6
_symmetry_space_group_name_H-M   'P 1'
_cell_length_a   8.75430000
_cell_length_b   11.14540000
_cell_length_c   17.74110000
_cell_angle_alpha   95.18320000
_cell_angle_beta   104.28400000
_cell_angle_gamma   68.52100000
_symmetry_Int_Tables_number   1
_chemical_formula_structural   ScH6(C2O)6
_chemical_formula_sum   'Sc4 H24 C48 O24'
_cell_volume   1560.98928391
_cell_formula_units_Z   4
loop_
 _symmetry_equiv_pos_site_id
 _symmetry_equiv_pos_as_xyz
  1  'x, y, z'
loop_
 _atom_site_type_symbol
 _atom_site_label
 _atom_site_symmetry_multiplicity
 _atom_site_fract_x
 _atom_site_fract_y
 _atom_site_fract_z
 _atom_site_occupancy
 _atom_site_charge
  Sc  Sc1  1  0.366040  0.250000  0.732080  1.0  2.114
  Sc  Sc2  1  0.633960  0.750000  0.267920  1.0  2.1151
  Sc  Sc3  1  0.887140  0.250000  0.774280  1.0  2.1173
  Sc  Sc4  1  0.112860  0.750000  0.225720  1.0  2.1171
  H  H5  1  0.176780  0.642140  0.740550  1.0  0.1151
  H  H6  1  0.697800  0.614810  0.746070  1.0  0.108
  H  H7  1  0.588070  0.100950  0.905370  1.0  0.1089
  H  H8  1  0.191370  0.068330  0.996050  1.0  0.1166
  H  H9  1  0.260360  0.443910  0.520880  1.0  0.1173
  H  H10  1  0.758860  0.463910  0.608330  1.0  0.1061
  H  H11  1  0.563770  0.857860  0.740550  1.0  0.1149
  H  H12  1  0.048390  0.885090  0.746060  1.0  0.1107
  H  H13  1  0.317300  0.399050  0.905370  1.0  0.1112
  H  H14  1  0.804680  0.431670  0.996050  1.0  0.118
  H  H15  1  0.260530  0.056090  0.520880  1.0  0.118
  H  H16  1  0.849460  0.036090  0.608330  1.0  0.1067
  H  H17  1  0.823220  0.357860  0.259450  1.0  0.1122
  H  H18  1  0.302200  0.385190  0.253930  1.0  0.1098
  H  H19  1  0.411930  0.899050  0.094630  1.0  0.1108
  H  H20  1  0.808100  0.932530  0.003010  1.0  0.117
  H  H21  1  0.740210  0.555760  0.479530  1.0  0.1179
  H  H22  1  0.241140  0.536090  0.391670  1.0  0.1063
  H  H23  1  0.436230  0.142140  0.259450  1.0  0.1162
  H  H24  1  0.951740  0.114810  0.253930  1.0  0.1098
  H  H25  1  0.684380  0.600240  0.094090  1.0  0.1097
  H  H26  1  0.195320  0.568330  0.003950  1.0  0.1173
  H  H27  1  0.739470  0.943910  0.479120  1.0  0.117
  H  H28  1  0.151130  0.964260  0.391920  1.0  0.1058
  C  C29  1  0.023220  0.478150  0.749640  1.0  0.7938
  C  C30  1  0.950460  0.617580  0.756800  1.0  -0.0938
  C  C31  1  0.042470  0.691100  0.748600  1.0  -0.0809
  C  C32  1  0.779120  0.676080  0.750200  1.0  -0.0939
  C  C33  1  0.258550  0.138900  0.870960  1.0  0.7922
  C  C34  1  0.383170  0.061200  0.935020  1.0  -0.1095
  C  C35  1  0.550160  0.047920  0.945400  1.0  -0.0923
  C  C36  1  0.331010  0.029900  0.995500  1.0  -0.0733
  C  C37  1  0.545710  0.357200  0.632680  1.0  0.8019
  C  C38  1  0.522720  0.429190  0.564080  1.0  -0.1101
  C  C39  1  0.371250  0.464480  0.509760  1.0  -0.0771
  C  C40  1  0.645040  0.475470  0.557780  1.0  -0.0834
  C  C41  1  0.726420  0.021850  0.749640  1.0  0.7947
  C  C42  1  0.806340  0.882420  0.756800  1.0  -0.0928
  C  C43  1  0.706130  0.808900  0.748600  1.0  -0.0798
  C  C44  1  0.971080  0.823920  0.750200  1.0  -0.0951
  C  C45  1  0.612410  0.361100  0.870960  1.0  0.7905
  C  C46  1  0.551850  0.438800  0.935020  1.0  -0.1094
  C  C47  1  0.395240  0.452080  0.945400  1.0  -0.0948
  C  C48  1  0.664490  0.470100  0.995500  1.0  -0.075
  C  C49  1  0.086970  0.142800  0.632680  1.0  0.802
  C  C50  1  0.041360  0.070810  0.564080  1.0  -0.1114
  C  C51  1  0.138510  0.035520  0.509760  1.0  -0.0759
  C  C52  1  0.912740  0.024530  0.557780  1.0  -0.0814
  C  C53  1  0.976780  0.521850  0.250360  1.0  0.7943
  C  C54  1  0.049540  0.382420  0.243200  1.0  -0.0927
  C  C55  1  0.957530  0.308900  0.251400  1.0  -0.0804
  C  C56  1  0.220880  0.323920  0.249800  1.0  -0.095
  C  C57  1  0.741450  0.861100  0.129040  1.0  0.7928
  C  C58  1  0.616830  0.938800  0.064980  1.0  -0.1085
  C  C59  1  0.449840  0.952080  0.054600  1.0  -0.0914
  C  C60  1  0.668990  0.970100  0.004500  1.0  -0.0752
  C  C61  1  0.454290  0.642800  0.367320  1.0  0.7984
  C  C62  1  0.477280  0.570810  0.435920  1.0  -0.0986
  C  C63  1  0.628750  0.535520  0.490240  1.0  -0.0776
  C  C64  1  0.354960  0.524530  0.442220  1.0  -0.0842
  C  C65  1  0.273580  0.978150  0.250360  1.0  0.7936
  C  C66  1  0.193660  0.117580  0.243200  1.0  -0.0936
  C  C67  1  0.293870  0.191100  0.251400  1.0  -0.0818
  C  C68  1  0.028920  0.176080  0.249800  1.0  -0.0941
  C  C69  1  0.387590  0.638900  0.129040  1.0  0.794
  C  C70  1  0.448150  0.561200  0.064980  1.0  -0.1064
  C  C71  1  0.604760  0.547920  0.054600  1.0  -0.0957
  C  C72  1  0.335510  0.529900  0.004500  1.0  -0.0735
  C  C73  1  0.913030  0.857200  0.367320  1.0  0.8
  C  C74  1  0.958640  0.929190  0.435920  1.0  -0.0987
  C  C75  1  0.861490  0.964480  0.490240  1.0  -0.0766
  C  C76  1  0.087260  0.975470  0.442220  1.0  -0.0811
  O  O77  1  0.161670  0.423200  0.730740  1.0  -0.7239
  O  O78  1  0.966020  0.405910  0.774840  1.0  -0.7276
  O  O79  1  0.293210  0.180760  0.816620  1.0  -0.7686
  O  O80  1  0.103640  0.161400  0.860740  1.0  -0.6836
  O  O81  1  0.431810  0.323560  0.644500  1.0  -0.7062
  O  O82  1  0.671880  0.340100  0.688440  1.0  -0.7639
  O  O83  1  0.569070  0.076800  0.730740  1.0  -0.7261
  O  O84  1  0.808820  0.094090  0.774840  1.0  -0.7246
  O  O85  1  0.523410  0.319240  0.816620  1.0  -0.7665
  O  O86  1  0.757100  0.338600  0.860740  1.0  -0.6802
  O  O87  1  0.212690  0.176440  0.644500  1.0  -0.707
  O  O88  1  0.016560  0.159900  0.688440  1.0  -0.7628
  O  O89  1  0.838330  0.576800  0.269260  1.0  -0.7238
  O  O90  1  0.033980  0.594090  0.225160  1.0  -0.7272
  O  O91  1  0.706790  0.819240  0.183380  1.0  -0.7666
  O  O92  1  0.896360  0.838600  0.139260  1.0  -0.6797
  O  O93  1  0.568190  0.676440  0.355500  1.0  -0.7039
  O  O94  1  0.328120  0.659900  0.311560  1.0  -0.7624
  O  O95  1  0.430930  0.923200  0.269260  1.0  -0.7251
  O  O96  1  0.191180  0.905910  0.225160  1.0  -0.7277
  O  O97  1  0.476590  0.680760  0.183380  1.0  -0.7645
  O  O98  1  0.242900  0.661400  0.139260  1.0  -0.6816
  O  O99  1  0.787310  0.823560  0.355500  1.0  -0.7084
  O  O100  1  0.983440  0.840100  0.311560  1.0  -0.7658
