# generated using pymatgen
data_ScH6(C2O)6
_symmetry_space_group_name_H-M   'P 1'
_cell_length_a   8.74330000
_cell_length_b   11.25600000
_cell_length_c   17.73060000
_cell_angle_alpha   84.50500000
_cell_angle_beta   75.72600000
_cell_angle_gamma   67.14620000
_symmetry_Int_Tables_number   1
_chemical_formula_structural   ScH6(C2O)6
_chemical_formula_sum   'Sc4 H24 C48 O24'
_cell_volume   1558.32744523
_cell_formula_units_Z   4
loop_
 _symmetry_equiv_pos_site_id
 _symmetry_equiv_pos_as_xyz
  1  'x, y, z'
loop_
 _atom_site_type_symbol
 _atom_site_label
 _atom_site_symmetry_multiplicity
 _atom_site_fract_x
 _atom_site_fract_y
 _atom_site_fract_z
 _atom_site_occupancy
 _atom_site_charge
  Sc  Sc1  1  0.635680  0.750000  0.728640  1.0  2.1068
  Sc  Sc2  1  0.114320  0.750000  0.771360  1.0  2.1101
  Sc  Sc3  1  0.364320  0.250000  0.271360  1.0  2.1106
  Sc  Sc4  1  0.885680  0.250000  0.228640  1.0  2.1073
  H  H5  1  0.220500  0.550800  0.982200  1.0  0.1098
  H  H6  1  0.683800  0.571800  0.908600  1.0  0.0958
  H  H7  1  0.845100  0.362200  0.749600  1.0  0.0995
  H  H8  1  0.797300  0.949200  0.982200  1.0  0.1084
  H  H9  1  0.407600  0.928200  0.908600  1.0  0.0962
  H  H10  1  0.405300  0.137800  0.749600  1.0  0.0995
  H  H11  1  0.728700  0.550800  0.517800  1.0  0.1087
  H  H12  1  0.244400  0.571800  0.591400  1.0  0.0953
  H  H13  1  0.292700  0.362200  0.750400  1.0  0.0985
  H  H14  1  0.753500  0.949200  0.517800  1.0  0.1071
  H  H15  1  0.164200  0.928200  0.591400  1.0  0.0959
  H  H16  1  0.956900  0.137800  0.750400  1.0  0.1004
  H  H17  1  0.779500  0.449200  0.017800  1.0  0.1089
  H  H18  1  0.316200  0.428200  0.091400  1.0  0.0954
  H  H19  1  0.154900  0.637800  0.250400  1.0  0.0988
  H  H20  1  0.202700  0.050800  0.017800  1.0  0.1073
  H  H21  1  0.592400  0.071800  0.091400  1.0  0.0957
  H  H22  1  0.594700  0.862200  0.250400  1.0  0.0997
  H  H23  1  0.271300  0.449200  0.482200  1.0  0.1096
  H  H24  1  0.755600  0.428200  0.408600  1.0  0.0959
  H  H25  1  0.707300  0.637800  0.249600  1.0  0.1001
  H  H26  1  0.246500  0.050800  0.482200  1.0  0.1081
  H  H27  1  0.835800  0.071800  0.408600  1.0  0.0962
  H  H28  1  0.043100  0.862200  0.249600  1.0  0.0992
  C  C29  1  0.956290  0.316600  0.749020  1.0  -0.0656
  C  C30  1  0.449300  0.567140  0.935040  1.0  -0.1542
  C  C31  1  0.395790  0.639440  0.864600  1.0  0.7311
  C  C32  1  0.611960  0.538920  0.944560  1.0  -0.0542
  C  C33  1  0.337380  0.528300  0.990540  1.0  -0.1124
  C  C34  1  0.294690  0.183400  0.749020  1.0  -0.0646
  C  C35  1  0.615660  0.932860  0.935040  1.0  -0.1523
  C  C36  1  0.739610  0.860560  0.864600  1.0  0.7255
  C  C37  1  0.443480  0.961080  0.944560  1.0  -0.0547
  C  C38  1  0.672080  0.971700  0.990540  1.0  -0.1122
  C  C39  1  0.227110  0.316600  0.750980  1.0  -0.0652
  C  C40  1  0.483560  0.567140  0.564960  1.0  -0.1531
  C  C41  1  0.464770  0.639440  0.635400  1.0  0.7312
  C  C42  1  0.349120  0.538920  0.555440  1.0  -0.054
  C  C43  1  0.634320  0.528300  0.509460  1.0  -0.1121
  C  C44  1  0.021910  0.183400  0.750980  1.0  -0.065
  C  C45  1  0.951480  0.932860  0.564960  1.0  -0.1521
  C  C46  1  0.899830  0.860560  0.635400  1.0  0.7269
  C  C47  1  0.095440  0.961080  0.555440  1.0  -0.0544
  C  C48  1  0.856220  0.971700  0.509460  1.0  -0.1126
  C  C49  1  0.043710  0.683400  0.250980  1.0  -0.0659
  C  C50  1  0.550700  0.432860  0.064960  1.0  -0.153
  C  C51  1  0.604210  0.360560  0.135400  1.0  0.7299
  C  C52  1  0.388040  0.461080  0.055440  1.0  -0.0538
  C  C53  1  0.662620  0.471700  0.009460  1.0  -0.1119
  C  C54  1  0.705310  0.816600  0.250980  1.0  -0.0646
  C  C55  1  0.384340  0.067140  0.064960  1.0  -0.1518
  C  C56  1  0.260390  0.139440  0.135400  1.0  0.7275
  C  C57  1  0.556520  0.038920  0.055440  1.0  -0.0545
  C  C58  1  0.327920  0.028300  0.009460  1.0  -0.1126
  C  C59  1  0.772890  0.683400  0.249020  1.0  -0.0658
  C  C60  1  0.516440  0.432860  0.435040  1.0  -0.1551
  C  C61  1  0.535230  0.360560  0.364600  1.0  0.73
  C  C62  1  0.650880  0.461080  0.444560  1.0  -0.0541
  C  C63  1  0.365680  0.471700  0.490540  1.0  -0.1124
  C  C64  1  0.978090  0.816600  0.249020  1.0  -0.0642
  C  C65  1  0.048520  0.067140  0.435040  1.0  -0.1522
  C  C66  1  0.100170  0.139440  0.364600  1.0  0.7259
  C  C67  1  0.904560  0.038920  0.444560  1.0  -0.0545
  C  C68  1  0.143780  0.028300  0.490540  1.0  -0.1125
  C  C69  1  0.986430  0.527140  0.750000  1.0  0.7113
  C  C70  1  0.058100  0.383800  0.750000  1.0  -0.1388
  C  C71  1  0.263570  0.972860  0.750000  1.0  0.7094
  C  C72  1  0.191900  0.116200  0.750000  1.0  -0.1385
  C  C73  1  0.013570  0.472860  0.250000  1.0  0.7094
  C  C74  1  0.941900  0.616200  0.250000  1.0  -0.1385
  C  C75  1  0.736430  0.027140  0.250000  1.0  0.7113
  C  C76  1  0.808100  0.883800  0.250000  1.0  -0.1388
  O  O77  1  0.848770  0.583620  0.729380  1.0  -0.672
  O  O78  1  0.503620  0.668500  0.814860  1.0  -0.6901
  O  O79  1  0.245970  0.666667  0.858920  1.0  -0.6268
  O  O80  1  0.421850  0.916380  0.729380  1.0  -0.6711
  O  O81  1  0.681520  0.831500  0.814860  1.0  -0.6885
  O  O82  1  0.895110  0.833360  0.858920  1.0  -0.6281
  O  O83  1  0.067610  0.583620  0.770620  1.0  -0.6714
  O  O84  1  0.327880  0.668500  0.685140  1.0  -0.6877
  O  O85  1  0.587390  0.666667  0.641080  1.0  -0.6271
  O  O86  1  0.161770  0.916380  0.770620  1.0  -0.6709
  O  O87  1  0.986980  0.831500  0.685140  1.0  -0.6898
  O  O88  1  0.771530  0.833360  0.641080  1.0  -0.6278
  O  O89  1  0.151230  0.416380  0.270620  1.0  -0.6717
  O  O90  1  0.496380  0.331500  0.185140  1.0  -0.6885
  O  O91  1  0.754030  0.333333  0.141080  1.0  -0.6267
  O  O92  1  0.578150  0.083620  0.270620  1.0  -0.6711
  O  O93  1  0.318480  0.168500  0.185140  1.0  -0.689
  O  O94  1  0.104890  0.166640  0.141080  1.0  -0.6276
  O  O95  1  0.932390  0.416380  0.229380  1.0  -0.67
  O  O96  1  0.672120  0.331500  0.314860  1.0  -0.6909
  O  O97  1  0.412610  0.333333  0.358920  1.0  -0.6275
  O  O98  1  0.838230  0.083620  0.229380  1.0  -0.671
  O  O99  1  0.013020  0.168500  0.314860  1.0  -0.6888
  O  O100  1  0.228470  0.166640  0.358920  1.0  -0.6279
