# generated using pymatgen
data_Cd2H14C24Br4N4O9
_symmetry_space_group_name_H-M   'P 1'
_cell_length_a   15.39590000
_cell_length_b   17.37750000
_cell_length_c   15.05430000
_cell_angle_alpha   90.00000000
_cell_angle_beta   120.42000000
_cell_angle_gamma   90.00000000
_symmetry_Int_Tables_number   1
_chemical_formula_structural   Cd2H14C24Br4N4O9
_chemical_formula_sum   'Cd8 H56 C96 Br16 N16 O36'
_cell_volume   3473.20129625
_cell_formula_units_Z   4
loop_
 _symmetry_equiv_pos_site_id
 _symmetry_equiv_pos_as_xyz
  1  'x, y, z'
loop_
 _atom_site_type_symbol
 _atom_site_label
 _atom_site_symmetry_multiplicity
 _atom_site_fract_x
 _atom_site_fract_y
 _atom_site_fract_z
 _atom_site_occupancy
 _atom_site_charge
  Cd  Cd1  1  0.866110  0.632710  0.714300  1.0  1.0183
  Cd  Cd2  1  0.366110  0.132710  0.714300  1.0  1.0187
  Cd  Cd3  1  0.133890  0.632710  0.785700  1.0  1.0193
  Cd  Cd4  1  0.633890  0.132710  0.785700  1.0  1.0204
  Cd  Cd5  1  0.133890  0.367290  0.285700  1.0  1.0191
  Cd  Cd6  1  0.633890  0.867290  0.285700  1.0  1.0195
  Cd  Cd7  1  0.866110  0.367290  0.214300  1.0  1.0182
  Cd  Cd8  1  0.366110  0.867290  0.214300  1.0  1.0194
  H  H9  1  0.026300  0.529300  0.806300  1.0  0.4215
  H  H10  1  0.877900  0.443000  0.411600  1.0  0.0814
  H  H11  1  0.670500  0.484400  0.127000  1.0  0.0752
  H  H12  1  0.660400  0.595200  0.355500  1.0  0.1166
  H  H13  1  0.185700  0.792200  0.018400  1.0  0.0884
  H  H14  1  0.267700  0.749500  0.305000  1.0  0.0662
  H  H15  1  0.028500  0.640300  0.081700  1.0  0.1264
  H  H16  1  0.526300  0.029300  0.806300  1.0  0.4215
  H  H17  1  0.377900  0.943000  0.411600  1.0  0.0814
  H  H18  1  0.170500  0.984400  0.127000  1.0  0.0752
  H  H19  1  0.160400  0.095200  0.355500  1.0  0.1166
  H  H20  1  0.685700  0.292200  0.018400  1.0  0.0884
  H  H21  1  0.767700  0.249500  0.305000  1.0  0.0662
  H  H22  1  0.528500  0.140300  0.081700  1.0  0.1264
  H  H23  1  0.973700  0.529300  0.693700  1.0  0.4198
  H  H24  1  0.122100  0.443000  0.088400  1.0  0.0813
  H  H25  1  0.329500  0.484400  0.373000  1.0  0.0732
  H  H26  1  0.339600  0.595200  0.144500  1.0  0.1168
  H  H27  1  0.814300  0.792200  0.481600  1.0  0.0887
  H  H28  1  0.732300  0.749500  0.195000  1.0  0.068
  H  H29  1  0.971500  0.640300  0.418300  1.0  0.1271
  H  H30  1  0.473700  0.029300  0.693700  1.0  0.4198
  H  H31  1  0.622100  0.943000  0.088400  1.0  0.0813
  H  H32  1  0.829500  0.984400  0.373000  1.0  0.0732
  H  H33  1  0.839600  0.095200  0.144500  1.0  0.1168
  H  H34  1  0.314300  0.292200  0.481600  1.0  0.0887
  H  H35  1  0.232300  0.249500  0.195000  1.0  0.068
  H  H36  1  0.471500  0.140300  0.418300  1.0  0.1271
  H  H37  1  0.973700  0.470700  0.193700  1.0  0.4197
  H  H38  1  0.122100  0.557000  0.588400  1.0  0.0819
  H  H39  1  0.329500  0.515600  0.873000  1.0  0.0731
  H  H40  1  0.339600  0.404800  0.644500  1.0  0.1165
  H  H41  1  0.814300  0.207800  0.981600  1.0  0.0889
  H  H42  1  0.732300  0.250500  0.695000  1.0  0.0685
  H  H43  1  0.971500  0.359700  0.918300  1.0  0.1265
  H  H44  1  0.473700  0.970700  0.193700  1.0  0.4197
  H  H45  1  0.622100  0.057000  0.588400  1.0  0.0819
  H  H46  1  0.829500  0.015600  0.873000  1.0  0.0731
  H  H47  1  0.839600  0.904800  0.644500  1.0  0.1165
  H  H48  1  0.314300  0.707800  0.981600  1.0  0.0889
  H  H49  1  0.232300  0.750500  0.695000  1.0  0.0685
  H  H50  1  0.471500  0.859700  0.918300  1.0  0.1265
  H  H51  1  0.026300  0.470700  0.306300  1.0  0.4204
  H  H52  1  0.877900  0.557000  0.911600  1.0  0.0811
  H  H53  1  0.670500  0.515600  0.627000  1.0  0.0749
  H  H54  1  0.660400  0.404800  0.855500  1.0  0.1166
  H  H55  1  0.185700  0.207800  0.518400  1.0  0.0883
  H  H56  1  0.267700  0.250500  0.805000  1.0  0.0664
  H  H57  1  0.028500  0.359700  0.581700  1.0  0.1267
  H  H58  1  0.526300  0.970700  0.306300  1.0  0.4204
  H  H59  1  0.377900  0.057000  0.911600  1.0  0.0811
  H  H60  1  0.170500  0.015600  0.627000  1.0  0.0749
  H  H61  1  0.160400  0.904800  0.855500  1.0  0.1166
  H  H62  1  0.685700  0.707800  0.518400  1.0  0.0883
  H  H63  1  0.767700  0.750500  0.805000  1.0  0.0664
  H  H64  1  0.528500  0.859700  0.581700  1.0  0.1267
  C  C65  1  0.819300  0.468600  0.364800  1.0  0.215
  C  C66  1  0.698000  0.493200  0.197200  1.0  0.142
  C  C67  1  0.652500  0.544700  0.229600  1.0  -0.0054
  C  C68  1  0.690600  0.559600  0.333400  1.0  -0.0231
  C  C69  1  0.775400  0.519200  0.402400  1.0  -0.1591
  C  C70  1  0.825700  0.530600  0.518300  1.0  0.6707
  C  C71  1  0.176100  0.765600  0.066400  1.0  0.1904
  C  C72  1  0.224500  0.740500  0.235100  1.0  0.1537
  C  C73  1  0.148300  0.687900  0.205300  1.0  -0.0423
  C  C74  1  0.082000  0.674400  0.102700  1.0  -0.0076
  C  C75  1  0.097600  0.713400  0.031500  1.0  -0.137
  C  C76  1  0.035200  0.697800  0.916600  1.0  0.7046
  C  C77  1  0.319300  0.968600  0.364800  1.0  0.215
  C  C78  1  0.198000  0.993200  0.197200  1.0  0.142
  C  C79  1  0.152500  0.044700  0.229600  1.0  -0.0054
  C  C80  1  0.190600  0.059600  0.333400  1.0  -0.0231
  C  C81  1  0.275400  0.019200  0.402400  1.0  -0.1591
  C  C82  1  0.325700  0.030600  0.518300  1.0  0.6707
  C  C83  1  0.676100  0.265600  0.066400  1.0  0.1904
  C  C84  1  0.724500  0.240500  0.235100  1.0  0.1537
  C  C85  1  0.648300  0.187900  0.205300  1.0  -0.0423
  C  C86  1  0.582000  0.174400  0.102700  1.0  -0.0076
  C  C87  1  0.597600  0.213400  0.031500  1.0  -0.137
  C  C88  1  0.535200  0.197800  0.916600  1.0  0.7046
  C  C89  1  0.180700  0.468600  0.135200  1.0  0.2146
  C  C90  1  0.302000  0.493200  0.302800  1.0  0.1433
  C  C91  1  0.347500  0.544700  0.270400  1.0  -0.0093
  C  C92  1  0.309400  0.559600  0.166600  1.0  -0.0233
  C  C93  1  0.224600  0.519200  0.097600  1.0  -0.1582
  C  C94  1  0.174300  0.530600  0.981700  1.0  0.6717
  C  C95  1  0.823900  0.765600  0.433600  1.0  0.1904
  C  C96  1  0.775500  0.740500  0.264900  1.0  0.1547
  C  C97  1  0.851700  0.687900  0.294700  1.0  -0.0451
  C  C98  1  0.918000  0.674400  0.397300  1.0  -0.0074
  C  C99  1  0.902400  0.713400  0.468500  1.0  -0.1372
  C  C100  1  0.964800  0.697800  0.583400  1.0  0.7045
  C  C101  1  0.680700  0.968600  0.135200  1.0  0.2146
  C  C102  1  0.802000  0.993200  0.302800  1.0  0.1433
  C  C103  1  0.847500  0.044700  0.270400  1.0  -0.0093
  C  C104  1  0.809400  0.059600  0.166600  1.0  -0.0233
  C  C105  1  0.724600  0.019200  0.097600  1.0  -0.1582
  C  C106  1  0.674300  0.030600  0.981700  1.0  0.6717
  C  C107  1  0.323900  0.265600  0.433600  1.0  0.1904
  C  C108  1  0.275500  0.240500  0.264900  1.0  0.1547
  C  C109  1  0.351700  0.187900  0.294700  1.0  -0.0451
  C  C110  1  0.418000  0.174400  0.397300  1.0  -0.0074
  C  C111  1  0.402400  0.213400  0.468500  1.0  -0.1372
  C  C112  1  0.464800  0.197800  0.583400  1.0  0.7045
  C  C113  1  0.180700  0.531400  0.635200  1.0  0.2142
  C  C114  1  0.302000  0.506800  0.802800  1.0  0.1431
  C  C115  1  0.347500  0.455300  0.770400  1.0  -0.0093
  C  C116  1  0.309400  0.440400  0.666667  1.0  -0.0232
  C  C117  1  0.224600  0.480800  0.597600  1.0  -0.1517
  C  C118  1  0.174300  0.469400  0.481700  1.0  0.6711
  C  C119  1  0.823900  0.234400  0.933600  1.0  0.1908
  C  C120  1  0.775500  0.259500  0.764900  1.0  0.1548
  C  C121  1  0.851700  0.312100  0.794700  1.0  -0.0448
  C  C122  1  0.918000  0.325600  0.897300  1.0  -0.008
  C  C123  1  0.902400  0.286600  0.968500  1.0  -0.1371
  C  C124  1  0.964800  0.302200  0.083400  1.0  0.7052
  C  C125  1  0.680700  0.031400  0.635200  1.0  0.2142
  C  C126  1  0.802000  0.006800  0.802800  1.0  0.1431
  C  C127  1  0.847500  0.955300  0.770400  1.0  -0.0093
  C  C128  1  0.809400  0.940400  0.666667  1.0  -0.0232
  C  C129  1  0.724600  0.980800  0.597600  1.0  -0.1517
  C  C130  1  0.674300  0.969400  0.481700  1.0  0.6711
  C  C131  1  0.323900  0.734400  0.933600  1.0  0.1908
  C  C132  1  0.275500  0.759500  0.764900  1.0  0.1548
  C  C133  1  0.351700  0.812100  0.794700  1.0  -0.0448
  C  C134  1  0.418000  0.825600  0.897300  1.0  -0.008
  C  C135  1  0.402400  0.786600  0.968500  1.0  -0.1371
  C  C136  1  0.464800  0.802200  0.083400  1.0  0.7052
  C  C137  1  0.819300  0.531400  0.864800  1.0  0.2151
  C  C138  1  0.698000  0.506800  0.697200  1.0  0.1423
  C  C139  1  0.652500  0.455300  0.729600  1.0  -0.0066
  C  C140  1  0.690600  0.440400  0.833400  1.0  -0.0228
  C  C141  1  0.775400  0.480800  0.902400  1.0  -0.159
  C  C142  1  0.825700  0.469400  0.018300  1.0  0.6721
  C  C143  1  0.176100  0.234400  0.566400  1.0  0.1897
  C  C144  1  0.224500  0.259500  0.735100  1.0  0.1541
  C  C145  1  0.148300  0.312100  0.705300  1.0  -0.0416
  C  C146  1  0.082000  0.325600  0.602700  1.0  -0.0061
  C  C147  1  0.097600  0.286600  0.531500  1.0  -0.1377
  C  C148  1  0.035200  0.302200  0.416600  1.0  0.7046
  C  C149  1  0.319300  0.031400  0.864800  1.0  0.2151
  C  C150  1  0.198000  0.006800  0.697200  1.0  0.1423
  C  C151  1  0.152500  0.955300  0.729600  1.0  -0.0066
  C  C152  1  0.190600  0.940400  0.833400  1.0  -0.0228
  C  C153  1  0.275400  0.980800  0.902400  1.0  -0.159
  C  C154  1  0.325700  0.969400  0.018300  1.0  0.6721
  C  C155  1  0.676100  0.734400  0.566400  1.0  0.1897
  C  C156  1  0.724500  0.759500  0.735100  1.0  0.1541
  C  C157  1  0.648300  0.812100  0.705300  1.0  -0.0416
  C  C158  1  0.582000  0.825600  0.602700  1.0  -0.0061
  C  C159  1  0.597600  0.786600  0.531500  1.0  -0.1377
  C  C160  1  0.535200  0.802200  0.416600  1.0  0.7046
  Br  Br161  1  0.536980  0.598950  0.129810  1.0  -0.0537
  Br  Br162  1  0.137920  0.632540  0.307960  1.0  -0.0698
  Br  Br163  1  0.036980  0.098950  0.129810  1.0  -0.0537
  Br  Br164  1  0.637920  0.132540  0.307960  1.0  -0.0698
  Br  Br165  1  0.463020  0.598950  0.370190  1.0  -0.0534
  Br  Br166  1  0.862080  0.632540  0.192040  1.0  -0.0708
  Br  Br167  1  0.963020  0.098950  0.370190  1.0  -0.0534
  Br  Br168  1  0.362080  0.132540  0.192040  1.0  -0.0708
  Br  Br169  1  0.463020  0.401050  0.870190  1.0  -0.0531
  Br  Br170  1  0.862080  0.367460  0.692040  1.0  -0.0716
  Br  Br171  1  0.963020  0.901050  0.870190  1.0  -0.0531
  Br  Br172  1  0.362080  0.867460  0.692040  1.0  -0.0716
  Br  Br173  1  0.536980  0.401050  0.629810  1.0  -0.0539
  Br  Br174  1  0.137920  0.367460  0.807960  1.0  -0.0708
  Br  Br175  1  0.036980  0.901050  0.629810  1.0  -0.0539
  Br  Br176  1  0.637920  0.867460  0.807960  1.0  -0.0708
  N  N177  1  0.781300  0.455400  0.264700  1.0  -0.3325
  N  N178  1  0.238700  0.779400  0.166900  1.0  -0.3253
  N  N179  1  0.281300  0.955400  0.264700  1.0  -0.3325
  N  N180  1  0.738700  0.279400  0.166900  1.0  -0.3253
  N  N181  1  0.218700  0.455400  0.235300  1.0  -0.3328
  N  N182  1  0.761300  0.779400  0.333100  1.0  -0.3242
  N  N183  1  0.718700  0.955400  0.235300  1.0  -0.3328
  N  N184  1  0.261300  0.279400  0.333100  1.0  -0.3242
  N  N185  1  0.218700  0.544600  0.735300  1.0  -0.3327
  N  N186  1  0.761300  0.220600  0.833100  1.0  -0.3244
  N  N187  1  0.718700  0.044600  0.735300  1.0  -0.3327
  N  N188  1  0.261300  0.720600  0.833100  1.0  -0.3244
  N  N189  1  0.781300  0.544600  0.764700  1.0  -0.3321
  N  N190  1  0.238700  0.220600  0.666900  1.0  -0.3255
  N  N191  1  0.281300  0.044600  0.764700  1.0  -0.3321
  N  N192  1  0.738700  0.720600  0.666900  1.0  -0.3255
  O  O193  1  0.904700  0.492800  0.571700  1.0  -0.5916
  O  O194  1  0.784400  0.576300  0.550000  1.0  -0.6046
  O  O195  1  0.949000  0.670500  0.882600  1.0  -0.6358
  O  O196  1  0.076200  0.713800  0.865600  1.0  -0.6759
  O  O197  1  0.404700  0.992800  0.571700  1.0  -0.5916
  O  O198  1  0.284400  0.076300  0.550000  1.0  -0.6046
  O  O199  1  0.449000  0.170500  0.882600  1.0  -0.6358
  O  O200  1  0.576200  0.213800  0.865600  1.0  -0.6759
  O  O201  1  0.095300  0.492800  0.928300  1.0  -0.5915
  O  O202  1  0.215600  0.576300  0.950000  1.0  -0.6054
  O  O203  1  0.051000  0.670500  0.617400  1.0  -0.6347
  O  O204  1  0.923800  0.713800  0.634400  1.0  -0.6748
  O  O205  1  0.595300  0.992800  0.928300  1.0  -0.5915
  O  O206  1  0.715600  0.076300  0.950000  1.0  -0.6054
  O  O207  1  0.551000  0.170500  0.617400  1.0  -0.6347
  O  O208  1  0.423800  0.213800  0.634400  1.0  -0.6748
  O  O209  1  0.095300  0.507200  0.428300  1.0  -0.592
  O  O210  1  0.215600  0.423700  0.450000  1.0  -0.6048
  O  O211  1  0.051000  0.329500  0.117400  1.0  -0.6351
  O  O212  1  0.923800  0.286200  0.134400  1.0  -0.6751
  O  O213  1  0.595300  0.007200  0.428300  1.0  -0.592
  O  O214  1  0.715600  0.923700  0.450000  1.0  -0.6048
  O  O215  1  0.551000  0.829500  0.117400  1.0  -0.6351
  O  O216  1  0.423800  0.786200  0.134400  1.0  -0.6751
  O  O217  1  0.904700  0.507200  0.071700  1.0  -0.5933
  O  O218  1  0.784400  0.423700  0.050000  1.0  -0.6049
  O  O219  1  0.949000  0.329500  0.382600  1.0  -0.6351
  O  O220  1  0.076200  0.286200  0.365600  1.0  -0.6772
  O  O221  1  0.404700  0.007200  0.071700  1.0  -0.5933
  O  O222  1  0.284400  0.923700  0.050000  1.0  -0.6049
  O  O223  1  0.449000  0.829500  0.382600  1.0  -0.6351
  O  O224  1  0.576200  0.786200  0.365600  1.0  -0.6772
  O  O225  1  0.000000  0.554200  0.750000  1.0  -0.8135
  O  O226  1  0.500000  0.054200  0.750000  1.0  -0.8135
  O  O227  1  0.000000  0.445800  0.250000  1.0  -0.8148
  O  O228  1  0.500000  0.945800  0.250000  1.0  -0.8148
