# generated using pymatgen
data_Cd2H14C24Br4N4O9
_symmetry_space_group_name_H-M   'P 1'
_cell_length_a   11.70890000
_cell_length_b   11.70890000
_cell_length_c   14.73320000
_cell_angle_alpha   109.16400000
_cell_angle_beta   109.16400000
_cell_angle_gamma   98.41530000
_symmetry_Int_Tables_number   1
_chemical_formula_structural   Cd2H14C24Br4N4O9
_chemical_formula_sum   'Cd4 H28 C48 Br8 N8 O18'
_cell_volume   1727.58988633
_cell_formula_units_Z   2
loop_
 _symmetry_equiv_pos_site_id
 _symmetry_equiv_pos_as_xyz
  1  'x, y, z'
loop_
 _atom_site_type_symbol
 _atom_site_label
 _atom_site_symmetry_multiplicity
 _atom_site_fract_x
 _atom_site_fract_y
 _atom_site_fract_z
 _atom_site_occupancy
 _atom_site_charge
  Cd  Cd1  1  0.780340  0.024080  0.787500  1.0  1.0287
  Cd  Cd2  1  0.975920  0.219660  0.712500  1.0  1.0287
  Cd  Cd3  1  0.219660  0.975920  0.212500  1.0  1.0286
  Cd  Cd4  1  0.024080  0.780340  0.287500  1.0  1.0282
  H  H5  1  0.808100  0.257900  0.806700  1.0  0.4229
  H  H6  1  0.120900  0.044500  0.019300  1.0  0.0756
  H  H7  1  0.193300  0.414100  0.087800  1.0  0.1197
  H  H8  1  0.295100  0.282700  0.312100  1.0  0.0798
  H  H9  1  0.909000  0.519800  0.091700  1.0  0.0774
  H  H10  1  0.908800  0.213600  0.155600  1.0  0.1129
  H  H11  1  0.045400  0.560200  0.384100  1.0  0.0772
  H  H12  1  0.742100  0.191900  0.693300  1.0  0.4226
  H  H13  1  0.955500  0.879100  0.480700  1.0  0.0748
  H  H14  1  0.585900  0.806700  0.412200  1.0  0.1201
  H  H15  1  0.717300  0.704900  0.187900  1.0  0.0803
  H  H16  1  0.480200  0.091000  0.408300  1.0  0.0768
  H  H17  1  0.786400  0.091200  0.344400  1.0  0.1122
  H  H18  1  0.439800  0.954600  0.115900  1.0  0.0796
  H  H19  1  0.191900  0.742100  0.193300  1.0  0.4215
  H  H20  1  0.879100  0.955500  0.980700  1.0  0.0758
  H  H21  1  0.806700  0.585900  0.912200  1.0  0.1197
  H  H22  1  0.704900  0.717300  0.687900  1.0  0.0801
  H  H23  1  0.091000  0.480200  0.908300  1.0  0.0771
  H  H24  1  0.091200  0.786400  0.844400  1.0  0.1135
  H  H25  1  0.954600  0.439800  0.615900  1.0  0.0788
  H  H26  1  0.257900  0.808100  0.306700  1.0  0.4235
  H  H27  1  0.044500  0.120900  0.519300  1.0  0.0744
  H  H28  1  0.414100  0.193300  0.587800  1.0  0.1195
  H  H29  1  0.282700  0.295100  0.812100  1.0  0.0794
  H  H30  1  0.519800  0.909000  0.591700  1.0  0.0767
  H  H31  1  0.213600  0.908800  0.655600  1.0  0.1123
  H  H32  1  0.560200  0.045400  0.884100  1.0  0.0781
  C  C33  1  0.155300  0.127300  0.068900  1.0  0.1724
  C  C34  1  0.146200  0.223400  0.034600  1.0  -0.1622
  C  C35  1  0.196000  0.347000  0.108200  1.0  -0.0048
  C  C36  1  0.250100  0.367700  0.213200  1.0  -0.0163
  C  C37  1  0.257200  0.267200  0.241400  1.0  0.136
  C  C38  1  0.074500  0.189300  0.918900  1.0  0.683
  C  C39  1  0.927200  0.484200  0.140700  1.0  0.199
  C  C40  1  0.896700  0.353900  0.104900  1.0  -0.1929
  C  C41  1  0.925800  0.300600  0.176900  1.0  -0.0035
  C  C42  1  0.981100  0.380300  0.281300  1.0  -0.0095
  C  C43  1  0.008000  0.508600  0.312800  1.0  0.1284
  C  C44  1  0.837200  0.277200  0.987900  1.0  0.6715
  C  C45  1  0.872700  0.844700  0.431100  1.0  0.1726
  C  C46  1  0.776600  0.853800  0.465400  1.0  -0.1623
  C  C47  1  0.653000  0.804000  0.391800  1.0  -0.0027
  C  C48  1  0.632300  0.749900  0.286800  1.0  -0.0227
  C  C49  1  0.732800  0.742800  0.258600  1.0  0.1325
  C  C50  1  0.810700  0.925500  0.581100  1.0  0.6833
  C  C51  1  0.515800  0.072800  0.359300  1.0  0.1999
  C  C52  1  0.646100  0.103300  0.395100  1.0  -0.1925
  C  C53  1  0.699400  0.074200  0.323100  1.0  -0.0036
  C  C54  1  0.619700  0.018900  0.218700  1.0  -0.0062
  C  C55  1  0.491400  0.992000  0.187200  1.0  0.127
  C  C56  1  0.722800  0.162800  0.512100  1.0  0.6701
  C  C57  1  0.844700  0.872700  0.931100  1.0  0.1752
  C  C58  1  0.853800  0.776600  0.965400  1.0  -0.1629
  C  C59  1  0.804000  0.653000  0.891800  1.0  -0.0022
  C  C60  1  0.749900  0.632300  0.786800  1.0  -0.0249
  C  C61  1  0.742800  0.732800  0.758600  1.0  0.1353
  C  C62  1  0.925500  0.810700  0.081100  1.0  0.6832
  C  C63  1  0.072800  0.515800  0.859300  1.0  0.1986
  C  C64  1  0.103300  0.646100  0.895100  1.0  -0.194
  C  C65  1  0.074200  0.699400  0.823100  1.0  -0.0038
  C  C66  1  0.018900  0.619700  0.718700  1.0  -0.0069
  C  C67  1  0.992000  0.491400  0.687200  1.0  0.1265
  C  C68  1  0.162800  0.722800  0.012100  1.0  0.6713
  C  C69  1  0.127300  0.155300  0.568900  1.0  0.1738
  C  C70  1  0.223400  0.146200  0.534600  1.0  -0.1588
  C  C71  1  0.347000  0.196000  0.608200  1.0  -0.0039
  C  C72  1  0.367700  0.250100  0.713200  1.0  -0.0269
  C  C73  1  0.267200  0.257200  0.741400  1.0  0.1328
  C  C74  1  0.189300  0.074500  0.418900  1.0  0.6832
  C  C75  1  0.484200  0.927200  0.640700  1.0  0.1912
  C  C76  1  0.353900  0.896700  0.604900  1.0  -0.1926
  C  C77  1  0.300600  0.925800  0.676900  1.0  -0.0046
  C  C78  1  0.380300  0.981100  0.781300  1.0  -0.0064
  C  C79  1  0.508600  0.008000  0.812800  1.0  0.127
  C  C80  1  0.277200  0.837200  0.487900  1.0  0.6692
  Br  Br81  1  0.312050  0.532630  0.318570  1.0  -0.0358
  Br  Br82  1  0.023880  0.313540  0.385330  1.0  -0.041
  Br  Br83  1  0.467370  0.687950  0.181430  1.0  -0.0365
  Br  Br84  1  0.686460  0.976120  0.114670  1.0  -0.0436
  Br  Br85  1  0.687950  0.467370  0.681430  1.0  -0.0365
  Br  Br86  1  0.976120  0.686460  0.614670  1.0  -0.0421
  Br  Br87  1  0.532630  0.312050  0.818570  1.0  -0.0361
  Br  Br88  1  0.313540  0.023880  0.885330  1.0  -0.0423
  N  N89  1  0.211200  0.147600  0.170100  1.0  -0.3265
  N  N90  1  0.981600  0.561000  0.242700  1.0  -0.3537
  N  N91  1  0.852400  0.788800  0.329900  1.0  -0.3288
  N  N92  1  0.439000  0.018400  0.257300  1.0  -0.3506
  N  N93  1  0.788800  0.852400  0.829900  1.0  -0.3269
  N  N94  1  0.018400  0.439000  0.757300  1.0  -0.3549
  N  N95  1  0.147600  0.211200  0.670100  1.0  -0.3269
  N  N96  1  0.561000  0.981600  0.742700  1.0  -0.3485
  O  O97  1  0.997710  0.082090  0.867100  1.0  -0.6323
  O  O98  1  0.097720  0.270680  0.884600  1.0  -0.5934
  O  O99  1  0.819900  0.338500  0.931600  1.0  -0.5834
  O  O100  1  0.811450  0.159350  0.956600  1.0  -0.6131
  O  O101  1  0.917910  0.002290  0.632900  1.0  -0.6304
  O  O102  1  0.729320  0.902280  0.615400  1.0  -0.5901
  O  O103  1  0.661500  0.180100  0.568400  1.0  -0.5832
  O  O104  1  0.840650  0.188550  0.543400  1.0  -0.6114
  O  O105  1  0.002290  0.917910  0.132900  1.0  -0.6331
  O  O106  1  0.902280  0.729320  0.115400  1.0  -0.5923
  O  O107  1  0.180100  0.661500  0.068400  1.0  -0.5835
  O  O108  1  0.188550  0.840650  0.043400  1.0  -0.6125
  O  O109  1  0.082090  0.997710  0.367100  1.0  -0.6319
  O  O110  1  0.270680  0.097720  0.384600  1.0  -0.5915
  O  O111  1  0.338500  0.819900  0.431600  1.0  -0.5834
  O  O112  1  0.159350  0.811450  0.456600  1.0  -0.6117
  O  O113  1  0.800000  0.200000  0.750000  1.0  -0.8226
  O  O114  1  0.200000  0.800000  0.250000  1.0  -0.8218
