# generated using pymatgen
data_Cd2H14C24Br4N4O9
_symmetry_space_group_name_H-M   'P 1'
_cell_length_a   15.40100000
_cell_length_b   17.38120000
_cell_length_c   15.05380000
_cell_angle_alpha   90.00000000
_cell_angle_beta   120.43500000
_cell_angle_gamma   90.00000000
_symmetry_Int_Tables_number   1
_chemical_formula_structural   Cd2H14C24Br4N4O9
_chemical_formula_sum   'Cd8 H56 C96 Br16 N16 O36'
_cell_volume   3474.44186432
_cell_formula_units_Z   4
loop_
 _symmetry_equiv_pos_site_id
 _symmetry_equiv_pos_as_xyz
  1  'x, y, z'
loop_
 _atom_site_type_symbol
 _atom_site_label
 _atom_site_symmetry_multiplicity
 _atom_site_fract_x
 _atom_site_fract_y
 _atom_site_fract_z
 _atom_site_occupancy
 _atom_site_charge
  Cd  Cd1  1  0.366110  0.367440  0.714230  1.0  1.0639
  Cd  Cd2  1  0.866110  0.867440  0.714230  1.0  1.065
  Cd  Cd3  1  0.633890  0.367440  0.785770  1.0  1.0651
  Cd  Cd4  1  0.133890  0.867440  0.785770  1.0  1.0658
  Cd  Cd5  1  0.633890  0.632560  0.285770  1.0  1.0653
  Cd  Cd6  1  0.133890  0.132560  0.285770  1.0  1.0664
  Cd  Cd7  1  0.366110  0.632560  0.214230  1.0  1.0646
  Cd  Cd8  1  0.866110  0.132560  0.214230  1.0  1.0653
  H  H9  1  0.522700  0.470500  0.806500  1.0  0.425
  H  H10  1  0.768600  0.251200  0.305100  1.0  0.0722
  H  H11  1  0.528500  0.360100  0.081100  1.0  0.1263
  H  H12  1  0.686600  0.209200  0.018500  1.0  0.0797
  H  H13  1  0.169800  0.515800  0.127000  1.0  0.0722
  H  H14  1  0.160300  0.405200  0.354800  1.0  0.1192
  H  H15  1  0.377200  0.557500  0.411600  1.0  0.083
  H  H16  1  0.022700  0.970500  0.806500  1.0  0.425
  H  H17  1  0.268600  0.751200  0.305100  1.0  0.0722
  H  H18  1  0.028500  0.860100  0.081100  1.0  0.1263
  H  H19  1  0.186600  0.709200  0.018500  1.0  0.0797
  H  H20  1  0.669800  0.015800  0.127000  1.0  0.0722
  H  H21  1  0.660300  0.905200  0.354800  1.0  0.1192
  H  H22  1  0.877200  0.057500  0.411600  1.0  0.083
  H  H23  1  0.477300  0.470500  0.693500  1.0  0.4239
  H  H24  1  0.231400  0.251200  0.194900  1.0  0.0732
  H  H25  1  0.471500  0.360100  0.418900  1.0  0.1262
  H  H26  1  0.313400  0.209200  0.481500  1.0  0.0803
  H  H27  1  0.830200  0.515800  0.373000  1.0  0.0703
  H  H28  1  0.839700  0.405200  0.145200  1.0  0.1194
  H  H29  1  0.622800  0.557500  0.088400  1.0  0.0837
  H  H30  1  0.977300  0.970500  0.693500  1.0  0.4239
  H  H31  1  0.731400  0.751200  0.194900  1.0  0.0732
  H  H32  1  0.971500  0.860100  0.418900  1.0  0.1262
  H  H33  1  0.813400  0.709200  0.481500  1.0  0.0803
  H  H34  1  0.330200  0.015800  0.373000  1.0  0.0703
  H  H35  1  0.339700  0.905200  0.145200  1.0  0.1194
  H  H36  1  0.122800  0.057500  0.088400  1.0  0.0837
  H  H37  1  0.477300  0.529500  0.193500  1.0  0.4242
  H  H38  1  0.231400  0.748800  0.694900  1.0  0.0732
  H  H39  1  0.471500  0.639900  0.918900  1.0  0.1266
  H  H40  1  0.313400  0.790800  0.981500  1.0  0.0805
  H  H41  1  0.830200  0.484200  0.873000  1.0  0.0704
  H  H42  1  0.839700  0.594800  0.645200  1.0  0.1193
  H  H43  1  0.622800  0.442500  0.588400  1.0  0.083
  H  H44  1  0.977300  0.029500  0.193500  1.0  0.4242
  H  H45  1  0.731400  0.248800  0.694900  1.0  0.0732
  H  H46  1  0.971500  0.139900  0.918900  1.0  0.1266
  H  H47  1  0.813400  0.290800  0.981500  1.0  0.0805
  H  H48  1  0.330200  0.984200  0.873000  1.0  0.0704
  H  H49  1  0.339700  0.094800  0.645200  1.0  0.1193
  H  H50  1  0.122800  0.942500  0.588400  1.0  0.083
  H  H51  1  0.522700  0.529500  0.306500  1.0  0.4254
  H  H52  1  0.768600  0.748800  0.805100  1.0  0.0721
  H  H53  1  0.528500  0.639900  0.581100  1.0  0.1259
  H  H54  1  0.686600  0.790800  0.518500  1.0  0.0804
  H  H55  1  0.169800  0.484200  0.627000  1.0  0.0723
  H  H56  1  0.160300  0.594800  0.854800  1.0  0.1196
  H  H57  1  0.377200  0.442500  0.911600  1.0  0.083
  H  H58  1  0.022700  0.029500  0.306500  1.0  0.4254
  H  H59  1  0.268600  0.248800  0.805100  1.0  0.0721
  H  H60  1  0.028500  0.139900  0.581100  1.0  0.1259
  H  H61  1  0.186600  0.290800  0.518500  1.0  0.0804
  H  H62  1  0.669800  0.984200  0.627000  1.0  0.0723
  H  H63  1  0.660300  0.094800  0.854800  1.0  0.1196
  H  H64  1  0.877200  0.942500  0.911600  1.0  0.083
  C  C65  1  0.724800  0.259600  0.235200  1.0  0.1421
  C  C66  1  0.648100  0.311800  0.205400  1.0  -0.043
  C  C67  1  0.581700  0.325700  0.102200  1.0  -0.018
  C  C68  1  0.597300  0.286500  0.031000  1.0  -0.1518
  C  C69  1  0.676200  0.235000  0.066400  1.0  0.193
  C  C70  1  0.535100  0.302000  0.917100  1.0  0.6985
  C  C71  1  0.197800  0.506800  0.197200  1.0  0.1445
  C  C72  1  0.152600  0.454800  0.229500  1.0  -0.0357
  C  C73  1  0.190700  0.440500  0.332800  1.0  -0.009
  C  C74  1  0.275800  0.480700  0.402500  1.0  -0.1767
  C  C75  1  0.319000  0.531500  0.364700  1.0  0.2199
  C  C76  1  0.325700  0.469200  0.517800  1.0  0.6759
  C  C77  1  0.224800  0.759600  0.235200  1.0  0.1421
  C  C78  1  0.148100  0.811800  0.205400  1.0  -0.043
  C  C79  1  0.081700  0.825700  0.102200  1.0  -0.018
  C  C80  1  0.097300  0.786500  0.031000  1.0  -0.1518
  C  C81  1  0.176200  0.735000  0.066400  1.0  0.193
  C  C82  1  0.035100  0.802000  0.917100  1.0  0.6985
  C  C83  1  0.697800  0.006800  0.197200  1.0  0.1445
  C  C84  1  0.652600  0.954800  0.229500  1.0  -0.0357
  C  C85  1  0.690700  0.940500  0.332800  1.0  -0.009
  C  C86  1  0.775800  0.980700  0.402500  1.0  -0.1767
  C  C87  1  0.819000  0.031500  0.364700  1.0  0.2199
  C  C88  1  0.825700  0.969200  0.517800  1.0  0.6759
  C  C89  1  0.275200  0.259600  0.264800  1.0  0.1421
  C  C90  1  0.351900  0.311800  0.294600  1.0  -0.0464
  C  C91  1  0.418300  0.325700  0.397800  1.0  -0.0197
  C  C92  1  0.402700  0.286500  0.469000  1.0  -0.1505
  C  C93  1  0.323800  0.235000  0.433600  1.0  0.1936
  C  C94  1  0.464900  0.302000  0.582900  1.0  0.699
  C  C95  1  0.802200  0.506800  0.302800  1.0  0.144
  C  C96  1  0.847400  0.454800  0.270500  1.0  -0.0336
  C  C97  1  0.809300  0.440500  0.167200  1.0  -0.0097
  C  C98  1  0.724200  0.480700  0.097500  1.0  -0.1755
  C  C99  1  0.681000  0.531500  0.135300  1.0  0.2186
  C  C100  1  0.674300  0.469200  0.982200  1.0  0.6757
  C  C101  1  0.775200  0.759600  0.264800  1.0  0.1421
  C  C102  1  0.851900  0.811800  0.294600  1.0  -0.0464
  C  C103  1  0.918300  0.825700  0.397800  1.0  -0.0197
  C  C104  1  0.902700  0.786500  0.469000  1.0  -0.1505
  C  C105  1  0.823800  0.735000  0.433600  1.0  0.1936
  C  C106  1  0.964900  0.802000  0.582900  1.0  0.699
  C  C107  1  0.302200  0.006800  0.302800  1.0  0.144
  C  C108  1  0.347400  0.954800  0.270500  1.0  -0.0336
  C  C109  1  0.309300  0.940500  0.167200  1.0  -0.0097
  C  C110  1  0.224200  0.980700  0.097500  1.0  -0.1755
  C  C111  1  0.181000  0.031500  0.135300  1.0  0.2186
  C  C112  1  0.174300  0.969200  0.982200  1.0  0.6757
  C  C113  1  0.275200  0.740400  0.764800  1.0  0.1419
  C  C114  1  0.351900  0.688200  0.794600  1.0  -0.0466
  C  C115  1  0.418300  0.674300  0.897800  1.0  -0.0192
  C  C116  1  0.402700  0.713500  0.969000  1.0  -0.1505
  C  C117  1  0.323800  0.765000  0.933600  1.0  0.1927
  C  C118  1  0.464900  0.698000  0.082900  1.0  0.6987
  C  C119  1  0.802200  0.493200  0.802800  1.0  0.1443
  C  C120  1  0.847400  0.545200  0.770500  1.0  -0.0348
  C  C121  1  0.809300  0.559500  0.667200  1.0  -0.0097
  C  C122  1  0.724200  0.519300  0.597500  1.0  -0.1771
  C  C123  1  0.681000  0.468500  0.635300  1.0  0.2194
  C  C124  1  0.674300  0.530800  0.482200  1.0  0.6756
  C  C125  1  0.775200  0.240400  0.764800  1.0  0.1419
  C  C126  1  0.851900  0.188200  0.794600  1.0  -0.0466
  C  C127  1  0.918300  0.174300  0.897800  1.0  -0.0192
  C  C128  1  0.902700  0.213500  0.969000  1.0  -0.1505
  C  C129  1  0.823800  0.265000  0.933600  1.0  0.1927
  C  C130  1  0.964900  0.198000  0.082900  1.0  0.6987
  C  C131  1  0.302200  0.993200  0.802800  1.0  0.1443
  C  C132  1  0.347400  0.045200  0.770500  1.0  -0.0348
  C  C133  1  0.309300  0.059500  0.667200  1.0  -0.0097
  C  C134  1  0.224200  0.019300  0.597500  1.0  -0.1771
  C  C135  1  0.181000  0.968500  0.635300  1.0  0.2194
  C  C136  1  0.174300  0.030800  0.482200  1.0  0.6756
  C  C137  1  0.724800  0.740400  0.735200  1.0  0.1421
  C  C138  1  0.648100  0.688200  0.705400  1.0  -0.042
  C  C139  1  0.581700  0.674300  0.602200  1.0  -0.0187
  C  C140  1  0.597300  0.713500  0.531000  1.0  -0.1511
  C  C141  1  0.676200  0.765000  0.566400  1.0  0.1934
  C  C142  1  0.535100  0.698000  0.417100  1.0  0.6987
  C  C143  1  0.197800  0.493200  0.697200  1.0  0.1443
  C  C144  1  0.152600  0.545200  0.729500  1.0  -0.0345
  C  C145  1  0.190700  0.559500  0.832800  1.0  -0.0096
  C  C146  1  0.275800  0.519300  0.902500  1.0  -0.1772
  C  C147  1  0.319000  0.468500  0.864700  1.0  0.22
  C  C148  1  0.325700  0.530800  0.017800  1.0  0.6754
  C  C149  1  0.224800  0.240400  0.735200  1.0  0.1421
  C  C150  1  0.148100  0.188200  0.705400  1.0  -0.042
  C  C151  1  0.081700  0.174300  0.602200  1.0  -0.0187
  C  C152  1  0.097300  0.213500  0.531000  1.0  -0.1511
  C  C153  1  0.176200  0.265000  0.566400  1.0  0.1934
  C  C154  1  0.035100  0.198000  0.417100  1.0  0.6987
  C  C155  1  0.697800  0.993200  0.697200  1.0  0.1443
  C  C156  1  0.652600  0.045200  0.729500  1.0  -0.0345
  C  C157  1  0.690700  0.059500  0.832800  1.0  -0.0096
  C  C158  1  0.775800  0.019300  0.902500  1.0  -0.1772
  C  C159  1  0.819000  0.968500  0.864700  1.0  0.22
  C  C160  1  0.825700  0.030800  0.017800  1.0  0.6754
  Br  Br161  1  0.637950  0.367210  0.308010  1.0  -0.0598
  Br  Br162  1  0.036820  0.401090  0.129560  1.0  -0.0572
  Br  Br163  1  0.137950  0.867210  0.308010  1.0  -0.0598
  Br  Br164  1  0.536820  0.901090  0.129560  1.0  -0.0572
  Br  Br165  1  0.362050  0.367210  0.191990  1.0  -0.0602
  Br  Br166  1  0.963180  0.401090  0.370440  1.0  -0.0564
  Br  Br167  1  0.862050  0.867210  0.191990  1.0  -0.0602
  Br  Br168  1  0.463180  0.901090  0.370440  1.0  -0.0564
  Br  Br169  1  0.362050  0.632790  0.691990  1.0  -0.0591
  Br  Br170  1  0.963180  0.598910  0.870440  1.0  -0.056
  Br  Br171  1  0.862050  0.132790  0.691990  1.0  -0.0591
  Br  Br172  1  0.463180  0.098910  0.870440  1.0  -0.056
  Br  Br173  1  0.637950  0.632790  0.808010  1.0  -0.0586
  Br  Br174  1  0.036820  0.598910  0.629560  1.0  -0.0573
  Br  Br175  1  0.137950  0.132790  0.808010  1.0  -0.0586
  Br  Br176  1  0.536820  0.098910  0.629560  1.0  -0.0573
  N  N177  1  0.738500  0.220300  0.166800  1.0  -0.3288
  N  N178  1  0.281200  0.544900  0.264100  1.0  -0.3377
  N  N179  1  0.238500  0.720300  0.166800  1.0  -0.3288
  N  N180  1  0.781200  0.044900  0.264100  1.0  -0.3377
  N  N181  1  0.261500  0.220300  0.333200  1.0  -0.3288
  N  N182  1  0.718800  0.544900  0.235900  1.0  -0.3379
  N  N183  1  0.761500  0.720300  0.333200  1.0  -0.3288
  N  N184  1  0.218800  0.044900  0.235900  1.0  -0.3379
  N  N185  1  0.261500  0.779700  0.833200  1.0  -0.3279
  N  N186  1  0.718800  0.455100  0.735900  1.0  -0.3381
  N  N187  1  0.761500  0.279700  0.833200  1.0  -0.3279
  N  N188  1  0.218800  0.955100  0.735900  1.0  -0.3381
  N  N189  1  0.738500  0.779700  0.666800  1.0  -0.3288
  N  N190  1  0.281200  0.455100  0.764100  1.0  -0.3381
  N  N191  1  0.238500  0.279700  0.666800  1.0  -0.3288
  N  N192  1  0.781200  0.955100  0.764100  1.0  -0.3381
  O  O193  1  0.448800  0.329640  0.882500  1.0  -0.6282
  O  O194  1  0.576100  0.286200  0.865400  1.0  -0.6699
  O  O195  1  0.404400  0.507300  0.571100  1.0  -0.5909
  O  O196  1  0.284500  0.423700  0.549700  1.0  -0.6041
  O  O197  1  0.948800  0.829640  0.882500  1.0  -0.6282
  O  O198  1  0.076100  0.786200  0.865400  1.0  -0.6699
  O  O199  1  0.904400  0.007300  0.571100  1.0  -0.5909
  O  O200  1  0.784500  0.923700  0.549700  1.0  -0.6041
  O  O201  1  0.551200  0.329640  0.617500  1.0  -0.6288
  O  O202  1  0.423900  0.286200  0.634600  1.0  -0.667
  O  O203  1  0.595600  0.507300  0.928900  1.0  -0.5897
  O  O204  1  0.715500  0.423700  0.950300  1.0  -0.6034
  O  O205  1  0.051200  0.829640  0.617500  1.0  -0.6288
  O  O206  1  0.923900  0.786200  0.634600  1.0  -0.667
  O  O207  1  0.095600  0.007300  0.928900  1.0  -0.5897
  O  O208  1  0.215500  0.923700  0.950300  1.0  -0.6034
  O  O209  1  0.551200  0.670360  0.117500  1.0  -0.6284
  O  O210  1  0.423900  0.713800  0.134600  1.0  -0.6669
  O  O211  1  0.595600  0.492700  0.428900  1.0  -0.5881
  O  O212  1  0.715500  0.576300  0.450300  1.0  -0.6039
  O  O213  1  0.051200  0.170360  0.117500  1.0  -0.6284
  O  O214  1  0.923900  0.213800  0.134600  1.0  -0.6669
  O  O215  1  0.095600  0.992700  0.428900  1.0  -0.5881
  O  O216  1  0.215500  0.076300  0.450300  1.0  -0.6039
  O  O217  1  0.448800  0.670360  0.382500  1.0  -0.6292
  O  O218  1  0.576100  0.713800  0.365400  1.0  -0.6692
  O  O219  1  0.404400  0.492700  0.071100  1.0  -0.5884
  O  O220  1  0.284500  0.576300  0.049700  1.0  -0.6037
  O  O221  1  0.948800  0.170360  0.382500  1.0  -0.6292
  O  O222  1  0.076100  0.213800  0.365400  1.0  -0.6692
  O  O223  1  0.904400  0.992700  0.071100  1.0  -0.5884
  O  O224  1  0.784500  0.076300  0.049700  1.0  -0.6037
  O  O225  1  0.500000  0.446300  0.750000  1.0  -0.8176
  O  O226  1  0.000000  0.946300  0.750000  1.0  -0.8176
  O  O227  1  0.500000  0.553700  0.250000  1.0  -0.8156
  O  O228  1  0.000000  0.053700  0.250000  1.0  -0.8156
