# generated using pymatgen
data_Cu2P2H9C7(NO3)2
_symmetry_space_group_name_H-M   'P 1'
_cell_length_a   9.54030000
_cell_length_b   9.54030000
_cell_length_c   26.60810000
_cell_angle_alpha   82.89000000
_cell_angle_beta   82.88990000
_cell_angle_gamma   108.03400000
_symmetry_Int_Tables_number   1
_chemical_formula_structural   Cu2P2H9C7(NO3)2
_chemical_formula_sum   'Cu8 P8 H36 C28 N8 O24'
_cell_volume   2251.14283333
_cell_formula_units_Z   4
loop_
 _symmetry_equiv_pos_site_id
 _symmetry_equiv_pos_as_xyz
  1  'x, y, z'
loop_
 _atom_site_type_symbol
 _atom_site_label
 _atom_site_symmetry_multiplicity
 _atom_site_fract_x
 _atom_site_fract_y
 _atom_site_fract_z
 _atom_site_occupancy
 _atom_site_charge
  Cu  Cu1  1  0.366830  0.430110  0.211940  1.0  0.8089
  Cu  Cu2  1  0.302710  0.963010  0.232740  1.0  0.6871
  Cu  Cu3  1  0.642050  0.578770  0.788060  1.0  0.8045
  Cu  Cu4  1  0.195750  0.535450  0.767260  1.0  0.6818
  Cu  Cu5  1  0.828770  0.392050  0.288060  1.0  0.8066
  Cu  Cu6  1  0.785450  0.945750  0.267260  1.0  0.6873
  Cu  Cu7  1  0.680110  0.116830  0.711940  1.0  0.8041
  Cu  Cu8  1  0.213010  0.052710  0.732740  1.0  0.6817
  P  P9  1  0.593260  0.608920  0.269420  1.0  1.5402
  P  P10  1  0.624300  0.183200  0.234700  1.0  1.5481
  P  P11  1  0.878340  0.862680  0.730580  1.0  1.5349
  P  P12  1  0.417900  0.859000  0.765300  1.0  1.5411
  P  P13  1  0.112680  0.628340  0.230580  1.0  1.5421
  P  P14  1  0.109000  0.167900  0.265300  1.0  1.5482
  P  P15  1  0.858920  0.343260  0.769420  1.0  1.5308
  P  P16  1  0.433200  0.374300  0.734700  1.0  1.5425
  H  H17  1  0.399100  0.292500  0.291600  1.0  0.2718
  H  H18  1  0.930500  0.616500  0.178800  1.0  0.1579
  H  H19  1  0.047800  0.547600  0.154800  1.0  0.1826
  H  H20  1  0.776800  0.311400  0.156800  1.0  0.1945
  H  H21  1  0.707100  0.419100  0.183200  1.0  0.151
  H  H22  1  0.727100  0.508300  0.380600  1.0  0.109
  H  H23  1  0.708600  0.458800  0.468400  1.0  0.1358
  H  H24  1  0.553500  0.279700  0.546400  1.0  0.1331
  H  H25  1  0.530300  0.224900  0.633400  1.0  0.1116
  H  H26  1  0.584100  0.690700  0.708400  1.0  0.2728
  H  H27  1  0.795300  0.109300  0.821200  1.0  0.1583
  H  H28  1  0.702400  0.202600  0.845200  1.0  0.1872
  H  H29  1  0.468200  0.933600  0.843200  1.0  0.1916
  H  H30  1  0.602300  0.890300  0.816800  1.0  0.1509
  H  H31  1  0.888900  0.107700  0.619400  1.0  0.1081
  H  H32  1  0.927200  0.177000  0.531600  1.0  0.1351
  H  H33  1  0.826100  0.099900  0.453600  1.0  0.1325
  H  H34  1  0.858300  0.163700  0.366600  1.0  0.1122
  H  H35  1  0.940700  0.334100  0.208400  1.0  0.2716
  H  H36  1  0.359300  0.545300  0.321200  1.0  0.1592
  H  H37  1  0.452600  0.452400  0.345200  1.0  0.1879
  H  H38  1  0.183600  0.218200  0.343200  1.0  0.1916
  H  H39  1  0.140300  0.352300  0.316800  1.0  0.1508
  H  H40  1  0.357700  0.638900  0.119400  1.0  0.1092
  H  H41  1  0.427000  0.677200  0.031600  1.0  0.1357
  H  H42  1  0.349900  0.576100  0.953600  1.0  0.1334
  H  H43  1  0.413700  0.608300  0.866600  1.0  0.1108
  H  H44  1  0.542500  0.149100  0.791600  1.0  0.2726
  H  H45  1  0.866500  0.680500  0.678800  1.0  0.1541
  H  H46  1  0.797600  0.797800  0.654800  1.0  0.1827
  H  H47  1  0.561400  0.526800  0.656800  1.0  0.1951
  H  H48  1  0.669100  0.457100  0.683200  1.0  0.152
  H  H49  1  0.758300  0.477100  0.880600  1.0  0.1086
  H  H50  1  0.708800  0.458600  0.968400  1.0  0.1358
  H  H51  1  0.529700  0.303500  0.046400  1.0  0.1324
  H  H52  1  0.474900  0.280300  0.133400  1.0  0.1121
  C  C53  1  0.426000  0.489200  0.313400  1.0  -0.4055
  C  C54  1  0.752100  0.341700  0.189400  1.0  -0.3649
  C  C55  1  0.751700  0.427300  0.395200  1.0  0.1744
  C  C56  1  0.736200  0.395600  0.448200  1.0  -0.1822
  C  C57  1  0.761660  0.271060  0.470880  1.0  0.1051
  C  C58  1  0.624500  0.246900  0.560600  1.0  -0.1651
  C  C59  1  0.610700  0.213700  0.612800  1.0  0.18
  C  C60  1  0.802600  0.739400  0.686600  1.0  -0.4045
  C  C61  1  0.531100  0.941500  0.810600  1.0  -0.3733
  C  C62  1  0.822500  0.146900  0.604800  1.0  0.1784
  C  C63  1  0.843800  0.184400  0.551800  1.0  -0.1802
  C  C64  1  0.741940  0.232540  0.529120  1.0  0.1064
  C  C65  1  0.807500  0.185100  0.439400  1.0  -0.167
  C  C66  1  0.826500  0.223500  0.387200  1.0  0.1803
  C  C67  1  0.989400  0.552600  0.186600  1.0  -0.4016
  C  C68  1  0.191500  0.281100  0.310600  1.0  -0.3722
  C  C69  1  0.396900  0.572500  0.104800  1.0  0.1741
  C  C70  1  0.434400  0.593800  0.051800  1.0  -0.181
  C  C71  1  0.482540  0.491940  0.029120  1.0  0.1064
  C  C72  1  0.435100  0.557500  0.939400  1.0  -0.1657
  C  C73  1  0.473500  0.576500  0.887200  1.0  0.1807
  C  C74  1  0.739200  0.176000  0.813400  1.0  -0.4036
  C  C75  1  0.591700  0.502100  0.689400  1.0  -0.3671
  C  C76  1  0.677300  0.501700  0.895200  1.0  0.1786
  C  C77  1  0.645600  0.486200  0.948200  1.0  -0.1825
  C  C78  1  0.521060  0.511660  0.970880  1.0  0.1054
  C  C79  1  0.496900  0.374500  0.060600  1.0  -0.1672
  C  C80  1  0.463700  0.360700  0.112800  1.0  0.1789
  N  N81  1  0.349510  0.359910  0.288180  1.0  -0.3309
  N  N82  1  0.800060  0.346060  0.364680  1.0  -0.296
  N  N83  1  0.648090  0.637690  0.711820  1.0  -0.3303
  N  N84  1  0.710740  0.164740  0.635320  1.0  -0.2959
  N  N85  1  0.887690  0.398090  0.211820  1.0  -0.3312
  N  N86  1  0.414740  0.460740  0.135320  1.0  -0.2942
  N  N87  1  0.609910  0.099510  0.788180  1.0  -0.3274
  N  N88  1  0.596060  0.550060  0.864680  1.0  -0.2951
  O  O89  1  0.728490  0.573290  0.282620  1.0  -0.8814
  O  O90  1  0.025350  0.543150  0.283700  1.0  -0.7876
  O  O91  1  0.131630  0.794830  0.223540  1.0  -0.7494
  O  O92  1  0.677490  0.048890  0.229220  1.0  -0.7881
  O  O93  1  0.465770  0.153970  0.223260  1.0  -0.7716
  O  O94  1  0.639210  0.231810  0.286780  1.0  -0.7666
  O  O95  1  0.855910  0.011110  0.717380  1.0  -0.8783
  O  O96  1  0.826850  0.309050  0.716300  1.0  -0.784
  O  O97  1  0.018370  0.355170  0.776460  1.0  -0.7499
  O  O98  1  0.278110  0.906710  0.770780  1.0  -0.7832
  O  O99  1  0.377230  0.689030  0.776740  1.0  -0.7656
  O  O100  1  0.518590  0.925990  0.713220  1.0  -0.7677
  O  O101  1  0.261110  0.605910  0.217380  1.0  -0.8797
  O  O102  1  0.559050  0.576850  0.216300  1.0  -0.7854
  O  O103  1  0.605170  0.768370  0.276460  1.0  -0.7499
  O  O104  1  0.156710  0.028110  0.270780  1.0  -0.7852
  O  O105  1  0.939030  0.127230  0.276740  1.0  -0.7701
  O  O106  1  0.175990  0.268590  0.213220  1.0  -0.7683
  O  O107  1  0.823290  0.478490  0.782620  1.0  -0.8804
  O  O108  1  0.793150  0.775350  0.783700  1.0  -0.7873
  O  O109  1  0.044830  0.881630  0.723540  1.0  -0.7485
  O  O110  1  0.298890  0.427490  0.729220  1.0  -0.7844
  O  O111  1  0.403970  0.215770  0.723260  1.0  -0.7685
  O  O112  1  0.481810  0.389210  0.786780  1.0  -0.765
