# generated using pymatgen
data_CuNiH8(C3N2)4
_symmetry_space_group_name_H-M   'P 1'
_cell_length_a   11.07630000
_cell_length_b   11.07630000
_cell_length_c   27.43070000
_cell_angle_alpha   90.00000000
_cell_angle_beta   90.00000000
_cell_angle_gamma   90.00000000
_symmetry_Int_Tables_number   1
_chemical_formula_structural   CuNiH8(C3N2)4
_chemical_formula_sum   'Cu4 Ni4 H32 C48 N32'
_cell_volume   3365.31956605
_cell_formula_units_Z   4
loop_
 _symmetry_equiv_pos_site_id
 _symmetry_equiv_pos_as_xyz
  1  'x, y, z'
loop_
 _atom_site_type_symbol
 _atom_site_label
 _atom_site_symmetry_multiplicity
 _atom_site_fract_x
 _atom_site_fract_y
 _atom_site_fract_z
 _atom_site_occupancy
 _atom_site_charge
  Cu  Cu1  1  0.516090  0.516090  0.000000  1.0  0.3791
  Cu  Cu2  1  0.483910  0.483910  0.500000  1.0  0.3778
  Cu  Cu3  1  0.983910  0.016090  0.750000  1.0  0.3777
  Cu  Cu4  1  0.016090  0.983910  0.250000  1.0  0.379
  Ni  Ni5  1  0.528360  0.471640  0.750000  1.0  0.4588
  Ni  Ni6  1  0.471640  0.528360  0.250000  1.0  0.4603
  Ni  Ni7  1  0.028360  0.028360  0.500000  1.0  0.46
  Ni  Ni8  1  0.971640  0.971640  0.000000  1.0  0.4583
  H  H9  1  0.495900  0.327000  0.923100  1.0  0.0483
  H  H10  1  0.497700  0.311100  0.839500  1.0  0.0564
  H  H11  1  0.573800  0.658300  0.829000  1.0  0.0565
  H  H12  1  0.867500  0.751700  0.063500  1.0  0.0406
  H  H13  1  0.504100  0.673000  0.423100  1.0  0.0486
  H  H14  1  0.502300  0.688900  0.339500  1.0  0.0577
  H  H15  1  0.426200  0.341700  0.329000  1.0  0.0562
  H  H16  1  0.132500  0.248300  0.563500  1.0  0.04
  H  H17  1  0.327000  0.495900  0.076900  1.0  0.0483
  H  H18  1  0.311100  0.497700  0.160500  1.0  0.0559
  H  H19  1  0.658300  0.573800  0.171000  1.0  0.0547
  H  H20  1  0.751700  0.867500  0.936500  1.0  0.0397
  H  H21  1  0.673000  0.504100  0.576900  1.0  0.0494
  H  H22  1  0.688900  0.502300  0.660500  1.0  0.0561
  H  H23  1  0.341700  0.426200  0.671000  1.0  0.0551
  H  H24  1  0.248300  0.132500  0.436500  1.0  0.0394
  H  H25  1  0.173000  0.995900  0.673100  1.0  0.0489
  H  H26  1  0.188900  0.997700  0.589500  1.0  0.0555
  H  H27  1  0.841700  0.073800  0.579000  1.0  0.055
  H  H28  1  0.748300  0.367500  0.813500  1.0  0.0409
  H  H29  1  0.827000  0.004100  0.173100  1.0  0.0484
  H  H30  1  0.811100  0.002300  0.089500  1.0  0.0563
  H  H31  1  0.158300  0.926200  0.079000  1.0  0.0556
  H  H32  1  0.251700  0.632500  0.313500  1.0  0.0409
  H  H33  1  0.004100  0.827000  0.826900  1.0  0.0476
  H  H34  1  0.002300  0.811100  0.910500  1.0  0.0567
  H  H35  1  0.926200  0.158300  0.921000  1.0  0.0565
  H  H36  1  0.632500  0.251700  0.686500  1.0  0.0401
  H  H37  1  0.995900  0.173000  0.326900  1.0  0.0487
  H  H38  1  0.997700  0.188900  0.410500  1.0  0.0575
  H  H39  1  0.073800  0.841700  0.421000  1.0  0.0561
  H  H40  1  0.367500  0.748300  0.186500  1.0  0.0403
  C  C41  1  0.512200  0.396800  0.904070  1.0  0.0671
  C  C42  1  0.512900  0.387200  0.854240  1.0  0.0554
  C  C43  1  0.558500  0.588400  0.848070  1.0  0.0785
  C  C44  1  0.561400  0.598000  0.899110  1.0  0.398
  C  C45  1  0.662200  0.720800  0.962040  1.0  0.3032
  C  C46  1  0.747700  0.812300  0.962930  1.0  0.0909
  C  C47  1  0.487800  0.603200  0.404070  1.0  0.0658
  C  C48  1  0.487100  0.612800  0.354240  1.0  0.053
  C  C49  1  0.441500  0.411600  0.348070  1.0  0.0794
  C  C50  1  0.438600  0.402000  0.399110  1.0  0.3991
  C  C51  1  0.337800  0.279200  0.462040  1.0  0.3027
  C  C52  1  0.252300  0.187700  0.462930  1.0  0.0912
  C  C53  1  0.396800  0.512200  0.095930  1.0  0.0697
  C  C54  1  0.387200  0.512900  0.145760  1.0  0.0533
  C  C55  1  0.588400  0.558500  0.151930  1.0  0.0799
  C  C56  1  0.598000  0.561400  0.100890  1.0  0.3989
  C  C57  1  0.720800  0.662200  0.037960  1.0  0.3029
  C  C58  1  0.812300  0.747700  0.037070  1.0  0.0921
  C  C59  1  0.603200  0.487800  0.595930  1.0  0.0691
  C  C60  1  0.612800  0.487100  0.645760  1.0  0.0521
  C  C61  1  0.411600  0.441500  0.651930  1.0  0.0791
  C  C62  1  0.402000  0.438600  0.600890  1.0  0.3987
  C  C63  1  0.279200  0.337800  0.537960  1.0  0.3041
  C  C64  1  0.187700  0.252300  0.537070  1.0  0.0925
  C  C65  1  0.103200  0.012200  0.654070  1.0  0.0706
  C  C66  1  0.112800  0.012900  0.604240  1.0  0.0505
  C  C67  1  0.911600  0.058500  0.598070  1.0  0.0808
  C  C68  1  0.902000  0.061400  0.649110  1.0  0.399
  C  C69  1  0.779200  0.162200  0.712040  1.0  0.3028
  C  C70  1  0.687700  0.247700  0.712930  1.0  0.0926
  C  C71  1  0.896800  0.987800  0.154070  1.0  0.0691
  C  C72  1  0.887200  0.987100  0.104240  1.0  0.0505
  C  C73  1  0.088400  0.941500  0.098070  1.0  0.0806
  C  C74  1  0.098000  0.938600  0.149110  1.0  0.3988
  C  C75  1  0.220800  0.837800  0.212040  1.0  0.3017
  C  C76  1  0.312300  0.752300  0.212930  1.0  0.0918
  C  C77  1  0.987800  0.896800  0.845930  1.0  0.066
  C  C78  1  0.987100  0.887200  0.895760  1.0  0.0533
  C  C79  1  0.941500  0.088400  0.901930  1.0  0.0779
  C  C80  1  0.938600  0.098000  0.850890  1.0  0.3993
  C  C81  1  0.837800  0.220800  0.787960  1.0  0.3031
  C  C82  1  0.752300  0.312300  0.787070  1.0  0.0905
  C  C83  1  0.012200  0.103200  0.345930  1.0  0.0656
  C  C84  1  0.012900  0.112800  0.395760  1.0  0.0526
  C  C85  1  0.058500  0.911600  0.401930  1.0  0.0789
  C  C86  1  0.061400  0.902000  0.350890  1.0  0.3975
  C  C87  1  0.162200  0.779200  0.287960  1.0  0.3046
  C  C88  1  0.247700  0.687700  0.287070  1.0  0.0914
  N  N89  1  0.533900  0.502800  0.926880  1.0  -0.4042
  N  N90  1  0.593500  0.706300  0.919610  1.0  -0.4317
  N  N91  1  0.535100  0.484600  0.825640  1.0  -0.3977
  N  N92  1  0.466100  0.497200  0.426880  1.0  -0.4039
  N  N93  1  0.406500  0.293700  0.419610  1.0  -0.4316
  N  N94  1  0.464900  0.515400  0.325640  1.0  -0.3979
  N  N95  1  0.502800  0.533900  0.073120  1.0  -0.4101
  N  N96  1  0.706300  0.593500  0.080390  1.0  -0.4313
  N  N97  1  0.484600  0.535100  0.174360  1.0  -0.395
  N  N98  1  0.497200  0.466100  0.573120  1.0  -0.4093
  N  N99  1  0.293700  0.406500  0.580390  1.0  -0.4326
  N  N100  1  0.515400  0.464900  0.674360  1.0  -0.3961
  N  N101  1  0.646000  0.646000  0.000000  1.0  -0.3731
  N  N102  1  0.824500  0.824500  0.000000  1.0  -0.3825
  N  N103  1  0.354000  0.354000  0.500000  1.0  -0.3719
  N  N104  1  0.175500  0.175500  0.500000  1.0  -0.3834
  N  N105  1  0.997200  0.033900  0.676880  1.0  -0.4044
  N  N106  1  0.793700  0.093500  0.669610  1.0  -0.4312
  N  N107  1  0.015400  0.035100  0.575640  1.0  -0.3992
  N  N108  1  0.002800  0.966100  0.176880  1.0  -0.4048
  N  N109  1  0.206300  0.906500  0.169610  1.0  -0.4318
  N  N110  1  0.984600  0.964900  0.075640  1.0  -0.3985
  N  N111  1  0.966100  0.002800  0.823120  1.0  -0.4083
  N  N112  1  0.906500  0.206300  0.830390  1.0  -0.4327
  N  N113  1  0.964900  0.984600  0.924360  1.0  -0.3948
  N  N114  1  0.033900  0.997200  0.323120  1.0  -0.4102
  N  N115  1  0.093500  0.793700  0.330390  1.0  -0.433
  N  N116  1  0.035100  0.015400  0.424360  1.0  -0.3943
  N  N117  1  0.854000  0.146000  0.750000  1.0  -0.3717
  N  N118  1  0.675500  0.324500  0.750000  1.0  -0.384
  N  N119  1  0.146000  0.854000  0.250000  1.0  -0.3718
  N  N120  1  0.324500  0.675500  0.250000  1.0  -0.3819
