# generated using pymatgen
data_Co3H58C64(N4O7)2
_symmetry_space_group_name_H-M   'P 1'
_cell_length_a   9.73000000
_cell_length_b   10.19000000
_cell_length_c   19.52900000
_cell_angle_alpha   78.01100000
_cell_angle_beta   80.40000000
_cell_angle_gamma   87.70500000
_symmetry_Int_Tables_number   1
_chemical_formula_structural   Co3H58C64(N4O7)2
_chemical_formula_sum   'Co3 H58 C64 N8 O14'
_cell_volume   1867.48659683
_cell_formula_units_Z   1
loop_
 _symmetry_equiv_pos_site_id
 _symmetry_equiv_pos_as_xyz
  1  'x, y, z'
loop_
 _atom_site_type_symbol
 _atom_site_label
 _atom_site_symmetry_multiplicity
 _atom_site_fract_x
 _atom_site_fract_y
 _atom_site_fract_z
 _atom_site_occupancy
 _atom_site_charge
  Co  Co1  1  0.313890  0.604390  0.277430  1.0  0.8826
  Co  Co2  1  0.686110  0.395610  0.722570  1.0  0.8797
  Co  Co3  1  0.000000  0.000000  0.000000  1.0  0.7815
  H  H4  1  0.294300  0.071800  0.263600  1.0  0.1164
  H  H5  1  0.263800  0.833000  0.457000  1.0  0.1067
  H  H6  1  0.235500  0.233400  0.437400  1.0  0.1087
  H  H7  1  0.155200  0.838100  0.571300  1.0  0.0796
  H  H8  1  0.318500  0.848400  0.561100  1.0  0.0692
  H  H9  1  0.428400  0.911600  0.653500  1.0  0.0938
  H  H10  1  0.413900  0.921900  0.771600  1.0  0.109
  H  H11  1  0.995400  0.920200  0.793300  1.0  0.1129
  H  H12  1  0.012200  0.901800  0.676200  1.0  0.0967
  H  H13  1  0.565900  0.779700  0.199200  1.0  0.0839
  H  H14  1  0.791000  0.764100  0.143700  1.0  0.1243
  H  H15  1  0.779300  0.370600  0.226900  1.0  0.1102
  H  H16  1  0.554800  0.396800  0.278600  1.0  0.0739
  H  H17  1  0.994600  0.460800  0.159800  1.0  0.0786
  H  H18  1  0.016900  0.616000  0.147600  1.0  0.094
  H  H19  1  0.912400  0.364800  0.071900  1.0  0.0618
  H  H20  1  0.783000  0.461700  0.069700  1.0  0.0801
  H  H21  1  0.147100  0.458400  0.051500  1.0  0.0633
  H  H22  1  0.166100  0.614600  0.036300  1.0  0.0763
  H  H23  1  0.050500  0.765700  0.236800  1.0  0.0779
  H  H24  1  0.825500  0.807500  0.286100  1.0  0.1024
  H  H25  1  0.867100  0.515700  0.453700  1.0  0.1192
  H  H26  1  0.091800  0.482200  0.399500  1.0  0.0726
  H  H27  1  0.614400  0.722100  0.374300  1.0  0.0716
  H  H28  1  0.677400  0.777400  0.431500  1.0  0.0868
  H  H29  1  0.496900  0.518300  0.403600  1.0  0.067
  H  H30  1  0.645300  0.451500  0.402200  1.0  0.0601
  H  H31  1  0.522200  0.702600  0.532600  1.0  0.0721
  H  H32  1  0.422200  0.671300  0.482700  1.0  0.0612
  H  H33  1  0.705700  0.928200  0.736400  1.0  0.1168
  H  H34  1  0.736200  0.167000  0.543000  1.0  0.107
  H  H35  1  0.764500  0.766600  0.562600  1.0  0.1093
  H  H36  1  0.844800  0.161900  0.428700  1.0  0.0803
  H  H37  1  0.681500  0.151600  0.438900  1.0  0.0692
  H  H38  1  0.571600  0.088400  0.346500  1.0  0.094
  H  H39  1  0.586100  0.078100  0.228400  1.0  0.109
  H  H40  1  0.004600  0.079800  0.206700  1.0  0.113
  H  H41  1  0.987800  0.098200  0.323800  1.0  0.0968
  H  H42  1  0.434100  0.220300  0.800800  1.0  0.0835
  H  H43  1  0.209000  0.235900  0.856300  1.0  0.1243
  H  H44  1  0.220700  0.629400  0.773100  1.0  0.1102
  H  H45  1  0.445200  0.603200  0.721400  1.0  0.075
  H  H46  1  0.005400  0.539200  0.840200  1.0  0.0799
  H  H47  1  0.983100  0.384000  0.852400  1.0  0.0976
  H  H48  1  0.087600  0.635200  0.928100  1.0  0.0633
  H  H49  1  0.217000  0.538300  0.930300  1.0  0.08
  H  H50  1  0.852900  0.541600  0.948500  1.0  0.0621
  H  H51  1  0.833900  0.385400  0.963700  1.0  0.0779
  H  H52  1  0.949500  0.234300  0.763200  1.0  0.0787
  H  H53  1  0.174500  0.192500  0.713900  1.0  0.1025
  H  H54  1  0.132900  0.484300  0.546300  1.0  0.1189
  H  H55  1  0.908200  0.517800  0.600500  1.0  0.0727
  H  H56  1  0.385600  0.277900  0.625700  1.0  0.0716
  H  H57  1  0.322600  0.222600  0.568500  1.0  0.089
  H  H58  1  0.503100  0.481700  0.596400  1.0  0.0683
  H  H59  1  0.354700  0.548500  0.597800  1.0  0.059
  H  H60  1  0.477800  0.297400  0.467400  1.0  0.0736
  H  H61  1  0.577800  0.328700  0.517300  1.0  0.0596
  C  C62  1  0.265200  0.311900  0.297500  1.0  0.6655
  C  C63  1  0.263900  0.174200  0.344100  1.0  -0.1078
  C  C64  1  0.283200  0.062000  0.312700  1.0  -0.0768
  C  C65  1  0.285300  0.935900  0.356100  1.0  -0.1069
  C  C66  1  0.311200  0.813000  0.324100  1.0  0.6071
  C  C67  1  0.264400  0.918800  0.428900  1.0  -0.2207
  C  C68  1  0.244200  0.030700  0.460600  1.0  0.2494
  C  C69  1  0.246200  0.158100  0.417000  1.0  -0.1717
  C  C70  1  0.231500  0.892100  0.576100  1.0  0.062
  C  C71  1  0.221800  0.905100  0.652300  1.0  0.0242
  C  C72  1  0.341500  0.912000  0.681700  1.0  -0.1011
  C  C73  1  0.333100  0.919400  0.752300  1.0  -0.0503
  C  C74  1  0.202700  0.923200  0.794500  1.0  -0.1206
  C  C75  1  0.082500  0.917300  0.765600  1.0  -0.0633
  C  C76  1  0.092900  0.907200  0.695100  1.0  -0.0905
  C  C77  1  0.191600  0.932700  0.871600  1.0  0.6743
  C  C78  1  0.608700  0.695800  0.204100  1.0  0.1844
  C  C79  1  0.744900  0.687400  0.170500  1.0  -0.2055
  C  C80  1  0.812500  0.563500  0.177100  1.0  0.136
  C  C81  1  0.737800  0.455100  0.219500  1.0  -0.2213
  C  C82  1  0.602400  0.471700  0.250700  1.0  0.1766
  C  C83  1  0.958100  0.547700  0.139700  1.0  -0.0157
  C  C84  1  0.879700  0.451500  0.049200  1.0  0.0183
  C  C85  1  0.110200  0.543500  0.029100  1.0  0.013
  C  C86  1  0.013600  0.714600  0.280800  1.0  0.1797
  C  C87  1  0.877600  0.740600  0.310500  1.0  -0.2178
  C  C88  1  0.819900  0.667600  0.375900  1.0  0.131
  C  C89  1  0.901800  0.568100  0.409700  1.0  -0.2182
  C  C90  1  0.037300  0.548300  0.376300  1.0  0.1815
  C  C91  1  0.673600  0.699600  0.410500  1.0  -0.0301
  C  C92  1  0.566800  0.482400  0.432600  1.0  -0.0009
  C  C93  1  0.493000  0.633400  0.510800  1.0  -0.0017
  C  C94  1  0.734800  0.688100  0.702500  1.0  0.6669
  C  C95  1  0.736100  0.825800  0.655900  1.0  -0.1065
  C  C96  1  0.716800  0.938000  0.687300  1.0  -0.0776
  C  C97  1  0.714700  0.064100  0.643900  1.0  -0.1016
  C  C98  1  0.688800  0.187000  0.675900  1.0  0.6092
  C  C99  1  0.735600  0.081200  0.571100  1.0  -0.2198
  C  C100  1  0.755800  0.969300  0.539400  1.0  0.2486
  C  C101  1  0.753800  0.841900  0.583000  1.0  -0.1716
  C  C102  1  0.768500  0.107900  0.423900  1.0  0.0685
  C  C103  1  0.778200  0.094900  0.347700  1.0  0.0242
  C  C104  1  0.658500  0.088000  0.318300  1.0  -0.0975
  C  C105  1  0.666900  0.080600  0.247700  1.0  -0.0477
  C  C106  1  0.797300  0.076800  0.205500  1.0  -0.1207
  C  C107  1  0.917500  0.082700  0.234400  1.0  -0.0637
  C  C108  1  0.907100  0.092800  0.304900  1.0  -0.0922
  C  C109  1  0.808400  0.067300  0.128400  1.0  0.6744
  C  C110  1  0.391300  0.304200  0.795900  1.0  0.1847
  C  C111  1  0.255100  0.312600  0.829500  1.0  -0.2035
  C  C112  1  0.187500  0.436500  0.822900  1.0  0.1355
  C  C113  1  0.262200  0.544900  0.780500  1.0  -0.2254
  C  C114  1  0.397600  0.528300  0.749300  1.0  0.1758
  C  C115  1  0.041900  0.452300  0.860300  1.0  -0.0183
  C  C116  1  0.120300  0.548500  0.950800  1.0  0.019
  C  C117  1  0.889800  0.456500  0.970900  1.0  0.0104
  C  C118  1  0.986400  0.285400  0.719200  1.0  0.1808
  C  C119  1  0.122400  0.259400  0.689500  1.0  -0.2226
  C  C120  1  0.180100  0.332400  0.624100  1.0  0.1309
  C  C121  1  0.098200  0.431900  0.590300  1.0  -0.2175
  C  C122  1  0.962700  0.451700  0.623700  1.0  0.1815
  C  C123  1  0.326400  0.300400  0.589500  1.0  -0.0281
  C  C124  1  0.433200  0.517600  0.567400  1.0  -0.0015
  C  C125  1  0.507000  0.366600  0.489200  1.0  -0.0015
  N  N126  1  0.535300  0.590700  0.242890  1.0  -0.3391
  N  N127  1  0.963800  0.558900  0.062650  1.0  -0.3475
  N  N128  1  0.093300  0.619100  0.312830  1.0  -0.3556
  N  N129  1  0.613000  0.588600  0.464580  1.0  -0.295
  N  N130  1  0.464700  0.409300  0.757110  1.0  -0.3381
  N  N131  1  0.036200  0.441100  0.937350  1.0  -0.349
  N  N132  1  0.906700  0.380900  0.687170  1.0  -0.3574
  N  N133  1  0.387000  0.411400  0.535420  1.0  -0.2952
  O  O134  1  0.302200  0.405900  0.323740  1.0  -0.5891
  O  O135  1  0.231300  0.325500  0.237290  1.0  -0.5884
  O  O136  1  0.321800  0.822800  0.257530  1.0  -0.5731
  O  O137  1  0.320600  0.700400  0.364680  1.0  -0.5418
  O  O138  1  0.084700  0.994500  0.896110  1.0  -0.6326
  O  O139  1  0.286000  0.882800  0.905340  1.0  -0.5551
  O  O140  1  0.225100  0.024400  0.532510  1.0  -0.2777
  O  O141  1  0.697800  0.594100  0.676260  1.0  -0.5877
  O  O142  1  0.768700  0.674500  0.762710  1.0  -0.5855
  O  O143  1  0.678200  0.177200  0.742470  1.0  -0.573
  O  O144  1  0.679400  0.299600  0.635320  1.0  -0.5412
  O  O145  1  0.915300  0.005500  0.103890  1.0  -0.6337
  O  O146  1  0.714000  0.117200  0.094660  1.0  -0.5581
  O  O147  1  0.774900  0.975600  0.467490  1.0  -0.2785
