# generated using pymatgen
data_CdH11C9N2ClO3
_symmetry_space_group_name_H-M   'P 1'
_cell_length_a   5.87510000
_cell_length_b   15.06700000
_cell_length_c   16.41600000
_cell_angle_alpha   90.00000000
_cell_angle_beta   90.00000000
_cell_angle_gamma   90.00000000
_symmetry_Int_Tables_number   1
_chemical_formula_structural   CdH11C9N2ClO3
_chemical_formula_sum   'Cd4 H44 C36 N8 Cl4 O12'
_cell_volume   1453.14648199
_cell_formula_units_Z   4
loop_
 _symmetry_equiv_pos_site_id
 _symmetry_equiv_pos_as_xyz
  1  'x, y, z'
loop_
 _atom_site_type_symbol
 _atom_site_label
 _atom_site_symmetry_multiplicity
 _atom_site_fract_x
 _atom_site_fract_y
 _atom_site_fract_z
 _atom_site_occupancy
 _atom_site_charge
  Cd  Cd1  1  0.387000  0.588590  0.963660  1.0  0.889
  Cd  Cd2  1  0.113000  0.411410  0.463660  1.0  0.8891
  Cd  Cd3  1  0.613000  0.088590  0.536340  1.0  0.8879
  Cd  Cd4  1  0.887000  0.911410  0.036340  1.0  0.8893
  H  H5  1  0.470800  0.387100  0.246100  1.0  0.1355
  H  H6  1  0.652000  0.370600  0.369200  1.0  0.0704
  H  H7  1  0.177100  0.505100  0.292200  1.0  0.0687
  H  H8  1  0.011900  0.526600  0.167400  1.0  0.1212
  H  H9  1  0.786700  0.554600  0.048600  1.0  0.2631
  H  H10  1  0.435300  0.470000  0.123700  1.0  0.0879
  H  H11  1  0.637300  0.424900  0.077600  1.0  0.1227
  H  H12  1  0.742300  0.638700  0.162700  1.0  0.0919
  H  H13  1  0.381900  0.708300  0.182700  1.0  0.0748
  H  H14  1  0.368500  0.605400  0.196500  1.0  0.0706
  H  H15  1  0.190000  0.690000  0.071000  1.0  0.3653
  H  H16  1  0.029200  0.612900  0.746100  1.0  0.136
  H  H17  1  0.848000  0.629400  0.869200  1.0  0.0706
  H  H18  1  0.322900  0.494900  0.792200  1.0  0.0679
  H  H19  1  0.488100  0.473400  0.667400  1.0  0.1219
  H  H20  1  0.713300  0.445400  0.548600  1.0  0.264
  H  H21  1  0.064700  0.530000  0.623700  1.0  0.0913
  H  H22  1  0.862700  0.575100  0.577600  1.0  0.1233
  H  H23  1  0.757700  0.361300  0.662700  1.0  0.0924
  H  H24  1  0.118100  0.291700  0.682700  1.0  0.0772
  H  H25  1  0.131500  0.394600  0.696500  1.0  0.0698
  H  H26  1  0.310000  0.310000  0.571000  1.0  0.365
  H  H27  1  0.529200  0.887100  0.253900  1.0  0.1358
  H  H28  1  0.348000  0.870600  0.130800  1.0  0.07
  H  H29  1  0.822900  0.005100  0.207800  1.0  0.067
  H  H30  1  0.988100  0.026600  0.332600  1.0  0.1218
  H  H31  1  0.213300  0.054600  0.451400  1.0  0.2631
  H  H32  1  0.564700  0.970000  0.376300  1.0  0.0878
  H  H33  1  0.362700  0.924900  0.422400  1.0  0.1233
  H  H34  1  0.257700  0.138700  0.337300  1.0  0.0924
  H  H35  1  0.618100  0.208300  0.317300  1.0  0.0736
  H  H36  1  0.631500  0.105400  0.303500  1.0  0.0702
  H  H37  1  0.810000  0.190000  0.429000  1.0  0.3676
  H  H38  1  0.970800  0.112900  0.753900  1.0  0.1354
  H  H39  1  0.152000  0.129400  0.630800  1.0  0.0702
  H  H40  1  0.677100  0.994900  0.707800  1.0  0.0673
  H  H41  1  0.511900  0.973400  0.832600  1.0  0.1211
  H  H42  1  0.286700  0.945400  0.951400  1.0  0.2617
  H  H43  1  0.935300  0.030000  0.876300  1.0  0.0887
  H  H44  1  0.137300  0.075100  0.922400  1.0  0.1226
  H  H45  1  0.242300  0.861300  0.837300  1.0  0.0916
  H  H46  1  0.881900  0.791700  0.817300  1.0  0.0742
  H  H47  1  0.868500  0.894600  0.803500  1.0  0.07
  H  H48  1  0.690000  0.810000  0.929000  1.0  0.3667
  C  C49  1  0.613500  0.412300  0.254300  1.0  -0.2291
  C  C50  1  0.719000  0.460100  0.192700  1.0  0.1276
  C  C51  1  0.723800  0.402700  0.328200  1.0  0.1935
  C  C52  1  0.032700  0.481900  0.282900  1.0  0.1771
  C  C53  1  0.935200  0.495000  0.207600  1.0  -0.2192
  C  C54  1  0.597700  0.473600  0.113600  1.0  -0.0367
  C  C55  1  0.629000  0.640500  0.118900  1.0  -0.0974
  C  C56  1  0.392500  0.651100  0.155800  1.0  0.1394
  C  C57  1  0.678700  0.719600  0.063200  1.0  0.6365
  C  C58  1  0.886500  0.587700  0.754300  1.0  -0.2307
  C  C59  1  0.781000  0.539900  0.692700  1.0  0.1266
  C  C60  1  0.776200  0.597300  0.828200  1.0  0.1936
  C  C61  1  0.467300  0.518100  0.782900  1.0  0.1775
  C  C62  1  0.564800  0.505000  0.707600  1.0  -0.2187
  C  C63  1  0.902300  0.526400  0.613600  1.0  -0.0381
  C  C64  1  0.871000  0.359500  0.618900  1.0  -0.0977
  C  C65  1  0.107500  0.348900  0.655800  1.0  0.1391
  C  C66  1  0.821300  0.280400  0.563200  1.0  0.6366
  C  C67  1  0.386500  0.912300  0.245700  1.0  -0.2301
  C  C68  1  0.281000  0.960100  0.307300  1.0  0.1277
  C  C69  1  0.276200  0.902700  0.171800  1.0  0.1925
  C  C70  1  0.967300  0.981900  0.217100  1.0  0.1766
  C  C71  1  0.064800  0.995000  0.292400  1.0  -0.2183
  C  C72  1  0.402300  0.973600  0.386400  1.0  -0.0373
  C  C73  1  0.371000  0.140500  0.381100  1.0  -0.0947
  C  C74  1  0.607500  0.151100  0.344200  1.0  0.1318
  C  C75  1  0.321300  0.219600  0.436800  1.0  0.637
  C  C76  1  0.113500  0.087700  0.745700  1.0  -0.2306
  C  C77  1  0.219000  0.039900  0.807300  1.0  0.1274
  C  C78  1  0.223800  0.097300  0.671800  1.0  0.1928
  C  C79  1  0.532700  0.018100  0.717100  1.0  0.1777
  C  C80  1  0.435200  0.005000  0.792400  1.0  -0.2196
  C  C81  1  0.097700  0.026400  0.886400  1.0  -0.0379
  C  C82  1  0.129000  0.859500  0.881100  1.0  -0.0946
  C  C83  1  0.892500  0.848900  0.844200  1.0  0.1356
  C  C84  1  0.178700  0.780400  0.936800  1.0  0.6375
  N  N85  1  0.931100  0.437600  0.343300  1.0  -0.3482
  N  N86  1  0.644300  0.557900  0.070200  1.0  -0.403
  N  N87  1  0.568900  0.562400  0.843300  1.0  -0.3497
  N  N88  1  0.855700  0.442100  0.570200  1.0  -0.4029
  N  N89  1  0.068900  0.937600  0.156700  1.0  -0.348
  N  N90  1  0.355700  0.057900  0.429800  1.0  -0.4036
  N  N91  1  0.431100  0.062400  0.656700  1.0  -0.3474
  N  N92  1  0.144300  0.942100  0.929800  1.0  -0.4022
  Cl  Cl93  1  0.099100  0.469160  0.967410  1.0  -0.5963
  Cl  Cl94  1  0.400900  0.530840  0.467410  1.0  -0.5966
  Cl  Cl95  1  0.900900  0.969160  0.532590  1.0  -0.5965
  Cl  Cl96  1  0.599100  0.030840  0.032590  1.0  -0.5958
  O  O97  1  0.663600  0.707400  0.987620  1.0  -0.5694
  O  O98  1  0.219500  0.644800  0.094600  1.0  -0.5518
  O  O99  1  0.718100  0.791700  0.097640  1.0  -0.582
  O  O100  1  0.836400  0.292600  0.487620  1.0  -0.5694
  O  O101  1  0.280500  0.355200  0.594600  1.0  -0.5523
  O  O102  1  0.781900  0.208300  0.597640  1.0  -0.5822
  O  O103  1  0.336400  0.207400  0.512380  1.0  -0.5686
  O  O104  1  0.780500  0.144800  0.405400  1.0  -0.5511
  O  O105  1  0.281900  0.291700  0.402360  1.0  -0.5822
  O  O106  1  0.163600  0.792600  0.012380  1.0  -0.5693
  O  O107  1  0.719500  0.855200  0.905400  1.0  -0.5517
  O  O108  1  0.218100  0.708300  0.902360  1.0  -0.5823
