# generated using pymatgen
data_U4ZnP8H20(C2O7)4
_symmetry_space_group_name_H-M   'P 1'
_cell_length_a   9.71110000
_cell_length_b   16.73870000
_cell_length_c   18.02260000
_cell_angle_alpha   90.00000000
_cell_angle_beta   90.29000000
_cell_angle_gamma   90.00000000
_symmetry_Int_Tables_number   1
_chemical_formula_structural   U4ZnP8H20(C2O7)4
_chemical_formula_sum   'U8 Zn2 P16 H40 C16 O56'
_cell_volume   2929.55754357
_cell_formula_units_Z   2
loop_
 _symmetry_equiv_pos_site_id
 _symmetry_equiv_pos_as_xyz
  1  'x, y, z'
loop_
 _atom_site_type_symbol
 _atom_site_label
 _atom_site_symmetry_multiplicity
 _atom_site_fract_x
 _atom_site_fract_y
 _atom_site_fract_z
 _atom_site_occupancy
 _atom_site_charge
  U  U1  1  0.888080  0.714090  0.503300  1.0  1.556
  U  U2  1  0.399740  0.709510  0.787840  1.0  1.6763
  U  U3  1  0.111920  0.214090  0.996700  1.0  1.5564
  U  U4  1  0.600260  0.209510  0.712160  1.0  1.6757
  U  U5  1  0.111920  0.285910  0.496700  1.0  1.5561
  U  U6  1  0.600260  0.290490  0.212160  1.0  1.6754
  U  U7  1  0.888080  0.785910  0.003300  1.0  1.5554
  U  U8  1  0.399740  0.790490  0.287840  1.0  1.6759
  Zn  Zn9  1  0.500000  0.500000  0.500000  1.0  1.1458
  Zn  Zn10  1  0.500000  0.000000  0.000000  1.0  1.1458
  P  P11  1  0.586900  0.649180  0.611290  1.0  1.5385
  P  P12  1  0.523200  0.687190  0.451710  1.0  1.4845
  P  P13  1  0.020800  0.749010  0.809970  1.0  1.494
  P  P14  1  0.089900  0.649970  0.674640  1.0  1.5282
  P  P15  1  0.413100  0.149180  0.888710  1.0  1.5366
  P  P16  1  0.476800  0.187190  0.048290  1.0  1.4858
  P  P17  1  0.979200  0.249010  0.690030  1.0  1.493
  P  P18  1  0.910100  0.149970  0.825360  1.0  1.5267
  P  P19  1  0.413100  0.350820  0.388710  1.0  1.5372
  P  P20  1  0.476800  0.312810  0.548290  1.0  1.4856
  P  P21  1  0.979200  0.250990  0.190030  1.0  1.4956
  P  P22  1  0.910100  0.350030  0.325360  1.0  1.5281
  P  P23  1  0.586900  0.850820  0.111290  1.0  1.5377
  P  P24  1  0.523200  0.812810  0.951710  1.0  1.4845
  P  P25  1  0.020800  0.750990  0.309970  1.0  1.4967
  P  P26  1  0.089900  0.850030  0.174640  1.0  1.5294
  H  H27  1  0.043000  0.547500  0.624200  1.0  0.4625
  H  H28  1  0.910300  0.829900  0.754000  1.0  0.443
  H  H29  1  0.324700  0.672400  0.602200  1.0  0.4038
  H  H30  1  0.835200  0.621900  0.702600  1.0  0.398
  H  H31  1  0.421600  0.825700  0.535000  1.0  0.1329
  H  H32  1  0.578500  0.816400  0.553900  1.0  0.1121
  H  H33  1  0.468300  0.807100  0.616600  1.0  0.1291
  H  H34  1  0.961600  0.591500  0.856100  1.0  0.1282
  H  H35  1  0.113100  0.587900  0.826700  1.0  0.111
  H  H36  1  0.997800  0.536500  0.788500  1.0  0.1257
  H  H37  1  0.957000  0.047500  0.875800  1.0  0.462
  H  H38  1  0.089700  0.329900  0.746000  1.0  0.4406
  H  H39  1  0.675300  0.172400  0.897800  1.0  0.4003
  H  H40  1  0.164800  0.121900  0.797400  1.0  0.3984
  H  H41  1  0.578400  0.325700  0.965000  1.0  0.1322
  H  H42  1  0.421500  0.316400  0.946100  1.0  0.1217
  H  H43  1  0.531700  0.307100  0.883400  1.0  0.1299
  H  H44  1  0.038400  0.091500  0.643900  1.0  0.1274
  H  H45  1  0.886900  0.087900  0.673300  1.0  0.1226
  H  H46  1  0.002200  0.036500  0.711500  1.0  0.1263
  H  H47  1  0.957000  0.452500  0.375800  1.0  0.4636
  H  H48  1  0.089700  0.170100  0.246000  1.0  0.4411
  H  H49  1  0.675300  0.327600  0.397800  1.0  0.4005
  H  H50  1  0.164800  0.378100  0.297400  1.0  0.3982
  H  H51  1  0.578400  0.174300  0.465000  1.0  0.1329
  H  H52  1  0.421500  0.183600  0.446100  1.0  0.1219
  H  H53  1  0.531700  0.192900  0.383400  1.0  0.129
  H  H54  1  0.038400  0.408500  0.143900  1.0  0.127
  H  H55  1  0.886900  0.412100  0.173300  1.0  0.1208
  H  H56  1  0.002200  0.463500  0.211500  1.0  0.1264
  H  H57  1  0.043000  0.952500  0.124200  1.0  0.4637
  H  H58  1  0.910300  0.670100  0.254000  1.0  0.4426
  H  H59  1  0.324700  0.827600  0.102200  1.0  0.403
  H  H60  1  0.835200  0.878100  0.202600  1.0  0.3982
  H  H61  1  0.421600  0.674300  0.035000  1.0  0.1322
  H  H62  1  0.578500  0.683600  0.053900  1.0  0.1116
  H  H63  1  0.468300  0.692900  0.116600  1.0  0.1286
  H  H64  1  0.961600  0.908500  0.356100  1.0  0.1281
  H  H65  1  0.113100  0.912100  0.326700  1.0  0.1116
  H  H66  1  0.997800  0.963500  0.288500  1.0  0.1263
  C  C67  1  0.478200  0.708100  0.549000  1.0  -0.3794
  C  C68  1  0.487500  0.797700  0.565100  1.0  -0.2927
  C  C69  1  0.986500  0.655300  0.759500  1.0  -0.3221
  C  C70  1  0.017600  0.586400  0.812700  1.0  -0.3024
  C  C71  1  0.521800  0.208100  0.951000  1.0  -0.3766
  C  C72  1  0.512500  0.297700  0.934900  1.0  -0.2915
  C  C73  1  0.013500  0.155300  0.740500  1.0  -0.3203
  C  C74  1  0.982400  0.086400  0.687300  1.0  -0.3006
  C  C75  1  0.521800  0.291900  0.451000  1.0  -0.377
  C  C76  1  0.512500  0.202300  0.434900  1.0  -0.2877
  C  C77  1  0.013500  0.344700  0.240500  1.0  -0.3201
  C  C78  1  0.982400  0.413600  0.187300  1.0  -0.3017
  C  C79  1  0.478200  0.791900  0.049000  1.0  -0.3804
  C  C80  1  0.487500  0.702300  0.065100  1.0  -0.2891
  C  C81  1  0.986500  0.844700  0.259500  1.0  -0.3221
  C  C82  1  0.017600  0.913600  0.312700  1.0  -0.3033
  O  O83  1  0.674000  0.713200  0.445700  1.0  -0.919
  O  O84  1  0.017600  0.694300  0.614500  1.0  -0.8832
  O  O85  1  0.926900  0.751400  0.875900  1.0  -0.9023
  O  O86  1  0.731900  0.682100  0.601900  1.0  -0.8697
  O  O87  1  0.531300  0.664700  0.688600  1.0  -0.9173
  O  O88  1  0.430700  0.741500  0.405400  1.0  -0.9108
  O  O89  1  0.233400  0.679700  0.692100  1.0  -0.8308
  O  O90  1  0.172900  0.750100  0.829000  1.0  -0.8839
  O  O91  1  0.574800  0.562800  0.590500  1.0  -0.7865
  O  O92  1  0.102000  0.559300  0.655000  1.0  -0.6621
  O  O93  1  0.502000  0.600600  0.434300  1.0  -0.7554
  O  O94  1  0.993000  0.819900  0.754900  1.0  -0.6171
  O  O95  1  0.338300  0.682800  0.558400  1.0  -0.537
  O  O96  1  0.844200  0.651600  0.738500  1.0  -0.5311
  O  O97  1  0.326000  0.213200  0.054300  1.0  -0.9172
  O  O98  1  0.982400  0.194300  0.885500  1.0  -0.8849
  O  O99  1  0.073100  0.251400  0.624100  1.0  -0.9045
  O  O100  1  0.268100  0.182100  0.898100  1.0  -0.8709
  O  O101  1  0.468700  0.164700  0.811400  1.0  -0.9217
  O  O102  1  0.569300  0.241500  0.094600  1.0  -0.9118
  O  O103  1  0.766600  0.179700  0.807900  1.0  -0.8288
  O  O104  1  0.827100  0.250100  0.671000  1.0  -0.8833
  O  O105  1  0.425200  0.062800  0.909500  1.0  -0.7849
  O  O106  1  0.898000  0.059300  0.845000  1.0  -0.6631
  O  O107  1  0.498000  0.100600  0.065700  1.0  -0.7564
  O  O108  1  0.007000  0.319900  0.745100  1.0  -0.6195
  O  O109  1  0.661700  0.182800  0.941600  1.0  -0.5379
  O  O110  1  0.155800  0.151600  0.761500  1.0  -0.5335
  O  O111  1  0.326000  0.286800  0.554300  1.0  -0.917
  O  O112  1  0.982400  0.305700  0.385500  1.0  -0.8815
  O  O113  1  0.073100  0.248600  0.124100  1.0  -0.9046
  O  O114  1  0.268100  0.317900  0.398100  1.0  -0.8711
  O  O115  1  0.468700  0.335300  0.311400  1.0  -0.9224
  O  O116  1  0.569300  0.258500  0.594600  1.0  -0.9116
  O  O117  1  0.766600  0.320300  0.307900  1.0  -0.8286
  O  O118  1  0.827100  0.249900  0.171000  1.0  -0.8829
  O  O119  1  0.425200  0.437200  0.409500  1.0  -0.7865
  O  O120  1  0.898000  0.440700  0.345000  1.0  -0.6627
  O  O121  1  0.498000  0.399400  0.565700  1.0  -0.7559
  O  O122  1  0.007000  0.180100  0.245100  1.0  -0.6224
  O  O123  1  0.661700  0.317200  0.441600  1.0  -0.5382
  O  O124  1  0.155800  0.348400  0.261500  1.0  -0.5347
  O  O125  1  0.674000  0.786800  0.945700  1.0  -0.9191
  O  O126  1  0.017600  0.805700  0.114500  1.0  -0.8787
  O  O127  1  0.926900  0.748600  0.375900  1.0  -0.903
  O  O128  1  0.731900  0.817900  0.101900  1.0  -0.8698
  O  O129  1  0.531300  0.835300  0.188600  1.0  -0.9177
  O  O130  1  0.430700  0.758500  0.905400  1.0  -0.9099
  O  O131  1  0.233400  0.820300  0.192100  1.0  -0.8304
  O  O132  1  0.172900  0.749900  0.329000  1.0  -0.8847
  O  O133  1  0.574800  0.937200  0.090500  1.0  -0.7857
  O  O134  1  0.102000  0.940700  0.155000  1.0  -0.6618
  O  O135  1  0.502000  0.899400  0.934300  1.0  -0.7573
  O  O136  1  0.993000  0.680100  0.254900  1.0  -0.6196
  O  O137  1  0.338300  0.817200  0.058400  1.0  -0.5368
  O  O138  1  0.844200  0.848400  0.238500  1.0  -0.5295
