# generated using pymatgen
data_U2ZnP4H9(C2O7)2
_symmetry_space_group_name_H-M   'P 1'
_cell_length_a   9.69700000
_cell_length_b   17.55780000
_cell_length_c   17.93450000
_cell_angle_alpha   90.00000000
_cell_angle_beta   90.32700000
_cell_angle_gamma   90.00000000
_symmetry_Int_Tables_number   1
_chemical_formula_structural   U2ZnP4H9(C2O7)2
_chemical_formula_sum   'U8 Zn4 P16 H36 C16 O56'
_cell_volume   3053.44213098
_cell_formula_units_Z   4
loop_
 _symmetry_equiv_pos_site_id
 _symmetry_equiv_pos_as_xyz
  1  'x, y, z'
loop_
 _atom_site_type_symbol
 _atom_site_label
 _atom_site_symmetry_multiplicity
 _atom_site_fract_x
 _atom_site_fract_y
 _atom_site_fract_z
 _atom_site_occupancy
 _atom_site_charge
  U  U1  1  0.398660  0.275480  0.219250  1.0  1.677
  U  U2  1  0.903750  0.210200  0.438870  1.0  1.7119
  U  U3  1  0.601340  0.775480  0.280750  1.0  1.6784
  U  U4  1  0.096250  0.710200  0.061130  1.0  1.7129
  U  U5  1  0.601340  0.724520  0.780750  1.0  1.6787
  U  U6  1  0.096250  0.789800  0.561130  1.0  1.7125
  U  U7  1  0.398660  0.224520  0.719250  1.0  1.6771
  U  U8  1  0.903750  0.289800  0.938870  1.0  1.7115
  Zn  Zn9  1  0.233690  0.007500  0.442570  1.0  0.9224
  Zn  Zn10  1  0.766310  0.507500  0.057430  1.0  0.9204
  Zn  Zn11  1  0.766310  0.992500  0.557430  1.0  0.9208
  Zn  Zn12  1  0.233690  0.492500  0.942570  1.0  0.9228
  P  P13  1  0.272700  0.171220  0.384410  1.0  1.5333
  P  P14  1  0.773800  0.234460  0.241350  1.0  1.5374
  P  P15  1  0.207100  0.150850  0.547540  1.0  1.4899
  P  P16  1  0.701700  0.335500  0.110150  1.0  1.5206
  P  P17  1  0.727300  0.671220  0.115590  1.0  1.5345
  P  P18  1  0.226200  0.734460  0.258650  1.0  1.5388
  P  P19  1  0.792900  0.650850  0.952460  1.0  1.4903
  P  P20  1  0.298300  0.835500  0.389850  1.0  1.5194
  P  P21  1  0.727300  0.828780  0.615590  1.0  1.5341
  P  P22  1  0.226200  0.765540  0.758650  1.0  1.5339
  P  P23  1  0.792900  0.849150  0.452460  1.0  1.489
  P  P24  1  0.298300  0.664500  0.889850  1.0  1.5195
  P  P25  1  0.272700  0.328780  0.884410  1.0  1.5336
  P  P26  1  0.773800  0.265540  0.741350  1.0  1.5334
  P  P27  1  0.207100  0.349150  0.047540  1.0  1.4875
  P  P28  1  0.701700  0.164500  0.610150  1.0  1.5207
  H  H29  1  0.892400  0.172600  0.175100  1.0  0.4516
  H  H30  1  0.967400  0.373100  0.158100  1.0  0.3788
  H  H31  1  0.492800  0.182300  0.529400  1.0  0.4157
  H  H32  1  0.354100  0.296500  0.537200  1.0  0.1329
  H  H33  1  0.230900  0.302200  0.480500  1.0  0.1307
  H  H34  1  0.383200  0.305000  0.451800  1.0  0.1276
  H  H35  1  0.848900  0.388300  0.292600  1.0  0.132
  H  H36  1  0.690400  0.385000  0.275300  1.0  0.1306
  H  H37  1  0.785800  0.439700  0.229600  1.0  0.1347
  H  H38  1  0.107600  0.672600  0.324900  1.0  0.4533
  H  H39  1  0.032600  0.873100  0.341900  1.0  0.38
  H  H40  1  0.507200  0.682300  0.970600  1.0  0.4157
  H  H41  1  0.645900  0.796500  0.962800  1.0  0.1324
  H  H42  1  0.769100  0.802200  0.019500  1.0  0.1097
  H  H43  1  0.616800  0.805000  0.048200  1.0  0.1269
  H  H44  1  0.151100  0.888300  0.207400  1.0  0.1286
  H  H45  1  0.309600  0.885000  0.224700  1.0  0.1149
  H  H46  1  0.214200  0.939700  0.270400  1.0  0.1334
  H  H47  1  0.107600  0.827400  0.824900  1.0  0.4535
  H  H48  1  0.032600  0.626900  0.841900  1.0  0.3806
  H  H49  1  0.507200  0.817700  0.470600  1.0  0.4148
  H  H50  1  0.645900  0.703500  0.462800  1.0  0.1321
  H  H51  1  0.769100  0.697800  0.519500  1.0  0.1083
  H  H52  1  0.616800  0.695000  0.548200  1.0  0.1277
  H  H53  1  0.151100  0.611700  0.707400  1.0  0.1283
  H  H54  1  0.309600  0.615000  0.724700  1.0  0.1153
  H  H55  1  0.214200  0.560300  0.770400  1.0  0.1324
  H  H56  1  0.892400  0.327400  0.675100  1.0  0.4501
  H  H57  1  0.967400  0.126900  0.658100  1.0  0.3785
  H  H58  1  0.492800  0.317700  0.029400  1.0  0.415
  H  H59  1  0.354100  0.203500  0.037200  1.0  0.1325
  H  H60  1  0.230900  0.197800  0.980500  1.0  0.1295
  H  H61  1  0.383200  0.195000  0.951800  1.0  0.1276
  H  H62  1  0.848900  0.111700  0.792600  1.0  0.1323
  H  H63  1  0.690400  0.115000  0.775300  1.0  0.1307
  H  H64  1  0.785800  0.060300  0.729600  1.0  0.1326
  C  C65  1  0.322500  0.195800  0.479700  1.0  -0.3345
  C  C66  1  0.322700  0.283100  0.488100  1.0  -0.3363
  C  C67  1  0.805500  0.327000  0.196200  1.0  -0.3077
  C  C68  1  0.780200  0.391100  0.253900  1.0  -0.317
  C  C69  1  0.677500  0.695800  0.020300  1.0  -0.3353
  C  C70  1  0.677300  0.783100  0.011900  1.0  -0.3363
  C  C71  1  0.194500  0.827000  0.303800  1.0  -0.3076
  C  C72  1  0.219800  0.891100  0.246100  1.0  -0.3155
  C  C73  1  0.677500  0.804200  0.520300  1.0  -0.3344
  C  C74  1  0.677300  0.716900  0.511900  1.0  -0.3325
  C  C75  1  0.194500  0.673000  0.803800  1.0  -0.3077
  C  C76  1  0.219800  0.608900  0.746100  1.0  -0.3152
  C  C77  1  0.322500  0.304200  0.979700  1.0  -0.3334
  C  C78  1  0.322700  0.216900  0.988100  1.0  -0.3327
  C  C79  1  0.805500  0.173000  0.696200  1.0  -0.3074
  C  C80  1  0.780200  0.108900  0.753900  1.0  -0.3155
  O  O81  1  0.364100  0.217000  0.333200  1.0  -0.8938
  O  O82  1  0.562100  0.297400  0.124000  1.0  -0.8337
  O  O83  1  0.623000  0.231300  0.260900  1.0  -0.9144
  O  O84  1  0.267200  0.166100  0.624400  1.0  -0.9074
  O  O85  1  0.120600  0.193500  0.378400  1.0  -0.9251
  O  O86  1  0.782000  0.294000  0.050000  1.0  -0.9077
  O  O87  1  0.065500  0.189300  0.537300  1.0  -0.8964
  O  O88  1  0.869100  0.231000  0.309000  1.0  -0.8873
  O  O89  1  0.809100  0.172600  0.182600  1.0  -0.5839
  O  O90  1  0.296700  0.086200  0.372300  1.0  -0.7324
  O  O91  1  0.950300  0.330700  0.174600  1.0  -0.5057
  O  O92  1  0.458200  0.163400  0.491900  1.0  -0.536
  O  O93  1  0.199700  0.066700  0.531600  1.0  -0.7657
  O  O94  1  0.681400  0.419400  0.093500  1.0  -0.8284
  O  O95  1  0.635900  0.717000  0.166800  1.0  -0.8923
  O  O96  1  0.437900  0.797400  0.376000  1.0  -0.8333
  O  O97  1  0.377000  0.731300  0.239100  1.0  -0.9146
  O  O98  1  0.732800  0.666100  0.875600  1.0  -0.9116
  O  O99  1  0.879400  0.693500  0.121600  1.0  -0.9236
  O  O100  1  0.218000  0.794000  0.450000  1.0  -0.9061
  O  O101  1  0.934500  0.689300  0.962700  1.0  -0.896
  O  O102  1  0.130900  0.731000  0.191000  1.0  -0.8863
  O  O103  1  0.190900  0.672600  0.317400  1.0  -0.5831
  O  O104  1  0.703300  0.586200  0.127700  1.0  -0.7325
  O  O105  1  0.049700  0.830700  0.325400  1.0  -0.5029
  O  O106  1  0.541800  0.663400  0.008100  1.0  -0.5288
  O  O107  1  0.800300  0.566700  0.968400  1.0  -0.7655
  O  O108  1  0.318600  0.919400  0.406500  1.0  -0.8288
  O  O109  1  0.635900  0.783000  0.666800  1.0  -0.8932
  O  O110  1  0.437900  0.702600  0.876000  1.0  -0.8339
  O  O111  1  0.377000  0.768700  0.739100  1.0  -0.9142
  O  O112  1  0.732800  0.833900  0.375600  1.0  -0.9122
  O  O113  1  0.879400  0.806500  0.621600  1.0  -0.9235
  O  O114  1  0.218000  0.706000  0.950000  1.0  -0.9075
  O  O115  1  0.934500  0.810700  0.462700  1.0  -0.8959
  O  O116  1  0.130900  0.769000  0.691000  1.0  -0.8857
  O  O117  1  0.190900  0.827400  0.817400  1.0  -0.5824
  O  O118  1  0.703300  0.913800  0.627700  1.0  -0.731
  O  O119  1  0.049700  0.669300  0.825400  1.0  -0.5029
  O  O120  1  0.541800  0.836600  0.508100  1.0  -0.5293
  O  O121  1  0.800300  0.933300  0.468400  1.0  -0.767
  O  O122  1  0.318600  0.580600  0.906500  1.0  -0.828
  O  O123  1  0.364100  0.283000  0.833200  1.0  -0.8948
  O  O124  1  0.562100  0.202600  0.624000  1.0  -0.834
  O  O125  1  0.623000  0.268700  0.760900  1.0  -0.9144
  O  O126  1  0.267200  0.333900  0.124400  1.0  -0.9072
  O  O127  1  0.120600  0.306500  0.878400  1.0  -0.9252
  O  O128  1  0.782000  0.206000  0.550000  1.0  -0.9089
  O  O129  1  0.065500  0.310700  0.037300  1.0  -0.8954
  O  O130  1  0.869100  0.269000  0.809000  1.0  -0.886
  O  O131  1  0.809100  0.327400  0.682600  1.0  -0.5844
  O  O132  1  0.296700  0.413800  0.872300  1.0  -0.7326
  O  O133  1  0.950300  0.169300  0.674600  1.0  -0.504
  O  O134  1  0.458200  0.336600  0.991900  1.0  -0.5347
  O  O135  1  0.199700  0.433300  0.031600  1.0  -0.7661
  O  O136  1  0.681400  0.080600  0.593500  1.0  -0.8274
