# generated using pymatgen
data_Zn3P4H22C14(NO6)2
_symmetry_space_group_name_H-M   'P 1'
_cell_length_a   13.16980000
_cell_length_b   19.67470000
_cell_length_c   19.67470000
_cell_angle_alpha   64.82890000
_cell_angle_beta   77.10740000
_cell_angle_gamma   102.89300000
_symmetry_Int_Tables_number   1
_chemical_formula_structural   Zn3P4H22C14(NO6)2
_chemical_formula_sum   'Zn18 P24 H132 C84 N12 O72'
_cell_volume   4195.14495316
_cell_formula_units_Z   6
loop_
 _symmetry_equiv_pos_site_id
 _symmetry_equiv_pos_as_xyz
  1  'x, y, z'
loop_
 _atom_site_type_symbol
 _atom_site_label
 _atom_site_symmetry_multiplicity
 _atom_site_fract_x
 _atom_site_fract_y
 _atom_site_fract_z
 _atom_site_occupancy
 _atom_site_charge
  Zn  Zn1  1  0.662140  0.493920  0.505030  1.0  0.9919
  Zn  Zn2  1  0.383610  0.279690  0.411890  1.0  1.0067
  Zn  Zn3  1  0.016800  0.553780  0.564710  1.0  1.0065
  Zn  Zn4  1  0.167170  0.505030  0.001050  1.0  0.9918
  Zn  Zn5  1  0.795500  0.411890  0.308420  1.0  1.0067
  Zn  Zn6  1  0.581510  0.564710  0.881510  1.0  1.0064
  Zn  Zn7  1  0.168220  0.001050  0.493920  1.0  0.9918
  Zn  Zn8  1  0.103920  0.308420  0.279690  1.0  1.0071
  Zn  Zn9  1  0.463020  0.881510  0.553780  1.0  1.0067
  Zn  Zn10  1  0.337860  0.506080  0.494970  1.0  0.9934
  Zn  Zn11  1  0.616390  0.720310  0.588110  1.0  1.0071
  Zn  Zn12  1  0.983200  0.446220  0.435290  1.0  1.0066
  Zn  Zn13  1  0.832830  0.494970  0.998950  1.0  0.9936
  Zn  Zn14  1  0.204500  0.588110  0.691580  1.0  1.0068
  Zn  Zn15  1  0.418490  0.435290  0.118490  1.0  1.0059
  Zn  Zn16  1  0.831780  0.998950  0.506080  1.0  0.9932
  Zn  Zn17  1  0.896080  0.691580  0.720310  1.0  1.0071
  Zn  Zn18  1  0.536980  0.118490  0.446220  1.0  1.0071
  P  P19  1  0.811040  0.422200  0.590210  1.0  1.6013
  P  P20  1  0.854000  0.548620  0.344930  1.0  1.4904
  P  P21  1  0.477800  0.416910  0.447010  1.0  1.6214
  P  P22  1  0.315420  0.407060  0.288510  1.0  1.6278
  P  P23  1  0.401250  0.590210  0.987590  1.0  1.5942
  P  P24  1  0.198930  0.344930  0.106450  1.0  1.5027
  P  P25  1  0.924810  0.447010  0.136080  1.0  1.6217
  P  P26  1  0.603930  0.288510  0.304430  1.0  1.6277
  P  P27  1  0.388840  0.987590  0.422200  1.0  1.6033
  P  P28  1  0.305380  0.106450  0.548620  1.0  1.5077
  P  P29  1  0.060890  0.136080  0.416910  1.0  1.6228
  P  P30  1  0.908360  0.304430  0.407060  1.0  1.6279
  P  P31  1  0.188960  0.577800  0.409790  1.0  1.5966
  P  P32  1  0.146000  0.451380  0.655070  1.0  1.5017
  P  P33  1  0.522200  0.583090  0.552990  1.0  1.6202
  P  P34  1  0.684580  0.592940  0.711490  1.0  1.6278
  P  P35  1  0.598750  0.409790  0.012410  1.0  1.6014
  P  P36  1  0.801070  0.655070  0.893550  1.0  1.4935
  P  P37  1  0.075190  0.552990  0.863920  1.0  1.6221
  P  P38  1  0.396070  0.711490  0.695570  1.0  1.6278
  P  P39  1  0.611160  0.012410  0.577800  1.0  1.6008
  P  P40  1  0.694620  0.893550  0.451380  1.0  1.5076
  P  P41  1  0.939110  0.863920  0.583090  1.0  1.6219
  P  P42  1  0.091640  0.695570  0.592940  1.0  1.6279
  H  H43  1  0.788200  0.372200  0.659700  1.0  -0.0127
  H  H44  1  0.900000  0.617600  0.285000  1.0  -0.0365
  H  H45  1  0.550100  0.475400  0.365400  1.0  -0.1583
  H  H46  1  0.338400  0.478500  0.298900  1.0  -0.1342
  H  H47  1  0.447900  0.659700  0.968100  1.0  -0.0087
  H  H48  1  0.185000  0.285000  0.097400  1.0  -0.0384
  H  H49  1  0.915500  0.365400  0.159200  1.0  -0.1589
  H  H50  1  0.637300  0.298900  0.222600  1.0  -0.1371
  H  H51  1  0.416000  0.968100  0.372200  1.0  -0.0105
  H  H52  1  0.282400  0.097400  0.617600  1.0  -0.0419
  H  H53  1  0.074700  0.159200  0.475400  1.0  -0.1633
  H  H54  1  0.859900  0.222600  0.478500  1.0  -0.1346
  H  H55  1  0.211800  0.627800  0.340300  1.0  -0.0089
  H  H56  1  0.100000  0.382400  0.715000  1.0  -0.0371
  H  H57  1  0.449900  0.524600  0.634600  1.0  -0.1596
  H  H58  1  0.661600  0.521500  0.701100  1.0  -0.1355
  H  H59  1  0.552100  0.340300  0.031900  1.0  -0.008
  H  H60  1  0.815000  0.715000  0.902600  1.0  -0.0414
  H  H61  1  0.084500  0.634600  0.840800  1.0  -0.1585
  H  H62  1  0.362700  0.701100  0.777400  1.0  -0.1418
  H  H63  1  0.584000  0.031900  0.627800  1.0  -0.0141
  H  H64  1  0.717600  0.902600  0.382400  1.0  -0.0363
  H  H65  1  0.925300  0.840800  0.524600  1.0  -0.1604
  H  H66  1  0.140100  0.777400  0.521500  1.0  -0.134
  H  H67  1  0.384300  0.243000  0.174700  1.0  0.0721
  H  H68  1  0.318900  0.060900  0.090700  1.0  0.1592
  H  H69  1  0.342400  0.209100  0.079600  1.0  0.1158
  H  H70  1  0.225200  0.144500  0.107400  1.0  0.1118
  H  H71  1  0.206100  0.158700  0.214600  1.0  0.0733
  H  H72  1  0.244000  0.084300  0.240400  1.0  0.08
  H  H73  1  0.266400  0.187600  0.301400  1.0  0.195
  H  H74  1  0.381800  0.210300  0.296200  1.0  0.1924
  H  H75  1  0.315300  0.126200  0.329400  1.0  0.1855
  H  H76  1  0.875100  0.778300  0.448100  1.0  0.0951
  H  H77  1  0.139000  0.920100  0.203500  1.0  0.1435
  H  H78  1  0.134400  0.897400  0.331700  1.0  0.1008
  H  H79  1  0.010900  0.895500  0.351100  1.0  0.0923
  H  H80  1  0.043300  0.758100  0.354100  1.0  0.082
  H  H81  1  0.049500  0.768700  0.428000  1.0  0.0729
  H  H82  1  0.895600  0.662200  0.519500  1.0  0.2114
  H  H83  1  0.866300  0.633600  0.466900  1.0  0.2068
  H  H84  1  0.784700  0.649600  0.515300  1.0  0.185
  H  H85  1  0.559000  0.174700  0.582300  1.0  0.0738
  H  H86  1  0.409600  0.090700  0.848400  1.0  0.1562
  H  H87  1  0.422000  0.079600  0.711300  1.0  0.1134
  H  H88  1  0.332600  0.107400  0.748100  1.0  0.113
  H  H89  1  0.420700  0.214600  0.626700  1.0  0.0743
  H  H90  1  0.484400  0.240400  0.675300  1.0  0.0831
  H  H91  1  0.567800  0.301400  0.511000  1.0  0.1951
  H  H92  1  0.678000  0.296200  0.493500  1.0  0.2002
  H  H93  1  0.644700  0.329400  0.544400  1.0  0.1843
  H  H94  1  0.323200  0.448100  0.773600  1.0  0.0969
  H  H95  1  0.342500  0.203500  0.876400  1.0  0.1456
  H  H96  1  0.466100  0.331700  0.770900  1.0  0.0956
  H  H97  1  0.362000  0.351100  0.753400  1.0  0.0908
  H  H98  1  0.397400  0.354100  0.887800  1.0  0.0824
  H  H99  1  0.477500  0.428000  0.803300  1.0  0.0708
  H  H100  1  0.415100  0.519500  0.818300  1.0  0.2146
  H  H101  1  0.333200  0.466900  0.899500  1.0  0.2099
  H  H102  1  0.300000  0.515300  0.835100  1.0  0.1907
  H  H103  1  0.141300  0.582300  0.243000  1.0  0.0755
  H  H104  1  0.258000  0.848400  0.060900  1.0  0.157
  H  H105  1  0.133300  0.711300  0.209100  1.0  0.113
  H  H106  1  0.080700  0.748100  0.144500  1.0  0.109
  H  H107  1  0.047400  0.626700  0.158700  1.0  0.0709
  H  H108  1  0.159700  0.675300  0.084300  1.0  0.082
  H  H109  1  0.078800  0.511000  0.187600  1.0  0.1975
  H  H110  1  0.171500  0.493500  0.210300  1.0  0.1931
  H  H111  1  0.189100  0.544400  0.126200  1.0  0.1819
  H  H112  1  0.096800  0.773600  0.778300  1.0  0.0951
  H  H113  1  0.218900  0.876400  0.920100  1.0  0.1403
  H  H114  1  0.237000  0.770900  0.897400  1.0  0.1013
  H  H115  1  0.115400  0.753400  0.895500  1.0  0.0934
  H  H116  1  0.285200  0.887800  0.758100  1.0  0.081
  H  H117  1  0.280800  0.803300  0.768700  1.0  0.0704
  H  H118  1  0.233400  0.818300  0.662200  1.0  0.2144
  H  H119  1  0.232700  0.899500  0.633600  1.0  0.208
  H  H120  1  0.135100  0.835100  0.649600  1.0  0.1907
  H  H121  1  0.615700  0.757000  0.825300  1.0  0.0708
  H  H122  1  0.681100  0.939100  0.909300  1.0  0.1573
  H  H123  1  0.657600  0.790900  0.920400  1.0  0.1167
  H  H124  1  0.774800  0.855500  0.892600  1.0  0.1119
  H  H125  1  0.793900  0.841300  0.785400  1.0  0.074
  H  H126  1  0.756000  0.915700  0.759600  1.0  0.0787
  H  H127  1  0.733600  0.812400  0.698600  1.0  0.198
  H  H128  1  0.618200  0.789700  0.703800  1.0  0.1931
  H  H129  1  0.684700  0.873800  0.670600  1.0  0.186
  H  H130  1  0.124900  0.221700  0.551900  1.0  0.0949
  H  H131  1  0.861000  0.079900  0.796500  1.0  0.1434
  H  H132  1  0.865600  0.102600  0.668300  1.0  0.1004
  H  H133  1  0.989100  0.104500  0.648900  1.0  0.0922
  H  H134  1  0.956700  0.241900  0.645900  1.0  0.082
  H  H135  1  0.950500  0.231300  0.572000  1.0  0.0733
  H  H136  1  0.104400  0.337800  0.480500  1.0  0.2076
  H  H137  1  0.133700  0.366400  0.533100  1.0  0.2058
  H  H138  1  0.215300  0.350400  0.484700  1.0  0.181
  H  H139  1  0.441000  0.825300  0.417700  1.0  0.0745
  H  H140  1  0.590400  0.909300  0.151600  1.0  0.1583
  H  H141  1  0.578000  0.920400  0.288700  1.0  0.112
  H  H142  1  0.667400  0.892600  0.251900  1.0  0.112
  H  H143  1  0.579300  0.785400  0.373300  1.0  0.0773
  H  H144  1  0.515600  0.759600  0.324700  1.0  0.0825
  H  H145  1  0.432200  0.698600  0.489000  1.0  0.2017
  H  H146  1  0.322000  0.703800  0.506500  1.0  0.1945
  H  H147  1  0.355300  0.670600  0.455600  1.0  0.1824
  H  H148  1  0.676800  0.551900  0.226400  1.0  0.0974
  H  H149  1  0.657500  0.796500  0.123600  1.0  0.1456
  H  H150  1  0.533900  0.668300  0.229100  1.0  0.098
  H  H151  1  0.638000  0.648900  0.246600  1.0  0.0913
  H  H152  1  0.602600  0.645900  0.112200  1.0  0.0828
  H  H153  1  0.522500  0.572000  0.196700  1.0  0.0681
  H  H154  1  0.584900  0.480500  0.181700  1.0  0.2126
  H  H155  1  0.666800  0.533100  0.100500  1.0  0.2073
  H  H156  1  0.700000  0.484700  0.164900  1.0  0.1948
  H  H157  1  0.858700  0.417700  0.757000  1.0  0.0759
  H  H158  1  0.742000  0.151600  0.939100  1.0  0.156
  H  H159  1  0.866700  0.288700  0.790900  1.0  0.1129
  H  H160  1  0.919300  0.251900  0.855500  1.0  0.1064
  H  H161  1  0.952600  0.373300  0.841300  1.0  0.072
  H  H162  1  0.840300  0.324700  0.915700  1.0  0.0818
  H  H163  1  0.921200  0.489000  0.812400  1.0  0.2029
  H  H164  1  0.828500  0.506500  0.789700  1.0  0.1948
  H  H165  1  0.810900  0.455600  0.873800  1.0  0.1819
  H  H166  1  0.903200  0.226400  0.221700  1.0  0.0948
  H  H167  1  0.781100  0.123600  0.079900  1.0  0.1413
  H  H168  1  0.763000  0.229100  0.102600  1.0  0.1
  H  H169  1  0.884600  0.246600  0.104500  1.0  0.0931
  H  H170  1  0.714800  0.112200  0.241900  1.0  0.0822
  H  H171  1  0.719200  0.196700  0.231300  1.0  0.0671
  H  H172  1  0.766600  0.181700  0.337800  1.0  0.2112
  H  H173  1  0.767300  0.100500  0.366400  1.0  0.2075
  H  H174  1  0.864900  0.164900  0.350400  1.0  0.1909
  C  C175  1  0.363980  0.185880  0.213040  1.0  0.1718
  C  C176  1  0.470800  0.167900  0.200100  1.0  -0.1043
  C  C177  1  0.468600  0.095600  0.193500  1.0  -0.011
  C  C178  1  0.460200  0.102000  0.117100  1.0  0.0007
  C  C179  1  0.351500  0.097100  0.105300  1.0  -0.0583
  C  C180  1  0.294000  0.153800  0.117900  1.0  -0.3131
  C  C181  1  0.267780  0.141480  0.202240  1.0  -0.1215
  C  C182  1  0.895500  0.747800  0.422400  1.0  0.1367
  C  C183  1  0.828400  0.753400  0.368300  1.0  -0.0279
  C  C184  1  0.864900  0.833200  0.294200  1.0  0.0567
  C  C185  1  0.966700  0.863200  0.229400  1.0  -0.0308
  C  C186  1  0.070100  0.891700  0.245300  1.0  -0.0579
  C  C187  1  0.061700  0.873300  0.331600  1.0  -0.3062
  C  C188  1  0.018500  0.782100  0.385600  1.0  -0.1181
  C  C189  1  0.577020  0.213040  0.601080  1.0  0.1697
  C  C190  1  0.670900  0.200100  0.632000  1.0  -0.1012
  C  C191  1  0.662100  0.193500  0.710900  1.0  -0.0107
  C  C192  1  0.577300  0.117100  0.780900  1.0  0.0006
  C  C193  1  0.456800  0.105300  0.797600  1.0  -0.0562
  C  C194  1  0.411900  0.117900  0.728300  1.0  -0.317
  C  C195  1  0.470020  0.202240  0.656280  1.0  -0.1206
  C  C196  1  0.317900  0.422400  0.829800  1.0  0.1427
  C  C197  1  0.196700  0.368300  0.878300  1.0  -0.037
  C  C198  1  0.159100  0.294200  0.872600  1.0  0.0532
  C  C199  1  0.196100  0.229400  0.907400  1.0  -0.0245
  C  C200  1  0.315400  0.245300  0.863000  1.0  -0.0583
  C  C201  1  0.393300  0.331600  0.795100  1.0  -0.303
  C  C202  1  0.404100  0.385600  0.832300  1.0  -0.1182
  C  C203  1  0.178100  0.601080  0.185880  1.0  0.1699
  C  C204  1  0.302900  0.632000  0.167900  1.0  -0.1067
  C  C205  1  0.373000  0.710900  0.095600  1.0  -0.0106
  C  C206  1  0.358200  0.780900  0.102000  1.0  -0.0015
  C  C207  1  0.254400  0.797600  0.097100  1.0  -0.0569
  C  C208  1  0.140200  0.728300  0.153800  1.0  -0.3148
  C  C209  1  0.126300  0.656280  0.141480  1.0  -0.123
  C  C210  1  0.147700  0.829800  0.747800  1.0  0.1403
  C  C211  1  0.075000  0.878300  0.753400  1.0  -0.0311
  C  C212  1  0.031700  0.872600  0.833200  1.0  0.0558
  C  C213  1  0.103500  0.907400  0.863200  1.0  -0.0247
  C  C214  1  0.178400  0.863000  0.891700  1.0  -0.0555
  C  C215  1  0.188400  0.795100  0.873300  1.0  -0.3035
  C  C216  1  0.236400  0.832300  0.782100  1.0  -0.1167
  C  C217  1  0.636020  0.814120  0.786960  1.0  0.1677
  C  C218  1  0.529200  0.832100  0.799900  1.0  -0.1102
  C  C219  1  0.531400  0.904400  0.806500  1.0  -0.0125
  C  C220  1  0.539800  0.898000  0.882900  1.0  0.0011
  C  C221  1  0.648500  0.902900  0.894700  1.0  -0.0572
  C  C222  1  0.706000  0.846200  0.882100  1.0  -0.3132
  C  C223  1  0.732220  0.858520  0.797760  1.0  -0.1216
  C  C224  1  0.104500  0.252200  0.577600  1.0  0.1427
  C  C225  1  0.171600  0.246600  0.631700  1.0  -0.0323
  C  C226  1  0.135100  0.166800  0.705800  1.0  0.0541
  C  C227  1  0.033300  0.136800  0.770600  1.0  -0.0332
  C  C228  1  0.929900  0.108300  0.754700  1.0  -0.059
  C  C229  1  0.938300  0.126700  0.668400  1.0  -0.3052
  C  C230  1  0.981500  0.217900  0.614400  1.0  -0.1161
  C  C231  1  0.422980  0.786960  0.398920  1.0  0.1666
  C  C232  1  0.329100  0.799900  0.368000  1.0  -0.1075
  C  C233  1  0.337900  0.806500  0.289100  1.0  -0.0107
  C  C234  1  0.422700  0.882900  0.219100  1.0  0.0025
  C  C235  1  0.543200  0.894700  0.202400  1.0  -0.0574
  C  C236  1  0.588100  0.882100  0.271700  1.0  -0.314
  C  C237  1  0.529980  0.797760  0.343720  1.0  -0.1208
  C  C238  1  0.682100  0.577600  0.170200  1.0  0.1443
  C  C239  1  0.803300  0.631700  0.121700  1.0  -0.0324
  C  C240  1  0.840900  0.705800  0.127400  1.0  0.0497
  C  C241  1  0.803900  0.770600  0.092600  1.0  -0.0231
  C  C242  1  0.684600  0.754700  0.137000  1.0  -0.0583
  C  C243  1  0.606700  0.668400  0.204900  1.0  -0.3051
  C  C244  1  0.595900  0.614400  0.167700  1.0  -0.1159
  C  C245  1  0.821900  0.398920  0.814120  1.0  0.1673
  C  C246  1  0.697100  0.368000  0.832100  1.0  -0.1101
  C  C247  1  0.627000  0.289100  0.904400  1.0  -0.0129
  C  C248  1  0.641800  0.219100  0.898000  1.0  -0.001
  C  C249  1  0.745600  0.202400  0.902900  1.0  -0.0567
  C  C250  1  0.859800  0.271700  0.846200  1.0  -0.3131
  C  C251  1  0.873700  0.343720  0.858520  1.0  -0.1235
  C  C252  1  0.852300  0.170200  0.252200  1.0  0.1438
  C  C253  1  0.925000  0.121700  0.246600  1.0  -0.0339
  C  C254  1  0.968300  0.127400  0.166800  1.0  0.0546
  C  C255  1  0.896500  0.092600  0.136800  1.0  -0.0224
  C  C256  1  0.821600  0.137000  0.108300  1.0  -0.055
  C  C257  1  0.811600  0.204900  0.126700  1.0  -0.3026
  C  C258  1  0.763600  0.167700  0.217900  1.0  -0.1173
  N  N259  1  0.328460  0.176630  0.292650  1.0  -0.3156
  N  N260  1  0.856770  0.665320  0.487310  1.0  -0.3037
  N  N261  1  0.621110  0.292650  0.530720  1.0  -0.3155
  N  N262  1  0.344080  0.487310  0.847370  1.0  -0.3031
  N  N263  1  0.151830  0.530720  0.176630  1.0  -0.3146
  N  N264  1  0.191450  0.847370  0.665320  1.0  -0.3042
  N  N265  1  0.671540  0.823370  0.707350  1.0  -0.315
  N  N266  1  0.143230  0.334680  0.512690  1.0  -0.3027
  N  N267  1  0.378890  0.707350  0.469280  1.0  -0.3151
  N  N268  1  0.655920  0.512690  0.152630  1.0  -0.3032
  N  N269  1  0.848170  0.469280  0.823370  1.0  -0.3143
  N  N270  1  0.808550  0.152630  0.334680  1.0  -0.3034
  O  O271  1  0.370430  0.432310  0.461480  1.0  -0.8292
  O  O272  1  0.699080  0.410760  0.581320  1.0  -0.7831
  O  O273  1  0.798200  0.560780  0.412080  1.0  -0.8345
  O  O274  1  0.539240  0.428650  0.498530  1.0  -0.8729
  O  O275  1  0.458690  0.333430  0.458660  1.0  -0.8342
  O  O276  1  0.772560  0.495010  0.330230  1.0  -0.8354
  O  O277  1  0.291880  0.336230  0.368580  1.0  -0.8265
  O  O278  1  0.214530  0.402350  0.263760  1.0  -0.7994
  O  O279  1  0.416830  0.421680  0.223390  1.0  -0.822
  O  O280  1  0.865610  0.505420  0.575390  1.0  -0.856
  O  O281  1  0.883890  0.396950  0.543480  1.0  -0.8207
  O  O282  1  0.953050  0.524520  0.352270  1.0  -0.8699
  O  O283  1  0.831910  0.461480  0.106210  1.0  -0.8308
  O  O284  1  0.280400  0.581320  0.007920  1.0  -0.7849
  O  O285  1  0.210280  0.412080  0.027140  1.0  -0.8358
  O  O286  1  0.037770  0.498530  0.072820  1.0  -0.873
  O  O287  1  0.917350  0.458660  0.207910  1.0  -0.8343
  O  O288  1  0.102790  0.330230  0.174760  1.0  -0.8354
  O  O289  1  0.660460  0.368580  0.295190  1.0  -0.829
  O  O290  1  0.478290  0.263760  0.333890  1.0  -0.7983
  O  O291  1  0.640220  0.223390  0.354930  1.0  -0.8231
  O  O292  1  0.441000  0.575390  0.919190  1.0  -0.8554
  O  O293  1  0.427370  0.543480  0.059570  1.0  -0.8206
  O  O294  1  0.305320  0.352270  0.123210  1.0  -0.8697
  O  O295  1  0.938120  0.106210  0.432310  1.0  -0.8301
  O  O296  1  0.288320  0.007920  0.410760  1.0  -0.7846
  O  O297  1  0.237420  0.027140  0.560780  1.0  -0.834
  O  O298  1  0.110590  0.072820  0.428650  1.0  -0.8719
  O  O299  1  0.125260  0.207910  0.333430  1.0  -0.8337
  O  O300  1  0.277550  0.174760  0.495010  1.0  -0.8354
  O  O301  1  0.955650  0.295190  0.336230  1.0  -0.829
  O  O302  1  0.812180  0.333890  0.402350  1.0  -0.7989
  O  O303  1  0.995150  0.354930  0.421680  1.0  -0.8218
  O  O304  1  0.360190  0.919190  0.505420  1.0  -0.8558
  O  O305  1  0.486940  0.059570  0.396950  1.0  -0.8188
  O  O306  1  0.428530  0.123210  0.524520  1.0  -0.8688
  O  O307  1  0.629570  0.567690  0.538520  1.0  -0.8314
  O  O308  1  0.300920  0.589240  0.418680  1.0  -0.7855
  O  O309  1  0.201800  0.439220  0.587920  1.0  -0.8345
  O  O310  1  0.460760  0.571350  0.501470  1.0  -0.8733
  O  O311  1  0.541310  0.666570  0.541340  1.0  -0.8347
  O  O312  1  0.227440  0.504990  0.669770  1.0  -0.8349
  O  O313  1  0.708120  0.663770  0.631420  1.0  -0.8271
  O  O314  1  0.785470  0.597650  0.736240  1.0  -0.7997
  O  O315  1  0.583170  0.578320  0.776610  1.0  -0.8211
  O  O316  1  0.134390  0.494580  0.424610  1.0  -0.8558
  O  O317  1  0.116110  0.603050  0.456520  1.0  -0.8202
  O  O318  1  0.046950  0.475480  0.647730  1.0  -0.8695
  O  O319  1  0.168090  0.538520  0.893790  1.0  -0.8311
  O  O320  1  0.719600  0.418680  0.992080  1.0  -0.7856
  O  O321  1  0.789720  0.587920  0.972860  1.0  -0.8347
  O  O322  1  0.962230  0.501470  0.927180  1.0  -0.8719
  O  O323  1  0.082650  0.541340  0.792090  1.0  -0.835
  O  O324  1  0.897210  0.669770  0.825240  1.0  -0.8361
  O  O325  1  0.339540  0.631420  0.704810  1.0  -0.8297
  O  O326  1  0.521710  0.736240  0.666110  1.0  -0.7984
  O  O327  1  0.359780  0.776610  0.645070  1.0  -0.8229
  O  O328  1  0.559000  0.424610  0.080810  1.0  -0.8559
  O  O329  1  0.572630  0.456520  0.940430  1.0  -0.8213
  O  O330  1  0.694680  0.647730  0.876790  1.0  -0.869
  O  O331  1  0.061880  0.893790  0.567690  1.0  -0.8313
  O  O332  1  0.711680  0.992080  0.589240  1.0  -0.7867
  O  O333  1  0.762580  0.972860  0.439220  1.0  -0.8338
  O  O334  1  0.889410  0.927180  0.571350  1.0  -0.8726
  O  O335  1  0.874740  0.792090  0.666570  1.0  -0.8349
  O  O336  1  0.722450  0.825240  0.504990  1.0  -0.8357
  O  O337  1  0.044350  0.704810  0.663770  1.0  -0.8288
  O  O338  1  0.187820  0.666110  0.597650  1.0  -0.7985
  O  O339  1  0.004850  0.645070  0.578320  1.0  -0.8221
  O  O340  1  0.639810  0.080810  0.494580  1.0  -0.856
  O  O341  1  0.513060  0.940430  0.603050  1.0  -0.8194
  O  O342  1  0.571470  0.876790  0.475480  1.0  -0.868
