# generated using pymatgen
data_ZnH6(C3O)4
_symmetry_space_group_name_H-M   'P 1'
_cell_length_a   7.33600000
_cell_length_b   11.31600000
_cell_length_c   17.65300000
_cell_angle_alpha   90.00000000
_cell_angle_beta   90.59400000
_cell_angle_gamma   90.00000000
_symmetry_Int_Tables_number   1
_chemical_formula_structural   ZnH6(C3O)4
_chemical_formula_sum   'Zn4 H24 C48 O16'
_cell_volume   1465.37049640
_cell_formula_units_Z   4
loop_
 _symmetry_equiv_pos_site_id
 _symmetry_equiv_pos_as_xyz
  1  'x, y, z'
loop_
 _atom_site_type_symbol
 _atom_site_label
 _atom_site_symmetry_multiplicity
 _atom_site_fract_x
 _atom_site_fract_y
 _atom_site_fract_z
 _atom_site_occupancy
 _atom_site_charge
  Zn  Zn1  1  0.500000  0.500000  0.000000  1.0  1.0634
  Zn  Zn2  1  0.500000  0.000000  0.500000  1.0  1.0659
  Zn  Zn3  1  0.000000  0.500000  0.000000  1.0  1.08
  Zn  Zn4  1  0.000000  0.000000  0.500000  1.0  1.0783
  H  H5  1  0.518000  0.312000  0.793800  1.0  0.1073
  H  H6  1  0.503000  0.203000  0.677700  1.0  0.1099
  H  H7  1  0.962000  0.510300  0.808900  1.0  0.1025
  H  H8  1  0.712000  0.525000  0.731800  1.0  0.0963
  H  H9  1  0.684000  0.410800  0.619500  1.0  0.106
  H  H10  1  0.928000  0.298000  0.582000  1.0  0.1093
  H  H11  1  0.482000  0.812000  0.706200  1.0  0.1075
  H  H12  1  0.497000  0.703000  0.822300  1.0  0.1103
  H  H13  1  0.038000  0.010300  0.691100  1.0  0.1028
  H  H14  1  0.288000  0.025000  0.768200  1.0  0.0963
  H  H15  1  0.316000  0.910800  0.880500  1.0  0.1062
  H  H16  1  0.072000  0.798000  0.918000  1.0  0.1101
  H  H17  1  0.482000  0.688000  0.206200  1.0  0.1075
  H  H18  1  0.497000  0.797000  0.322300  1.0  0.1099
  H  H19  1  0.038000  0.489700  0.191100  1.0  0.1029
  H  H20  1  0.288000  0.475000  0.268200  1.0  0.0953
  H  H21  1  0.316000  0.589200  0.380500  1.0  0.1064
  H  H22  1  0.072000  0.702000  0.418000  1.0  0.1104
  H  H23  1  0.518000  0.188000  0.293800  1.0  0.1071
  H  H24  1  0.503000  0.297000  0.177700  1.0  0.1095
  H  H25  1  0.962000  0.989700  0.308900  1.0  0.1025
  H  H26  1  0.712000  0.975000  0.231800  1.0  0.0978
  H  H27  1  0.684000  0.089200  0.119500  1.0  0.1056
  H  H28  1  0.928000  0.202000  0.082000  1.0  0.1092
  C  C29  1  0.263500  0.377490  0.789460  1.0  -0.1338
  C  C30  1  0.092200  0.325610  0.673410  1.0  0.0541
  C  C31  1  0.101800  0.388510  0.743240  1.0  0.0627
  C  C32  1  0.400500  0.253590  0.693940  1.0  -0.0713
  C  C33  1  0.233600  0.170640  0.584480  1.0  0.732
  C  C34  1  0.273700  0.425250  0.869280  1.0  0.7255
  C  C35  1  0.243900  0.254330  0.651130  1.0  -0.1415
  C  C36  1  0.932800  0.339500  0.627390  1.0  -0.141
  C  C37  1  0.409700  0.315540  0.762970  1.0  -0.0465
  C  C38  1  0.954700  0.463800  0.763260  1.0  -0.1359
  C  C39  1  0.794300  0.410900  0.649310  1.0  -0.0966
  C  C40  1  0.805000  0.474300  0.717390  1.0  -0.0692
  C  C41  1  0.736500  0.877490  0.710540  1.0  -0.1341
  C  C42  1  0.907800  0.825610  0.826590  1.0  0.0548
  C  C43  1  0.898200  0.888510  0.756760  1.0  0.0629
  C  C44  1  0.599500  0.753590  0.806060  1.0  -0.0704
  C  C45  1  0.766400  0.670640  0.915520  1.0  0.7315
  C  C46  1  0.726300  0.925250  0.630720  1.0  0.7253
  C  C47  1  0.756100  0.754330  0.848870  1.0  -0.1399
  C  C48  1  0.067200  0.839500  0.872610  1.0  -0.146
  C  C49  1  0.590300  0.815540  0.737030  1.0  -0.0471
  C  C50  1  0.045300  0.963800  0.736740  1.0  -0.1355
  C  C51  1  0.205700  0.910900  0.850690  1.0  -0.0974
  C  C52  1  0.195000  0.974300  0.782610  1.0  -0.0682
  C  C53  1  0.736500  0.622510  0.210540  1.0  -0.1348
  C  C54  1  0.907800  0.674390  0.326590  1.0  0.0547
  C  C55  1  0.898200  0.611490  0.256760  1.0  0.0631
  C  C56  1  0.599500  0.746410  0.306060  1.0  -0.0702
  C  C57  1  0.766400  0.829360  0.415520  1.0  0.7327
  C  C58  1  0.726300  0.574750  0.130720  1.0  0.7252
  C  C59  1  0.756100  0.745670  0.348870  1.0  -0.1394
  C  C60  1  0.067200  0.660500  0.372610  1.0  -0.144
  C  C61  1  0.590300  0.684460  0.237030  1.0  -0.0466
  C  C62  1  0.045300  0.536200  0.236740  1.0  -0.1361
  C  C63  1  0.205700  0.589100  0.350690  1.0  -0.0973
  C  C64  1  0.195000  0.525700  0.282610  1.0  -0.0685
  C  C65  1  0.263500  0.122510  0.289460  1.0  -0.1338
  C  C66  1  0.092200  0.174390  0.173410  1.0  0.0538
  C  C67  1  0.101800  0.111490  0.243240  1.0  0.0628
  C  C68  1  0.400500  0.246410  0.193940  1.0  -0.0708
  C  C69  1  0.233600  0.329360  0.084480  1.0  0.7331
  C  C70  1  0.273700  0.074750  0.369280  1.0  0.7251
  C  C71  1  0.243900  0.245670  0.151130  1.0  -0.1415
  C  C72  1  0.932800  0.160500  0.127390  1.0  -0.1396
  C  C73  1  0.409700  0.184460  0.262970  1.0  -0.0461
  C  C74  1  0.954700  0.036200  0.263260  1.0  -0.1362
  C  C75  1  0.794300  0.089100  0.149310  1.0  -0.0967
  C  C76  1  0.805000  0.025700  0.217390  1.0  -0.0691
  O  O77  1  0.131950  0.417780  0.908460  1.0  -0.62
  O  O78  1  0.425960  0.463430  0.891980  1.0  -0.5972
  O  O79  1  0.375680  0.153890  0.547030  1.0  -0.624
  O  O80  1  0.082890  0.120680  0.574350  1.0  -0.6017
  O  O81  1  0.868050  0.917780  0.591540  1.0  -0.6196
  O  O82  1  0.574040  0.963430  0.608020  1.0  -0.5969
  O  O83  1  0.624320  0.653890  0.952970  1.0  -0.6234
  O  O84  1  0.917110  0.620680  0.925650  1.0  -0.6014
  O  O85  1  0.868050  0.582220  0.091540  1.0  -0.6204
  O  O86  1  0.574040  0.536570  0.108020  1.0  -0.5967
  O  O87  1  0.624320  0.846110  0.452970  1.0  -0.6234
  O  O88  1  0.917110  0.879320  0.425650  1.0  -0.6018
  O  O89  1  0.131950  0.082220  0.408460  1.0  -0.6205
  O  O90  1  0.425960  0.036570  0.391980  1.0  -0.5974
  O  O91  1  0.375680  0.346110  0.047030  1.0  -0.6237
  O  O92  1  0.082890  0.379320  0.074350  1.0  -0.6018
