# generated using pymatgen
data_CoH6(C3O)4
_symmetry_space_group_name_H-M   'P 1'
_cell_length_a   7.33520000
_cell_length_b   11.32000000
_cell_length_c   17.67600000
_cell_angle_alpha   90.00000000
_cell_angle_beta   90.12000000
_cell_angle_gamma   90.00000000
_symmetry_Int_Tables_number   1
_chemical_formula_structural   CoH6(C3O)4
_chemical_formula_sum   'Co4 H24 C48 O16'
_cell_volume   1467.71396660
_cell_formula_units_Z   4
loop_
 _symmetry_equiv_pos_site_id
 _symmetry_equiv_pos_as_xyz
  1  'x, y, z'
loop_
 _atom_site_type_symbol
 _atom_site_label
 _atom_site_symmetry_multiplicity
 _atom_site_fract_x
 _atom_site_fract_y
 _atom_site_fract_z
 _atom_site_occupancy
 _atom_site_charge
  Co  Co1  1  0.000000  0.500000  0.000000  1.0  0.9777
  Co  Co2  1  0.000000  0.000000  0.500000  1.0  0.9777
  Co  Co3  1  0.500000  0.500000  0.000000  1.0  0.9678
  Co  Co4  1  0.500000  0.000000  0.500000  1.0  0.9678
  H  H5  1  0.709400  0.475300  0.732900  1.0  0.1018
  H  H6  1  0.924800  0.699500  0.582300  1.0  0.1106
  H  H7  1  0.961000  0.492200  0.808500  1.0  0.1036
  H  H8  1  0.692000  0.583200  0.617700  1.0  0.1083
  H  H9  1  0.506000  0.795100  0.677100  1.0  0.1107
  H  H10  1  0.521000  0.690100  0.792000  1.0  0.1137
  H  H11  1  0.290600  0.975300  0.767100  1.0  0.0997
  H  H12  1  0.075200  0.199500  0.917700  1.0  0.1113
  H  H13  1  0.039000  0.992200  0.691500  1.0  0.1039
  H  H14  1  0.308000  0.083200  0.882300  1.0  0.1091
  H  H15  1  0.494000  0.295100  0.822900  1.0  0.1105
  H  H16  1  0.479000  0.190100  0.708000  1.0  0.1123
  H  H17  1  0.290600  0.524700  0.267100  1.0  0.0992
  H  H18  1  0.075200  0.300500  0.417700  1.0  0.111
  H  H19  1  0.039000  0.507800  0.191500  1.0  0.1036
  H  H20  1  0.308000  0.416800  0.382300  1.0  0.1087
  H  H21  1  0.494000  0.204900  0.322900  1.0  0.1108
  H  H22  1  0.479000  0.309900  0.208000  1.0  0.112
  H  H23  1  0.709400  0.024700  0.232900  1.0  0.1023
  H  H24  1  0.924800  0.800500  0.082300  1.0  0.1108
  H  H25  1  0.961000  0.007800  0.308500  1.0  0.1037
  H  H26  1  0.692000  0.916800  0.117700  1.0  0.1085
  H  H27  1  0.506000  0.704900  0.177100  1.0  0.1108
  H  H28  1  0.521000  0.809900  0.292000  1.0  0.1139
  C  C29  1  0.263330  0.621970  0.789130  1.0  -0.1357
  C  C30  1  0.400600  0.745850  0.693270  1.0  -0.0676
  C  C31  1  0.092590  0.673390  0.673460  1.0  0.0544
  C  C32  1  0.244340  0.744770  0.650720  1.0  -0.1301
  C  C33  1  0.101960  0.610310  0.743550  1.0  0.0581
  C  C34  1  0.273490  0.574570  0.869230  1.0  0.7202
  C  C35  1  0.233940  0.828530  0.584140  1.0  0.7181
  C  C36  1  0.409300  0.684170  0.762540  1.0  -0.0682
  C  C37  1  0.804900  0.524320  0.718420  1.0  -0.0673
  C  C38  1  0.933600  0.659040  0.627960  1.0  -0.1331
  C  C39  1  0.954900  0.535000  0.763650  1.0  -0.1218
  C  C40  1  0.794300  0.587360  0.649850  1.0  -0.0781
  C  C41  1  0.736670  0.121970  0.710870  1.0  -0.1366
  C  C42  1  0.599400  0.245850  0.806730  1.0  -0.0682
  C  C43  1  0.907410  0.173390  0.826540  1.0  0.0552
  C  C44  1  0.755660  0.244770  0.849280  1.0  -0.128
  C  C45  1  0.898040  0.110310  0.756450  1.0  0.0573
  C  C46  1  0.726510  0.074570  0.630770  1.0  0.7208
  C  C47  1  0.766060  0.328530  0.915860  1.0  0.7191
  C  C48  1  0.590700  0.184170  0.737460  1.0  -0.0693
  C  C49  1  0.195100  0.024320  0.781580  1.0  -0.0687
  C  C50  1  0.066400  0.159040  0.872040  1.0  -0.1347
  C  C51  1  0.045100  0.035000  0.736350  1.0  -0.1224
  C  C52  1  0.205700  0.087360  0.850150  1.0  -0.0778
  C  C53  1  0.736670  0.378030  0.210870  1.0  -0.136
  C  C54  1  0.599400  0.254150  0.306730  1.0  -0.0678
  C  C55  1  0.907410  0.326610  0.326540  1.0  0.053
  C  C56  1  0.755660  0.255230  0.349280  1.0  -0.1284
  C  C57  1  0.898040  0.389690  0.256450  1.0  0.0583
  C  C58  1  0.726510  0.425430  0.130770  1.0  0.721
  C  C59  1  0.766060  0.171470  0.415860  1.0  0.7184
  C  C60  1  0.590700  0.315830  0.237460  1.0  -0.0693
  C  C61  1  0.195100  0.475680  0.281580  1.0  -0.067
  C  C62  1  0.066400  0.340960  0.372040  1.0  -0.1358
  C  C63  1  0.045100  0.465000  0.236350  1.0  -0.1221
  C  C64  1  0.205700  0.412640  0.350150  1.0  -0.0782
  C  C65  1  0.263330  0.878030  0.289130  1.0  -0.1358
  C  C66  1  0.400600  0.754150  0.193270  1.0  -0.0674
  C  C67  1  0.092590  0.826610  0.173460  1.0  0.0529
  C  C68  1  0.244340  0.755230  0.150720  1.0  -0.1299
  C  C69  1  0.101960  0.889690  0.243550  1.0  0.0577
  C  C70  1  0.273490  0.925430  0.369230  1.0  0.7207
  C  C71  1  0.233940  0.671470  0.084140  1.0  0.7176
  C  C72  1  0.409300  0.815830  0.262540  1.0  -0.0682
  C  C73  1  0.804900  0.975680  0.218420  1.0  -0.0674
  C  C74  1  0.933600  0.840960  0.127960  1.0  -0.1358
  C  C75  1  0.954900  0.965000  0.263650  1.0  -0.1224
  C  C76  1  0.794300  0.912640  0.149850  1.0  -0.0786
  O  O77  1  0.130340  0.580550  0.908030  1.0  -0.6022
  O  O78  1  0.377800  0.847500  0.547480  1.0  -0.6049
  O  O79  1  0.082300  0.876010  0.572900  1.0  -0.5744
  O  O80  1  0.425770  0.538640  0.891760  1.0  -0.5859
  O  O81  1  0.869660  0.080550  0.591970  1.0  -0.6013
  O  O82  1  0.622200  0.347500  0.952520  1.0  -0.6041
  O  O83  1  0.917700  0.376010  0.927100  1.0  -0.574
  O  O84  1  0.574230  0.038640  0.608240  1.0  -0.5856
  O  O85  1  0.869660  0.419450  0.091970  1.0  -0.603
  O  O86  1  0.622200  0.152500  0.452520  1.0  -0.6041
  O  O87  1  0.917700  0.123990  0.427100  1.0  -0.5737
  O  O88  1  0.574230  0.461360  0.108240  1.0  -0.5858
  O  O89  1  0.130340  0.919450  0.408030  1.0  -0.602
  O  O90  1  0.377800  0.652500  0.047480  1.0  -0.6061
  O  O91  1  0.082300  0.623990  0.072900  1.0  -0.5745
  O  O92  1  0.425770  0.961360  0.391760  1.0  -0.5857
