# generated using pymatgen
data_Nd2U3H6(C5O4)6
_symmetry_space_group_name_H-M   'P 1'
_cell_length_a   10.89810000
_cell_length_b   11.54520000
_cell_length_c   13.40860000
_cell_angle_alpha   69.39900000
_cell_angle_beta   79.95900000
_cell_angle_gamma   62.24200000
_symmetry_Int_Tables_number   1
_chemical_formula_structural   Nd2U3H6(C5O4)6
_chemical_formula_sum   'Nd2 U3 H6 C30 O24'
_cell_volume   1397.35529842
_cell_formula_units_Z   1
loop_
 _symmetry_equiv_pos_site_id
 _symmetry_equiv_pos_as_xyz
  1  'x, y, z'
loop_
 _atom_site_type_symbol
 _atom_site_label
 _atom_site_symmetry_multiplicity
 _atom_site_fract_x
 _atom_site_fract_y
 _atom_site_fract_z
 _atom_site_occupancy
 _atom_site_charge
  Nd  Nd1  1  0.620320  0.216320  0.775910  1.0  1.5163
  Nd  Nd2  1  0.379680  0.783680  0.224090  1.0  1.517
  U  U3  1  0.369230  0.295990  0.167490  1.0  1.7679
  U  U4  1  0.630770  0.704010  0.832510  1.0  1.7688
  U  U5  1  0.000000  0.500000  0.500000  1.0  2.0011
  H  H6  1  0.184410  0.096190  0.732610  1.0  0.118
  H  H7  1  0.707230  0.998980  0.416870  1.0  0.1159
  H  H8  1  0.096650  0.363470  0.953350  1.0  0.1137
  H  H9  1  0.815590  0.903810  0.267390  1.0  0.1173
  H  H10  1  0.292770  0.001020  0.583130  1.0  0.117
  H  H11  1  0.903350  0.636530  0.046650  1.0  0.1153
  C  C12  1  0.419100  0.029000  0.810400  1.0  0.7233
  C  C13  1  0.919300  0.277400  0.717000  1.0  0.8111
  C  C14  1  0.033200  0.258000  0.780700  1.0  -0.1278
  C  C15  1  0.278000  0.135700  0.829000  1.0  -0.0823
  C  C16  1  0.008500  0.337800  0.845900  1.0  -0.1366
  C  C17  1  0.250100  0.215600  0.896100  1.0  -0.1463
  C  C18  1  0.167700  0.154600  0.774600  1.0  -0.054
  C  C19  1  0.257500  0.255600  0.496700  1.0  0.6274
  C  C20  1  0.525500  0.252600  0.385900  1.0  0.7494
  C  C21  1  0.873200  0.457000  0.847900  1.0  0.6139
  C  C22  1  0.354900  0.200800  0.963300  1.0  0.7596
  C  C23  1  0.621900  0.999500  0.450900  1.0  -0.0545
  C  C24  1  0.384600  0.124600  0.497600  1.0  -0.1282
  C  C25  1  0.508800  0.124400  0.447300  1.0  -0.0976
  C  C26  1  0.116000  0.312300  0.904900  1.0  -0.0364
  C  C27  1  0.580900  0.971000  0.189600  1.0  0.7262
  C  C28  1  0.080700  0.722600  0.283000  1.0  0.8092
  C  C29  1  0.966800  0.742000  0.219300  1.0  -0.1267
  C  C30  1  0.722000  0.864300  0.171000  1.0  -0.0827
  C  C31  1  0.991500  0.662200  0.154100  1.0  -0.1363
  C  C32  1  0.749900  0.784400  0.103900  1.0  -0.1545
  C  C33  1  0.832300  0.845400  0.225400  1.0  -0.054
  C  C34  1  0.742500  0.744400  0.503300  1.0  0.6237
  C  C35  1  0.474500  0.747400  0.614100  1.0  0.7489
  C  C36  1  0.126800  0.543000  0.152100  1.0  0.6146
  C  C37  1  0.645100  0.799200  0.036700  1.0  0.7586
  C  C38  1  0.378100  0.000500  0.549100  1.0  -0.0566
  C  C39  1  0.615400  0.875400  0.502400  1.0  -0.1285
  C  C40  1  0.491200  0.875600  0.552700  1.0  -0.0977
  C  C41  1  0.884000  0.687700  0.095100  1.0  -0.0358
  O  O42  1  0.900500  0.356800  0.622500  1.0  -0.6832
  O  O43  1  0.494700  0.307000  0.287500  1.0  -0.7258
  O  O44  1  0.310700  0.215000  0.054500  1.0  -0.6883
  O  O45  1  0.427200  0.909800  0.827700  1.0  -0.6602
  O  O46  1  0.773800  0.486400  0.793700  1.0  -0.6312
  O  O47  1  0.265000  0.367800  0.470300  1.0  -0.6253
  O  O48  1  0.853700  0.208500  0.761200  1.0  -0.703
  O  O49  1  0.143500  0.250300  0.524800  1.0  -0.6755
  O  O50  1  0.517000  0.059800  0.778700  1.0  -0.7009
  O  O51  1  0.856600  0.530400  0.904000  1.0  -0.6084
  O  O52  1  0.474800  0.179100  0.931800  1.0  -0.7532
  O  O53  1  0.577000  0.297200  0.429600  1.0  -0.5961
  O  O54  1  0.099500  0.643200  0.377500  1.0  -0.6825
  O  O55  1  0.505300  0.693000  0.712500  1.0  -0.7236
  O  O56  1  0.689300  0.785000  0.945500  1.0  -0.6854
  O  O57  1  0.572800  0.090200  0.172300  1.0  -0.659
  O  O58  1  0.226200  0.513600  0.206300  1.0  -0.633
  O  O59  1  0.735000  0.632200  0.529700  1.0  -0.6286
  O  O60  1  0.146300  0.791500  0.238800  1.0  -0.7042
  O  O61  1  0.856500  0.749700  0.475200  1.0  -0.6753
  O  O62  1  0.483000  0.940200  0.221300  1.0  -0.7006
  O  O63  1  0.143400  0.469600  0.096000  1.0  -0.6084
  O  O64  1  0.525200  0.820900  0.068200  1.0  -0.7553
  O  O65  1  0.423000  0.702800  0.570400  1.0  -0.5909
