# generated using pymatgen
data_CeU2C12O13
_symmetry_space_group_name_H-M   'P 1'
_cell_length_a   8.31880000
_cell_length_b   15.85230000
_cell_length_c   21.58840000
_cell_angle_alpha   90.00000000
_cell_angle_beta   90.00000000
_cell_angle_gamma   90.00000000
_symmetry_Int_Tables_number   1
_chemical_formula_structural   CeU2C12O13
_chemical_formula_sum   'Ce4 U8 C48 O52'
_cell_volume   2846.90792947
_cell_formula_units_Z   4
loop_
 _symmetry_equiv_pos_site_id
 _symmetry_equiv_pos_as_xyz
  1  'x, y, z'
loop_
 _atom_site_type_symbol
 _atom_site_label
 _atom_site_symmetry_multiplicity
 _atom_site_fract_x
 _atom_site_fract_y
 _atom_site_fract_z
 _atom_site_occupancy
 _atom_site_charge
  Ce  Ce1  1  0.145180  0.156770  0.727530  1.0  1.3028
  Ce  Ce2  1  0.854820  0.843230  0.227530  1.0  1.306
  Ce  Ce3  1  0.354820  0.656770  0.727530  1.0  1.3031
  Ce  Ce4  1  0.645180  0.343230  0.227530  1.0  1.3059
  U  U5  1  0.977750  0.643970  0.976200  1.0  2.0635
  U  U6  1  0.984670  0.365910  0.971830  1.0  2.083
  U  U7  1  0.022250  0.356030  0.476200  1.0  2.0637
  U  U8  1  0.015330  0.634090  0.471830  1.0  2.0829
  U  U9  1  0.522250  0.143970  0.976200  1.0  2.063
  U  U10  1  0.515330  0.865910  0.971830  1.0  2.0808
  U  U11  1  0.477750  0.856030  0.476200  1.0  2.0631
  U  U12  1  0.484670  0.134090  0.471830  1.0  2.0812
  C  C13  1  0.017900  0.187400  0.978200  1.0  0.5266
  C  C14  1  0.020000  0.092300  0.981700  1.0  -0.1128
  C  C15  1  0.014600  0.916400  0.979000  1.0  -0.1253
  C  C16  1  0.010200  0.821500  0.981700  1.0  0.5242
  C  C17  1  0.189000  0.913000  0.883900  1.0  0.7114
  C  C18  1  0.199600  0.091000  0.884800  1.0  0.781
  C  C19  1  0.834800  0.095300  0.075300  1.0  0.7322
  C  C20  1  0.101000  0.959700  0.935200  1.0  -0.0775
  C  C21  1  0.923400  0.960700  0.024400  1.0  -0.0876
  C  C22  1  0.106800  0.046900  0.935800  1.0  -0.1228
  C  C23  1  0.929500  0.049600  0.024500  1.0  -0.0402
  C  C24  1  0.824400  0.915700  0.072600  1.0  0.7999
  C  C25  1  0.982100  0.812600  0.478200  1.0  0.5282
  C  C26  1  0.980000  0.907700  0.481700  1.0  -0.113
  C  C27  1  0.985400  0.083600  0.479000  1.0  -0.1252
  C  C28  1  0.989800  0.178500  0.481700  1.0  0.5228
  C  C29  1  0.811000  0.087000  0.383900  1.0  0.713
  C  C30  1  0.800400  0.909000  0.384800  1.0  0.7831
  C  C31  1  0.165200  0.904700  0.575300  1.0  0.7339
  C  C32  1  0.899000  0.040300  0.435200  1.0  -0.0782
  C  C33  1  0.076600  0.039300  0.524400  1.0  -0.0863
  C  C34  1  0.893200  0.953100  0.435800  1.0  -0.1238
  C  C35  1  0.070500  0.950400  0.524500  1.0  -0.0406
  C  C36  1  0.175600  0.084300  0.572600  1.0  0.7988
  C  C37  1  0.482100  0.687400  0.978200  1.0  0.5267
  C  C38  1  0.480000  0.592300  0.981700  1.0  -0.1126
  C  C39  1  0.485400  0.416400  0.979000  1.0  -0.1252
  C  C40  1  0.489800  0.321500  0.981700  1.0  0.5241
  C  C41  1  0.311000  0.413000  0.883900  1.0  0.7131
  C  C42  1  0.300400  0.591000  0.884800  1.0  0.783
  C  C43  1  0.665200  0.595300  0.075300  1.0  0.7328
  C  C44  1  0.399000  0.459700  0.935200  1.0  -0.0785
  C  C45  1  0.576600  0.460700  0.024400  1.0  -0.0868
  C  C46  1  0.393200  0.546900  0.935800  1.0  -0.1235
  C  C47  1  0.570500  0.549600  0.024500  1.0  -0.0406
  C  C48  1  0.675600  0.415700  0.072600  1.0  0.7989
  C  C49  1  0.517900  0.312600  0.478200  1.0  0.528
  C  C50  1  0.520000  0.407700  0.481700  1.0  -0.1129
  C  C51  1  0.514600  0.583600  0.479000  1.0  -0.1253
  C  C52  1  0.510200  0.678500  0.481700  1.0  0.5229
  C  C53  1  0.689000  0.587000  0.383900  1.0  0.7117
  C  C54  1  0.699600  0.409000  0.384800  1.0  0.781
  C  C55  1  0.334800  0.404700  0.575300  1.0  0.7334
  C  C56  1  0.601000  0.540300  0.435200  1.0  -0.0773
  C  C57  1  0.423400  0.539300  0.524400  1.0  -0.087
  C  C58  1  0.606800  0.453100  0.435800  1.0  -0.1227
  C  C59  1  0.429500  0.450400  0.524500  1.0  -0.0403
  C  C60  1  0.324400  0.584300  0.572600  1.0  0.7993
  O  O61  1  0.955000  0.227300  0.022900  1.0  -0.6414
  O  O62  1  0.077000  0.225300  0.933500  1.0  -0.6303
  O  O63  1  0.940800  0.783500  0.024100  1.0  -0.6298
  O  O64  1  0.334000  0.894500  0.890500  1.0  -0.7083
  O  O65  1  0.111600  0.900900  0.834200  1.0  -0.5832
  O  O66  1  0.342300  0.117000  0.893900  1.0  -0.6893
  O  O67  1  0.132200  0.093100  0.833300  1.0  -0.6168
  O  O68  1  0.882200  0.908000  0.125400  1.0  -0.6255
  O  O69  1  0.683100  0.892000  0.058100  1.0  -0.7319
  O  O70  1  0.922300  0.504900  0.952700  1.0  -1.1492
  O  O71  1  0.690700  0.116000  0.062500  1.0  -0.7613
  O  O72  1  0.898600  0.108200  0.124800  1.0  -0.5545
  O  O73  1  0.080600  0.781400  0.938600  1.0  -0.6384
  O  O74  1  0.045000  0.772700  0.522900  1.0  -0.641
  O  O75  1  0.923000  0.774700  0.433500  1.0  -0.6273
  O  O76  1  0.059200  0.216500  0.524100  1.0  -0.6321
  O  O77  1  0.666000  0.105500  0.390500  1.0  -0.7097
  O  O78  1  0.888400  0.099100  0.334200  1.0  -0.5816
  O  O79  1  0.657700  0.883000  0.393900  1.0  -0.693
  O  O80  1  0.867800  0.906900  0.333333  1.0  -0.6134
  O  O81  1  0.117800  0.092000  0.625400  1.0  -0.6296
  O  O82  1  0.316900  0.108000  0.558100  1.0  -0.7318
  O  O83  1  0.077700  0.495100  0.452700  1.0  -1.1494
  O  O84  1  0.309300  0.884000  0.562500  1.0  -0.7618
  O  O85  1  0.101400  0.891800  0.624800  1.0  -0.5532
  O  O86  1  0.919400  0.218600  0.438600  1.0  -0.6382
  O  O87  1  0.545000  0.727300  0.022900  1.0  -0.6413
  O  O88  1  0.423000  0.725300  0.933500  1.0  -0.6282
  O  O89  1  0.559200  0.283500  0.024100  1.0  -0.6307
  O  O90  1  0.166000  0.394500  0.890500  1.0  -0.7084
  O  O91  1  0.388400  0.400900  0.834200  1.0  -0.5813
  O  O92  1  0.157700  0.617000  0.893900  1.0  -0.6907
  O  O93  1  0.367800  0.593100  0.833300  1.0  -0.6168
  O  O94  1  0.617800  0.408000  0.125400  1.0  -0.6272
  O  O95  1  0.816900  0.392000  0.058100  1.0  -0.7317
  O  O96  1  0.577700  0.004900  0.952700  1.0  -1.1494
  O  O97  1  0.809300  0.616000  0.062500  1.0  -0.7616
  O  O98  1  0.601400  0.608200  0.124800  1.0  -0.5542
  O  O99  1  0.419400  0.281400  0.938600  1.0  -0.6376
  O  O100  1  0.455000  0.272700  0.522900  1.0  -0.6413
  O  O101  1  0.577000  0.274700  0.433500  1.0  -0.6294
  O  O102  1  0.440800  0.716500  0.524100  1.0  -0.6314
  O  O103  1  0.834000  0.605500  0.390500  1.0  -0.7087
  O  O104  1  0.611600  0.599100  0.334200  1.0  -0.5836
  O  O105  1  0.842300  0.383000  0.393900  1.0  -0.6918
  O  O106  1  0.632200  0.406900  0.333333  1.0  -0.6134
  O  O107  1  0.382200  0.592000  0.625400  1.0  -0.6276
  O  O108  1  0.183100  0.608000  0.558100  1.0  -0.7317
  O  O109  1  0.422300  0.995100  0.452700  1.0  -1.1491
  O  O110  1  0.190700  0.384000  0.562500  1.0  -0.7614
  O  O111  1  0.398600  0.391800  0.624800  1.0  -0.5536
  O  O112  1  0.580600  0.718600  0.438600  1.0  -0.639
