# generated using pymatgen
data_NdU2C12O13
_symmetry_space_group_name_H-M   'P 1'
_cell_length_a   8.32030000
_cell_length_b   15.83670000
_cell_length_c   21.50470000
_cell_angle_alpha   90.00000000
_cell_angle_beta   90.00000000
_cell_angle_gamma   90.00000000
_symmetry_Int_Tables_number   1
_chemical_formula_structural   NdU2C12O13
_chemical_formula_sum   'Nd4 U8 C48 O52'
_cell_volume   2833.59034336
_cell_formula_units_Z   4
loop_
 _symmetry_equiv_pos_site_id
 _symmetry_equiv_pos_as_xyz
  1  'x, y, z'
loop_
 _atom_site_type_symbol
 _atom_site_label
 _atom_site_symmetry_multiplicity
 _atom_site_fract_x
 _atom_site_fract_y
 _atom_site_fract_z
 _atom_site_occupancy
 _atom_site_charge
  Nd  Nd1  1  0.145480  0.156500  0.727720  1.0  1.2746
  Nd  Nd2  1  0.854520  0.843500  0.227720  1.0  1.276
  Nd  Nd3  1  0.354520  0.656500  0.727720  1.0  1.2752
  Nd  Nd4  1  0.645480  0.343500  0.227720  1.0  1.2755
  U  U5  1  0.977040  0.644190  0.976080  1.0  2.0846
  U  U6  1  0.984070  0.366250  0.971880  1.0  2.1148
  U  U7  1  0.022960  0.355810  0.476080  1.0  2.0849
  U  U8  1  0.015930  0.633750  0.471880  1.0  2.1147
  U  U9  1  0.522960  0.144190  0.976080  1.0  2.0849
  U  U10  1  0.515930  0.866250  0.971880  1.0  2.112
  U  U11  1  0.477040  0.855810  0.476080  1.0  2.085
  U  U12  1  0.484070  0.133750  0.471880  1.0  2.1123
  C  C13  1  0.017800  0.186900  0.978100  1.0  0.5221
  C  C14  1  0.021500  0.092800  0.980600  1.0  -0.1249
  C  C15  1  0.014500  0.916000  0.979300  1.0  -0.1258
  C  C16  1  0.011600  0.821800  0.981200  1.0  0.5332
  C  C17  1  0.190100  0.912500  0.882900  1.0  0.7129
  C  C18  1  0.198700  0.092600  0.883700  1.0  0.7855
  C  C19  1  0.834100  0.095400  0.075200  1.0  0.7294
  C  C20  1  0.100300  0.959700  0.935100  1.0  -0.0856
  C  C21  1  0.923900  0.961900  0.024000  1.0  -0.0858
  C  C22  1  0.107400  0.047800  0.934700  1.0  -0.1237
  C  C23  1  0.928400  0.049400  0.025300  1.0  -0.0579
  C  C24  1  0.824300  0.915900  0.072900  1.0  0.8069
  C  C25  1  0.982200  0.813100  0.478100  1.0  0.5224
  C  C26  1  0.978500  0.907200  0.480600  1.0  -0.1247
  C  C27  1  0.985500  0.084000  0.479300  1.0  -0.1251
  C  C28  1  0.988400  0.178200  0.481200  1.0  0.5322
  C  C29  1  0.809900  0.087500  0.382900  1.0  0.7144
  C  C30  1  0.801300  0.907400  0.383700  1.0  0.7878
  C  C31  1  0.165900  0.904600  0.575200  1.0  0.7319
  C  C32  1  0.899700  0.040300  0.435100  1.0  -0.0862
  C  C33  1  0.076100  0.038100  0.524000  1.0  -0.0846
  C  C34  1  0.892600  0.952200  0.434700  1.0  -0.1238
  C  C35  1  0.071600  0.950600  0.525300  1.0  -0.0576
  C  C36  1  0.175700  0.084100  0.572900  1.0  0.8053
  C  C37  1  0.482200  0.686900  0.978100  1.0  0.5221
  C  C38  1  0.478500  0.592800  0.980600  1.0  -0.1247
  C  C39  1  0.485500  0.416000  0.979300  1.0  -0.1258
  C  C40  1  0.488400  0.321800  0.981200  1.0  0.5332
  C  C41  1  0.309900  0.412500  0.882900  1.0  0.7143
  C  C42  1  0.301300  0.592600  0.883700  1.0  0.7876
  C  C43  1  0.665900  0.595400  0.075200  1.0  0.7303
  C  C44  1  0.399700  0.459700  0.935100  1.0  -0.0864
  C  C45  1  0.576100  0.461900  0.024000  1.0  -0.085
  C  C46  1  0.392600  0.547800  0.934700  1.0  -0.1235
  C  C47  1  0.571600  0.549400  0.025300  1.0  -0.0579
  C  C48  1  0.675700  0.415900  0.072900  1.0  0.8058
  C  C49  1  0.517800  0.313100  0.478100  1.0  0.5225
  C  C50  1  0.521500  0.407200  0.480600  1.0  -0.1247
  C  C51  1  0.514500  0.584000  0.479300  1.0  -0.1252
  C  C52  1  0.511600  0.678200  0.481200  1.0  0.5322
  C  C53  1  0.690100  0.587500  0.382900  1.0  0.7133
  C  C54  1  0.698700  0.407400  0.383700  1.0  0.7853
  C  C55  1  0.334100  0.404600  0.575200  1.0  0.7312
  C  C56  1  0.600300  0.540300  0.435100  1.0  -0.0854
  C  C57  1  0.423900  0.538100  0.524000  1.0  -0.0853
  C  C58  1  0.607400  0.452200  0.434700  1.0  -0.1239
  C  C59  1  0.428400  0.450600  0.525300  1.0  -0.0577
  C  C60  1  0.324300  0.584100  0.572900  1.0  0.8058
  O  O61  1  0.957500  0.228000  0.023800  1.0  -0.6469
  O  O62  1  0.077600  0.226100  0.933400  1.0  -0.6403
  O  O63  1  0.939500  0.783400  0.024200  1.0  -0.6699
  O  O64  1  0.334600  0.895600  0.889000  1.0  -0.6747
  O  O65  1  0.111500  0.900400  0.834100  1.0  -0.578
  O  O66  1  0.341800  0.117600  0.893600  1.0  -0.6859
  O  O67  1  0.133000  0.093700  0.832000  1.0  -0.6127
  O  O68  1  0.884000  0.907500  0.125000  1.0  -0.6274
  O  O69  1  0.684600  0.892700  0.058300  1.0  -0.7317
  O  O70  1  0.923600  0.505100  0.952700  1.0  -1.1526
  O  O71  1  0.689300  0.116400  0.062200  1.0  -0.7478
  O  O72  1  0.900100  0.108400  0.125800  1.0  -0.5638
  O  O73  1  0.083300  0.781500  0.939100  1.0  -0.6332
  O  O74  1  0.042500  0.772000  0.523800  1.0  -0.6451
  O  O75  1  0.922400  0.773900  0.433400  1.0  -0.6389
  O  O76  1  0.060500  0.216600  0.524200  1.0  -0.6708
  O  O77  1  0.665400  0.104400  0.389000  1.0  -0.6764
  O  O78  1  0.888500  0.099600  0.334100  1.0  -0.576
  O  O79  1  0.658200  0.882400  0.393600  1.0  -0.6861
  O  O80  1  0.867000  0.906300  0.332000  1.0  -0.6119
  O  O81  1  0.116000  0.092500  0.625000  1.0  -0.6284
  O  O82  1  0.315400  0.107300  0.558300  1.0  -0.7307
  O  O83  1  0.076400  0.494900  0.452700  1.0  -1.1528
  O  O84  1  0.310700  0.883600  0.562200  1.0  -0.7487
  O  O85  1  0.099900  0.891600  0.625800  1.0  -0.563
  O  O86  1  0.916700  0.218500  0.439100  1.0  -0.6315
  O  O87  1  0.542500  0.728000  0.023800  1.0  -0.6454
  O  O88  1  0.422400  0.726100  0.933400  1.0  -0.6394
  O  O89  1  0.560500  0.283400  0.024200  1.0  -0.6704
  O  O90  1  0.165400  0.395600  0.889000  1.0  -0.6756
  O  O91  1  0.388500  0.400400  0.834100  1.0  -0.576
  O  O92  1  0.158200  0.617600  0.893600  1.0  -0.6863
  O  O93  1  0.367000  0.593700  0.832000  1.0  -0.6117
  O  O94  1  0.616000  0.407500  0.125000  1.0  -0.6269
  O  O95  1  0.815400  0.392700  0.058300  1.0  -0.731
  O  O96  1  0.576400  0.005100  0.952700  1.0  -1.1528
  O  O97  1  0.810700  0.616400  0.062200  1.0  -0.7483
  O  O98  1  0.599900  0.608400  0.125800  1.0  -0.5639
  O  O99  1  0.416700  0.281500  0.939100  1.0  -0.6325
  O  O100  1  0.457500  0.272000  0.523800  1.0  -0.6469
  O  O101  1  0.577600  0.273900  0.433400  1.0  -0.6405
  O  O102  1  0.439500  0.716600  0.524200  1.0  -0.6703
  O  O103  1  0.834600  0.604400  0.389000  1.0  -0.675
  O  O104  1  0.611500  0.599600  0.334100  1.0  -0.5777
  O  O105  1  0.841800  0.382400  0.393600  1.0  -0.6861
  O  O106  1  0.633000  0.406300  0.332000  1.0  -0.6128
  O  O107  1  0.384000  0.592500  0.625000  1.0  -0.6284
  O  O108  1  0.184600  0.607300  0.558300  1.0  -0.7312
  O  O109  1  0.423600  0.994900  0.452700  1.0  -1.1526
  O  O110  1  0.189300  0.383600  0.562200  1.0  -0.748
  O  O111  1  0.400100  0.391600  0.625800  1.0  -0.5633
  O  O112  1  0.583300  0.718500  0.439100  1.0  -0.6324
