# generated using pymatgen
data_Ce2U3H6(C5O4)6
_symmetry_space_group_name_H-M   'P 1'
_cell_length_a   10.92290000
_cell_length_b   11.53710000
_cell_length_c   13.45160000
_cell_angle_alpha   69.50200000
_cell_angle_beta   80.04900000
_cell_angle_gamma   62.25300000
_symmetry_Int_Tables_number   1
_chemical_formula_structural   Ce2U3H6(C5O4)6
_chemical_formula_sum   'Ce2 U3 H6 C30 O24'
_cell_volume   1405.14395892
_cell_formula_units_Z   1
loop_
 _symmetry_equiv_pos_site_id
 _symmetry_equiv_pos_as_xyz
  1  'x, y, z'
loop_
 _atom_site_type_symbol
 _atom_site_label
 _atom_site_symmetry_multiplicity
 _atom_site_fract_x
 _atom_site_fract_y
 _atom_site_fract_z
 _atom_site_occupancy
 _atom_site_charge
  Ce  Ce1  1  0.622090  0.214770  0.775330  1.0  1.5504
  Ce  Ce2  1  0.377910  0.785230  0.224670  1.0  1.5512
  U  U3  1  0.632020  0.701900  0.833250  1.0  1.7446
  U  U4  1  0.367980  0.298100  0.166750  1.0  1.7445
  U  U5  1  0.000000  0.500000  0.500000  1.0  1.9876
  H  H6  1  0.186690  0.097360  0.730390  1.0  0.1095
  H  H7  1  0.293010  0.000750  0.580450  1.0  0.1132
  H  H8  1  0.099380  0.362680  0.951930  1.0  0.1096
  H  H9  1  0.813310  0.902640  0.269610  1.0  0.1087
  H  H10  1  0.706990  0.999250  0.419550  1.0  0.1151
  H  H11  1  0.900620  0.637320  0.048070  1.0  0.1102
  C  C12  1  0.419400  0.027600  0.809500  1.0  0.746
  C  C13  1  0.920900  0.276600  0.716800  1.0  0.7996
  C  C14  1  0.035000  0.257400  0.779500  1.0  -0.1323
  C  C15  1  0.278100  0.134300  0.828400  1.0  -0.0852
  C  C16  1  0.009900  0.337300  0.845100  1.0  -0.1375
  C  C17  1  0.251400  0.213800  0.895800  1.0  -0.1427
  C  C18  1  0.169500  0.154600  0.773400  1.0  -0.067
  C  C19  1  0.744400  0.745500  0.504000  1.0  0.6289
  C  C20  1  0.474800  0.746400  0.614900  1.0  0.7467
  C  C21  1  0.873600  0.455000  0.849500  1.0  0.6251
  C  C22  1  0.356900  0.198100  0.962400  1.0  0.7317
  C  C23  1  0.378600  0.000200  0.547800  1.0  -0.0589
  C  C24  1  0.615500  0.875400  0.503400  1.0  -0.1327
  C  C25  1  0.492500  0.874400  0.553700  1.0  -0.09
  C  C26  1  0.118200  0.311100  0.904000  1.0  -0.0125
  C  C27  1  0.580600  0.972400  0.190500  1.0  0.7479
  C  C28  1  0.079100  0.723400  0.283200  1.0  0.799
  C  C29  1  0.965000  0.742600  0.220500  1.0  -0.1315
  C  C30  1  0.721900  0.865700  0.171600  1.0  -0.0853
  C  C31  1  0.990100  0.662700  0.154900  1.0  -0.1371
  C  C32  1  0.748600  0.786200  0.104200  1.0  -0.1521
  C  C33  1  0.830500  0.845400  0.226600  1.0  -0.067
  C  C34  1  0.255600  0.254500  0.496000  1.0  0.6263
  C  C35  1  0.525200  0.253600  0.385100  1.0  0.747
  C  C36  1  0.126400  0.545000  0.150500  1.0  0.6338
  C  C37  1  0.643100  0.801900  0.037600  1.0  0.7312
  C  C38  1  0.621400  0.999800  0.452200  1.0  -0.0574
  C  C39  1  0.384500  0.124600  0.496600  1.0  -0.1325
  C  C40  1  0.507500  0.125600  0.446300  1.0  -0.0909
  C  C41  1  0.881800  0.688900  0.096000  1.0  -0.01
  O  O42  1  0.900500  0.356700  0.622600  1.0  -0.6816
  O  O43  1  0.506500  0.692100  0.713300  1.0  -0.72
  O  O44  1  0.310400  0.216700  0.053700  1.0  -0.6972
  O  O45  1  0.428000  0.908800  0.827100  1.0  -0.6533
  O  O46  1  0.774000  0.482700  0.795800  1.0  -0.6311
  O  O47  1  0.738900  0.631700  0.531400  1.0  -0.6352
  O  O48  1  0.857100  0.206200  0.760100  1.0  -0.711
  O  O49  1  0.857000  0.750400  0.477600  1.0  -0.6577
  O  O50  1  0.516700  0.060000  0.774000  1.0  -0.7114
  O  O51  1  0.858300  0.528100  0.905500  1.0  -0.6358
  O  O52  1  0.423800  0.703200  0.570000  1.0  -0.5979
  O  O53  1  0.476200  0.172800  0.932700  1.0  -0.709
  O  O54  1  0.099500  0.643300  0.377400  1.0  -0.6813
  O  O55  1  0.493500  0.307900  0.286700  1.0  -0.7207
  O  O56  1  0.689600  0.783300  0.946300  1.0  -0.6955
  O  O57  1  0.572000  0.091200  0.172900  1.0  -0.6546
  O  O58  1  0.226000  0.517300  0.204200  1.0  -0.6323
  O  O59  1  0.261100  0.368300  0.468600  1.0  -0.6342
  O  O60  1  0.142900  0.793800  0.239900  1.0  -0.7106
  O  O61  1  0.143000  0.249600  0.522400  1.0  -0.6568
  O  O62  1  0.483300  0.940000  0.226000  1.0  -0.7128
  O  O63  1  0.141700  0.471900  0.094500  1.0  -0.6341
  O  O64  1  0.576200  0.296800  0.430000  1.0  -0.6021
  O  O65  1  0.523800  0.827200  0.067300  1.0  -0.7089
