# generated using pymatgen
data_ZnH12C19NO5
_symmetry_space_group_name_H-M   'P 1'
_cell_length_a   11.06440000
_cell_length_b   16.77580000
_cell_length_c   22.43170000
_cell_angle_alpha   90.00000000
_cell_angle_beta   90.00000000
_cell_angle_gamma   90.00000000
_symmetry_Int_Tables_number   1
_chemical_formula_structural   ZnH12C19NO5
_chemical_formula_sum   'Zn8 H96 C152 N8 O40'
_cell_volume   4163.64118697
_cell_formula_units_Z   8
loop_
 _symmetry_equiv_pos_site_id
 _symmetry_equiv_pos_as_xyz
  1  'x, y, z'
loop_
 _atom_site_type_symbol
 _atom_site_label
 _atom_site_symmetry_multiplicity
 _atom_site_fract_x
 _atom_site_fract_y
 _atom_site_fract_z
 _atom_site_occupancy
 _atom_site_charge
  Zn  Zn1  1  0.093740  0.059030  0.508760  1.0  0.9131
  Zn  Zn2  1  0.906260  0.440970  0.508760  1.0  0.9118
  Zn  Zn3  1  0.093740  0.940970  0.991240  1.0  0.9129
  Zn  Zn4  1  0.906260  0.559030  0.991240  1.0  0.9116
  Zn  Zn5  1  0.906260  0.940970  0.491240  1.0  0.9115
  Zn  Zn6  1  0.093740  0.559030  0.491240  1.0  0.9129
  Zn  Zn7  1  0.906260  0.059030  0.008760  1.0  0.9118
  Zn  Zn8  1  0.093740  0.440970  0.008760  1.0  0.9131
  H  H9  1  0.329700  0.302700  0.563300  1.0  0.1152
  H  H10  1  0.419500  0.570000  0.778700  1.0  0.1322
  H  H11  1  0.197800  0.654100  0.637600  1.0  0.1305
  H  H12  1  0.158200  0.732200  0.757900  1.0  0.1254
  H  H13  1  0.411500  0.829800  0.694200  1.0  0.1207
  H  H14  1  0.055500  0.677500  0.837400  1.0  0.0949
  H  H15  1  0.523700  0.127200  0.491200  1.0  0.1344
  H  H16  1  0.350300  0.054300  0.484800  1.0  0.08
  H  H17  1  0.313800  0.917300  0.629500  1.0  0.1038
  H  H18  1  0.316800  0.515800  0.857700  1.0  0.0952
  H  H19  1  0.160200  0.222900  0.555500  1.0  0.0885
  H  H20  1  0.100100  0.740700  0.574500  1.0  0.0905
  H  H21  1  0.670300  0.197300  0.563300  1.0  0.1148
  H  H22  1  0.580500  0.930000  0.778700  1.0  0.1318
  H  H23  1  0.802200  0.845900  0.637600  1.0  0.1299
  H  H24  1  0.841800  0.767800  0.757900  1.0  0.1252
  H  H25  1  0.588500  0.670200  0.694200  1.0  0.1209
  H  H26  1  0.944500  0.822500  0.837400  1.0  0.0951
  H  H27  1  0.476300  0.372800  0.491200  1.0  0.1343
  H  H28  1  0.649700  0.445700  0.484800  1.0  0.0795
  H  H29  1  0.686200  0.582700  0.629500  1.0  0.1029
  H  H30  1  0.683200  0.984200  0.857700  1.0  0.095
  H  H31  1  0.839800  0.277100  0.555500  1.0  0.0888
  H  H32  1  0.899900  0.759300  0.574500  1.0  0.0906
  H  H33  1  0.329700  0.697300  0.936700  1.0  0.1154
  H  H34  1  0.419500  0.430000  0.721300  1.0  0.1318
  H  H35  1  0.197800  0.345900  0.862400  1.0  0.13
  H  H36  1  0.158200  0.267800  0.742100  1.0  0.1254
  H  H37  1  0.411500  0.170200  0.805800  1.0  0.1211
  H  H38  1  0.055500  0.322500  0.662600  1.0  0.096
  H  H39  1  0.523700  0.872800  0.008800  1.0  0.1342
  H  H40  1  0.350300  0.945700  0.015200  1.0  0.0797
  H  H41  1  0.313800  0.082700  0.870500  1.0  0.1023
  H  H42  1  0.316800  0.484200  0.642300  1.0  0.0952
  H  H43  1  0.160200  0.777100  0.944500  1.0  0.0887
  H  H44  1  0.100100  0.259300  0.925500  1.0  0.0913
  H  H45  1  0.670300  0.802700  0.936700  1.0  0.1148
  H  H46  1  0.580500  0.070000  0.721300  1.0  0.132
  H  H47  1  0.802200  0.154100  0.862400  1.0  0.1302
  H  H48  1  0.841800  0.232200  0.742100  1.0  0.1259
  H  H49  1  0.588500  0.329800  0.805800  1.0  0.121
  H  H50  1  0.944500  0.177500  0.662600  1.0  0.0958
  H  H51  1  0.476300  0.627200  0.008800  1.0  0.1343
  H  H52  1  0.649700  0.554300  0.015200  1.0  0.0801
  H  H53  1  0.686200  0.417300  0.870500  1.0  0.1035
  H  H54  1  0.683200  0.015800  0.642300  1.0  0.0949
  H  H55  1  0.839800  0.722900  0.944500  1.0  0.0886
  H  H56  1  0.899900  0.240700  0.925500  1.0  0.0914
  H  H57  1  0.670300  0.697300  0.436700  1.0  0.1152
  H  H58  1  0.580500  0.430000  0.221300  1.0  0.1317
  H  H59  1  0.802200  0.345900  0.362400  1.0  0.1298
  H  H60  1  0.841800  0.267800  0.242100  1.0  0.1257
  H  H61  1  0.588500  0.170200  0.305800  1.0  0.1209
  H  H62  1  0.944500  0.322500  0.162600  1.0  0.0962
  H  H63  1  0.476300  0.872800  0.508800  1.0  0.1338
  H  H64  1  0.649700  0.945700  0.515200  1.0  0.0795
  H  H65  1  0.686200  0.082700  0.370500  1.0  0.1023
  H  H66  1  0.683200  0.484200  0.142300  1.0  0.0952
  H  H67  1  0.839800  0.777100  0.444500  1.0  0.0889
  H  H68  1  0.899900  0.259300  0.425500  1.0  0.0914
  H  H69  1  0.329700  0.802700  0.436700  1.0  0.1143
  H  H70  1  0.419500  0.070000  0.221300  1.0  0.1321
  H  H71  1  0.197800  0.154100  0.362400  1.0  0.1304
  H  H72  1  0.158200  0.232200  0.242100  1.0  0.1258
  H  H73  1  0.411500  0.329800  0.305800  1.0  0.1208
  H  H74  1  0.055500  0.177500  0.162600  1.0  0.0957
  H  H75  1  0.523700  0.627200  0.508800  1.0  0.1344
  H  H76  1  0.350300  0.554300  0.515200  1.0  0.0802
  H  H77  1  0.313800  0.417300  0.370500  1.0  0.1033
  H  H78  1  0.316800  0.015800  0.142300  1.0  0.095
  H  H79  1  0.160200  0.722900  0.444500  1.0  0.0886
  H  H80  1  0.100100  0.240700  0.425500  1.0  0.0911
  H  H81  1  0.670300  0.302700  0.063300  1.0  0.115
  H  H82  1  0.580500  0.570000  0.278700  1.0  0.1321
  H  H83  1  0.802200  0.654100  0.137600  1.0  0.1303
  H  H84  1  0.841800  0.732200  0.257900  1.0  0.1255
  H  H85  1  0.588500  0.829800  0.194200  1.0  0.1209
  H  H86  1  0.944500  0.677500  0.337400  1.0  0.095
  H  H87  1  0.476300  0.127200  0.991200  1.0  0.1343
  H  H88  1  0.649700  0.054300  0.984800  1.0  0.0798
  H  H89  1  0.686200  0.917300  0.129500  1.0  0.104
  H  H90  1  0.683200  0.515800  0.357700  1.0  0.095
  H  H91  1  0.839800  0.222900  0.055500  1.0  0.0887
  H  H92  1  0.899900  0.740700  0.074500  1.0  0.0906
  H  H93  1  0.329700  0.197300  0.063300  1.0  0.116
  H  H94  1  0.419500  0.930000  0.278700  1.0  0.1319
  H  H95  1  0.197800  0.845900  0.137600  1.0  0.13
  H  H96  1  0.158200  0.767800  0.257900  1.0  0.1249
  H  H97  1  0.411500  0.670200  0.194200  1.0  0.1213
  H  H98  1  0.055500  0.822500  0.337400  1.0  0.095
  H  H99  1  0.523700  0.372800  0.991200  1.0  0.1344
  H  H100  1  0.350300  0.445700  0.984800  1.0  0.0797
  H  H101  1  0.313800  0.582700  0.129500  1.0  0.1029
  H  H102  1  0.316800  0.984200  0.357700  1.0  0.0952
  H  H103  1  0.160200  0.277100  0.055500  1.0  0.0888
  H  H104  1  0.100100  0.759300  0.074500  1.0  0.0908
  C  C105  1  0.336200  0.251900  0.546900  1.0  -0.1857
  C  C106  1  0.346000  0.591800  0.790500  1.0  -0.2539
  C  C107  1  0.219300  0.707700  0.636900  1.0  -0.2287
  C  C108  1  0.189900  0.688600  0.778200  1.0  -0.2572
  C  C109  1  0.347300  0.812400  0.670700  1.0  -0.2225
  C  C110  1  0.104700  0.555100  0.906100  1.0  0.6926
  C  C111  1  0.299600  0.655800  0.761000  1.0  0.3068
  C  C112  1  0.128900  0.655500  0.825500  1.0  0.0219
  C  C113  1  0.450800  0.148500  0.504300  1.0  -0.207
  C  C114  1  0.346300  0.105200  0.501200  1.0  0.1751
  C  C115  1  0.288500  0.864500  0.632000  1.0  -0.0011
  C  C116  1  0.123900  0.897000  0.559700  1.0  0.684
  C  C117  1  0.308700  0.735200  0.673500  1.0  0.2838
  C  C118  1  0.174500  0.590300  0.855900  1.0  -0.208
  C  C119  1  0.193700  0.839000  0.597500  1.0  -0.1828
  C  C120  1  0.284300  0.559300  0.837700  1.0  0.0083
  C  C121  1  0.445300  0.225100  0.527500  1.0  0.1136
  C  C122  1  0.234300  0.203600  0.542400  1.0  0.1753
  C  C123  1  0.161400  0.759300  0.599200  1.0  0.0016
  C  C124  1  0.663800  0.248100  0.546900  1.0  -0.1866
  C  C125  1  0.654000  0.908200  0.790500  1.0  -0.2541
  C  C126  1  0.780700  0.792300  0.636900  1.0  -0.2299
  C  C127  1  0.810100  0.811400  0.778200  1.0  -0.255
  C  C128  1  0.652700  0.687600  0.670700  1.0  -0.2212
  C  C129  1  0.895300  0.944900  0.906100  1.0  0.6929
  C  C130  1  0.700400  0.844200  0.761000  1.0  0.3067
  C  C131  1  0.871100  0.844500  0.825500  1.0  0.0215
  C  C132  1  0.549200  0.351500  0.504300  1.0  -0.2087
  C  C133  1  0.653700  0.394800  0.501200  1.0  0.1762
  C  C134  1  0.711500  0.635500  0.632000  1.0  -0.0023
  C  C135  1  0.876100  0.603000  0.559700  1.0  0.6839
  C  C136  1  0.691300  0.764800  0.673500  1.0  0.2838
  C  C137  1  0.825500  0.909700  0.855900  1.0  -0.2089
  C  C138  1  0.806300  0.661000  0.597500  1.0  -0.1819
  C  C139  1  0.715700  0.940700  0.837700  1.0  0.0076
  C  C140  1  0.554700  0.274900  0.527500  1.0  0.114
  C  C141  1  0.765700  0.296400  0.542400  1.0  0.1761
  C  C142  1  0.838600  0.740700  0.599200  1.0  0.0022
  C  C143  1  0.336200  0.748100  0.953100  1.0  -0.186
  C  C144  1  0.346000  0.408200  0.709500  1.0  -0.2535
  C  C145  1  0.219300  0.292300  0.863100  1.0  -0.2295
  C  C146  1  0.189900  0.311400  0.721800  1.0  -0.2572
  C  C147  1  0.347300  0.187600  0.829300  1.0  -0.2229
  C  C148  1  0.104700  0.444900  0.593900  1.0  0.6931
  C  C149  1  0.299600  0.344200  0.739000  1.0  0.3069
  C  C150  1  0.128900  0.344500  0.674500  1.0  0.0222
  C  C151  1  0.450800  0.851500  0.995700  1.0  -0.2082
  C  C152  1  0.346300  0.894800  0.998800  1.0  0.1757
  C  C153  1  0.288500  0.135500  0.868000  1.0  -0.0027
  C  C154  1  0.123900  0.103000  0.940300  1.0  0.685
  C  C155  1  0.308700  0.264800  0.826500  1.0  0.2841
  C  C156  1  0.174500  0.409700  0.644100  1.0  -0.2074
  C  C157  1  0.193700  0.161000  0.902500  1.0  -0.1806
  C  C158  1  0.284300  0.440700  0.662300  1.0  0.0074
  C  C159  1  0.445300  0.774900  0.972500  1.0  0.1135
  C  C160  1  0.234300  0.796400  0.957600  1.0  0.1754
  C  C161  1  0.161400  0.240700  0.900800  1.0  0.0006
  C  C162  1  0.663800  0.751900  0.953100  1.0  -0.1858
  C  C163  1  0.654000  0.091800  0.709500  1.0  -0.2546
  C  C164  1  0.780700  0.207700  0.863100  1.0  -0.2283
  C  C165  1  0.810100  0.188600  0.721800  1.0  -0.2556
  C  C166  1  0.652700  0.312400  0.829300  1.0  -0.2219
  C  C167  1  0.895300  0.055100  0.593900  1.0  0.6921
  C  C168  1  0.700400  0.155800  0.739000  1.0  0.3066
  C  C169  1  0.871100  0.155500  0.674500  1.0  0.0211
  C  C170  1  0.549200  0.648500  0.995700  1.0  -0.2081
  C  C171  1  0.653700  0.605200  0.998800  1.0  0.1754
  C  C172  1  0.711500  0.364500  0.868000  1.0  -0.0017
  C  C173  1  0.876100  0.397000  0.940300  1.0  0.6844
  C  C174  1  0.691300  0.235200  0.826500  1.0  0.2838
  C  C175  1  0.825500  0.090300  0.644100  1.0  -0.2085
  C  C176  1  0.806300  0.339000  0.902500  1.0  -0.182
  C  C177  1  0.715700  0.059300  0.662300  1.0  0.0081
  C  C178  1  0.554700  0.725100  0.972500  1.0  0.1139
  C  C179  1  0.765700  0.703600  0.957600  1.0  0.1762
  C  C180  1  0.838600  0.259300  0.900800  1.0  0.0015
  C  C181  1  0.663800  0.748100  0.453100  1.0  -0.1862
  C  C182  1  0.654000  0.408200  0.209500  1.0  -0.2543
  C  C183  1  0.780700  0.292300  0.363100  1.0  -0.2296
  C  C184  1  0.810100  0.311400  0.221800  1.0  -0.2551
  C  C185  1  0.652700  0.187600  0.329300  1.0  -0.2226
  C  C186  1  0.895300  0.444900  0.093900  1.0  0.6926
  C  C187  1  0.700400  0.344200  0.239000  1.0  0.3066
  C  C188  1  0.871100  0.344500  0.174500  1.0  0.0212
  C  C189  1  0.549200  0.851500  0.495700  1.0  -0.2087
  C  C190  1  0.653700  0.894800  0.498800  1.0  0.1758
  C  C191  1  0.711500  0.135500  0.368000  1.0  -0.0026
  C  C192  1  0.876100  0.103000  0.440300  1.0  0.6844
  C  C193  1  0.691300  0.264800  0.326500  1.0  0.2839
  C  C194  1  0.825500  0.409700  0.144100  1.0  -0.2082
  C  C195  1  0.806300  0.161000  0.402500  1.0  -0.1809
  C  C196  1  0.715700  0.440700  0.162300  1.0  0.0077
  C  C197  1  0.554700  0.774900  0.472500  1.0  0.1141
  C  C198  1  0.765700  0.796400  0.457600  1.0  0.1762
  C  C199  1  0.838600  0.240700  0.400800  1.0  0.001
  C  C200  1  0.336200  0.751900  0.453100  1.0  -0.1853
  C  C201  1  0.346000  0.091800  0.209500  1.0  -0.2537
  C  C202  1  0.219300  0.207700  0.363100  1.0  -0.2281
  C  C203  1  0.189900  0.188600  0.221800  1.0  -0.2577
  C  C204  1  0.347300  0.312400  0.329300  1.0  -0.2216
  C  C205  1  0.104700  0.055100  0.093900  1.0  0.6927
  C  C206  1  0.299600  0.155800  0.239000  1.0  0.3066
  C  C207  1  0.128900  0.155500  0.174500  1.0  0.022
  C  C208  1  0.450800  0.648500  0.495700  1.0  -0.2078
  C  C209  1  0.346300  0.605200  0.498800  1.0  0.1751
  C  C210  1  0.288500  0.364500  0.368000  1.0  -0.0012
  C  C211  1  0.123900  0.397000  0.440300  1.0  0.6847
  C  C212  1  0.308700  0.235200  0.326500  1.0  0.2839
  C  C213  1  0.174500  0.090300  0.144100  1.0  -0.2085
  C  C214  1  0.193700  0.339000  0.402500  1.0  -0.1815
  C  C215  1  0.284300  0.059300  0.162300  1.0  0.0082
  C  C216  1  0.445300  0.725100  0.472500  1.0  0.1134
  C  C217  1  0.234300  0.703600  0.457600  1.0  0.1754
  C  C218  1  0.161400  0.259300  0.400800  1.0  0.0006
  C  C219  1  0.663800  0.251900  0.046900  1.0  -0.186
  C  C220  1  0.654000  0.591800  0.290500  1.0  -0.2545
  C  C221  1  0.780700  0.707700  0.136900  1.0  -0.2287
  C  C222  1  0.810100  0.688600  0.278200  1.0  -0.2552
  C  C223  1  0.652700  0.812400  0.170700  1.0  -0.2229
  C  C224  1  0.895300  0.555100  0.406100  1.0  0.6924
  C  C225  1  0.700400  0.655800  0.261000  1.0  0.3067
  C  C226  1  0.871100  0.655500  0.325500  1.0  0.0212
  C  C227  1  0.549200  0.148500  0.004300  1.0  -0.2073
  C  C228  1  0.653700  0.105200  0.001200  1.0  0.1755
  C  C229  1  0.711500  0.864500  0.132000  1.0  -0.0015
  C  C230  1  0.876100  0.897000  0.059700  1.0  0.6837
  C  C231  1  0.691300  0.735200  0.173500  1.0  0.2837
  C  C232  1  0.825500  0.590300  0.355900  1.0  -0.2091
  C  C233  1  0.806300  0.839000  0.097500  1.0  -0.1836
  C  C234  1  0.715700  0.559300  0.337700  1.0  0.0082
  C  C235  1  0.554700  0.225100  0.027500  1.0  0.1137
  C  C236  1  0.765700  0.203600  0.042400  1.0  0.1763
  C  C237  1  0.838600  0.759300  0.099200  1.0  0.0025
  C  C238  1  0.336200  0.248100  0.046900  1.0  -0.1864
  C  C239  1  0.346000  0.908200  0.290500  1.0  -0.2536
  C  C240  1  0.219300  0.792300  0.136900  1.0  -0.2298
  C  C241  1  0.189900  0.811400  0.278200  1.0  -0.2572
  C  C242  1  0.347300  0.687600  0.170700  1.0  -0.2215
  C  C243  1  0.104700  0.944900  0.406100  1.0  0.693
  C  C244  1  0.299600  0.844200  0.261000  1.0  0.307
  C  C245  1  0.128900  0.844500  0.325500  1.0  0.0222
  C  C246  1  0.450800  0.351500  0.004300  1.0  -0.2081
  C  C247  1  0.346300  0.394800  0.001200  1.0  0.176
  C  C248  1  0.288500  0.635500  0.132000  1.0  -0.0023
  C  C249  1  0.123900  0.603000  0.059700  1.0  0.6843
  C  C250  1  0.308700  0.764800  0.173500  1.0  0.2839
  C  C251  1  0.174500  0.909700  0.355900  1.0  -0.2071
  C  C252  1  0.193700  0.661000  0.097500  1.0  -0.1816
  C  C253  1  0.284300  0.940700  0.337700  1.0  0.0074
  C  C254  1  0.445300  0.274900  0.027500  1.0  0.1137
  C  C255  1  0.234300  0.296400  0.042400  1.0  0.175
  C  C256  1  0.161400  0.740700  0.099200  1.0  0.0017
  N  N257  1  0.240200  0.130700  0.519900  1.0  -0.2957
  N  N258  1  0.759800  0.369300  0.519900  1.0  -0.2941
  N  N259  1  0.240200  0.869300  0.980100  1.0  -0.2961
  N  N260  1  0.759800  0.630700  0.980100  1.0  -0.2963
  N  N261  1  0.759800  0.869300  0.480100  1.0  -0.2952
  N  N262  1  0.240200  0.630700  0.480100  1.0  -0.2976
  N  N263  1  0.759800  0.130700  0.019900  1.0  -0.2949
  N  N264  1  0.240200  0.369300  0.019900  1.0  -0.2951
  O  O265  1  0.150000  0.495500  0.932200  1.0  -0.6114
  O  O266  1  0.167000  0.965200  0.553300  1.0  -0.6025
  O  O267  1  0.006100  0.586400  0.918940  1.0  -0.5901
  O  O268  1  0.025200  0.873600  0.538580  1.0  -0.5744
  O  O269  1  0.366300  0.684700  0.713900  1.0  -0.2651
  O  O270  1  0.850000  0.004500  0.932200  1.0  -0.6116
  O  O271  1  0.833000  0.534800  0.553300  1.0  -0.6026
  O  O272  1  0.993900  0.913600  0.918940  1.0  -0.5905
  O  O273  1  0.974800  0.626400  0.538580  1.0  -0.5743
  O  O274  1  0.633700  0.815300  0.713900  1.0  -0.2654
  O  O275  1  0.150000  0.504500  0.567800  1.0  -0.6115
  O  O276  1  0.167000  0.034800  0.946700  1.0  -0.6022
  O  O277  1  0.006100  0.413600  0.581060  1.0  -0.59
  O  O278  1  0.025200  0.126400  0.961420  1.0  -0.5741
  O  O279  1  0.366300  0.315300  0.786100  1.0  -0.2653
  O  O280  1  0.850000  0.995500  0.567800  1.0  -0.6117
  O  O281  1  0.833000  0.465200  0.946700  1.0  -0.6025
  O  O282  1  0.993900  0.086400  0.581060  1.0  -0.5905
  O  O283  1  0.974800  0.373600  0.961420  1.0  -0.5741
  O  O284  1  0.633700  0.184700  0.786100  1.0  -0.2657
  O  O285  1  0.850000  0.504500  0.067800  1.0  -0.6118
  O  O286  1  0.833000  0.034800  0.446700  1.0  -0.6022
  O  O287  1  0.993900  0.413600  0.081060  1.0  -0.5902
  O  O288  1  0.974800  0.126400  0.461420  1.0  -0.5741
  O  O289  1  0.633700  0.315300  0.286100  1.0  -0.2655
  O  O290  1  0.150000  0.995500  0.067800  1.0  -0.6114
  O  O291  1  0.167000  0.465200  0.446700  1.0  -0.6019
  O  O292  1  0.006100  0.086400  0.081060  1.0  -0.5902
  O  O293  1  0.025200  0.373600  0.461420  1.0  -0.5741
  O  O294  1  0.366300  0.184700  0.286100  1.0  -0.2653
  O  O295  1  0.850000  0.495500  0.432200  1.0  -0.6118
  O  O296  1  0.833000  0.965200  0.053300  1.0  -0.6025
  O  O297  1  0.993900  0.586400  0.418940  1.0  -0.5904
  O  O298  1  0.974800  0.873600  0.038580  1.0  -0.5743
  O  O299  1  0.633700  0.684700  0.213900  1.0  -0.2656
  O  O300  1  0.150000  0.004500  0.432200  1.0  -0.6112
  O  O301  1  0.167000  0.534800  0.053300  1.0  -0.6024
  O  O302  1  0.006100  0.913600  0.418940  1.0  -0.5903
  O  O303  1  0.025200  0.626400  0.038580  1.0  -0.5743
  O  O304  1  0.366300  0.815300  0.213900  1.0  -0.2652
