# generated using pymatgen
data_ZnH8C14O5
_symmetry_space_group_name_H-M   'P 1'
_cell_length_a   15.80850000
_cell_length_b   15.80850000
_cell_length_c   21.02070000
_cell_angle_alpha   85.28610000
_cell_angle_beta   85.28610000
_cell_angle_gamma   60.57120000
_symmetry_Int_Tables_number   1
_chemical_formula_structural   ZnH8C14O5
_chemical_formula_sum   'Zn8 H64 C112 O40'
_cell_volume   4554.64459675
_cell_formula_units_Z   8
loop_
 _symmetry_equiv_pos_site_id
 _symmetry_equiv_pos_as_xyz
  1  'x, y, z'
loop_
 _atom_site_type_symbol
 _atom_site_label
 _atom_site_symmetry_multiplicity
 _atom_site_fract_x
 _atom_site_fract_y
 _atom_site_fract_z
 _atom_site_occupancy
 _atom_site_charge
  Zn  Zn1  1  0.435330  0.957730  0.007410  1.0  1.0851
  Zn  Zn2  1  0.008500  0.002180  0.680840  1.0  1.1237
  Zn  Zn3  1  0.042270  0.564670  0.492590  1.0  1.0896
  Zn  Zn4  1  0.997820  0.991500  0.819160  1.0  1.1233
  Zn  Zn5  1  0.564670  0.042270  0.992590  1.0  1.0886
  Zn  Zn6  1  0.991500  0.997820  0.319160  1.0  1.1232
  Zn  Zn7  1  0.957730  0.435330  0.507410  1.0  1.0877
  Zn  Zn8  1  0.002180  0.008500  0.180840  1.0  1.1237
  H  H9  1  0.105900  0.284500  0.813700  1.0  0.1193
  H  H10  1  0.935200  0.455000  0.678900  1.0  0.115
  H  H11  1  0.121200  0.529600  0.849400  1.0  0.1197
  H  H12  1  0.603800  0.726800  0.885300  1.0  0.0973
  H  H13  1  0.227900  0.151300  0.868900  1.0  0.0968
  H  H14  1  0.044900  0.706300  0.659300  1.0  0.1083
  H  H15  1  0.395000  0.267400  0.855700  1.0  0.1022
  H  H16  1  0.863200  0.448000  0.869100  1.0  0.1401
  H  H17  1  0.891000  0.701800  0.805700  1.0  0.0991
  H  H18  1  0.905200  0.287600  0.861300  1.0  0.0893
  H  H19  1  0.096200  0.685000  0.846100  1.0  0.1139
  H  H20  1  0.963400  0.295000  0.674400  1.0  0.121
  H  H21  1  0.066300  0.551300  0.664300  1.0  0.1342
  H  H22  1  0.780700  0.835900  0.855200  1.0  0.1201
  H  H23  1  0.286800  0.398600  0.795100  1.0  0.1346
  H  H24  1  0.706700  0.594900  0.828500  1.0  0.1426
  H  H25  1  0.715500  0.894100  0.686300  1.0  0.1191
  H  H26  1  0.545000  0.064800  0.821100  1.0  0.1138
  H  H27  1  0.470400  0.878800  0.650600  1.0  0.1217
  H  H28  1  0.273200  0.396200  0.614700  1.0  0.0985
  H  H29  1  0.848700  0.772100  0.631100  1.0  0.0962
  H  H30  1  0.293700  0.955100  0.840700  1.0  0.1081
  H  H31  1  0.732600  0.605000  0.644300  1.0  0.1036
  H  H32  1  0.552000  0.136800  0.630900  1.0  0.1404
  H  H33  1  0.298200  0.109000  0.694300  1.0  0.0983
  H  H34  1  0.712400  0.094800  0.638700  1.0  0.0882
  H  H35  1  0.315000  0.903800  0.653900  1.0  0.1136
  H  H36  1  0.705000  0.036600  0.825600  1.0  0.1209
  H  H37  1  0.448700  0.933700  0.835700  1.0  0.1337
  H  H38  1  0.164100  0.219300  0.644800  1.0  0.1203
  H  H39  1  0.601400  0.713200  0.704900  1.0  0.1363
  H  H40  1  0.405100  0.293300  0.671500  1.0  0.1438
  H  H41  1  0.894100  0.715500  0.186300  1.0  0.1188
  H  H42  1  0.064800  0.545000  0.321100  1.0  0.1143
  H  H43  1  0.878800  0.470400  0.150600  1.0  0.1205
  H  H44  1  0.396200  0.273200  0.114700  1.0  0.0989
  H  H45  1  0.772100  0.848700  0.131100  1.0  0.0956
  H  H46  1  0.955100  0.293700  0.340700  1.0  0.1079
  H  H47  1  0.605000  0.732600  0.144300  1.0  0.1036
  H  H48  1  0.136800  0.552000  0.130900  1.0  0.1401
  H  H49  1  0.109000  0.298200  0.194300  1.0  0.1005
  H  H50  1  0.094800  0.712400  0.138700  1.0  0.0886
  H  H51  1  0.903800  0.315000  0.153900  1.0  0.114
  H  H52  1  0.036600  0.705000  0.325600  1.0  0.1211
  H  H53  1  0.933700  0.448700  0.335700  1.0  0.1331
  H  H54  1  0.219300  0.164100  0.144800  1.0  0.1196
  H  H55  1  0.713200  0.601400  0.204900  1.0  0.134
  H  H56  1  0.293300  0.405100  0.171500  1.0  0.1427
  H  H57  1  0.284500  0.105900  0.313700  1.0  0.1187
  H  H58  1  0.455000  0.935200  0.178900  1.0  0.1146
  H  H59  1  0.529600  0.121200  0.349400  1.0  0.1206
  H  H60  1  0.726800  0.603800  0.385300  1.0  0.0978
  H  H61  1  0.151300  0.227900  0.368900  1.0  0.0963
  H  H62  1  0.706300  0.044900  0.159300  1.0  0.1085
  H  H63  1  0.267400  0.395000  0.355700  1.0  0.1032
  H  H64  1  0.448000  0.863200  0.369100  1.0  0.1407
  H  H65  1  0.701800  0.891000  0.305700  1.0  0.098
  H  H66  1  0.287600  0.905200  0.361300  1.0  0.0893
  H  H67  1  0.685000  0.096200  0.346100  1.0  0.114
  H  H68  1  0.295000  0.963400  0.174400  1.0  0.1209
  H  H69  1  0.551300  0.066300  0.164300  1.0  0.1345
  H  H70  1  0.835900  0.780700  0.355200  1.0  0.1199
  H  H71  1  0.398600  0.286800  0.295100  1.0  0.1356
  H  H72  1  0.594900  0.706700  0.328500  1.0  0.1438
  C  C73  1  0.894100  0.467900  0.771600  1.0  0.2765
  C  C74  1  0.064500  0.719700  0.750800  1.0  -0.1438
  C  C75  1  0.164200  0.281600  0.821800  1.0  -0.1523
  C  C76  1  0.932700  0.278900  0.769400  1.0  -0.1382
  C  C77  1  0.925800  0.422600  0.715400  1.0  -0.1948
  C  C78  1  0.108400  0.565400  0.810600  1.0  -0.2235
  C  C79  1  0.662500  0.721300  0.868800  1.0  -0.0197
  C  C80  1  0.237700  0.203900  0.856900  1.0  -0.0135
  C  C81  1  0.060000  0.671200  0.698300  1.0  -0.053
  C  C82  1  0.335900  0.271700  0.848000  1.0  -0.017
  C  C83  1  0.884000  0.418000  0.830300  1.0  -0.2045
  C  C84  1  0.832100  0.706500  0.821200  1.0  -0.1905
  C  C85  1  0.907300  0.323300  0.824400  1.0  -0.0424
  C  C86  1  0.090900  0.659700  0.809100  1.0  -0.0704
  C  C87  1  0.682300  0.792300  0.879200  1.0  -0.1111
  C  C88  1  0.944200  0.326400  0.712700  1.0  -0.0526
  C  C89  1  0.107700  0.522300  0.756800  1.0  0.2849
  C  C90  1  0.813500  0.632500  0.811800  1.0  0.2787
  C  C91  1  0.317600  0.198000  0.874300  1.0  -0.0133
  C  C92  1  0.045700  0.818300  0.742200  1.0  0.5856
  C  C93  1  0.076100  0.576900  0.699500  1.0  -0.1677
  C  C94  1  0.188900  0.356100  0.799600  1.0  0.2666
  C  C95  1  0.387800  0.118400  0.917000  1.0  0.6588
  C  C96  1  0.767700  0.785100  0.852100  1.0  -0.0611
  C  C97  1  0.271800  0.350800  0.811100  1.0  -0.2274
  C  C98  1  0.723700  0.641900  0.835500  1.0  -0.2522
  C  C99  1  0.614400  0.873200  0.923100  1.0  0.6021
  C  C100  1  0.957300  0.176700  0.771300  1.0  0.6176
  C  C101  1  0.532100  0.105900  0.728400  1.0  0.2765
  C  C102  1  0.280300  0.935500  0.749200  1.0  -0.1449
  C  C103  1  0.718400  0.835800  0.678200  1.0  -0.1439
  C  C104  1  0.721100  0.067300  0.730600  1.0  -0.1392
  C  C105  1  0.577400  0.074200  0.784600  1.0  -0.1977
  C  C106  1  0.434600  0.891600  0.689400  1.0  -0.2209
  C  C107  1  0.278700  0.337500  0.631200  1.0  -0.0189
  C  C108  1  0.796100  0.762300  0.643100  1.0  -0.0153
  C  C109  1  0.328800  0.940000  0.801700  1.0  -0.0524
  C  C110  1  0.728300  0.664100  0.652000  1.0  -0.0173
  C  C111  1  0.582000  0.116000  0.669700  1.0  -0.2039
  C  C112  1  0.293500  0.167900  0.678800  1.0  -0.1904
  C  C113  1  0.676700  0.092700  0.675600  1.0  -0.0455
  C  C114  1  0.340300  0.909100  0.690900  1.0  -0.0723
  C  C115  1  0.207700  0.317700  0.620800  1.0  -0.113
  C  C116  1  0.673600  0.055800  0.787300  1.0  -0.0596
  C  C117  1  0.477700  0.892300  0.743200  1.0  0.2843
  C  C118  1  0.367500  0.186500  0.688200  1.0  0.2781
  C  C119  1  0.802000  0.682400  0.625700  1.0  -0.0182
  C  C120  1  0.181700  0.954300  0.757800  1.0  0.5848
  C  C121  1  0.423100  0.923900  0.800500  1.0  -0.1694
  C  C122  1  0.643900  0.811100  0.700400  1.0  0.2663
  C  C123  1  0.881600  0.612200  0.583000  1.0  0.6591
  C  C124  1  0.214900  0.232300  0.647900  1.0  -0.0624
  C  C125  1  0.649200  0.728200  0.688900  1.0  -0.2279
  C  C126  1  0.358100  0.276300  0.664500  1.0  -0.2514
  C  C127  1  0.126800  0.385600  0.576900  1.0  0.6026
  C  C128  1  0.823300  0.042700  0.728700  1.0  0.6134
  C  C129  1  0.105900  0.532100  0.228400  1.0  0.2765
  C  C130  1  0.935500  0.280300  0.249200  1.0  -0.1423
  C  C131  1  0.835800  0.718400  0.178200  1.0  -0.1417
  C  C132  1  0.067300  0.721100  0.230600  1.0  -0.1374
  C  C133  1  0.074200  0.577400  0.284600  1.0  -0.1955
  C  C134  1  0.891600  0.434600  0.189400  1.0  -0.2182
  C  C135  1  0.337500  0.278700  0.131200  1.0  -0.0176
  C  C136  1  0.762300  0.796100  0.143100  1.0  -0.014
  C  C137  1  0.940000  0.328800  0.301700  1.0  -0.0547
  C  C138  1  0.664100  0.728300  0.152000  1.0  -0.0182
  C  C139  1  0.116000  0.582000  0.169700  1.0  -0.2012
  C  C140  1  0.167900  0.293500  0.178800  1.0  -0.1917
  C  C141  1  0.092700  0.676700  0.175600  1.0  -0.0439
  C  C142  1  0.909100  0.340300  0.190900  1.0  -0.0689
  C  C143  1  0.317700  0.207700  0.120800  1.0  -0.1147
  C  C144  1  0.055800  0.673600  0.287300  1.0  -0.0556
  C  C145  1  0.892300  0.477700  0.243200  1.0  0.2829
  C  C146  1  0.186500  0.367500  0.188200  1.0  0.2795
  C  C147  1  0.682400  0.802000  0.125700  1.0  -0.0188
  C  C148  1  0.954300  0.181700  0.257800  1.0  0.5854
  C  C149  1  0.923900  0.423100  0.300500  1.0  -0.169
  C  C150  1  0.811100  0.643900  0.200400  1.0  0.2649
  C  C151  1  0.612200  0.881600  0.083000  1.0  0.6581
  C  C152  1  0.232300  0.214900  0.147900  1.0  -0.0615
  C  C153  1  0.728200  0.649200  0.188900  1.0  -0.2281
  C  C154  1  0.276300  0.358100  0.164500  1.0  -0.2517
  C  C155  1  0.385600  0.126800  0.076900  1.0  0.6036
  C  C156  1  0.042700  0.823300  0.228700  1.0  0.6161
  C  C157  1  0.467900  0.894100  0.271600  1.0  0.2755
  C  C158  1  0.719700  0.064500  0.250800  1.0  -0.1448
  C  C159  1  0.281600  0.164200  0.321800  1.0  -0.1456
  C  C160  1  0.278900  0.932700  0.269400  1.0  -0.1422
  C  C161  1  0.422600  0.925800  0.215400  1.0  -0.1968
  C  C162  1  0.565400  0.108400  0.310600  1.0  -0.2263
  C  C163  1  0.721300  0.662500  0.368800  1.0  -0.0198
  C  C164  1  0.203900  0.237700  0.356900  1.0  -0.0147
  C  C165  1  0.671200  0.060000  0.198300  1.0  -0.0535
  C  C166  1  0.271700  0.335900  0.348000  1.0  -0.0168
  C  C167  1  0.418000  0.884000  0.330300  1.0  -0.2054
  C  C168  1  0.706500  0.832100  0.321200  1.0  -0.19
  C  C169  1  0.323300  0.907300  0.324400  1.0  -0.0436
  C  C170  1  0.659700  0.090900  0.309100  1.0  -0.0725
  C  C171  1  0.792300  0.682300  0.379200  1.0  -0.1115
  C  C172  1  0.326400  0.944200  0.212700  1.0  -0.0573
  C  C173  1  0.522300  0.107700  0.256800  1.0  0.285
  C  C174  1  0.632500  0.813500  0.311800  1.0  0.2788
  C  C175  1  0.198000  0.317600  0.374300  1.0  -0.0157
  C  C176  1  0.818300  0.045700  0.242200  1.0  0.5833
  C  C177  1  0.576900  0.076100  0.199500  1.0  -0.1679
  C  C178  1  0.356100  0.188900  0.299600  1.0  0.2681
  C  C179  1  0.118400  0.387800  0.417000  1.0  0.6608
  C  C180  1  0.785100  0.767700  0.352100  1.0  -0.0614
  C  C181  1  0.350800  0.271800  0.311100  1.0  -0.2276
  C  C182  1  0.641900  0.723700  0.335500  1.0  -0.2526
  C  C183  1  0.873200  0.614400  0.423100  1.0  0.6029
  C  C184  1  0.176700  0.957300  0.271300  1.0  0.6151
  O  O185  1  0.536500  0.870300  0.939900  1.0  -0.6066
  O  O186  1  0.357500  0.058300  0.938000  1.0  -0.5885
  O  O187  1  0.634300  0.930700  0.931500  1.0  -0.5784
  O  O188  1  0.456800  0.118600  0.930500  1.0  -0.589
  O  O189  1  0.882500  0.557500  0.772600  1.0  -0.2934
  O  O190  1  0.120400  0.430200  0.761700  1.0  -0.2502
  O  O191  1  0.031100  0.864300  0.691900  1.0  -0.5425
  O  O192  1  0.045600  0.857200  0.799400  1.0  -0.6217
  O  O193  1  0.948900  0.132500  0.818400  1.0  -0.5713
  O  O194  1  0.978800  0.136200  0.713600  1.0  -0.6412
  O  O195  1  0.129700  0.463500  0.560100  1.0  -0.6063
  O  O196  1  0.941700  0.642500  0.562000  1.0  -0.5902
  O  O197  1  0.069300  0.365700  0.568500  1.0  -0.5769
  O  O198  1  0.881400  0.543200  0.569500  1.0  -0.5856
  O  O199  1  0.442500  0.117500  0.727400  1.0  -0.2928
  O  O200  1  0.569800  0.879600  0.738300  1.0  -0.2509
  O  O201  1  0.135700  0.968900  0.808100  1.0  -0.5414
  O  O202  1  0.142800  0.954400  0.700600  1.0  -0.6216
  O  O203  1  0.867500  0.051100  0.681600  1.0  -0.5692
  O  O204  1  0.863800  0.021200  0.786400  1.0  -0.6395
  O  O205  1  0.463500  0.129700  0.060100  1.0  -0.6067
  O  O206  1  0.642500  0.941700  0.062000  1.0  -0.5894
  O  O207  1  0.365700  0.069300  0.068500  1.0  -0.5769
  O  O208  1  0.543200  0.881400  0.069500  1.0  -0.5902
  O  O209  1  0.117500  0.442500  0.227400  1.0  -0.2916
  O  O210  1  0.879600  0.569800  0.238300  1.0  -0.25
  O  O211  1  0.968900  0.135700  0.308100  1.0  -0.5428
  O  O212  1  0.954400  0.142800  0.200600  1.0  -0.6222
  O  O213  1  0.051100  0.867500  0.181600  1.0  -0.5699
  O  O214  1  0.021200  0.863800  0.286400  1.0  -0.6388
  O  O215  1  0.870300  0.536500  0.439900  1.0  -0.6043
  O  O216  1  0.058300  0.357500  0.438000  1.0  -0.5912
  O  O217  1  0.930700  0.634300  0.431500  1.0  -0.5763
  O  O218  1  0.118600  0.456800  0.430500  1.0  -0.5867
  O  O219  1  0.557500  0.882500  0.272600  1.0  -0.2938
  O  O220  1  0.430200  0.120400  0.261700  1.0  -0.2506
  O  O221  1  0.864300  0.031100  0.191900  1.0  -0.5433
  O  O222  1  0.857200  0.045600  0.299400  1.0  -0.6206
  O  O223  1  0.132500  0.948900  0.318400  1.0  -0.5699
  O  O224  1  0.136200  0.978800  0.213600  1.0  -0.6406
