# generated using pymatgen
data_Cu2H20C33NO10
_symmetry_space_group_name_H-M   'P 1'
_cell_length_a   15.91900000
_cell_length_b   18.33070000
_cell_length_c   20.08700000
_cell_angle_alpha   65.48420000
_cell_angle_beta   66.65610000
_cell_angle_gamma   64.26460000
_symmetry_Int_Tables_number   1
_chemical_formula_structural   Cu2H20C33NO10
_chemical_formula_sum   'Cu8 H80 C132 N4 O40'
_cell_volume   4634.13233865
_cell_formula_units_Z   4
loop_
 _symmetry_equiv_pos_site_id
 _symmetry_equiv_pos_as_xyz
  1  'x, y, z'
loop_
 _atom_site_type_symbol
 _atom_site_label
 _atom_site_symmetry_multiplicity
 _atom_site_fract_x
 _atom_site_fract_y
 _atom_site_fract_z
 _atom_site_occupancy
 _atom_site_charge
  Cu  Cu1  1  0.943850  0.052790  0.541510  1.0  0.7966
  Cu  Cu2  1  0.487670  0.573650  0.445250  1.0  0.8784
  Cu  Cu3  1  0.538150  0.447210  0.958490  1.0  0.7985
  Cu  Cu4  1  0.506570  0.926350  0.054750  1.0  0.879
  Cu  Cu5  1  0.056150  0.947210  0.458490  1.0  0.7968
  Cu  Cu6  1  0.512330  0.426350  0.554750  1.0  0.8788
  Cu  Cu7  1  0.461850  0.552790  0.041510  1.0  0.7983
  Cu  Cu8  1  0.493430  0.073650  0.945250  1.0  0.8782
  H  H9  1  0.373300  0.165500  0.249300  1.0  0.107
  H  H10  1  0.579600  0.243500  0.367300  1.0  0.1264
  H  H11  1  0.271200  0.085000  0.302200  1.0  0.1126
  H  H12  1  0.752600  0.072400  0.251000  1.0  0.1155
  H  H13  1  0.583700  0.978800  0.215800  1.0  0.1151
  H  H14  1  0.875300  0.028300  0.314500  1.0  0.1203
  H  H15  1  0.392100  0.312200  0.482200  1.0  0.1082
  H  H16  1  0.354500  0.246200  0.425000  1.0  0.1311
  H  H17  1  0.531500  0.211200  0.060600  1.0  0.094
  H  H18  1  0.093100  0.231100  0.438900  1.0  0.1049
  H  H19  1  0.543900  0.268300  0.137500  1.0  0.1278
  H  H20  1  0.394800  0.430100  0.227500  1.0  0.1049
  H  H21  1  0.607400  0.035800  0.290200  1.0  0.1289
  H  H22  1  0.437300  0.494700  0.284300  1.0  0.1155
  H  H23  1  0.919300  0.181300  0.732100  1.0  0.1143
  H  H24  1  0.702800  0.200900  0.427900  1.0  0.102
  H  H25  1  0.189300  0.316900  0.383300  1.0  0.126
  H  H26  1  0.983800  0.094500  0.658100  1.0  0.0904
  H  H27  1  0.754100  0.198800  0.582600  1.0  0.0934
  H  H28  1  0.673700  0.272300  0.674100  1.0  0.118
  H  H29  1  0.788100  0.334500  0.250700  1.0  0.1076
  H  H30  1  0.190400  0.256500  0.132700  1.0  0.126
  H  H31  1  0.658400  0.415000  0.197800  1.0  0.1136
  H  H32  1  0.076000  0.427600  0.249000  1.0  0.1161
  H  H33  1  0.778300  0.521200  0.284200  1.0  0.1146
  H  H34  1  0.218100  0.471700  0.185500  1.0  0.1169
  H  H35  1  0.186500  0.187800  0.017800  1.0  0.1089
  H  H36  1  0.025700  0.253800  0.075000  1.0  0.131
  H  H37  1  0.803300  0.288800  0.439400  1.0  0.0936
  H  H38  1  0.763100  0.268900  0.061100  1.0  0.1042
  H  H39  1  0.949700  0.231700  0.362500  1.0  0.129
  H  H40  1  0.052400  0.069900  0.272500  1.0  0.1043
  H  H41  1  0.933400  0.464200  0.209800  1.0  0.1277
  H  H42  1  0.216300  0.005300  0.215700  1.0  0.1152
  H  H43  1  0.832700  0.318700  0.767900  1.0  0.1158
  H  H44  1  0.331600  0.299100  0.072100  1.0  0.1021
  H  H45  1  0.889500  0.183100  0.116700  1.0  0.1272
  H  H46  1  0.736400  0.405500  0.841900  1.0  0.0904
  H  H47  1  0.535500  0.301200  0.917400  1.0  0.0945
  H  H48  1  0.620100  0.227700  0.825900  1.0  0.117
  H  H49  1  0.626700  0.834500  0.750700  1.0  0.1065
  H  H50  1  0.420400  0.756500  0.632700  1.0  0.1269
  H  H51  1  0.728800  0.915000  0.697800  1.0  0.113
  H  H52  1  0.247400  0.927600  0.749000  1.0  0.1159
  H  H53  1  0.416300  0.021200  0.784200  1.0  0.1152
  H  H54  1  0.124700  0.971700  0.685500  1.0  0.1191
  H  H55  1  0.607900  0.687800  0.517800  1.0  0.108
  H  H56  1  0.645500  0.753800  0.575000  1.0  0.1313
  H  H57  1  0.468500  0.788800  0.939400  1.0  0.0946
  H  H58  1  0.906900  0.768900  0.561100  1.0  0.1046
  H  H59  1  0.456100  0.731700  0.862500  1.0  0.1288
  H  H60  1  0.605200  0.569900  0.772500  1.0  0.1054
  H  H61  1  0.392600  0.964200  0.709800  1.0  0.1284
  H  H62  1  0.562700  0.505300  0.715700  1.0  0.1149
  H  H63  1  0.080700  0.818700  0.267900  1.0  0.1142
  H  H64  1  0.297200  0.799100  0.572100  1.0  0.1017
  H  H65  1  0.810700  0.683100  0.616700  1.0  0.125
  H  H66  1  0.016200  0.905500  0.341900  1.0  0.0899
  H  H67  1  0.245900  0.801200  0.417400  1.0  0.093
  H  H68  1  0.326300  0.727700  0.325900  1.0  0.118
  H  H69  1  0.211900  0.665500  0.749300  1.0  0.1092
  H  H70  1  0.809600  0.743500  0.867300  1.0  0.1267
  H  H71  1  0.341600  0.585000  0.802200  1.0  0.113
  H  H72  1  0.924000  0.572400  0.751000  1.0  0.1149
  H  H73  1  0.221700  0.478800  0.715800  1.0  0.1149
  H  H74  1  0.781900  0.528300  0.814500  1.0  0.1179
  H  H75  1  0.813500  0.812200  0.982200  1.0  0.1083
  H  H76  1  0.974300  0.746200  0.925000  1.0  0.1307
  H  H77  1  0.196700  0.711200  0.560600  1.0  0.093
  H  H78  1  0.236900  0.731100  0.938900  1.0  0.104
  H  H79  1  0.050300  0.768300  0.637500  1.0  0.1285
  H  H80  1  0.947600  0.930100  0.727500  1.0  0.1029
  H  H81  1  0.066600  0.535800  0.790200  1.0  0.1276
  H  H82  1  0.783700  0.994700  0.784300  1.0  0.1154
  H  H83  1  0.167300  0.681300  0.232100  1.0  0.117
  H  H84  1  0.668400  0.700900  0.927900  1.0  0.1021
  H  H85  1  0.110500  0.816900  0.883300  1.0  0.1275
  H  H86  1  0.263600  0.594500  0.158100  1.0  0.0899
  H  H87  1  0.464500  0.698800  0.082600  1.0  0.0926
  H  H88  1  0.379900  0.772300  0.174100  1.0  0.1176
  C  C89  1  0.873300  0.078400  0.422200  1.0  0.6343
  C  C90  1  0.109000  0.093700  0.415900  1.0  0.6512
  C  C91  1  0.172200  0.148800  0.377000  1.0  -0.1617
  C  C92  1  0.443500  0.451200  0.427200  1.0  0.6839
  C  C93  1  0.318000  0.178700  0.287900  1.0  -0.205
  C  C94  1  0.637900  0.201100  0.356500  1.0  -0.2104
  C  C95  1  0.554600  0.089600  0.129000  1.0  -0.1845
  C  C96  1  0.256200  0.130000  0.319600  1.0  -0.0027
  C  C97  1  0.784300  0.227400  0.721600  1.0  0.1078
  C  C98  1  0.537600  0.053400  0.082800  1.0  0.6774
  C  C99  1  0.742100  0.097700  0.286500  1.0  -0.2494
  C  C100  1  0.577800  0.035900  0.199500  1.0  -0.005
  C  C101  1  0.816600  0.070600  0.325000  1.0  -0.0196
  C  C102  1  0.392300  0.336100  0.431300  1.0  0.0047
  C  C103  1  0.373900  0.331800  0.317800  1.0  0.2788
  C  C104  1  0.299000  0.245700  0.312300  1.0  0.2699
  C  C105  1  0.582500  0.157300  0.220500  1.0  0.2634
  C  C106  1  0.370600  0.295500  0.396900  1.0  -0.2347
  C  C107  1  0.544900  0.176400  0.106800  1.0  0.0077
  C  C108  1  0.414200  0.411600  0.390400  1.0  -0.1684
  C  C109  1  0.149200  0.218300  0.400700  1.0  0.0014
  C  C110  1  0.555000  0.210500  0.151900  1.0  -0.1986
  C  C111  1  0.795400  0.111500  0.379100  1.0  -0.1597
  C  C112  1  0.395400  0.405800  0.278200  1.0  -0.2065
  C  C113  1  0.591900  0.070600  0.244600  1.0  -0.2397
  C  C114  1  0.657100  0.160200  0.303000  1.0  0.2783
  C  C115  1  0.419100  0.446500  0.312700  1.0  -0.0131
  C  C116  1  0.881000  0.180600  0.707600  1.0  -0.186
  C  C117  1  0.712400  0.174400  0.393600  1.0  0.0038
  C  C118  1  0.207800  0.268900  0.368900  1.0  -0.228
  C  C119  1  0.922000  0.133200  0.658600  1.0  0.1678
  C  C120  1  0.786500  0.191500  0.615700  1.0  0.1691
  C  C121  1  0.737300  0.236600  0.671400  1.0  -0.1818
  C  C122  1  0.373900  0.421600  0.077800  1.0  0.6331
  C  C123  1  0.618600  0.406300  0.084100  1.0  0.6523
  C  C124  1  0.698000  0.351200  0.123000  1.0  -0.1608
  C  C125  1  0.321900  0.048800  0.072800  1.0  0.682
  C  C126  1  0.784600  0.321300  0.212100  1.0  -0.2073
  C  C127  1  0.195500  0.298900  0.143500  1.0  -0.21
  C  C128  1  0.773200  0.410400  0.371000  1.0  -0.182
  C  C129  1  0.705800  0.370000  0.180400  1.0  -0.0064
  C  C130  1  0.733300  0.272600  0.778400  1.0  0.1082
  C  C131  1  0.673800  0.446600  0.417200  1.0  0.675
  C  C132  1  0.126300  0.402300  0.213500  1.0  -0.2426
  C  C133  1  0.813200  0.464100  0.300500  1.0  -0.0054
  C  C134  1  0.212200  0.429400  0.175000  1.0  -0.0204
  C  C135  1  0.159700  0.163900  0.068700  1.0  -0.0023
  C  C136  1  0.023500  0.168200  0.182200  1.0  0.2763
  C  C137  1  0.857000  0.254300  0.187700  1.0  0.2683
  C  C138  1  0.960300  0.342700  0.279500  1.0  0.2631
  C  C139  1  0.063000  0.204500  0.103100  1.0  -0.2326
  C  C140  1  0.828100  0.323600  0.393200  1.0  0.0066
  C  C141  1  0.216200  0.088400  0.109600  1.0  -0.1657
  C  C142  1  0.768200  0.281700  0.099300  1.0  0.0075
  C  C143  1  0.917400  0.289500  0.348100  1.0  -0.1983
  C  C144  1  0.286000  0.388500  0.120900  1.0  -0.1594
  C  C145  1  0.079400  0.094200  0.221800  1.0  -0.2037
  C  C146  1  0.907100  0.429400  0.255400  1.0  -0.2404
  C  C147  1  0.120300  0.339800  0.197000  1.0  0.2812
  C  C148  1  0.178300  0.053500  0.187300  1.0  -0.0176
  C  C149  1  0.769200  0.319400  0.792400  1.0  -0.1815
  C  C150  1  0.280400  0.325600  0.106400  1.0  0.0013
  C  C151  1  0.845600  0.231100  0.131100  1.0  -0.2289
  C  C152  1  0.713800  0.366800  0.841400  1.0  0.171
  C  C153  1  0.593700  0.308500  0.884300  1.0  0.1675
  C  C154  1  0.645300  0.263400  0.828600  1.0  -0.1828
  C  C155  1  0.126700  0.921600  0.577800  1.0  0.6342
  C  C156  1  0.891000  0.906300  0.584100  1.0  0.6496
  C  C157  1  0.827800  0.851200  0.623000  1.0  -0.161
  C  C158  1  0.556500  0.548800  0.572800  1.0  0.6836
  C  C159  1  0.682000  0.821300  0.712100  1.0  -0.2045
  C  C160  1  0.362100  0.798900  0.643500  1.0  -0.2081
  C  C161  1  0.445400  0.910400  0.871000  1.0  -0.1846
  C  C162  1  0.743800  0.870000  0.680400  1.0  -0.0078
  C  C163  1  0.215700  0.772600  0.278400  1.0  0.1072
  C  C164  1  0.462400  0.946600  0.917200  1.0  0.6775
  C  C165  1  0.257900  0.902300  0.713500  1.0  -0.244
  C  C166  1  0.422200  0.964100  0.800500  1.0  -0.0035
  C  C167  1  0.183400  0.929400  0.675000  1.0  -0.0202
  C  C168  1  0.607700  0.663900  0.568700  1.0  0.0028
  C  C169  1  0.626100  0.668200  0.682200  1.0  0.2776
  C  C170  1  0.701000  0.754300  0.687700  1.0  0.2685
  C  C171  1  0.417500  0.842700  0.779500  1.0  0.2631
  C  C172  1  0.629400  0.704500  0.603100  1.0  -0.2309
  C  C173  1  0.455100  0.823600  0.893200  1.0  0.0074
  C  C174  1  0.585800  0.588400  0.609600  1.0  -0.1684
  C  C175  1  0.850800  0.781700  0.599300  1.0  0.0038
  C  C176  1  0.445000  0.789500  0.848100  1.0  -0.1983
  C  C177  1  0.204600  0.888500  0.620900  1.0  -0.1606
  C  C178  1  0.604600  0.594200  0.721800  1.0  -0.2064
  C  C179  1  0.408100  0.929400  0.755400  1.0  -0.2404
  C  C180  1  0.342900  0.839800  0.697000  1.0  0.2791
  C  C181  1  0.580900  0.553500  0.687300  1.0  -0.016
  C  C182  1  0.119000  0.819400  0.292400  1.0  -0.1867
  C  C183  1  0.287600  0.825600  0.606400  1.0  0.0038
  C  C184  1  0.792200  0.731100  0.631100  1.0  -0.2274
  C  C185  1  0.078000  0.866800  0.341400  1.0  0.1678
  C  C186  1  0.213500  0.808500  0.384300  1.0  0.1688
  C  C187  1  0.262700  0.763400  0.328600  1.0  -0.1814
  C  C188  1  0.626100  0.578400  0.922200  1.0  0.6327
  C  C189  1  0.381400  0.593700  0.915900  1.0  0.6522
  C  C190  1  0.302000  0.648800  0.877000  1.0  -0.1628
  C  C191  1  0.678100  0.951200  0.927200  1.0  0.6827
  C  C192  1  0.215400  0.678700  0.787900  1.0  -0.2072
  C  C193  1  0.804500  0.701100  0.856500  1.0  -0.2051
  C  C194  1  0.226800  0.589600  0.629000  1.0  -0.1832
  C  C195  1  0.294200  0.630000  0.819600  1.0  -0.0042
  C  C196  1  0.266700  0.727400  0.221600  1.0  0.1067
  C  C197  1  0.326200  0.553400  0.582800  1.0  0.6749
  C  C198  1  0.873700  0.597700  0.786500  1.0  -0.2461
  C  C199  1  0.186800  0.535900  0.699500  1.0  -0.0058
  C  C200  1  0.787800  0.570600  0.825000  1.0  -0.0205
  C  C201  1  0.840300  0.836100  0.931300  1.0  -0.0032
  C  C202  1  0.976500  0.831800  0.817800  1.0  0.276
  C  C203  1  0.143000  0.745700  0.812300  1.0  0.2694
  C  C204  1  0.039700  0.657300  0.720500  1.0  0.2629
  C  C205  1  0.937000  0.795500  0.896900  1.0  -0.2313
  C  C206  1  0.171900  0.676400  0.606800  1.0  0.0071
  C  C207  1  0.783800  0.911600  0.890400  1.0  -0.1663
  C  C208  1  0.231800  0.718300  0.900700  1.0  0.0046
  C  C209  1  0.082600  0.710500  0.651900  1.0  -0.1972
  C  C210  1  0.714000  0.611500  0.879100  1.0  -0.1585
  C  C211  1  0.920600  0.905800  0.778200  1.0  -0.2039
  C  C212  1  0.092900  0.570600  0.744600  1.0  -0.2396
  C  C213  1  0.879700  0.660200  0.803000  1.0  0.2802
  C  C214  1  0.821700  0.946500  0.812700  1.0  -0.015
  C  C215  1  0.230800  0.680600  0.207600  1.0  -0.189
  C  C216  1  0.719600  0.674400  0.893600  1.0  1e-04
  C  C217  1  0.154400  0.768900  0.868900  1.0  -0.2298
  C  C218  1  0.286200  0.633200  0.158600  1.0  0.1701
  C  C219  1  0.406300  0.691500  0.115700  1.0  0.1668
  C  C220  1  0.354700  0.736600  0.171400  1.0  -0.181
  N  N221  1  0.876200  0.140000  0.610200  1.0  -0.3246
  N  N222  1  0.626400  0.360000  0.889800  1.0  -0.325
  N  N223  1  0.123800  0.860000  0.389800  1.0  -0.3237
  N  N224  1  0.373600  0.640000  0.110200  1.0  -0.3251
  O  O225  1  0.853400  0.110300  0.473500  1.0  -0.5209
  O  O226  1  0.952800  0.020100  0.402300  1.0  -0.5659
  O  O227  1  0.033500  0.116900  0.467900  1.0  -0.5664
  O  O228  1  0.133900  0.027100  0.396300  1.0  -0.5447
  O  O229  1  0.444200  0.525400  0.398000  1.0  -0.5593
  O  O230  1  0.537600  0.978900  0.107100  1.0  -0.5647
  O  O231  1  0.524800  0.105300  0.014500  1.0  -0.5911
  O  O232  1  0.360400  0.293900  0.279300  1.0  -0.2121
  O  O233  1  0.461500  0.402500  0.492500  1.0  -0.5976
  O  O234  1  0.586200  0.196500  0.264700  1.0  -0.2234
  O  O235  1  0.437200  0.389700  0.026500  1.0  -0.5283
  O  O236  1  0.375200  0.479900  0.097700  1.0  -0.5654
  O  O237  1  0.618300  0.383100  0.032100  1.0  -0.567
  O  O238  1  0.557300  0.472900  0.103700  1.0  -0.5447
  O  O239  1  0.367600  0.974600  0.102000  1.0  -0.56
  O  O240  1  0.623600  0.521100  0.392900  1.0  -0.5636
  O  O241  1  0.644600  0.394700  0.485500  1.0  -0.5908
  O  O242  1  0.933600  0.206100  0.220700  1.0  -0.2126
  O  O243  1  0.356500  0.097500  0.007500  1.0  -0.5985
  O  O244  1  0.047400  0.303500  0.235300  1.0  -0.2224
  O  O245  1  0.146600  0.889700  0.526500  1.0  -0.5217
  O  O246  1  0.047200  0.979900  0.597700  1.0  -0.5656
  O  O247  1  0.966500  0.883100  0.532100  1.0  -0.5654
  O  O248  1  0.866100  0.972900  0.603700  1.0  -0.5443
  O  O249  1  0.555800  0.474600  0.602000  1.0  -0.5609
  O  O250  1  0.462400  0.021100  0.892900  1.0  -0.5638
  O  O251  1  0.475200  0.894700  0.985500  1.0  -0.5913
  O  O252  1  0.639600  0.706100  0.720700  1.0  -0.212
  O  O253  1  0.538500  0.597500  0.507500  1.0  -0.5976
  O  O254  1  0.413800  0.803500  0.735300  1.0  -0.2222
  O  O255  1  0.562800  0.610300  0.973500  1.0  -0.5237
  O  O256  1  0.624800  0.520100  0.902300  1.0  -0.5649
  O  O257  1  0.381700  0.616900  0.967900  1.0  -0.5675
  O  O258  1  0.442700  0.527100  0.896300  1.0  -0.5455
  O  O259  1  0.632400  0.025400  0.898000  1.0  -0.5591
  O  O260  1  0.376400  0.478900  0.607100  1.0  -0.5669
  O  O261  1  0.355400  0.605300  0.514500  1.0  -0.5909
  O  O262  1  0.066400  0.793900  0.779300  1.0  -0.2131
  O  O263  1  0.643500  0.902500  0.992500  1.0  -0.5981
  O  O264  1  0.952600  0.696500  0.764700  1.0  -0.223
