# generated using pymatgen
data_CuH4C8N3O4
_symmetry_space_group_name_H-M   'P 1'
_cell_length_a   4.69300000
_cell_length_b   11.09600000
_cell_length_c   19.84900000
_cell_angle_alpha   90.00000000
_cell_angle_beta   90.00000000
_cell_angle_gamma   96.90000000
_symmetry_Int_Tables_number   1
_chemical_formula_structural   CuH4C8N3O4
_chemical_formula_sum   'Cu4 H16 C32 N12 O16'
_cell_volume   1026.12139188
_cell_formula_units_Z   4
loop_
 _symmetry_equiv_pos_site_id
 _symmetry_equiv_pos_as_xyz
  1  'x, y, z'
loop_
 _atom_site_type_symbol
 _atom_site_label
 _atom_site_symmetry_multiplicity
 _atom_site_fract_x
 _atom_site_fract_y
 _atom_site_fract_z
 _atom_site_occupancy
 _atom_site_charge
  Cu  Cu1  1  0.280000  0.935800  0.839350  1.0  0.8165
  Cu  Cu2  1  0.720000  0.564200  0.339350  1.0  0.8166
  Cu  Cu3  1  0.720000  0.064200  0.160650  1.0  0.8168
  Cu  Cu4  1  0.280000  0.435800  0.660650  1.0  0.8168
  H  H5  1  0.239500  0.897200  0.586600  1.0  0.0988
  H  H6  1  0.419600  0.991500  0.686400  1.0  0.1142
  H  H7  1  0.562800  0.822400  0.949200  1.0  0.1102
  H  H8  1  0.247400  0.132900  0.945800  1.0  0.0983
  H  H9  1  0.760500  0.602800  0.086600  1.0  0.0987
  H  H10  1  0.580400  0.508500  0.186400  1.0  0.1141
  H  H11  1  0.437200  0.677600  0.449200  1.0  0.1109
  H  H12  1  0.752600  0.367100  0.445800  1.0  0.0981
  H  H13  1  0.760500  0.102800  0.413400  1.0  0.0985
  H  H14  1  0.580400  0.008500  0.313600  1.0  0.1144
  H  H15  1  0.437200  0.177600  0.050800  1.0  0.1111
  H  H16  1  0.752600  0.867100  0.054200  1.0  0.0977
  H  H17  1  0.239500  0.397200  0.913400  1.0  0.0979
  H  H18  1  0.419600  0.491500  0.813600  1.0  0.1141
  H  H19  1  0.562800  0.322400  0.550800  1.0  0.1104
  H  H20  1  0.247400  0.632900  0.554200  1.0  0.0985
  C  C21  1  0.038000  0.763000  0.748900  1.0  0.0487
  C  C22  1  0.931000  0.708000  0.690400  1.0  0.1375
  C  C23  1  0.182000  0.860000  0.630200  1.0  0.128
  C  C24  1  0.289000  0.919000  0.687600  1.0  0.1076
  C  C25  1  0.979000  0.712000  0.819900  1.0  0.6366
  C  C26  1  0.743000  0.590000  0.684100  1.0  0.6394
  C  C27  1  0.535000  0.899000  0.968600  1.0  0.1054
  C  C28  1  0.353000  0.077000  0.967200  1.0  0.0997
  C  C29  1  0.962000  0.737000  0.248900  1.0  0.0484
  C  C30  1  0.069000  0.792000  0.190400  1.0  0.1385
  C  C31  1  0.818000  0.640000  0.130200  1.0  0.1281
  C  C32  1  0.711000  0.581000  0.187600  1.0  0.1074
  C  C33  1  0.021000  0.788000  0.319900  1.0  0.637
  C  C34  1  0.257000  0.910000  0.184100  1.0  0.6391
  C  C35  1  0.465000  0.601000  0.468600  1.0  0.1057
  C  C36  1  0.647000  0.423000  0.467200  1.0  0.1
  C  C37  1  0.962000  0.237000  0.251100  1.0  0.0462
  C  C38  1  0.069000  0.292000  0.309600  1.0  0.1384
  C  C39  1  0.818000  0.140000  0.369800  1.0  0.129
  C  C40  1  0.711000  0.081000  0.312400  1.0  0.1073
  C  C41  1  0.021000  0.288000  0.180100  1.0  0.6372
  C  C42  1  0.257000  0.410000  0.315900  1.0  0.6394
  C  C43  1  0.465000  0.101000  0.031400  1.0  0.1057
  C  C44  1  0.647000  0.923000  0.032800  1.0  0.101
  C  C45  1  0.038000  0.263000  0.751100  1.0  0.046
  C  C46  1  0.931000  0.208000  0.809600  1.0  0.1375
  C  C47  1  0.182000  0.360000  0.869800  1.0  0.1286
  C  C48  1  0.289000  0.419000  0.812400  1.0  0.1076
  C  C49  1  0.979000  0.212000  0.680100  1.0  0.6361
  C  C50  1  0.743000  0.090000  0.815900  1.0  0.6397
  C  C51  1  0.535000  0.399000  0.531400  1.0  0.1068
  C  C52  1  0.353000  0.577000  0.532800  1.0  0.1001
  N  N53  1  0.212000  0.867400  0.747400  1.0  -0.2347
  N  N54  1  0.006000  0.758000  0.631400  1.0  -0.3598
  N  N55  1  0.395000  0.975000  0.936600  1.0  -0.2448
  N  N56  1  0.788000  0.632600  0.247400  1.0  -0.2344
  N  N57  1  0.994000  0.742000  0.131400  1.0  -0.3586
  N  N58  1  0.605000  0.525000  0.436600  1.0  -0.2444
  N  N59  1  0.788000  0.132600  0.252600  1.0  -0.234
  N  N60  1  0.994000  0.242000  0.368600  1.0  -0.3588
  N  N61  1  0.605000  0.025000  0.063400  1.0  -0.2452
  N  N62  1  0.212000  0.367400  0.752600  1.0  -0.2336
  N  N63  1  0.006000  0.258000  0.868600  1.0  -0.3591
  N  N64  1  0.395000  0.475000  0.563400  1.0  -0.2455
  O  O65  1  0.104000  0.774500  0.865100  1.0  -0.5833
  O  O66  1  0.838000  0.613100  0.826600  1.0  -0.5547
  O  O67  1  0.479000  0.593700  0.690300  1.0  -0.5481
  O  O68  1  0.852000  0.498300  0.668500  1.0  -0.6163
  O  O69  1  0.896000  0.725500  0.365100  1.0  -0.584
  O  O70  1  0.162000  0.886900  0.326600  1.0  -0.5556
  O  O71  1  0.521000  0.906300  0.190300  1.0  -0.5481
  O  O72  1  0.148000  0.001700  0.168500  1.0  -0.6154
  O  O73  1  0.896000  0.225500  0.134900  1.0  -0.5848
  O  O74  1  0.162000  0.386900  0.173400  1.0  -0.556
  O  O75  1  0.521000  0.406300  0.309700  1.0  -0.5479
  O  O76  1  0.148000  0.501700  0.331500  1.0  -0.6153
  O  O77  1  0.104000  0.274500  0.634900  1.0  -0.5844
  O  O78  1  0.838000  0.113100  0.673400  1.0  -0.5554
  O  O79  1  0.479000  0.093700  0.809700  1.0  -0.5481
  O  O80  1  0.852000  0.998300  0.831500  1.0  -0.6162
