# generated using pymatgen
data_NiH34C41(NO)4
_symmetry_space_group_name_H-M   'P 1'
_cell_length_a   10.59300000
_cell_length_b   17.00500000
_cell_length_c   24.00130000
_cell_angle_alpha   91.21500000
_cell_angle_beta   90.00000000
_cell_angle_gamma   90.00000000
_symmetry_Int_Tables_number   1
_chemical_formula_structural   NiH34C41(NO)4
_chemical_formula_sum   'Ni4 H136 C164 N16 O16'
_cell_volume   4322.47727791
_cell_formula_units_Z   4
loop_
 _symmetry_equiv_pos_site_id
 _symmetry_equiv_pos_as_xyz
  1  'x, y, z'
loop_
 _atom_site_type_symbol
 _atom_site_label
 _atom_site_symmetry_multiplicity
 _atom_site_fract_x
 _atom_site_fract_y
 _atom_site_fract_z
 _atom_site_occupancy
 _atom_site_charge
  Ni  Ni1  1  0.313130  0.250070  0.377910  1.0  0.7794
  Ni  Ni2  1  0.813130  0.249930  0.122090  1.0  0.7766
  Ni  Ni3  1  0.686870  0.749930  0.622090  1.0  0.7783
  Ni  Ni4  1  0.186870  0.750070  0.877910  1.0  0.7811
  H  H5  1  0.017400  0.237000  0.389100  1.0  0.1069
  H  H6  1  0.867900  0.239100  0.458400  1.0  0.1249
  H  H7  1  0.139400  0.259500  0.573900  1.0  0.122
  H  H8  1  0.288400  0.262100  0.504500  1.0  0.099
  H  H9  1  0.796100  0.149800  0.540700  1.0  0.1027
  H  H10  1  0.639600  0.149900  0.606300  1.0  0.1027
  H  H11  1  0.783000  0.347000  0.674800  1.0  0.0898
  H  H12  1  0.942200  0.346600  0.609200  1.0  0.1127
  H  H13  1  0.217700  0.816700  0.752500  1.0  0.0935
  H  H14  1  0.316100  0.918100  0.710000  1.0  0.1251
  H  H15  1  0.430500  0.000700  0.858000  1.0  0.1151
  H  H16  1  0.344500  0.892800  0.900200  1.0  0.0912
  H  H17  1  0.616300  0.020000  0.776400  1.0  0.1122
  H  H18  1  0.704400  0.134100  0.740800  1.0  0.1025
  H  H19  1  0.366500  0.195500  0.678600  1.0  0.1168
  H  H20  1  0.279400  0.080900  0.713600  1.0  0.1031
  H  H21  1  0.283400  0.588800  0.905600  1.0  0.1008
  H  H22  1  0.368400  0.482300  0.865900  1.0  0.1058
  H  H23  1  0.377100  0.591600  0.718100  1.0  0.1325
  H  H24  1  0.284300  0.697400  0.759200  1.0  0.0845
  H  H25  1  0.455500  0.381200  0.829900  1.0  0.0921
  H  H26  1  0.536800  0.272600  0.788600  1.0  0.1158
  H  H27  1  0.544500  0.384600  0.642000  1.0  0.1047
  H  H28  1  0.458900  0.495400  0.683900  1.0  0.1077
  H  H29  1  0.579700  0.372700  0.516800  1.0  0.0685
  H  H30  1  0.446200  0.410400  0.529800  1.0  0.0802
  H  H31  1  0.595800  0.474200  0.440100  1.0  0.0964
  H  H32  1  0.334800  0.485100  0.477800  1.0  0.0884
  H  H33  1  0.371300  0.518900  0.418900  1.0  0.0707
  H  H34  1  0.554900  0.973000  0.406600  1.0  0.0687
  H  H35  1  0.417200  0.976200  0.430300  1.0  0.0608
  H  H36  1  0.618100  0.068400  0.467500  1.0  0.0772
  H  H37  1  0.483600  0.130100  0.532500  1.0  0.0732
  H  H38  1  0.369600  0.078000  0.512400  1.0  0.0695
  H  H39  1  0.517400  0.263000  0.110900  1.0  0.107
  H  H40  1  0.367900  0.260900  0.041600  1.0  0.1235
  H  H41  1  0.639400  0.240500  0.926100  1.0  0.1219
  H  H42  1  0.788400  0.237900  0.995500  1.0  0.0987
  H  H43  1  0.296100  0.350200  0.959300  1.0  0.1031
  H  H44  1  0.139600  0.350100  0.893700  1.0  0.1031
  H  H45  1  0.283000  0.153000  0.825200  1.0  0.0899
  H  H46  1  0.442200  0.153400  0.890800  1.0  0.1127
  H  H47  1  0.717700  0.683300  0.747500  1.0  0.0915
  H  H48  1  0.816100  0.581900  0.790000  1.0  0.126
  H  H49  1  0.930500  0.499300  0.642000  1.0  0.1163
  H  H50  1  0.844500  0.607200  0.599800  1.0  0.0915
  H  H51  1  0.116300  0.480000  0.723600  1.0  0.1124
  H  H52  1  0.204400  0.365900  0.759200  1.0  0.1025
  H  H53  1  0.866500  0.304500  0.821400  1.0  0.1174
  H  H54  1  0.779400  0.419100  0.786400  1.0  0.1026
  H  H55  1  0.783400  0.911200  0.594400  1.0  0.1018
  H  H56  1  0.868400  0.017700  0.634100  1.0  0.1063
  H  H57  1  0.877100  0.908400  0.781900  1.0  0.1316
  H  H58  1  0.784300  0.802600  0.740800  1.0  0.0851
  H  H59  1  0.955500  0.118800  0.670100  1.0  0.0926
  H  H60  1  0.036800  0.227400  0.711400  1.0  0.1168
  H  H61  1  0.044500  0.115400  0.858000  1.0  0.1025
  H  H62  1  0.958900  0.004600  0.816100  1.0  0.1069
  H  H63  1  0.079700  0.127300  0.983200  1.0  0.0699
  H  H64  1  0.946200  0.089600  0.970200  1.0  0.0796
  H  H65  1  0.095800  0.025800  0.059900  1.0  0.0958
  H  H66  1  0.834800  0.014900  0.022200  1.0  0.0893
  H  H67  1  0.871300  0.981100  0.081100  1.0  0.0721
  H  H68  1  0.054900  0.527000  0.093400  1.0  0.0669
  H  H69  1  0.917200  0.523800  0.069700  1.0  0.0606
  H  H70  1  0.118100  0.431600  0.032500  1.0  0.0765
  H  H71  1  0.983600  0.369900  0.967500  1.0  0.0714
  H  H72  1  0.869600  0.422000  0.987600  1.0  0.0704
  H  H73  1  0.982600  0.763000  0.610900  1.0  0.1066
  H  H74  1  0.132100  0.760900  0.541600  1.0  0.1193
  H  H75  1  0.860600  0.740500  0.426100  1.0  0.1219
  H  H76  1  0.711600  0.737900  0.495500  1.0  0.0989
  H  H77  1  0.203900  0.850200  0.459300  1.0  0.1032
  H  H78  1  0.360400  0.850100  0.393700  1.0  0.1033
  H  H79  1  0.217000  0.653000  0.325200  1.0  0.0893
  H  H80  1  0.057800  0.653400  0.390800  1.0  0.1125
  H  H81  1  0.782300  0.183300  0.247500  1.0  0.0911
  H  H82  1  0.683900  0.081900  0.290000  1.0  0.1257
  H  H83  1  0.569500  0.999300  0.142000  1.0  0.1163
  H  H84  1  0.655500  0.107200  0.099800  1.0  0.092
  H  H85  1  0.383700  0.980000  0.223600  1.0  0.1123
  H  H86  1  0.295600  0.865900  0.259200  1.0  0.1031
  H  H87  1  0.633500  0.804500  0.321400  1.0  0.1179
  H  H88  1  0.720600  0.919100  0.286400  1.0  0.1029
  H  H89  1  0.716600  0.411200  0.094400  1.0  0.1012
  H  H90  1  0.631600  0.517700  0.134100  1.0  0.1064
  H  H91  1  0.622900  0.408400  0.281900  1.0  0.1308
  H  H92  1  0.715700  0.302600  0.240800  1.0  0.0853
  H  H93  1  0.544500  0.618800  0.170100  1.0  0.0923
  H  H94  1  0.463200  0.727400  0.211400  1.0  0.1171
  H  H95  1  0.455500  0.615400  0.358000  1.0  0.1027
  H  H96  1  0.541100  0.504600  0.316100  1.0  0.105
  H  H97  1  0.420300  0.627300  0.483200  1.0  0.0711
  H  H98  1  0.553800  0.589600  0.470200  1.0  0.0796
  H  H99  1  0.404200  0.525800  0.559900  1.0  0.0959
  H  H100  1  0.665200  0.514900  0.522200  1.0  0.0884
  H  H101  1  0.628700  0.481100  0.581100  1.0  0.0713
  H  H102  1  0.445100  0.027000  0.593400  1.0  0.0681
  H  H103  1  0.582800  0.023800  0.569700  1.0  0.0602
  H  H104  1  0.381900  0.931600  0.532500  1.0  0.0788
  H  H105  1  0.516400  0.869900  0.467500  1.0  0.0709
  H  H106  1  0.630400  0.922000  0.487600  1.0  0.0702
  H  H107  1  0.482600  0.737000  0.889100  1.0  0.1067
  H  H108  1  0.632100  0.739100  0.958400  1.0  0.12
  H  H109  1  0.360600  0.759500  0.073900  1.0  0.1222
  H  H110  1  0.211600  0.762100  0.004500  1.0  0.0987
  H  H111  1  0.703900  0.649800  0.040700  1.0  0.1028
  H  H112  1  0.860400  0.649900  0.106300  1.0  0.1032
  H  H113  1  0.717000  0.847000  0.174800  1.0  0.0894
  H  H114  1  0.557800  0.846600  0.109200  1.0  0.1125
  H  H115  1  0.282300  0.316700  0.252500  1.0  0.0932
  H  H116  1  0.183900  0.418100  0.210000  1.0  0.1248
  H  H117  1  0.069500  0.500700  0.358000  1.0  0.1167
  H  H118  1  0.155500  0.392800  0.400200  1.0  0.0915
  H  H119  1  0.883700  0.520000  0.276400  1.0  0.1122
  H  H120  1  0.795600  0.634100  0.240800  1.0  0.1028
  H  H121  1  0.133500  0.695500  0.178600  1.0  0.1173
  H  H122  1  0.220600  0.580900  0.213600  1.0  0.1033
  H  H123  1  0.216600  0.088800  0.405600  1.0  0.1006
  H  H124  1  0.131600  0.982300  0.365900  1.0  0.1059
  H  H125  1  0.122900  0.091600  0.218100  1.0  0.1322
  H  H126  1  0.215700  0.197400  0.259200  1.0  0.0843
  H  H127  1  0.044500  0.881200  0.329900  1.0  0.092
  H  H128  1  0.963200  0.772600  0.288600  1.0  0.1161
  H  H129  1  0.955500  0.884600  0.142000  1.0  0.1047
  H  H130  1  0.041100  0.995400  0.183900  1.0  0.1068
  H  H131  1  0.920300  0.872700  0.016800  1.0  0.0687
  H  H132  1  0.053800  0.910400  0.029800  1.0  0.0796
  H  H133  1  0.904200  0.974200  0.940100  1.0  0.0969
  H  H134  1  0.165200  0.985100  0.977800  1.0  0.0883
  H  H135  1  0.128700  0.018900  0.918900  1.0  0.0715
  H  H136  1  0.945100  0.473000  0.906600  1.0  0.0695
  H  H137  1  0.082800  0.476200  0.930300  1.0  0.0596
  H  H138  1  0.881900  0.568400  0.967500  1.0  0.0807
  H  H139  1  0.016400  0.630100  0.032500  1.0  0.0754
  H  H140  1  0.130400  0.578000  0.012400  1.0  0.0695
  C  C141  1  0.041900  0.242770  0.426120  1.0  0.122
  C  C142  1  0.952800  0.243440  0.467770  1.0  -0.1923
  C  C143  1  0.986600  0.250460  0.523140  1.0  0.0984
  C  C144  1  0.114500  0.256260  0.536760  1.0  -0.1989
  C  C145  1  0.203500  0.257130  0.495160  1.0  0.1641
  C  C146  1  0.884800  0.248560  0.566680  1.0  0.0076
  C  C147  1  0.793600  0.189950  0.567530  1.0  -0.09
  C  C148  1  0.699700  0.189760  0.607000  1.0  -0.1752
  C  C149  1  0.693800  0.248630  0.647910  1.0  0.1592
  C  C150  1  0.785600  0.307120  0.647690  1.0  -0.1668
  C  C151  1  0.881000  0.307360  0.608140  1.0  -0.1001
  C  C152  1  0.263700  0.852710  0.774040  1.0  0.1608
  C  C153  1  0.320000  0.914520  0.748570  1.0  -0.1836
  C  C154  1  0.380800  0.970290  0.778530  1.0  0.1031
  C  C155  1  0.389300  0.962400  0.836580  1.0  -0.1837
  C  C156  1  0.336700  0.898120  0.861830  1.0  0.1475
  C  C157  1  0.439400  0.039170  0.748680  1.0  0.0319
  C  C158  1  0.566300  0.054880  0.756850  1.0  -0.1001
  C  C159  1  0.619100  0.123580  0.735450  1.0  -0.1673
  C  C160  1  0.544500  0.176430  0.706080  1.0  0.1449
  C  C161  1  0.416800  0.160560  0.697990  1.0  -0.159
  C  C162  1  0.364600  0.091740  0.719160  1.0  -0.0829
  C  C163  1  0.301600  0.588350  0.867680  1.0  0.1536
  C  C164  1  0.352700  0.526030  0.844350  1.0  -0.1973
  C  C165  1  0.385400  0.523190  0.786290  1.0  0.1034
  C  C166  1  0.357500  0.590580  0.755820  1.0  -0.1808
  C  C167  1  0.302800  0.653660  0.780400  1.0  0.1685
  C  C168  1  0.446600  0.452120  0.761420  1.0  -0.0435
  C  C169  1  0.473300  0.381610  0.791960  1.0  -0.0543
  C  C170  1  0.522300  0.317280  0.767920  1.0  -0.1907
  C  C171  1  0.551400  0.317830  0.711630  1.0  0.1785
  C  C172  1  0.526300  0.385040  0.679870  1.0  -0.1963
  C  C173  1  0.474900  0.451160  0.704880  1.0  -0.0432
  C  C174  1  0.487600  0.379990  0.413830  1.0  0.6837
  C  C175  1  0.528900  0.419930  0.514070  1.0  -0.1255
  C  C176  1  0.518800  0.447370  0.451860  1.0  -0.1627
  C  C177  1  0.402900  0.505860  0.455500  1.0  -0.1383
  C  C178  1  0.494700  0.126930  0.417160  1.0  0.6745
  C  C179  1  0.505500  0.982290  0.440100  1.0  -0.1042
  C  C180  1  0.527300  0.063760  0.460410  1.0  -0.1623
  C  C181  1  0.460300  0.078430  0.517930  1.0  -0.1358
  C  C182  1  0.541900  0.257230  0.073880  1.0  0.1215
  C  C183  1  0.452800  0.256560  0.032230  1.0  -0.1936
  C  C184  1  0.486600  0.249540  0.976860  1.0  0.0993
  C  C185  1  0.614500  0.243740  0.963240  1.0  -0.1959
  C  C186  1  0.703500  0.242870  0.004840  1.0  0.1644
  C  C187  1  0.384800  0.251440  0.933320  1.0  0.01
  C  C188  1  0.293600  0.310050  0.932470  1.0  -0.0912
  C  C189  1  0.199700  0.310240  0.893000  1.0  -0.1755
  C  C190  1  0.193800  0.251370  0.852090  1.0  0.1591
  C  C191  1  0.285600  0.192880  0.852310  1.0  -0.1667
  C  C192  1  0.381000  0.192640  0.891860  1.0  -0.0992
  C  C193  1  0.763700  0.647290  0.725960  1.0  0.1612
  C  C194  1  0.820000  0.585480  0.751430  1.0  -0.1825
  C  C195  1  0.880800  0.529710  0.721470  1.0  0.1025
  C  C196  1  0.889300  0.537600  0.663420  1.0  -0.187
  C  C197  1  0.836700  0.601880  0.638170  1.0  0.1519
  C  C198  1  0.939400  0.460830  0.751320  1.0  0.0324
  C  C199  1  0.066300  0.445120  0.743150  1.0  -0.1006
  C  C200  1  0.119100  0.376420  0.764550  1.0  -0.1672
  C  C201  1  0.044500  0.323570  0.793920  1.0  0.1447
  C  C202  1  0.916800  0.339440  0.802010  1.0  -0.1581
  C  C203  1  0.864600  0.408260  0.780840  1.0  -0.0835
  C  C204  1  0.801600  0.911650  0.632320  1.0  0.154
  C  C205  1  0.852700  0.973970  0.655650  1.0  -0.196
  C  C206  1  0.885400  0.976810  0.713710  1.0  0.1035
  C  C207  1  0.857500  0.909420  0.744180  1.0  -0.1827
  C  C208  1  0.802800  0.846340  0.719600  1.0  0.1692
  C  C209  1  0.946600  0.047880  0.738580  1.0  -0.0446
  C  C210  1  0.973300  0.118390  0.708040  1.0  -0.0544
  C  C211  1  0.022300  0.182720  0.732080  1.0  -0.1902
  C  C212  1  0.051400  0.182170  0.788370  1.0  0.1784
  C  C213  1  0.026300  0.114960  0.820130  1.0  -0.1954
  C  C214  1  0.974900  0.048840  0.795120  1.0  -0.0413
  C  C215  1  0.987600  0.120010  0.086170  1.0  0.6832
  C  C216  1  0.028900  0.080070  0.985930  1.0  -0.1265
  C  C217  1  0.018800  0.052630  0.048140  1.0  -0.1609
  C  C218  1  0.902900  0.994140  0.044500  1.0  -0.1386
  C  C219  1  0.994700  0.373070  0.082840  1.0  0.6751
  C  C220  1  0.005500  0.517710  0.059900  1.0  -0.1041
  C  C221  1  0.027300  0.436240  0.039590  1.0  -0.1572
  C  C222  1  0.960300  0.421570  0.982070  1.0  -0.1363
  C  C223  1  0.958100  0.757230  0.573880  1.0  0.1219
  C  C224  1  0.047200  0.756560  0.532230  1.0  -0.1884
  C  C225  1  0.013400  0.749540  0.476860  1.0  0.0991
  C  C226  1  0.885500  0.743740  0.463240  1.0  -0.1955
  C  C227  1  0.796500  0.742870  0.504840  1.0  0.1647
  C  C228  1  0.115200  0.751440  0.433320  1.0  0.0069
  C  C229  1  0.206400  0.810050  0.432470  1.0  -0.0909
  C  C230  1  0.300300  0.810240  0.393000  1.0  -0.176
  C  C231  1  0.306200  0.751370  0.352090  1.0  0.1593
  C  C232  1  0.214400  0.692880  0.352310  1.0  -0.167
  C  C233  1  0.119000  0.692640  0.391860  1.0  -0.0985
  C  C234  1  0.736300  0.147290  0.225960  1.0  0.1617
  C  C235  1  0.680000  0.085480  0.251430  1.0  -0.182
  C  C236  1  0.619200  0.029710  0.221470  1.0  0.1017
  C  C237  1  0.610700  0.037600  0.163420  1.0  -0.1882
  C  C238  1  0.663300  0.101880  0.138170  1.0  0.1547
  C  C239  1  0.560600  0.960830  0.251320  1.0  0.0288
  C  C240  1  0.433700  0.945120  0.243150  1.0  -0.0994
  C  C241  1  0.380900  0.876420  0.264550  1.0  -0.1678
  C  C242  1  0.455500  0.823570  0.293920  1.0  0.1452
  C  C243  1  0.583200  0.839440  0.302010  1.0  -0.1578
  C  C244  1  0.635400  0.908260  0.280840  1.0  -0.083
  C  C245  1  0.698400  0.411650  0.132320  1.0  0.1514
  C  C246  1  0.647300  0.473970  0.155650  1.0  -0.1876
  C  C247  1  0.614600  0.476810  0.213710  1.0  0.1048
  C  C248  1  0.642500  0.409420  0.244180  1.0  -0.1833
  C  C249  1  0.697200  0.346340  0.219600  1.0  0.171
  C  C250  1  0.553400  0.547880  0.238580  1.0  -0.0445
  C  C251  1  0.526700  0.618390  0.208040  1.0  -0.0538
  C  C252  1  0.477700  0.682720  0.232080  1.0  -0.1913
  C  C253  1  0.448600  0.682170  0.288370  1.0  0.1784
  C  C254  1  0.473700  0.614960  0.320130  1.0  -0.1962
  C  C255  1  0.525100  0.548840  0.295120  1.0  -0.0447
  C  C256  1  0.512400  0.620010  0.586170  1.0  0.6827
  C  C257  1  0.471100  0.580070  0.485930  1.0  -0.1258
  C  C258  1  0.481200  0.552630  0.548140  1.0  -0.1613
  C  C259  1  0.597100  0.494140  0.544500  1.0  -0.139
  C  C260  1  0.505300  0.873070  0.582840  1.0  0.6749
  C  C261  1  0.494500  0.017710  0.559900  1.0  -0.1055
  C  C262  1  0.472700  0.936240  0.539590  1.0  -0.1572
  C  C263  1  0.539700  0.921570  0.482070  1.0  -0.1365
  C  C264  1  0.458100  0.742770  0.926120  1.0  0.1234
  C  C265  1  0.547200  0.743440  0.967770  1.0  -0.1894
  C  C266  1  0.513400  0.750460  0.023140  1.0  0.0984
  C  C267  1  0.385500  0.756260  0.036760  1.0  -0.1995
  C  C268  1  0.296500  0.757130  0.995160  1.0  0.1655
  C  C269  1  0.615200  0.748560  0.066680  1.0  0.0052
  C  C270  1  0.706400  0.689950  0.067530  1.0  -0.0898
  C  C271  1  0.800300  0.689760  0.107000  1.0  -0.1765
  C  C272  1  0.806200  0.748630  0.147910  1.0  0.1595
  C  C273  1  0.714400  0.807120  0.147690  1.0  -0.1668
  C  C274  1  0.619000  0.807360  0.108140  1.0  -0.1032
  C  C275  1  0.236300  0.352710  0.274040  1.0  0.1605
  C  C276  1  0.180000  0.414520  0.248570  1.0  -0.1843
  C  C277  1  0.119200  0.470290  0.278530  1.0  0.1021
  C  C278  1  0.110700  0.462400  0.336580  1.0  -0.1823
  C  C279  1  0.163300  0.398120  0.361830  1.0  0.1531
  C  C280  1  0.060600  0.539170  0.248680  1.0  0.0281
  C  C281  1  0.933700  0.554880  0.256850  1.0  -0.1018
  C  C282  1  0.880900  0.623580  0.235450  1.0  -0.1675
  C  C283  1  0.955500  0.676430  0.206080  1.0  0.1447
  C  C284  1  0.083200  0.660560  0.197990  1.0  -0.1587
  C  C285  1  0.135400  0.591740  0.219160  1.0  -0.0831
  C  C286  1  0.198400  0.088350  0.367680  1.0  0.1524
  C  C287  1  0.147300  0.026030  0.344350  1.0  -0.189
  C  C288  1  0.114600  0.023190  0.286290  1.0  0.1044
  C  C289  1  0.142500  0.090580  0.255820  1.0  -0.1796
  C  C290  1  0.197200  0.153660  0.280400  1.0  0.1692
  C  C291  1  0.053400  0.952120  0.261420  1.0  -0.0435
  C  C292  1  0.026700  0.881610  0.291960  1.0  -0.0541
  C  C293  1  0.977700  0.817280  0.267920  1.0  -0.1921
  C  C294  1  0.948600  0.817830  0.211630  1.0  0.1792
  C  C295  1  0.973700  0.885040  0.179870  1.0  -0.1964
  C  C296  1  0.025100  0.951160  0.204880  1.0  -0.0446
  C  C297  1  0.012400  0.879990  0.913830  1.0  0.6828
  C  C298  1  0.971100  0.919930  0.014070  1.0  -0.125
  C  C299  1  0.981200  0.947370  0.951860  1.0  -0.1632
  C  C300  1  0.097100  0.005860  0.955500  1.0  -0.1388
  C  C301  1  0.005300  0.626930  0.917160  1.0  0.6746
  C  C302  1  0.994500  0.482290  0.940100  1.0  -0.1053
  C  C303  1  0.972700  0.563760  0.960410  1.0  -0.1569
  C  C304  1  0.039700  0.578430  0.017930  1.0  -0.1368
  N  N305  1  0.169200  0.250800  0.439710  1.0  -0.3073
  N  N306  1  0.272900  0.841850  0.831000  1.0  -0.3653
  N  N307  1  0.273800  0.654680  0.836110  1.0  -0.3757
  N  N308  1  0.596200  0.247730  0.687310  1.0  -0.1237
  N  N309  1  0.669200  0.249200  0.060290  1.0  -0.3058
  N  N310  1  0.772900  0.658150  0.669000  1.0  -0.3643
  N  N311  1  0.773800  0.845320  0.663890  1.0  -0.3762
  N  N312  1  0.096200  0.252270  0.812690  1.0  -0.1238
  N  N313  1  0.830800  0.749200  0.560290  1.0  -0.3065
  N  N314  1  0.727100  0.158150  0.169000  1.0  -0.3658
  N  N315  1  0.726200  0.345320  0.163890  1.0  -0.3736
  N  N316  1  0.403800  0.752270  0.312690  1.0  -0.1239
  N  N317  1  0.330800  0.750800  0.939710  1.0  -0.307
  N  N318  1  0.227100  0.341850  0.331000  1.0  -0.3657
  N  N319  1  0.226200  0.154680  0.336110  1.0  -0.3741
  N  N320  1  0.903800  0.747730  0.187310  1.0  -0.1238
  O  O321  1  0.396200  0.337360  0.424080  1.0  -0.5945
  O  O322  1  0.562600  0.370520  0.372950  1.0  -0.6558
  O  O323  1  0.402670  0.168810  0.427180  1.0  -0.5803
  O  O324  1  0.563670  0.129250  0.374610  1.0  -0.6715
  O  O325  1  0.896200  0.162640  0.075920  1.0  -0.5947
  O  O326  1  0.062600  0.129480  0.127050  1.0  -0.6676
  O  O327  1  0.902670  0.331190  0.072820  1.0  -0.5809
  O  O328  1  0.063670  0.370750  0.125390  1.0  -0.6691
  O  O329  1  0.603800  0.662640  0.575920  1.0  -0.5951
  O  O330  1  0.437400  0.629480  0.627050  1.0  -0.6565
  O  O331  1  0.597330  0.831190  0.572820  1.0  -0.5811
  O  O332  1  0.436330  0.870750  0.625390  1.0  -0.6617
  O  O333  1  0.103800  0.837360  0.924080  1.0  -0.5945
  O  O334  1  0.937400  0.870520  0.872950  1.0  -0.654
  O  O335  1  0.097330  0.668810  0.927180  1.0  -0.5811
  O  O336  1  0.936330  0.629250  0.874610  1.0  -0.6688
