# generated using pymatgen
data_BaCd3H32C52N4ClO12
_symmetry_space_group_name_H-M   'P 1'
_cell_length_a   9.94450000
_cell_length_b   18.53910000
_cell_length_c   20.28890000
_cell_angle_alpha   88.90400000
_cell_angle_beta   83.64800000
_cell_angle_gamma   86.71300000
_symmetry_Int_Tables_number   1
_chemical_formula_structural   BaCd3H32C52N4ClO12
_chemical_formula_sum   'Ba2 Cd6 H64 C104 N8 Cl2 O24'
_cell_volume   3711.11670959
_cell_formula_units_Z   2
loop_
 _symmetry_equiv_pos_site_id
 _symmetry_equiv_pos_as_xyz
  1  'x, y, z'
loop_
 _atom_site_type_symbol
 _atom_site_label
 _atom_site_symmetry_multiplicity
 _atom_site_fract_x
 _atom_site_fract_y
 _atom_site_fract_z
 _atom_site_occupancy
 _atom_site_charge
  Ba  Ba1  1  0.042700  0.241900  0.576380  1.0  1.5561
  Ba  Ba2  1  0.957300  0.758100  0.423620  1.0  1.5546
  Cd  Cd3  1  0.612890  0.453050  0.038870  1.0  1.0634
  Cd  Cd4  1  0.899340  0.958760  0.455620  1.0  1.087
  Cd  Cd5  1  0.387110  0.546950  0.961130  1.0  1.0644
  Cd  Cd6  1  0.100660  0.041240  0.544380  1.0  1.0871
  Cd  Cd7  1  0.412840  0.971020  0.019040  1.0  0.9747
  Cd  Cd8  1  0.587160  0.028980  0.980960  1.0  0.9769
  H  H9  1  0.156300  0.234300  0.402000  1.0  0.0952
  H  H10  1  0.184600  0.315700  0.313600  1.0  0.1029
  H  H11  1  0.953600  0.198300  0.209200  1.0  0.0932
  H  H12  1  0.920200  0.117500  0.298000  1.0  0.1004
  H  H13  1  0.283700  0.332200  0.197000  1.0  0.092
  H  H14  1  0.116600  0.449100  0.052900  1.0  0.1079
  H  H15  1  0.885000  0.323400  0.178600  1.0  0.0977
  H  H16  1  0.392000  0.389600  0.802200  1.0  0.0966
  H  H17  1  0.401500  0.303900  0.717700  1.0  0.1063
  H  H18  1  0.680200  0.184500  0.807600  1.0  0.0976
  H  H19  1  0.672400  0.271000  0.889300  1.0  0.0922
  H  H20  1  0.350200  0.185600  0.691600  1.0  0.0981
  H  H21  1  0.569800  0.044000  0.565900  1.0  0.098
  H  H22  1  0.758300  0.164100  0.689400  1.0  0.0935
  H  H23  1  0.843700  0.765700  0.598000  1.0  0.0951
  H  H24  1  0.815400  0.684300  0.686400  1.0  0.1019
  H  H25  1  0.046400  0.801700  0.790800  1.0  0.0928
  H  H26  1  0.079800  0.882500  0.702000  1.0  0.1004
  H  H27  1  0.716300  0.667800  0.803000  1.0  0.0934
  H  H28  1  0.883400  0.550900  0.947100  1.0  0.1096
  H  H29  1  0.115000  0.676600  0.821400  1.0  0.0969
  H  H30  1  0.608000  0.610400  0.197800  1.0  0.0958
  H  H31  1  0.598500  0.696100  0.282300  1.0  0.106
  H  H32  1  0.319800  0.815500  0.192400  1.0  0.0978
  H  H33  1  0.327600  0.729000  0.110700  1.0  0.0916
  H  H34  1  0.649800  0.814400  0.308400  1.0  0.098
  H  H35  1  0.430200  0.956000  0.434100  1.0  0.0988
  H  H36  1  0.241700  0.835900  0.310600  1.0  0.0944
  H  H37  1  0.007400  0.560000  0.080400  1.0  0.0941
  H  H38  1  0.136000  0.608600  0.076500  1.0  0.1145
  H  H39  1  0.037000  0.603700  0.144100  1.0  0.1248
  H  H40  1  0.797200  0.613000  0.062800  1.0  0.0935
  H  H41  1  0.665200  0.712900  0.033800  1.0  0.0819
  H  H42  1  0.972100  0.839200  0.055200  1.0  0.1148
  H  H43  1  0.098800  0.738600  0.077100  1.0  0.0794
  H  H44  1  0.759400  0.844200  0.163600  1.0  0.1211
  H  H45  1  0.651900  0.944200  0.232400  1.0  0.096
  H  H46  1  0.787500  0.775200  0.908100  1.0  0.0989
  H  H47  1  0.678900  0.821100  0.810700  1.0  0.112
  H  H48  1  0.289900  0.067300  0.264700  1.0  0.1132
  H  H49  1  0.303200  0.096700  0.374500  1.0  0.0872
  H  H50  1  0.455000  0.080500  0.464800  1.0  0.0781
  H  H51  1  0.458000  0.164800  0.446600  1.0  0.0971
  H  H52  1  0.596900  0.117000  0.447700  1.0  0.1027
  H  H53  1  0.700800  0.104200  0.342300  1.0  0.1021
  H  H54  1  0.697500  0.079500  0.232500  1.0  0.0894
  H  H55  1  0.992600  0.440000  0.919600  1.0  0.0949
  H  H56  1  0.864000  0.391400  0.923500  1.0  0.1154
  H  H57  1  0.963000  0.396300  0.855900  1.0  0.1248
  H  H58  1  0.202800  0.387000  0.937200  1.0  0.0941
  H  H59  1  0.334800  0.287100  0.966200  1.0  0.0817
  H  H60  1  0.027900  0.160800  0.944800  1.0  0.1151
  H  H61  1  0.901200  0.261400  0.922900  1.0  0.0792
  H  H62  1  0.240600  0.155800  0.836400  1.0  0.1214
  H  H63  1  0.348100  0.055800  0.767600  1.0  0.0962
  H  H64  1  0.212500  0.224800  0.091900  1.0  0.0983
  H  H65  1  0.321100  0.178900  0.189300  1.0  0.1114
  H  H66  1  0.710100  0.932700  0.735300  1.0  0.1128
  H  H67  1  0.696800  0.903300  0.625500  1.0  0.0874
  H  H68  1  0.545000  0.919500  0.535200  1.0  0.0778
  H  H69  1  0.542000  0.835200  0.553400  1.0  0.0954
  H  H70  1  0.403100  0.883000  0.552300  1.0  0.1042
  H  H71  1  0.299200  0.895800  0.657700  1.0  0.102
  H  H72  1  0.302500  0.920500  0.767500  1.0  0.0892
  C  C73  1  0.015600  0.114900  0.415700  1.0  0.6894
  C  C74  1  0.035300  0.167900  0.358800  1.0  -0.1577
  C  C75  1  0.114100  0.227200  0.363100  1.0  -0.0507
  C  C76  1  0.130400  0.275600  0.310500  1.0  -0.1544
  C  C77  1  0.068500  0.266400  0.253100  1.0  0.0344
  C  C78  1  0.993000  0.206200  0.248800  1.0  -0.1525
  C  C79  1  0.974300  0.157600  0.301200  1.0  -0.0576
  C  C80  1  0.080400  0.318800  0.197400  1.0  0.0795
  C  C81  1  0.206600  0.346200  0.175000  1.0  -0.096
  C  C82  1  0.219900  0.393600  0.120900  1.0  -0.1366
  C  C83  1  0.108400  0.416200  0.089300  1.0  -0.1529
  C  C84  1  0.982900  0.389200  0.112400  1.0  -0.1189
  C  C85  1  0.971100  0.341500  0.164600  1.0  -0.12
  C  C86  1  0.858400  0.415000  0.079300  1.0  0.633
  C  C87  1  0.357500  0.416100  0.093000  1.0  0.6678
  C  C88  1  0.528300  0.397800  0.904300  1.0  0.6554
  C  C89  1  0.534700  0.340700  0.851600  1.0  -0.1397
  C  C90  1  0.453600  0.348500  0.802700  1.0  -0.0769
  C  C91  1  0.458200  0.297000  0.752300  1.0  -0.1838
  C  C92  1  0.545800  0.236100  0.753300  1.0  0.0543
  C  C93  1  0.622700  0.226900  0.805100  1.0  -0.1569
  C  C94  1  0.617900  0.278400  0.853800  1.0  -0.0666
  C  C95  1  0.552600  0.183300  0.699600  1.0  0.0086
  C  C96  1  0.435400  0.163500  0.674900  1.0  -0.1168
  C  C97  1  0.442000  0.110800  0.625300  1.0  -0.1533
  C  C98  1  0.565600  0.079500  0.599300  1.0  -0.1096
  C  C99  1  0.684200  0.100600  0.622600  1.0  -0.1509
  C  C100  1  0.677300  0.151200  0.672900  1.0  -0.103
  C  C101  1  0.819100  0.070600  0.590100  1.0  0.7133
  C  C102  1  0.315500  0.087300  0.598400  1.0  0.6782
  C  C103  1  0.984400  0.885100  0.584300  1.0  0.6902
  C  C104  1  0.964700  0.832100  0.641200  1.0  -0.1578
  C  C105  1  0.885900  0.772800  0.636900  1.0  -0.0492
  C  C106  1  0.869600  0.724400  0.689500  1.0  -0.1559
  C  C107  1  0.931500  0.733600  0.746900  1.0  0.0346
  C  C108  1  0.007000  0.793800  0.751200  1.0  -0.1515
  C  C109  1  0.025700  0.842400  0.698800  1.0  -0.0581
  C  C110  1  0.919600  0.681200  0.802600  1.0  0.0806
  C  C111  1  0.793400  0.653800  0.825000  1.0  -0.0996
  C  C112  1  0.780100  0.606400  0.879100  1.0  -0.1354
  C  C113  1  0.891600  0.583800  0.910700  1.0  -0.1525
  C  C114  1  0.017100  0.610800  0.887600  1.0  -0.1202
  C  C115  1  0.028900  0.658500  0.835400  1.0  -0.1202
  C  C116  1  0.141600  0.585000  0.920700  1.0  0.6318
  C  C117  1  0.642500  0.583900  0.907000  1.0  0.6697
  C  C118  1  0.471700  0.602200  0.095700  1.0  0.6554
  C  C119  1  0.465300  0.659300  0.148400  1.0  -0.1404
  C  C120  1  0.546400  0.651500  0.197300  1.0  -0.0781
  C  C121  1  0.541800  0.703000  0.247700  1.0  -0.1831
  C  C122  1  0.454200  0.763900  0.246700  1.0  0.0549
  C  C123  1  0.377300  0.773100  0.194900  1.0  -0.1574
  C  C124  1  0.382100  0.721600  0.146200  1.0  -0.0647
  C  C125  1  0.447400  0.816700  0.300400  1.0  0.0081
  C  C126  1  0.564600  0.836500  0.325100  1.0  -0.1132
  C  C127  1  0.558000  0.889200  0.374700  1.0  -0.1534
  C  C128  1  0.434400  0.920500  0.400700  1.0  -0.1093
  C  C129  1  0.315800  0.899400  0.377400  1.0  -0.1522
  C  C130  1  0.322700  0.848800  0.327100  1.0  -0.0997
  C  C131  1  0.180900  0.929400  0.409900  1.0  0.7149
  C  C132  1  0.684500  0.912700  0.401600  1.0  0.6779
  C  C133  1  0.041700  0.604600  0.095500  1.0  -0.1917
  C  C134  1  0.832500  0.659600  0.060600  1.0  0.0023
  C  C135  1  0.754800  0.719200  0.043900  1.0  -0.1542
  C  C136  1  0.801500  0.788000  0.041000  1.0  0.0979
  C  C137  1  0.934100  0.793300  0.055400  1.0  -0.2105
  C  C138  1  0.007100  0.734300  0.069500  1.0  0.0746
  C  C139  1  0.670400  0.898800  0.083200  1.0  0.1359
  C  C140  1  0.705600  0.884200  0.149300  1.0  -0.1732
  C  C141  1  0.647100  0.938600  0.186300  1.0  -0.1705
  C  C142  1  0.575000  0.987500  0.144200  1.0  0.1225
  C  C143  1  0.711100  0.852800  0.026600  1.0  -0.1061
  C  C144  1  0.679500  0.862100  0.961700  1.0  0.1677
  C  C145  1  0.726300  0.816400  0.906900  1.0  -0.1658
  C  C146  1  0.668600  0.841800  0.853600  1.0  -0.1661
  C  C147  1  0.587300  0.907100  0.874100  1.0  0.1896
  C  C148  1  0.494500  0.049800  0.164300  1.0  -0.0488
  C  C149  1  0.495500  0.069200  0.234900  1.0  0.1048
  C  C150  1  0.375200  0.074900  0.279500  1.0  -0.2116
  C  C151  1  0.383900  0.091500  0.344900  1.0  0.0385
  C  C152  1  0.502900  0.117100  0.437400  1.0  -0.1746
  C  C153  1  0.617000  0.096500  0.325900  1.0  0.058
  C  C154  1  0.614800  0.081500  0.261000  1.0  -0.1282
  C  C155  1  0.958300  0.395400  0.904500  1.0  -0.1926
  C  C156  1  0.167500  0.340400  0.939400  1.0  0.0042
  C  C157  1  0.245200  0.280800  0.956100  1.0  -0.1553
  C  C158  1  0.198500  0.212000  0.959000  1.0  0.0977
  C  C159  1  0.065900  0.206700  0.944600  1.0  -0.2128
  C  C160  1  0.992900  0.265700  0.930500  1.0  0.0771
  C  C161  1  0.329600  0.101200  0.916800  1.0  0.1355
  C  C162  1  0.294400  0.115800  0.850700  1.0  -0.1722
  C  C163  1  0.352900  0.061400  0.813700  1.0  -0.171
  C  C164  1  0.425000  0.012500  0.855800  1.0  0.1211
  C  C165  1  0.288900  0.147200  0.973400  1.0  -0.1061
  C  C166  1  0.320500  0.137900  0.038300  1.0  0.1678
  C  C167  1  0.273700  0.183600  0.093100  1.0  -0.1669
  C  C168  1  0.331400  0.158200  0.146400  1.0  -0.1675
  C  C169  1  0.412700  0.092900  0.125900  1.0  0.1903
  C  C170  1  0.505500  0.950200  0.835700  1.0  -0.0496
  C  C171  1  0.504500  0.930800  0.765100  1.0  0.1033
  C  C172  1  0.624800  0.925100  0.720500  1.0  -0.2113
  C  C173  1  0.616100  0.908500  0.655100  1.0  0.0392
  C  C174  1  0.497100  0.882900  0.562600  1.0  -0.1745
  C  C175  1  0.383000  0.903500  0.674100  1.0  0.0582
  C  C176  1  0.385200  0.918500  0.739000  1.0  -0.1278
  N  N177  1  0.592300  0.915600  0.940400  1.0  -0.3111
  N  N178  1  0.597000  0.961500  0.080200  1.0  -0.3092
  N  N179  1  0.956900  0.668400  0.073500  1.0  0.0695
  N  N180  1  0.501300  0.100500  0.367200  1.0  0.063
  N  N181  1  0.407700  0.084400  0.059600  1.0  -0.311
  N  N182  1  0.403000  0.038500  0.919800  1.0  -0.3095
  N  N183  1  0.043100  0.331600  0.926500  1.0  0.0697
  N  N184  1  0.498700  0.899500  0.632800  1.0  0.0617
  Cl  Cl185  1  0.220000  0.899100  0.067200  1.0  -0.5304
  Cl  Cl186  1  0.780000  0.100900  0.932800  1.0  -0.5286
  O  O187  1  0.929700  0.067700  0.410400  1.0  -0.652
  O  O188  1  0.081200  0.123000  0.463100  1.0  -0.6153
  O  O189  1  0.763000  0.371800  0.082500  1.0  -0.6253
  O  O190  1  0.853900  0.474100  0.051600  1.0  -0.5948
  O  O191  1  0.364800  0.451200  0.038900  1.0  -0.7286
  O  O192  1  0.458900  0.396000  0.120200  1.0  -0.6111
  O  O193  1  0.611200  0.387600  0.947800  1.0  -0.6233
  O  O194  1  0.441600  0.447800  0.899700  1.0  -0.6388
  O  O195  1  0.923200  0.094400  0.606200  1.0  -0.6752
  O  O196  1  0.817300  0.022500  0.550200  1.0  -0.6921
  O  O197  1  0.320600  0.033400  0.567100  1.0  -0.5647
  O  O198  1  0.210700  0.125600  0.609900  1.0  -0.668
  O  O199  1  0.070300  0.932300  0.589600  1.0  -0.6519
  O  O200  1  0.918800  0.877000  0.536900  1.0  -0.6171
  O  O201  1  0.237000  0.628200  0.917500  1.0  -0.6282
  O  O202  1  0.146100  0.525900  0.948400  1.0  -0.5943
  O  O203  1  0.635200  0.548800  0.961100  1.0  -0.7271
  O  O204  1  0.541100  0.604000  0.879800  1.0  -0.6072
  O  O205  1  0.388800  0.612400  0.052200  1.0  -0.6251
  O  O206  1  0.558400  0.552200  0.100300  1.0  -0.639
  O  O207  1  0.076800  0.905600  0.393800  1.0  -0.6741
  O  O208  1  0.182700  0.977500  0.449800  1.0  -0.6918
  O  O209  1  0.679400  0.966600  0.432900  1.0  -0.565
  O  O210  1  0.789300  0.874400  0.390100  1.0  -0.6673
