# generated using pymatgen
data_Mn2MoH42C37N17
_symmetry_space_group_name_H-M   'P 1'
_cell_length_a   12.76300000
_cell_length_b   17.70750000
_cell_length_c   17.70750000
_cell_angle_alpha   65.58040000
_cell_angle_beta   76.09840000
_cell_angle_gamma   103.90200000
_symmetry_Int_Tables_number   1
_chemical_formula_structural   Mn2MoH42C37N17
_chemical_formula_sum   'Mn6 Mo3 H126 C111 N51'
_cell_volume   3265.69246530
_cell_formula_units_Z   3
loop_
 _symmetry_equiv_pos_site_id
 _symmetry_equiv_pos_as_xyz
  1  'x, y, z'
loop_
 _atom_site_type_symbol
 _atom_site_label
 _atom_site_symmetry_multiplicity
 _atom_site_fract_x
 _atom_site_fract_y
 _atom_site_fract_z
 _atom_site_occupancy
 _atom_site_charge
  Mn  Mn1  1  0.864270  0.300590  0.168790  1.0  0.8285
  Mn  Mn2  1  0.538700  0.751490  0.829130  1.0  0.8667
  Mn  Mn3  1  0.033060  0.168790  0.530620  1.0  0.83
  Mn  Mn4  1  0.367830  0.829130  0.419380  1.0  0.8673
  Mn  Mn5  1  0.563680  0.530620  0.300590  1.0  0.83
  Mn  Mn6  1  0.787210  0.419380  0.751490  1.0  0.8684
  Mo  Mo7  1  0.718200  0.533190  0.995430  1.0  0.5446
  Mo  Mo8  1  0.713630  0.995430  0.471380  1.0  0.5475
  Mo  Mo9  1  0.185010  0.471380  0.533190  1.0  0.5463
  H  H10  1  0.536400  0.143600  0.238000  1.0  0.0868
  H  H11  1  0.606700  0.241600  0.155700  1.0  0.0903
  H  H12  1  0.528700  0.246800  0.288400  1.0  0.0767
  H  H13  1  0.598400  0.191700  0.332300  1.0  0.0696
  H  H14  1  0.734800  0.299800  0.343500  1.0  0.0826
  H  H15  1  0.661700  0.360000  0.321500  1.0  0.0679
  H  H16  1  0.753400  0.821900  0.884300  1.0  0.0762
  H  H17  1  0.813700  0.925900  0.816100  1.0  0.0624
  H  H18  1  0.055400  0.534400  0.916900  1.0  0.0924
  H  H19  1  0.270400  0.528300  0.080300  1.0  0.1158
  H  H20  1  0.820500  0.747600  0.682200  1.0  0.0779
  H  H21  1  0.740700  0.798200  0.649700  1.0  0.0593
  H  H22  1  0.824400  0.480900  0.204800  1.0  0.0746
  H  H23  1  0.860000  0.444600  0.288200  1.0  0.0635
  H  H24  1  0.379300  0.463100  0.023200  1.0  0.0992
  H  H25  1  0.029200  0.582600  0.150500  1.0  0.1102
  H  H26  1  0.157100  0.587300  0.115900  1.0  0.1079
  H  H27  1  0.081700  0.535200  0.219500  1.0  0.121
  H  H28  1  0.650100  0.656200  0.676000  1.0  0.0718
  H  H29  1  0.665300  0.611400  0.768000  1.0  0.0759
  H  H30  1  0.811500  0.899300  0.697400  1.0  0.0733
  H  H31  1  0.881900  0.850300  0.747700  1.0  0.0749
  H  H32  1  0.849200  0.096000  0.167900  1.0  0.0855
  H  H33  1  0.888900  0.144600  0.062600  1.0  0.0786
  H  H34  1  0.284100  0.332200  0.026100  1.0  0.1261
  H  H35  1  0.053600  0.126600  0.093500  1.0  0.1149
  H  H36  1  0.172700  0.190000  0.082200  1.0  0.1143
  H  H37  1  0.137100  0.210300  0.999300  1.0  0.13
  H  H38  1  0.090500  0.648100  0.950500  1.0  0.1158
  H  H39  1  0.412700  0.524700  0.738600  1.0  0.1156
  H  H40  1  0.366800  0.463800  0.843300  1.0  0.1038
  H  H41  1  0.501100  0.505100  0.784700  1.0  0.1028
  H  H42  1  0.624600  0.925100  0.914000  1.0  0.0925
  H  H43  1  0.580300  0.820000  0.966400  1.0  0.0747
  H  H44  1  0.208600  0.505400  0.852200  1.0  0.1204
  H  H45  1  0.222600  0.797800  0.004800  1.0  0.1077
  H  H46  1  0.140800  0.755700  0.967200  1.0  0.1026
  H  H47  1  0.235000  0.853900  0.905500  1.0  0.1246
  H  H48  1  0.754900  0.213100  0.068400  1.0  0.0623
  H  H49  1  0.686300  0.109100  0.134200  1.0  0.0828
  H  H50  1  0.415200  0.852100  0.980200  1.0  0.0725
  H  H51  1  0.463300  0.919900  0.876100  1.0  0.0968
  H  H52  1  0.774400  0.238000  0.618400  1.0  0.0869
  H  H53  1  0.762400  0.155700  0.602700  1.0  0.0902
  H  H54  1  0.817100  0.288400  0.464800  1.0  0.0754
  H  H55  1  0.930700  0.332300  0.476000  1.0  0.0695
  H  H56  1  0.078300  0.343500  0.356700  1.0  0.0829
  H  H57  1  0.983200  0.321500  0.318500  1.0  0.0684
  H  H58  1  0.637700  0.884300  0.293800  1.0  0.0768
  H  H59  1  0.629800  0.816100  0.258000  1.0  0.0629
  H  H60  1  0.972300  0.916900  0.548700  1.0  0.0927
  H  H61  1  0.350700  0.080300  0.391400  1.0  0.1183
  H  H62  1  0.502700  0.682200  0.570200  1.0  0.077
  H  H63  1  0.390400  0.649700  0.552100  1.0  0.0606
  H  H64  1  0.029200  0.204800  0.314300  1.0  0.0741
  H  H65  1  0.148200  0.288200  0.267200  1.0  0.062
  H  H66  1  0.402500  0.023200  0.513700  1.0  0.1003
  H  H67  1  0.179700  0.150500  0.266900  1.0  0.1082
  H  H68  1  0.273000  0.115900  0.296800  1.0  0.1069
  H  H69  1  0.301200  0.219500  0.245300  1.0  0.1224
  H  H70  1  0.326100  0.676000  0.667800  1.0  0.0678
  H  H71  1  0.433300  0.768000  0.620600  1.0  0.0747
  H  H72  1  0.508900  0.697400  0.403300  1.0  0.0743
  H  H73  1  0.629600  0.747700  0.402000  1.0  0.0747
  H  H74  1  0.017100  0.167900  0.736100  1.0  0.0867
  H  H75  1  0.951500  0.062600  0.792800  1.0  0.0799
  H  H76  1  0.310200  0.026100  0.641700  1.0  0.1259
  H  H77  1  0.147100  0.093500  0.779900  1.0  0.1108
  H  H78  1  0.254900  0.082200  0.727800  1.0  0.1122
  H  H79  1  0.136400  0.999300  0.790400  1.0  0.1282
  H  H80  1  0.041000  0.950500  0.401400  1.0  0.114
  H  H81  1  0.151300  0.738600  0.736700  1.0  0.117
  H  H82  1  0.210100  0.843300  0.692900  1.0  0.1007
  H  H83  1  0.285800  0.784700  0.710200  1.0  0.1018
  H  H84  1  0.538600  0.914000  0.160900  1.0  0.0846
  H  H85  1  0.546700  0.966400  0.213600  1.0  0.0751
  H  H86  1  0.060800  0.852200  0.642400  1.0  0.1195
  H  H87  1  0.227400  0.004800  0.197400  1.0  0.1131
  H  H88  1  0.108000  0.967200  0.277100  1.0  0.1017
  H  H89  1  0.140500  0.905500  0.240600  1.0  0.1251
  H  H90  1  0.823300  0.068400  0.718500  1.0  0.0611
  H  H91  1  0.820500  0.134200  0.756700  1.0  0.0824
  H  H92  1  0.395400  0.980200  0.167700  1.0  0.0687
  H  H93  1  0.339400  0.876100  0.204000  1.0  0.0976
  H  H94  1  0.392800  0.618400  0.143600  1.0  0.0858
  H  H95  1  0.365100  0.602700  0.241600  1.0  0.0894
  H  H96  1  0.281900  0.464800  0.246800  1.0  0.0742
  H  H97  1  0.406700  0.476000  0.191700  1.0  0.0708
  H  H98  1  0.435000  0.356700  0.299800  1.0  0.0823
  H  H99  1  0.301700  0.318500  0.360000  1.0  0.0678
  H  H100  1  0.931500  0.293800  0.821900  1.0  0.0778
  H  H101  1  0.887800  0.258000  0.925900  1.0  0.0634
  H  H102  1  0.521000  0.548700  0.534400  1.0  0.0913
  H  H103  1  0.742100  0.391400  0.528300  1.0  0.1187
  H  H104  1  0.072900  0.570200  0.747600  1.0  0.0763
  H  H105  1  0.942500  0.552100  0.798200  1.0  0.0608
  H  H106  1  0.343500  0.314300  0.480900  1.0  0.0752
  H  H107  1  0.415400  0.267200  0.444600  1.0  0.0619
  H  H108  1  0.916200  0.513700  0.463100  1.0  0.0975
  H  H109  1  0.446600  0.266900  0.582600  1.0  0.1094
  H  H110  1  0.569800  0.296800  0.587300  1.0  0.1071
  H  H111  1  0.546500  0.245300  0.535200  1.0  0.1202
  H  H112  1  0.993900  0.667800  0.656200  1.0  0.0671
  H  H113  1  0.053900  0.620600  0.611400  1.0  0.0761
  H  H114  1  0.912200  0.403300  0.899300  1.0  0.0745
  H  H115  1  0.031600  0.402000  0.850300  1.0  0.0766
  H  H116  1  0.753200  0.736100  0.096000  1.0  0.0863
  H  H117  1  0.744300  0.792800  0.144600  1.0  0.0788
  H  H118  1  0.951900  0.641700  0.332200  1.0  0.1249
  H  H119  1  0.927000  0.779900  0.126600  1.0  0.1107
  H  H120  1  0.982700  0.727800  0.190000  1.0  0.1134
  H  H121  1  0.926800  0.790400  0.210300  1.0  0.1294
  H  H122  1  0.442400  0.401400  0.648100  1.0  0.1143
  H  H123  1  0.888000  0.736700  0.524700  1.0  0.1181
  H  H124  1  0.903000  0.692900  0.463800  1.0  0.1006
  H  H125  1  0.996000  0.710200  0.505100  1.0  0.1038
  H  H126  1  0.699500  0.160900  0.925100  1.0  0.0908
  H  H127  1  0.760300  0.213600  0.820000  1.0  0.0755
  H  H128  1  0.703200  0.642400  0.505400  1.0  0.1207
  H  H129  1  0.424800  0.197400  0.797800  1.0  0.1065
  H  H130  1  0.385100  0.277100  0.755700  1.0  0.1022
  H  H131  1  0.381100  0.240600  0.853900  1.0  0.1248
  H  H132  1  0.541800  0.718500  0.213100  1.0  0.0626
  H  H133  1  0.577200  0.756700  0.109100  1.0  0.0815
  H  H134  1  0.563100  0.167700  0.852100  1.0  0.0733
  H  H135  1  0.543400  0.204000  0.919900  1.0  0.0971
  C  C136  1  0.605200  0.198000  0.212000  1.0  0.002
  C  C137  1  0.334400  0.604400  0.845900  1.0  0.1818
  C  C138  1  0.599500  0.235000  0.276000  1.0  0.024
  C  C139  1  0.049500  0.243500  0.084100  1.0  0.2604
  C  C140  1  0.034500  0.466700  0.157900  1.0  0.2487
  C  C141  1  0.813900  0.449400  0.023600  1.0  0.1133
  C  C142  1  0.122500  0.324800  0.081100  1.0  0.1918
  C  C143  1  0.605300  0.605600  0.972500  1.0  0.0725
  C  C144  1  0.726300  0.347200  0.295200  1.0  0.0281
  C  C145  1  0.660200  0.504800  0.130000  1.0  0.1639
  C  C146  1  0.851200  0.636300  0.867900  1.0  0.1521
  C  C147  1  0.759700  0.869300  0.828200  1.0  0.0542
  C  C148  1  0.305100  0.759300  0.922500  1.0  0.2322
  C  C149  1  0.131600  0.568800  0.904200  1.0  -0.114
  C  C150  1  0.233600  0.475700  0.081100  1.0  -0.1498
  C  C151  1  0.743900  0.750000  0.700500  1.0  0.0532
  C  C152  1  0.267000  0.686100  0.904200  1.0  0.1492
  C  C153  1  0.836900  0.430400  0.245800  1.0  0.0571
  C  C154  1  0.298100  0.437200  0.046800  1.0  -0.0856
  C  C155  1  0.079700  0.550400  0.161200  1.0  -0.3701
  C  C156  1  0.649900  0.661100  0.728600  1.0  -0.0217
  C  C157  1  0.804900  0.851700  0.753600  1.0  0.0267
  C  C158  1  0.860000  0.150100  0.115200  1.0  0.0307
  C  C159  1  0.241700  0.359900  0.047800  1.0  -0.1333
  C  C160  1  0.108500  0.187700  0.062800  1.0  -0.3746
  C  C161  1  0.152000  0.636100  0.924100  1.0  -0.1242
  C  C162  1  0.429700  0.515300  0.791000  1.0  -0.3693
  C  C163  1  0.442600  0.595500  0.801000  1.0  0.218
  C  C164  1  0.837800  0.625200  0.014300  1.0  0.1537
  C  C165  1  0.584100  0.871100  0.914300  1.0  0.0357
  C  C166  1  0.113200  0.435300  0.116600  1.0  0.2414
  C  C167  1  0.563700  0.410700  0.071000  1.0  0.1373
  C  C168  1  0.222300  0.551800  0.865300  1.0  -0.1509
  C  C169  1  0.218100  0.794900  0.952700  1.0  -0.3766
  C  C170  1  0.745400  0.162500  0.123700  1.0  0.0336
  C  C171  1  0.461700  0.864300  0.921300  1.0  0.0598
  C  C172  1  0.701300  0.485200  0.902800  1.0  0.0822
  C  C173  1  0.817200  0.212000  0.590000  1.0  0.0031
  C  C174  1  0.180300  0.845900  0.549700  1.0  0.1824
  C  C175  1  0.875500  0.276000  0.489000  1.0  0.0232
  C  C176  1  0.133600  0.084100  0.672400  1.0  0.2605
  C  C177  1  0.192400  0.157900  0.375400  1.0  0.247
  C  C178  1  0.837500  0.023600  0.527000  1.0  0.1133
  C  C179  1  0.203600  0.081100  0.594100  1.0  0.1918
  C  C180  1  0.577800  0.972500  0.421900  1.0  0.0711
  C  C181  1  0.021500  0.295200  0.357600  1.0  0.0243
  C  C182  1  0.790200  0.130000  0.365200  1.0  0.1652
  C  C183  1  0.719100  0.867900  0.495800  1.0  0.1526
  C  C184  1  0.587900  0.828200  0.302500  1.0  0.054
  C  C185  1  0.227600  0.922500  0.318200  1.0  0.2317
  C  C186  1  0.035800  0.904200  0.527000  1.0  -0.1137
  C  C187  1  0.314700  0.081100  0.443200  1.0  -0.149
  C  C188  1  0.444400  0.700500  0.549500  1.0  0.0494
  C  C189  1  0.171200  0.904200  0.409700  1.0  0.1497
  C  C190  1  0.082700  0.245800  0.323800  1.0  0.0539
  C  C191  1  0.344900  0.046800  0.516000  1.0  -0.0843
  C  C192  1  0.240900  0.161200  0.288400  1.0  -0.3777
  C  C193  1  0.378500  0.728600  0.610300  1.0  -0.0207
  C  C194  1  0.558500  0.753600  0.394700  1.0  0.0248
  C  C195  1  0.975200  0.115200  0.734700  1.0  0.0303
  C  C196  1  0.289500  0.047800  0.592300  1.0  -0.136
  C  C197  1  0.171300  0.062800  0.749500  1.0  -0.3771
  C  C198  1  0.076100  0.924100  0.439800  1.0  -0.1239
  C  C199  1  0.220700  0.791000  0.693700  1.0  -0.3696
  C  C200  1  0.243600  0.801000  0.603500  1.0  0.2209
  C  C201  1  0.852100  0.014300  0.360500  1.0  0.153
  C  C202  1  0.498400  0.914300  0.214600  1.0  0.0382
  C  C203  1  0.229800  0.116600  0.448100  1.0  0.2421
  C  C204  1  0.634700  0.071000  0.518300  1.0  0.1384
  C  C205  1  0.087600  0.865300  0.582900  1.0  -0.1531
  C  C206  1  0.170800  0.952700  0.252400  1.0  -0.3804
  C  C207  1  0.869100  0.123700  0.713800  1.0  0.0383
  C  C208  1  0.383000  0.921300  0.214400  1.0  0.0559
  C  C209  1  0.604100  0.902800  0.612000  1.0  0.0796
  C  C210  1  0.407200  0.590000  0.198000  1.0  0.0044
  C  C211  1  0.730000  0.549700  0.604400  1.0  0.182
  C  C212  1  0.364500  0.489000  0.235000  1.0  0.02
  C  C213  1  0.806000  0.672400  0.243500  1.0  0.2588
  C  C214  1  0.567800  0.375400  0.466700  1.0  0.2466
  C  C215  1  0.364500  0.527000  0.449400  1.0  0.1134
  C  C216  1  0.797700  0.594100  0.324800  1.0  0.1902
  C  C217  1  0.999700  0.421900  0.605600  1.0  0.0724
  C  C218  1  0.379100  0.357600  0.347200  1.0  0.0298
  C  C219  1  0.155400  0.365200  0.504800  1.0  0.1642
  C  C220  1  0.214900  0.495800  0.636300  1.0  0.152
  C  C221  1  0.890400  0.302500  0.869300  1.0  0.0553
  C  C222  1  0.545800  0.318200  0.759300  1.0  0.2337
  C  C223  1  0.562800  0.527000  0.568800  1.0  -0.1123
  C  C224  1  0.757900  0.443200  0.475700  1.0  -0.1503
  C  C225  1  0.993900  0.549500  0.750000  1.0  0.0486
  C  C226  1  0.580900  0.409700  0.686100  1.0  0.1484
  C  C227  1  0.406500  0.323800  0.430400  1.0  0.0534
  C  C228  1  0.860900  0.516000  0.437200  1.0  -0.0847
  C  C229  1  0.529300  0.288400  0.550400  1.0  -0.3715
  C  C230  1  0.988800  0.610300  0.661100  1.0  -0.0226
  C  C231  1  0.953200  0.394700  0.851700  1.0  0.016
  C  C232  1  0.709900  0.734700  0.150100  1.0  0.0286
  C  C233  1  0.881800  0.592300  0.359900  1.0  -0.1355
  C  C234  1  0.920800  0.749500  0.187700  1.0  -0.3728
  C  C235  1  0.515900  0.439800  0.636100  1.0  -0.1248
  C  C236  1  0.914400  0.693700  0.515300  1.0  -0.3704
  C  C237  1  0.847100  0.603500  0.595500  1.0  0.2204
  C  C238  1  0.212600  0.360500  0.625200  1.0  0.1527
  C  C239  1  0.713000  0.214600  0.871100  1.0  0.0381
  C  C240  1  0.677900  0.448100  0.435300  1.0  0.2414
  C  C241  1  0.153000  0.518300  0.410700  1.0  0.1368
  C  C242  1  0.670500  0.582900  0.551800  1.0  -0.1502
  C  C243  1  0.423200  0.252400  0.794900  1.0  -0.3758
  C  C244  1  0.582900  0.713800  0.162500  1.0  0.0382
  C  C245  1  0.597400  0.214400  0.864300  1.0  0.0595
  C  C246  1  0.216100  0.612000  0.485200  1.0  0.0817
  N  N247  1  0.708900  0.178300  0.196500  1.0  -0.3483
  N  N248  1  0.354100  0.668600  0.865100  1.0  -0.3313
  N  N249  1  0.926200  0.413000  0.197200  1.0  -0.3984
  N  N250  1  0.922600  0.694700  0.801200  1.0  -0.4537
  N  N251  1  0.061800  0.362300  0.114700  1.0  -0.3375
  N  N252  1  0.857300  0.399100  0.043200  1.0  -0.4853
  N  N253  1  0.941900  0.227700  0.107000  1.0  -0.3208
  N  N254  1  0.547700  0.647400  0.958200  1.0  -0.481
  N  N255  1  0.535600  0.658000  0.775600  1.0  -0.3621
  N  N256  1  0.701300  0.317400  0.234500  1.0  -0.3726
  N  N257  1  0.648000  0.873400  0.835000  1.0  -0.3298
  N  N258  1  0.726400  0.767100  0.772800  1.0  -0.337
  N  N259  1  0.482800  0.345600  0.112100  1.0  -0.4935
  N  N260  1  0.413700  0.791200  0.907000  1.0  -0.3512
  N  N261  1  0.901700  0.671900  0.026200  1.0  -0.478
  N  N262  1  0.632100  0.491700  0.201200  1.0  -0.4353
  N  N263  1  0.700300  0.453700  0.857200  1.0  -0.4913
  N  N264  1  0.905400  0.196500  0.625200  1.0  -0.3477
  N  N265  1  0.219200  0.865100  0.466300  1.0  -0.3329
  N  N266  1  0.123400  0.197200  0.389800  1.0  -0.3989
  N  N267  1  0.723800  0.801200  0.504100  1.0  -0.4534
  N  N268  1  0.176500  0.114700  0.523000  1.0  -0.3375
  N  N269  1  0.900500  0.043200  0.557700  1.0  -0.4864
  N  N270  1  0.048900  0.107000  0.665300  1.0  -0.3182
  N  N271  1  0.505900  0.958200  0.394400  1.0  -0.4813
  N  N272  1  0.311200  0.775600  0.566400  1.0  -0.3638
  N  N273  1  0.935800  0.234500  0.448100  1.0  -0.3739
  N  N274  1  0.483000  0.835000  0.291600  1.0  -0.3295
  N  N275  1  0.499200  0.772800  0.460100  1.0  -0.3368
  N  N276  1  0.594900  0.112100  0.542300  1.0  -0.4903
  N  N277  1  0.320700  0.907000  0.301800  1.0  -0.3506
  N  N278  1  0.927900  0.026200  0.301900  1.0  -0.4757
  N  N279  1  0.833300  0.201200  0.307100  1.0  -0.4385
  N  N280  1  0.557500  0.857200  0.689100  1.0  -0.4904
  N  N281  1  0.530600  0.625200  0.178300  1.0  -0.3474
  N  N282  1  0.685500  0.466300  0.668600  1.0  -0.3306
  N  N283  1  0.513200  0.389800  0.413000  1.0  -0.3953
  N  N284  1  0.227900  0.504100  0.694700  1.0  -0.4509
  N  N285  1  0.699500  0.523000  0.362300  1.0  -0.3393
  N  N286  1  0.458200  0.557700  0.399100  1.0  -0.486
  N  N287  1  0.714200  0.665300  0.227700  1.0  -0.3194
  N  N288  1  0.900300  0.394400  0.647400  1.0  -0.4824
  N  N289  1  0.877600  0.566400  0.658000  1.0  -0.3634
  N  N290  1  0.383900  0.448100  0.317400  1.0  -0.3713
  N  N291  1  0.774600  0.291600  0.873400  1.0  -0.3286
  N  N292  1  0.959300  0.460100  0.767100  1.0  -0.336
  N  N293  1  0.137200  0.542300  0.345600  1.0  -0.4941
  N  N294  1  0.622500  0.301800  0.791200  1.0  -0.3513
  N  N295  1  0.229800  0.301900  0.671900  1.0  -0.4791
  N  N296  1  0.140400  0.307100  0.491700  1.0  -0.4359
  N  N297  1  0.246600  0.689100  0.453700  1.0  -0.4916
