# generated using pymatgen
data_NaCd3H32C52N4ClO12
_symmetry_space_group_name_H-M   'P 1'
_cell_length_a   10.00600000
_cell_length_b   18.34000000
_cell_length_c   20.26000000
_cell_angle_alpha   88.72000000
_cell_angle_beta   83.46000000
_cell_angle_gamma   86.86000000
_symmetry_Int_Tables_number   1
_chemical_formula_structural   NaCd3H32C52N4ClO12
_chemical_formula_sum   'Na2 Cd6 H64 C104 N8 Cl2 O24'
_cell_volume   3687.68816486
_cell_formula_units_Z   2
loop_
 _symmetry_equiv_pos_site_id
 _symmetry_equiv_pos_as_xyz
  1  'x, y, z'
loop_
 _atom_site_type_symbol
 _atom_site_label
 _atom_site_symmetry_multiplicity
 _atom_site_fract_x
 _atom_site_fract_y
 _atom_site_fract_z
 _atom_site_occupancy
 _atom_site_charge
  Na  Na1  1  0.892900  0.720800  0.879100  1.0  0.8982
  Na  Na2  1  0.107100  0.279200  0.120900  1.0  0.8989
  Cd  Cd3  1  0.886660  0.547860  0.960640  1.0  1.1288
  Cd  Cd4  1  0.389300  0.959800  0.454900  1.0  1.0811
  Cd  Cd5  1  0.113340  0.452140  0.039360  1.0  1.1279
  Cd  Cd6  1  0.610700  0.040200  0.545100  1.0  1.0813
  Cd  Cd7  1  0.915680  0.969220  0.018450  1.0  0.9696
  Cd  Cd8  1  0.084320  0.030780  0.981550  1.0  0.9685
  H  H9  1  0.106900  0.612400  0.201500  1.0  0.1089
  H  H10  1  0.092200  0.699000  0.284000  1.0  0.1065
  H  H11  1  0.797900  0.806600  0.202600  1.0  0.1118
  H  H12  1  0.817800  0.726000  0.114500  1.0  0.1271
  H  H13  1  0.733900  0.835100  0.313800  1.0  0.1165
  H  H14  1  0.911000  0.959600  0.436300  1.0  0.1179
  H  H15  1  0.134000  0.816900  0.316700  1.0  0.1242
  H  H16  1  0.350300  0.769200  0.597000  1.0  0.1197
  H  H17  1  0.315900  0.683600  0.691700  1.0  0.1302
  H  H18  1  0.535400  0.804500  0.792700  1.0  0.0945
  H  H19  1  0.586300  0.888900  0.698500  1.0  0.1111
  H  H20  1  0.218800  0.664600  0.799800  1.0  0.1214
  H  H21  1  0.387100  0.554100  0.945800  1.0  0.094
  H  H22  1  0.613000  0.677200  0.814600  1.0  0.1122
  H  H23  1  0.893100  0.387600  0.798500  1.0  0.1094
  H  H24  1  0.907800  0.301000  0.716000  1.0  0.1064
  H  H25  1  0.202100  0.193400  0.797400  1.0  0.1115
  H  H26  1  0.182200  0.274000  0.885500  1.0  0.1273
  H  H27  1  0.266100  0.164900  0.686200  1.0  0.1155
  H  H28  1  0.089000  0.040400  0.563700  1.0  0.1179
  H  H29  1  0.866000  0.183100  0.683300  1.0  0.1243
  H  H30  1  0.649700  0.230800  0.403000  1.0  0.1199
  H  H31  1  0.684100  0.316400  0.308300  1.0  0.1306
  H  H32  1  0.464600  0.195500  0.207300  1.0  0.0945
  H  H33  1  0.413700  0.111100  0.301500  1.0  0.1109
  H  H34  1  0.781200  0.335400  0.200200  1.0  0.1218
  H  H35  1  0.612900  0.445900  0.054200  1.0  0.0941
  H  H36  1  0.387000  0.322800  0.185400  1.0  0.1137
  H  H37  1  0.428300  0.386900  0.858500  1.0  0.1237
  H  H38  1  0.527100  0.438500  0.886700  1.0  0.1245
  H  H39  1  0.395800  0.416700  0.930800  1.0  0.1168
  H  H40  1  0.696100  0.388900  0.928700  1.0  0.092
  H  H41  1  0.838400  0.290100  0.963400  1.0  0.1187
  H  H42  1  0.509800  0.171000  0.965800  1.0  0.1235
  H  H43  1  0.413100  0.267100  0.914100  1.0  0.0373
  H  H44  1  0.719600  0.231300  0.089200  1.0  0.1293
  H  H45  1  0.815500  0.178100  0.189000  1.0  0.1142
  H  H46  1  0.743000  0.156200  0.833900  1.0  0.1202
  H  H47  1  0.852500  0.057400  0.766300  1.0  0.1096
  H  H48  1  0.796300  0.070900  0.265800  1.0  0.111
  H  H49  1  0.807500  0.100200  0.375200  1.0  0.0928
  H  H50  1  0.203400  0.074200  0.234500  1.0  0.1311
  H  H51  1  0.195300  0.117100  0.340500  1.0  0.0904
  H  H52  1  0.930700  0.156700  0.453900  1.0  0.1247
  H  H53  1  0.020100  0.085600  0.465000  1.0  0.1287
  H  H54  1  0.087800  0.157300  0.438800  1.0  0.1216
  H  H55  1  0.571700  0.613100  0.141500  1.0  0.1244
  H  H56  1  0.472900  0.561500  0.113300  1.0  0.1242
  H  H57  1  0.604200  0.583300  0.069200  1.0  0.1194
  H  H58  1  0.303900  0.611100  0.071300  1.0  0.0923
  H  H59  1  0.161600  0.709900  0.036600  1.0  0.1185
  H  H60  1  0.490200  0.829000  0.034200  1.0  0.1242
  H  H61  1  0.586900  0.732900  0.085900  1.0  0.0381
  H  H62  1  0.280400  0.768700  0.910800  1.0  0.1298
  H  H63  1  0.184500  0.821900  0.811000  1.0  0.1136
  H  H64  1  0.257000  0.843800  0.166100  1.0  0.12
  H  H65  1  0.147500  0.942600  0.233700  1.0  0.1085
  H  H66  1  0.203700  0.929100  0.734200  1.0  0.1099
  H  H67  1  0.192500  0.899800  0.624800  1.0  0.0924
  H  H68  1  0.796600  0.925800  0.765500  1.0  0.1307
  H  H69  1  0.804700  0.882900  0.659500  1.0  0.0899
  H  H70  1  0.069300  0.843300  0.546100  1.0  0.1232
  H  H71  1  0.979900  0.914400  0.535000  1.0  0.1282
  H  H72  1  0.912200  0.842700  0.561200  1.0  0.122
  C  C73  1  0.964000  0.597100  0.100700  1.0  0.6582
  C  C74  1  0.957000  0.656400  0.153400  1.0  -0.1491
  C  C75  1  0.043200  0.651300  0.201500  1.0  -0.0325
  C  C76  1  0.035600  0.704500  0.250700  1.0  -0.0836
  C  C77  1  0.949900  0.762400  0.251100  1.0  0.0619
  C  C78  1  0.862600  0.768100  0.201100  1.0  -0.1239
  C  C79  1  0.869200  0.718400  0.149700  1.0  -0.1178
  C  C80  1  0.934600  0.820700  0.304300  1.0  0.0148
  C  C81  1  0.811300  0.849200  0.330400  1.0  -0.0418
  C  C82  1  0.800300  0.899700  0.382400  1.0  -0.1596
  C  C83  1  0.916300  0.924100  0.404000  1.0  -0.0708
  C  C84  1  0.039300  0.894900  0.377000  1.0  -0.0946
  C  C85  1  0.050800  0.840200  0.330300  1.0  -0.1354
  C  C86  1  0.168700  0.912100  0.400700  1.0  0.594
  C  C87  1  0.666900  0.930500  0.411800  1.0  0.6665
  C  C88  1  0.482700  0.893300  0.585200  1.0  0.6278
  C  C89  1  0.463000  0.837800  0.644800  1.0  -0.1253
  C  C90  1  0.387000  0.776200  0.636400  1.0  -0.0789
  C  C91  1  0.368400  0.723800  0.692500  1.0  -0.1101
  C  C92  1  0.432700  0.738500  0.744900  1.0  0.0825
  C  C93  1  0.502800  0.797100  0.752300  1.0  -0.1108
  C  C94  1  0.529500  0.850500  0.697100  1.0  -0.1467
  C  C95  1  0.419900  0.681200  0.800100  1.0  -0.0034
  C  C96  1  0.293100  0.654000  0.822700  1.0  -0.0861
  C  C97  1  0.282000  0.609000  0.882900  1.0  -0.1477
  C  C98  1  0.393900  0.587200  0.910200  1.0  -0.0974
  C  C99  1  0.520300  0.612500  0.887100  1.0  -0.1147
  C  C100  1  0.529600  0.660100  0.830900  1.0  -0.0522
  C  C101  1  0.650000  0.583600  0.916500  1.0  0.5992
  C  C102  1  0.148000  0.584400  0.913000  1.0  0.6945
  C  C103  1  0.036000  0.402900  0.899300  1.0  0.6573
  C  C104  1  0.043000  0.343600  0.846600  1.0  -0.1502
  C  C105  1  0.956800  0.348700  0.798500  1.0  -0.0325
  C  C106  1  0.964400  0.295500  0.749300  1.0  -0.0844
  C  C107  1  0.050100  0.237600  0.748900  1.0  0.0616
  C  C108  1  0.137400  0.231900  0.798900  1.0  -0.1226
  C  C109  1  0.130800  0.281600  0.850300  1.0  -0.1193
  C  C110  1  0.065400  0.179300  0.695700  1.0  0.0149
  C  C111  1  0.188700  0.150800  0.669600  1.0  -0.0422
  C  C112  1  0.199700  0.100300  0.617600  1.0  -0.1589
  C  C113  1  0.083700  0.075900  0.596000  1.0  -0.0698
  C  C114  1  0.960700  0.105100  0.623000  1.0  -0.0948
  C  C115  1  0.949200  0.159800  0.669700  1.0  -0.1382
  C  C116  1  0.831300  0.087900  0.599300  1.0  0.5945
  C  C117  1  0.333100  0.069500  0.588200  1.0  0.6719
  C  C118  1  0.517300  0.106700  0.414800  1.0  0.6268
  C  C119  1  0.537000  0.162200  0.355200  1.0  -0.123
  C  C120  1  0.613000  0.223800  0.363600  1.0  -0.0794
  C  C121  1  0.631600  0.276200  0.307500  1.0  -0.1113
  C  C122  1  0.567300  0.261500  0.255100  1.0  0.0816
  C  C123  1  0.497200  0.202900  0.247700  1.0  -0.1127
  C  C124  1  0.470500  0.149500  0.302900  1.0  -0.1468
  C  C125  1  0.580100  0.318800  0.199900  1.0  -0.005
  C  C126  1  0.706900  0.346000  0.177300  1.0  -0.0844
  C  C127  1  0.718000  0.391000  0.117100  1.0  -0.1434
  C  C128  1  0.606100  0.412800  0.089800  1.0  -0.0962
  C  C129  1  0.479700  0.387500  0.112900  1.0  -0.1136
  C  C130  1  0.470400  0.339900  0.169100  1.0  -0.0516
  C  C131  1  0.350000  0.416400  0.083500  1.0  0.5967
  C  C132  1  0.852000  0.415600  0.087000  1.0  0.6963
  C  C133  1  0.466500  0.400100  0.897600  1.0  -0.1763
  C  C134  1  0.661800  0.342700  0.933500  1.0  0.0458
  C  C135  1  0.752700  0.282000  0.952400  1.0  -0.1658
  C  C136  1  0.707500  0.215200  0.953300  1.0  0.004
  C  C137  1  0.556800  0.211900  0.951700  1.0  -0.1559
  C  C138  1  0.497000  0.272500  0.928400  1.0  0.1111
  C  C139  1  0.786600  0.146400  0.972600  1.0  -0.0901
  C  C140  1  0.819400  0.136600  0.039400  1.0  0.1818
  C  C141  1  0.773500  0.188600  0.091900  1.0  -0.172
  C  C142  1  0.829300  0.159400  0.146400  1.0  -0.1573
  C  C143  1  0.912300  0.095500  0.126600  1.0  0.0949
  C  C144  1  0.824200  0.103700  0.916100  1.0  0.0678
  C  C145  1  0.794600  0.116800  0.848900  1.0  -0.1319
  C  C146  1  0.854800  0.062200  0.811700  1.0  -0.1585
  C  C147  1  0.924400  0.011700  0.854200  1.0  0.0708
  C  C148  1  0.993600  0.049300  0.164800  1.0  -0.0848
  C  C149  1  0.994200  0.070300  0.237300  1.0  0.0505
  C  C150  1  0.879400  0.077800  0.280500  1.0  -0.1227
  C  C151  1  0.886200  0.095800  0.346000  1.0  0.043
  C  C152  1  0.122100  0.081500  0.261300  1.0  -0.1926
  C  C153  1  0.116400  0.103500  0.325100  1.0  0.0428
  C  C154  1  0.011000  0.128500  0.437600  1.0  -0.197
  C  C155  1  0.533500  0.599900  0.102400  1.0  -0.1771
  C  C156  1  0.338200  0.657300  0.066500  1.0  0.045
  C  C157  1  0.247300  0.718000  0.047600  1.0  -0.1644
  C  C158  1  0.292500  0.784800  0.046700  1.0  0.0046
  C  C159  1  0.443200  0.788100  0.048300  1.0  -0.1548
  C  C160  1  0.503000  0.727500  0.071600  1.0  0.1098
  C  C161  1  0.213400  0.853600  0.027400  1.0  -0.0897
  C  C162  1  0.180600  0.863400  0.960600  1.0  0.1812
  C  C163  1  0.226500  0.811400  0.908100  1.0  -0.1723
  C  C164  1  0.170700  0.840600  0.853600  1.0  -0.1571
  C  C165  1  0.087700  0.904500  0.873400  1.0  0.0959
  C  C166  1  0.175800  0.896300  0.083900  1.0  0.0685
  C  C167  1  0.205400  0.883200  0.151100  1.0  -0.1324
  C  C168  1  0.145200  0.937800  0.188300  1.0  -0.1548
  C  C169  1  0.075600  0.988300  0.145800  1.0  0.0703
  C  C170  1  0.006400  0.950700  0.835200  1.0  -0.0844
  C  C171  1  0.005800  0.929700  0.762700  1.0  0.0487
  C  C172  1  0.120600  0.922200  0.719500  1.0  -0.1245
  C  C173  1  0.113800  0.904200  0.654000  1.0  0.0434
  C  C174  1  0.877900  0.918500  0.738700  1.0  -0.1933
  C  C175  1  0.883600  0.896500  0.674900  1.0  0.0429
  C  C176  1  0.989000  0.871500  0.562400  1.0  -0.1986
  N  N177  1  0.900200  0.083500  0.060600  1.0  -0.2901
  N  N178  1  0.901900  0.036200  0.921900  1.0  -0.3044
  N  N179  1  0.001400  0.106600  0.367400  1.0  0.0575
  N  N180  1  0.540000  0.336700  0.923200  1.0  0.0625
  N  N181  1  0.099800  0.916500  0.939400  1.0  -0.2913
  N  N182  1  0.098100  0.963800  0.078100  1.0  -0.3031
  N  N183  1  0.998600  0.893400  0.632600  1.0  0.0568
  N  N184  1  0.460000  0.663300  0.076800  1.0  0.0635
  Cl  Cl185  1  0.729500  0.882300  0.052500  1.0  -0.4768
  Cl  Cl186  1  0.270500  0.117700  0.947500  1.0  -0.4755
  O  O187  1  0.650900  0.533700  0.948100  1.0  -0.5732
  O  O188  1  0.743500  0.629500  0.912600  1.0  -0.7038
  O  O189  1  0.138800  0.548000  0.964100  1.0  -0.6743
  O  O190  1  0.042000  0.608200  0.887700  1.0  -0.6868
  O  O191  1  0.405200  0.888200  0.541100  1.0  -0.613
  O  O192  1  0.578200  0.930900  0.592800  1.0  -0.6056
  O  O193  1  0.169200  0.965000  0.441500  1.0  -0.616
  O  O194  1  0.279200  0.889400  0.381500  1.0  -0.5991
  O  O195  1  0.675000  0.966500  0.457900  1.0  -0.6603
  O  O196  1  0.567600  0.908700  0.395600  1.0  -0.5849
  O  O197  1  0.887800  0.611900  0.053600  1.0  -0.6109
  O  O198  1  0.054100  0.549100  0.103000  1.0  -0.6271
  O  O199  1  0.349100  0.466300  0.051900  1.0  -0.5743
  O  O200  1  0.256500  0.370500  0.087400  1.0  -0.7051
  O  O201  1  0.861200  0.452000  0.035900  1.0  -0.6736
  O  O202  1  0.958000  0.391800  0.112300  1.0  -0.6886
  O  O203  1  0.594800  0.111800  0.458900  1.0  -0.6129
  O  O204  1  0.421800  0.069100  0.407200  1.0  -0.6063
  O  O205  1  0.830800  0.035000  0.558500  1.0  -0.6171
  O  O206  1  0.720800  0.110600  0.618500  1.0  -0.6013
  O  O207  1  0.325000  0.033500  0.542100  1.0  -0.6621
  O  O208  1  0.432400  0.091300  0.604400  1.0  -0.5871
  O  O209  1  0.112200  0.388100  0.946400  1.0  -0.6088
  O  O210  1  0.945900  0.450900  0.897000  1.0  -0.627
