# generated using pymatgen
data_Mn4Cd3H57C98N7(ClO14)2
_symmetry_space_group_name_H-M   'P 1'
_cell_length_a   19.83400000
_cell_length_b   20.22400000
_cell_length_c   20.28400000
_cell_angle_alpha   87.48000000
_cell_angle_beta   64.41800000
_cell_angle_gamma   82.89600000
_symmetry_Int_Tables_number   1
_chemical_formula_structural   Mn4Cd3H57C98N7(ClO14)2
_chemical_formula_sum   'Mn8 Cd6 H114 C196 N14 Cl4 O56'
_cell_volume   7282.01008140
_cell_formula_units_Z   2
loop_
 _symmetry_equiv_pos_site_id
 _symmetry_equiv_pos_as_xyz
  1  'x, y, z'
loop_
 _atom_site_type_symbol
 _atom_site_label
 _atom_site_symmetry_multiplicity
 _atom_site_fract_x
 _atom_site_fract_y
 _atom_site_fract_z
 _atom_site_occupancy
 _atom_site_charge
  Mn  Mn1  1  0.174620  0.957160  0.543310  1.0  1.0999
  Mn  Mn2  1  0.716000  0.462910  0.953420  1.0  1.0949
  Mn  Mn3  1  0.323540  0.045780  0.461980  1.0  1.0919
  Mn  Mn4  1  0.103900  0.872430  0.713400  1.0  1.0946
  Mn  Mn5  1  0.825380  0.042840  0.456690  1.0  1.1018
  Mn  Mn6  1  0.284000  0.537090  0.046580  1.0  1.095
  Mn  Mn7  1  0.676460  0.954220  0.538020  1.0  1.0919
  Mn  Mn8  1  0.896100  0.127570  0.286600  1.0  1.0916
  Cd  Cd9  1  0.219070  0.459480  0.949910  1.0  1.0588
  Cd  Cd10  1  0.780930  0.540520  0.050090  1.0  1.0566
  Cd  Cd11  1  0.941950  0.517810  0.530790  1.0  0.9767
  Cd  Cd12  1  0.058050  0.482190  0.469210  1.0  0.9772
  Cd  Cd13  1  0.555700  0.483250  0.470170  1.0  0.9353
  Cd  Cd14  1  0.444300  0.516750  0.529830  1.0  0.9361
  H  H15  1  0.947800  0.080800  0.835900  1.0  0.1151
  H  H16  1  0.937600  0.187700  0.881600  1.0  0.1219
  H  H17  1  0.127900  0.224000  0.704700  1.0  0.1182
  H  H18  1  0.138100  0.117200  0.658900  1.0  0.1144
  H  H19  1  0.912000  0.309300  0.864500  1.0  0.1191
  H  H20  1  0.011600  0.446700  0.919700  1.0  0.108
  H  H21  1  0.133300  0.274300  0.819200  1.0  0.1249
  H  H22  1  0.218000  0.394100  0.234000  1.0  0.122
  H  H23  1  0.181600  0.309800  0.321000  1.0  0.1186
  H  H24  1  0.113000  0.212900  0.193400  1.0  0.13
  H  H25  1  0.151700  0.296400  0.105800  1.0  0.1035
  H  H26  1  0.212600  0.190900  0.342700  1.0  0.1154
  H  H27  1  0.060500  0.066000  0.460100  1.0  0.0998
  H  H28  1  0.018300  0.194400  0.321100  1.0  0.1065
  H  H29  1  0.356400  0.698200  0.891900  1.0  0.1061
  H  H30  1  0.400600  0.782500  0.803300  1.0  0.1269
  H  H31  1  0.318200  0.696800  0.681300  1.0  0.1115
  H  H32  1  0.283000  0.609700  0.766500  1.0  0.1093
  H  H33  1  0.480800  0.814800  0.683500  1.0  0.1085
  H  H34  1  0.434300  0.946500  0.551800  1.0  0.0894
  H  H35  1  0.285300  0.814900  0.664300  1.0  0.1049
  H  H36  1  0.470300  0.446900  0.947500  1.0  0.1244
  H  H37  1  0.653100  0.319100  0.818900  1.0  0.1192
  H  H38  1  0.445600  0.299600  0.833000  1.0  0.1131
  H  H39  1  0.673200  0.290000  0.694600  1.0  0.1057
  H  H40  1  0.731400  0.201000  0.609700  1.0  0.1273
  H  H41  1  0.563100  0.092900  0.739700  1.0  0.1149
  H  H42  1  0.507000  0.179500  0.819100  1.0  0.1288
  H  H43  1  0.052200  0.919200  0.164100  1.0  0.1149
  H  H44  1  0.062400  0.812300  0.118400  1.0  0.1214
  H  H45  1  0.872100  0.776000  0.295300  1.0  0.1177
  H  H46  1  0.861900  0.882800  0.341100  1.0  0.1137
  H  H47  1  0.088000  0.690700  0.135500  1.0  0.1189
  H  H48  1  0.988400  0.553300  0.080300  1.0  0.1076
  H  H49  1  0.866700  0.725700  0.180800  1.0  0.1257
  H  H50  1  0.782000  0.605900  0.766000  1.0  0.1215
  H  H51  1  0.818400  0.690200  0.679000  1.0  0.1187
  H  H52  1  0.887000  0.787100  0.806600  1.0  0.1311
  H  H53  1  0.848300  0.703600  0.894200  1.0  0.1037
  H  H54  1  0.787400  0.809100  0.657300  1.0  0.116
  H  H55  1  0.939500  0.934000  0.539900  1.0  0.099
  H  H56  1  0.981700  0.805600  0.678900  1.0  0.1068
  H  H57  1  0.643600  0.301800  0.108100  1.0  0.1066
  H  H58  1  0.599400  0.217500  0.196700  1.0  0.1259
  H  H59  1  0.681800  0.303200  0.318700  1.0  0.111
  H  H60  1  0.717000  0.390300  0.233500  1.0  0.1095
  H  H61  1  0.519200  0.185200  0.316500  1.0  0.1089
  H  H62  1  0.565700  0.053500  0.448200  1.0  0.0894
  H  H63  1  0.714700  0.185100  0.335700  1.0  0.1039
  H  H64  1  0.529700  0.553100  0.052500  1.0  0.1242
  H  H65  1  0.346900  0.680900  0.181100  1.0  0.1193
  H  H66  1  0.554400  0.700400  0.167000  1.0  0.1129
  H  H67  1  0.326800  0.710000  0.305400  1.0  0.1051
  H  H68  1  0.268600  0.799000  0.390300  1.0  0.1276
  H  H69  1  0.436900  0.907100  0.260300  1.0  0.1153
  H  H70  1  0.493000  0.820500  0.180900  1.0  0.1282
  H  H71  1  0.858800  0.270800  0.585400  1.0  0.0855
  H  H72  1  0.839000  0.159400  0.613500  1.0  0.1163
  H  H73  1  0.069600  0.232900  0.575500  1.0  0.1355
  H  H74  1  0.039800  0.121000  0.605600  1.0  0.0981
  H  H75  1  0.878200  0.054000  0.634800  1.0  0.1307
  H  H76  1  0.966500  0.031800  0.590400  1.0  0.1122
  H  H77  1  0.932000  0.050600  0.675400  1.0  0.1221
  H  H78  1  0.946700  0.269100  0.446400  1.0  0.1128
  H  H79  1  0.942800  0.337800  0.346400  1.0  0.1275
  H  H80  1  0.977600  0.592400  0.266300  1.0  0.1148
  H  H81  1  0.002900  0.689500  0.315300  1.0  0.1207
  H  H82  1  0.841700  0.459100  0.333333  1.0  0.1369
  H  H83  1  0.833000  0.428800  0.228700  1.0  0.0863
  H  H84  1  0.050800  0.423200  0.110400  1.0  0.1224
  H  H85  1  0.065200  0.451800  0.213300  1.0  0.1034
  H  H86  1  0.987400  0.397500  0.054600  1.0  0.1221
  H  H87  1  0.911000  0.365700  0.102000  1.0  0.1427
  H  H88  1  0.908000  0.442100  0.077900  1.0  0.1406
  H  H89  1  0.141200  0.729200  0.414600  1.0  0.0856
  H  H90  1  0.161000  0.840600  0.386500  1.0  0.1162
  H  H91  1  0.930400  0.767100  0.424500  1.0  0.1359
  H  H92  1  0.960200  0.879000  0.394400  1.0  0.0982
  H  H93  1  0.121800  0.946000  0.365200  1.0  0.1324
  H  H94  1  0.033500  0.968200  0.409600  1.0  0.1151
  H  H95  1  0.068000  0.949400  0.324600  1.0  0.1222
  H  H96  1  0.053300  0.730900  0.553600  1.0  0.1117
  H  H97  1  0.057200  0.662200  0.653600  1.0  0.1276
  H  H98  1  0.022400  0.407600  0.733700  1.0  0.1141
  H  H99  1  0.997100  0.310500  0.684700  1.0  0.1206
  H  H100  1  0.158300  0.540900  0.666667  1.0  0.1374
  H  H101  1  0.167000  0.571200  0.771300  1.0  0.0849
  H  H102  1  0.949200  0.576800  0.889600  1.0  0.1228
  H  H103  1  0.934800  0.548200  0.786700  1.0  0.103
  H  H104  1  0.012600  0.602500  0.945400  1.0  0.1213
  H  H105  1  0.089000  0.634300  0.898000  1.0  0.1436
  H  H106  1  0.092000  0.557900  0.922100  1.0  0.142
  H  H107  1  0.619300  0.621100  0.886000  1.0  0.138
  H  H108  1  0.530500  0.642700  0.926600  1.0  0.1274
  H  H109  1  0.564200  0.567700  0.932500  1.0  0.13
  H  H110  1  0.662800  0.603800  0.762900  1.0  0.0925
  H  H111  1  0.649000  0.579900  0.657600  1.0  0.1335
  H  H112  1  0.442400  0.529800  0.791700  1.0  0.1097
  H  H113  1  0.459900  0.561400  0.889500  1.0  0.1036
  H  H114  1  0.546300  0.676900  0.650000  1.0  0.1284
  H  H115  1  0.545400  0.737300  0.542600  1.0  0.1028
  H  H116  1  0.482100  0.682100  0.318400  1.0  0.107
  H  H117  1  0.469700  0.580800  0.268700  1.0  0.1056
  H  H118  1  0.380700  0.378900  0.114000  1.0  0.1388
  H  H119  1  0.469500  0.357300  0.073400  1.0  0.1272
  H  H120  1  0.435800  0.432300  0.067500  1.0  0.1297
  H  H121  1  0.337200  0.396200  0.237100  1.0  0.0933
  H  H122  1  0.351000  0.420100  0.342400  1.0  0.1337
  H  H123  1  0.557600  0.470200  0.208300  1.0  0.1095
  H  H124  1  0.540100  0.438600  0.110500  1.0  0.1031
  H  H125  1  0.453700  0.323100  0.350000  1.0  0.1295
  H  H126  1  0.454600  0.262700  0.457400  1.0  0.1034
  H  H127  1  0.517900  0.317900  0.681600  1.0  0.1075
  H  H128  1  0.530300  0.419200  0.731300  1.0  0.1054
  C  C129  1  0.151900  0.384800  0.871400  1.0  0.7002
  C  C130  1  0.876300  0.427000  0.931300  1.0  0.6868
  C  C131  1  0.049400  0.020700  0.713300  1.0  0.6794
  C  C132  1  0.043900  0.089000  0.743100  1.0  -0.1222
  C  C133  1  0.984300  0.109900  0.809300  1.0  -0.0373
  C  C134  1  0.978300  0.173400  0.836400  1.0  -0.1367
  C  C135  1  0.031800  0.215900  0.797500  1.0  0.0602
  C  C136  1  0.091300  0.194900  0.731300  1.0  -0.1309
  C  C137  1  0.097400  0.131500  0.704100  1.0  -0.0864
  C  C138  1  0.023300  0.282100  0.837000  1.0  0.0595
  C  C139  1  0.955400  0.323100  0.865800  1.0  -0.0696
  C  C140  1  0.951100  0.384500  0.896600  1.0  -0.122
  C  C141  1  0.014600  0.404800  0.898600  1.0  -0.0599
  C  C142  1  0.082500  0.363700  0.869700  1.0  -0.126
  C  C143  1  0.086900  0.302400  0.838900  1.0  -0.0678
  C  C144  1  0.216500  0.404300  0.100100  1.0  0.6894
  C  C145  1  0.191200  0.351100  0.157700  1.0  -0.0556
  C  C146  1  0.198200  0.356700  0.225200  1.0  -0.0362
  C  C147  1  0.175800  0.307000  0.277100  1.0  -0.1422
  C  C148  1  0.145200  0.253500  0.265400  1.0  0.0511
  C  C149  1  0.135200  0.249100  0.201200  1.0  -0.1367
  C  C150  1  0.158800  0.299100  0.149000  1.0  -0.0118
  C  C151  1  0.121300  0.200300  0.321800  1.0  0.0391
  C  C152  1  0.165700  0.174600  0.354900  1.0  -0.0486
  C  C153  1  0.141700  0.122500  0.408400  1.0  -0.1508
  C  C154  1  0.075400  0.100800  0.425500  1.0  -0.079
  C  C155  1  0.025900  0.127000  0.394500  1.0  -0.0984
  C  C156  1  0.050000  0.176000  0.343100  1.0  -0.0892
  C  C157  1  0.951900  0.101300  0.421400  1.0  0.6224
  C  C158  1  0.196200  0.091100  0.438900  1.0  0.7151
  C  C159  1  0.287800  0.593200  0.895800  1.0  0.6713
  C  C160  1  0.315200  0.648100  0.839100  1.0  -0.1693
  C  C161  1  0.348900  0.697400  0.848700  1.0  -0.0373
  C  C162  1  0.374200  0.749400  0.796300  1.0  -0.1522
  C  C163  1  0.359900  0.750700  0.737100  1.0  0.0936
  C  C164  1  0.326100  0.697400  0.724200  1.0  -0.1128
  C  C165  1  0.304600  0.645900  0.775200  1.0  -0.0391
  C  C166  1  0.379300  0.805400  0.682000  1.0  0.033
  C  C167  1  0.447800  0.832300  0.662600  1.0  -0.0406
  C  C168  1  0.467600  0.885800  0.611700  1.0  -0.0921
  C  C169  1  0.419900  0.911700  0.586400  1.0  -0.0441
  C  C170  1  0.347400  0.891000  0.607900  1.0  -0.1117
  C  C171  1  0.330500  0.833700  0.653500  1.0  -0.0531
  C  C172  1  0.291500  0.919700  0.582100  1.0  0.554
  C  C173  1  0.545400  0.908700  0.586800  1.0  0.6888
  C  C174  1  0.367200  0.408400  0.915500  1.0  0.6771
  C  C175  1  0.447000  0.378100  0.890600  1.0  -0.1086
  C  C176  1  0.491900  0.410500  0.914000  1.0  -0.1593
  C  C177  1  0.569400  0.388000  0.887200  1.0  -0.1163
  C  C178  1  0.615300  0.419300  0.913300  1.0  0.6973
  C  C179  1  0.600700  0.333400  0.838000  1.0  -0.1153
  C  C180  1  0.554400  0.299900  0.816800  1.0  0.043
  C  C181  1  0.477600  0.322800  0.845300  1.0  -0.0784
  C  C182  1  0.587700  0.243200  0.765900  1.0  0.0581
  C  C183  1  0.651400  0.249300  0.703500  1.0  -0.1992
  C  C184  1  0.685700  0.196800  0.651900  1.0  -0.1055
  C  C185  1  0.650600  0.137700  0.664200  1.0  -0.0912
  C  C186  1  0.585300  0.133400  0.729400  1.0  -0.0536
  C  C187  1  0.553000  0.183500  0.777300  1.0  -0.161
  C  C188  1  0.687700  0.082200  0.607300  1.0  0.7179
  C  C189  1  0.848100  0.615200  0.128600  1.0  0.7013
  C  C190  1  0.123700  0.573000  0.068700  1.0  0.6875
  C  C191  1  0.950600  0.979300  0.286700  1.0  0.6813
  C  C192  1  0.956100  0.911000  0.256900  1.0  -0.1236
  C  C193  1  0.015700  0.890100  0.190700  1.0  -0.0372
  C  C194  1  0.021700  0.826600  0.163600  1.0  -0.1362
  C  C195  1  0.968200  0.784100  0.202500  1.0  0.0582
  C  C196  1  0.908700  0.805100  0.268700  1.0  -0.1313
  C  C197  1  0.902600  0.868500  0.295900  1.0  -0.0857
  C  C198  1  0.976700  0.717900  0.163000  1.0  0.0591
  C  C199  1  0.044600  0.676900  0.134200  1.0  -0.0681
  C  C200  1  0.048900  0.615500  0.103400  1.0  -0.1204
  C  C201  1  0.985400  0.595200  0.101400  1.0  -0.0606
  C  C202  1  0.917500  0.636300  0.130300  1.0  -0.1259
  C  C203  1  0.913100  0.697600  0.161100  1.0  -0.0698
  C  C204  1  0.783500  0.595700  0.899900  1.0  0.6899
  C  C205  1  0.808800  0.648900  0.842300  1.0  -0.0551
  C  C206  1  0.801800  0.643300  0.774800  1.0  -0.038
  C  C207  1  0.824200  0.693000  0.722900  1.0  -0.1402
  C  C208  1  0.854800  0.746500  0.734600  1.0  0.0508
  C  C209  1  0.864800  0.750900  0.798800  1.0  -0.1369
  C  C210  1  0.841200  0.700900  0.851000  1.0  -0.014
  C  C211  1  0.878700  0.799700  0.678200  1.0  0.0378
  C  C212  1  0.834300  0.825400  0.645100  1.0  -0.0499
  C  C213  1  0.858300  0.877500  0.591600  1.0  -0.1498
  C  C214  1  0.924600  0.899200  0.574500  1.0  -0.0783
  C  C215  1  0.974100  0.873000  0.605500  1.0  -0.0984
  C  C216  1  0.950000  0.824000  0.656900  1.0  -0.0906
  C  C217  1  0.048100  0.898700  0.578600  1.0  0.6255
  C  C218  1  0.803800  0.908900  0.561100  1.0  0.7138
  C  C219  1  0.712200  0.406800  0.104200  1.0  0.6721
  C  C220  1  0.684800  0.351900  0.160900  1.0  -0.1692
  C  C221  1  0.651100  0.302600  0.151300  1.0  -0.0387
  C  C222  1  0.625800  0.250600  0.203700  1.0  -0.15
  C  C223  1  0.640100  0.249300  0.262900  1.0  0.0935
  C  C224  1  0.673900  0.302600  0.275800  1.0  -0.1134
  C  C225  1  0.695400  0.354100  0.224800  1.0  -0.0392
  C  C226  1  0.620700  0.194600  0.318000  1.0  0.033
  C  C227  1  0.552200  0.167700  0.337400  1.0  -0.0407
  C  C228  1  0.532400  0.114200  0.388300  1.0  -0.0955
  C  C229  1  0.580100  0.088300  0.413600  1.0  -0.0435
  C  C230  1  0.652600  0.109000  0.392100  1.0  -0.1137
  C  C231  1  0.669500  0.166300  0.346500  1.0  -0.0524
  C  C232  1  0.708500  0.080300  0.417900  1.0  0.5563
  C  C233  1  0.454600  0.091300  0.413200  1.0  0.6878
  C  C234  1  0.632800  0.591600  0.084500  1.0  0.6772
  C  C235  1  0.553000  0.621900  0.109400  1.0  -0.1076
  C  C236  1  0.508100  0.589500  0.086000  1.0  -0.1574
  C  C237  1  0.430600  0.612000  0.112800  1.0  -0.1148
  C  C238  1  0.384700  0.580700  0.086700  1.0  0.6971
  C  C239  1  0.399300  0.666667  0.162000  1.0  -0.117
  C  C240  1  0.445600  0.700100  0.183200  1.0  0.0441
  C  C241  1  0.522400  0.677200  0.154700  1.0  -0.081
  C  C242  1  0.412300  0.756800  0.234100  1.0  0.0591
  C  C243  1  0.348600  0.750700  0.296500  1.0  -0.1995
  C  C244  1  0.314300  0.803200  0.348100  1.0  -0.1072
  C  C245  1  0.349400  0.862300  0.335800  1.0  -0.0887
  C  C246  1  0.414700  0.866600  0.270600  1.0  -0.0534
  C  C247  1  0.447000  0.816500  0.222700  1.0  -0.1615
  C  C248  1  0.312300  0.917800  0.392700  1.0  0.7182
  C  C249  1  0.963900  0.355200  0.489200  1.0  0.0823
  C  C250  1  0.975200  0.336100  0.554400  1.0  -0.058
  C  C251  1  0.962300  0.264300  0.575000  1.0  0.0411
  C  C252  1  0.898400  0.240800  0.588000  1.0  -0.0646
  C  C253  1  0.885700  0.174000  0.605400  1.0  0.0303
  C  C254  1  0.022900  0.219500  0.582100  1.0  -0.0795
  C  C255  1  0.002900  0.152700  0.600400  1.0  0.1015
  C  C256  1  0.928400  0.061000  0.629300  1.0  -0.1441
  C  C257  1  0.952300  0.315200  0.440800  1.0  -0.1323
  C  C258  1  0.950500  0.352300  0.386300  1.0  -0.1545
  C  C259  1  0.962200  0.419100  0.398400  1.0  0.1788
  C  C260  1  0.963700  0.473900  0.352800  1.0  -0.0301
  C  C261  1  0.978500  0.538500  0.360200  1.0  0.1954
  C  C262  1  0.983800  0.593800  0.310100  1.0  -0.1352
  C  C263  1  0.998600  0.646300  0.335900  1.0  -0.1614
  C  C264  1  0.993000  0.374700  0.597900  1.0  0.2076
  C  C265  1  0.955500  0.460600  0.284200  1.0  0.0857
  C  C266  1  0.885500  0.452600  0.288300  1.0  -0.2023
  C  C267  1  0.880900  0.435200  0.225600  1.0  0.1158
  C  C268  1  0.008200  0.431400  0.156000  1.0  0.0234
  C  C269  1  0.016200  0.448400  0.217500  1.0  -0.1225
  C  C270  1  0.936100  0.406200  0.093200  1.0  -0.176
  C  C271  1  0.036100  0.644800  0.510800  1.0  0.0825
  C  C272  1  0.024800  0.663900  0.445600  1.0  -0.0585
  C  C273  1  0.037700  0.735700  0.425000  1.0  0.0423
  C  C274  1  0.101600  0.759200  0.412000  1.0  -0.0621
  C  C275  1  0.114300  0.826000  0.394600  1.0  0.0288
  C  C276  1  0.977100  0.780500  0.417900  1.0  -0.0813
  C  C277  1  0.997100  0.847300  0.399600  1.0  0.1008
  C  C278  1  0.071600  0.939000  0.370700  1.0  -0.1452
  C  C279  1  0.047700  0.684800  0.559200  1.0  -0.1307
  C  C280  1  0.049500  0.647700  0.613700  1.0  -0.1522
  C  C281  1  0.037800  0.580900  0.601600  1.0  0.1789
  C  C282  1  0.036300  0.526100  0.647200  1.0  -0.0311
  C  C283  1  0.021500  0.461500  0.639800  1.0  0.1957
  C  C284  1  0.016200  0.406200  0.689900  1.0  -0.1344
  C  C285  1  0.001400  0.353700  0.664100  1.0  -0.161
  C  C286  1  0.007000  0.625300  0.402100  1.0  0.207
  C  C287  1  0.044500  0.539400  0.715800  1.0  0.086
  C  C288  1  0.114500  0.547400  0.711700  1.0  -0.2025
  C  C289  1  0.119100  0.564800  0.774400  1.0  0.1137
  C  C290  1  0.991800  0.568600  0.844000  1.0  0.0217
  C  C291  1  0.983800  0.551600  0.782500  1.0  -0.1216
  C  C292  1  0.063900  0.593800  0.906800  1.0  -0.1758
  C  C293  1  0.569600  0.606400  0.900500  1.0  -0.1965
  C  C294  1  0.616400  0.590600  0.767900  1.0  0.0755
  C  C295  1  0.609100  0.575300  0.704600  1.0  -0.1465
  C  C296  1  0.543000  0.553400  0.711400  1.0  0.1471
  C  C297  1  0.487700  0.546900  0.783600  1.0  -0.2086
  C  C298  1  0.498600  0.565000  0.841600  1.0  0.107
  C  C299  1  0.533500  0.591100  0.599800  1.0  0.0804
  C  C300  1  0.532700  0.536900  0.649700  1.0  0.0318
  C  C301  1  0.541200  0.658800  0.610200  1.0  -0.1624
  C  C302  1  0.539600  0.691400  0.552000  1.0  -0.0386
  C  C303  1  0.528100  0.647700  0.506600  1.0  0.1374
  C  C304  1  0.518600  0.662600  0.442200  1.0  0.0135
  C  C305  1  0.500400  0.622700  0.399300  1.0  0.0684
  C  C306  1  0.485200  0.638800  0.337700  1.0  -0.1328
  C  C307  1  0.476300  0.584200  0.312100  1.0  -0.1226
  C  C308  1  0.522200  0.469300  0.640900  1.0  0.0667
  C  C309  1  0.430400  0.393600  0.099500  1.0  -0.1972
  C  C310  1  0.383600  0.409400  0.232100  1.0  0.0737
  C  C311  1  0.390900  0.424700  0.295400  1.0  -0.1489
  C  C312  1  0.457000  0.446600  0.288600  1.0  0.1475
  C  C313  1  0.512300  0.453100  0.216400  1.0  -0.2091
  C  C314  1  0.501400  0.435000  0.158400  1.0  0.1076
  C  C315  1  0.466500  0.408900  0.400200  1.0  0.0799
  C  C316  1  0.467300  0.463100  0.350300  1.0  0.0309
  C  C317  1  0.458800  0.341200  0.389800  1.0  -0.1635
  C  C318  1  0.460400  0.308600  0.448000  1.0  -0.0374
  C  C319  1  0.471900  0.352300  0.493400  1.0  0.1379
  C  C320  1  0.481400  0.337400  0.557800  1.0  0.0113
  C  C321  1  0.499600  0.377300  0.600700  1.0  0.067
  C  C322  1  0.514800  0.361200  0.662300  1.0  -0.1348
  C  C323  1  0.523700  0.415800  0.687900  1.0  -0.1212
  C  C324  1  0.477800  0.530700  0.359100  1.0  0.0671
  N  N325  1  0.969400  0.420600  0.461700  1.0  -0.2934
  N  N326  1  0.990100  0.560400  0.416600  1.0  -0.275
  N  N327  1  0.938900  0.426900  0.162600  1.0  0.0761
  N  N328  1  0.940800  0.131200  0.610400  1.0  0.0785
  N  N329  1  0.030600  0.579400  0.538300  1.0  -0.2929
  N  N330  1  0.009900  0.439600  0.583400  1.0  -0.275
  N  N331  1  0.061100  0.573100  0.837400  1.0  0.0762
  N  N332  1  0.059200  0.868800  0.389600  1.0  0.0801
  N  N333  1  0.522400  0.585400  0.538100  1.0  -0.2905
  N  N334  1  0.494500  0.554100  0.412200  1.0  -0.268
  N  N335  1  0.561900  0.587500  0.833400  1.0  0.0885
  N  N336  1  0.477600  0.414600  0.461900  1.0  -0.2901
  N  N337  1  0.505500  0.445900  0.587800  1.0  -0.2675
  N  N338  1  0.438100  0.412500  0.166600  1.0  0.0874
  Cl  Cl339  1  0.805100  0.555700  0.617100  1.0  -0.4892
  Cl  Cl340  1  0.194900  0.444300  0.382900  1.0  -0.4907
  Cl  Cl341  1  0.691700  0.448100  0.391000  1.0  -0.5383
  Cl  Cl342  1  0.308300  0.551900  0.609000  1.0  -0.539
  O  O343  1  0.144300  0.767300  0.693900  1.0  -0.2441
  O  O344  1  0.147700  0.874800  0.796000  1.0  -0.285
  O  O345  1  0.993400  0.852200  0.793300  1.0  -0.3274
  O  O346  1  0.289500  0.135400  0.544200  1.0  -0.2527
  O  O347  1  0.214100  0.362500  0.820400  1.0  -0.5358
  O  O348  1  0.142400  0.430000  0.915300  1.0  -0.5919
  O  O349  1  0.866000  0.471300  0.977700  1.0  -0.6224
  O  O350  1  0.826300  0.419000  0.911500  1.0  -0.5969
  O  O351  1  0.091500  0.014500  0.646900  1.0  -0.6798
  O  O352  1  0.012700  0.977300  0.755900  1.0  -0.6724
  O  O353  1  0.259600  0.104600  0.414500  1.0  -0.5795
  O  O354  1  0.169500  0.053500  0.491400  1.0  -0.6596
  O  O355  1  0.929900  0.062900  0.467300  1.0  -0.5777
  O  O356  1  0.916500  0.125000  0.390800  1.0  -0.6675
  O  O357  1  0.249400  0.448400  0.111300  1.0  -0.5961
  O  O358  1  0.196700  0.400000  0.048300  1.0  -0.6292
  O  O359  1  0.259500  0.549300  0.882700  1.0  -0.5704
  O  O360  1  0.306100  0.599200  0.949100  1.0  -0.6237
  O  O361  1  0.289200  0.982700  0.566000  1.0  -0.7787
  O  O362  1  0.224900  0.908100  0.611400  1.0  -0.6339
  O  O363  1  0.577200  0.897800  0.623700  1.0  -0.5856
  O  O364  1  0.564300  0.946500  0.534500  1.0  -0.6058
  O  O365  1  0.343900  0.461000  0.952500  1.0  -0.6784
  O  O366  1  0.325700  0.381100  0.892500  1.0  -0.6205
  O  O367  1  0.591300  0.452100  0.970300  1.0  -0.5929
  O  O368  1  0.686900  0.413500  0.872000  1.0  -0.6381
  O  O369  1  0.754600  0.083100  0.563700  1.0  -0.6052
  O  O370  1  0.646400  0.037700  0.609800  1.0  -0.62
  O  O371  1  0.855700  0.232700  0.306100  1.0  -0.2431
  O  O372  1  0.852300  0.125200  0.204000  1.0  -0.2836
  O  O373  1  0.006600  0.147800  0.206700  1.0  -0.3256
  O  O374  1  0.710500  0.864600  0.455800  1.0  -0.2525
  O  O375  1  0.785900  0.637500  0.179600  1.0  -0.533
  O  O376  1  0.857600  0.570000  0.084700  1.0  -0.5914
  O  O377  1  0.134000  0.528700  0.022300  1.0  -0.6212
  O  O378  1  0.173700  0.581000  0.088500  1.0  -0.5961
  O  O379  1  0.908500  0.985500  0.353100  1.0  -0.6817
  O  O380  1  0.987300  0.022700  0.244100  1.0  -0.673
  O  O381  1  0.740400  0.895400  0.585500  1.0  -0.5772
  O  O382  1  0.830500  0.946500  0.508600  1.0  -0.66
  O  O383  1  0.070100  0.937100  0.532700  1.0  -0.5765
  O  O384  1  0.083500  0.875000  0.609200  1.0  -0.6662
  O  O385  1  0.750600  0.551600  0.888700  1.0  -0.5967
  O  O386  1  0.803300  0.600000  0.951700  1.0  -0.6294
  O  O387  1  0.740500  0.450700  0.117300  1.0  -0.5713
  O  O388  1  0.693900  0.400800  0.050900  1.0  -0.6235
  O  O389  1  0.710800  0.017300  0.434000  1.0  -0.778
  O  O390  1  0.775100  0.091900  0.388600  1.0  -0.6337
  O  O391  1  0.422800  0.102200  0.376300  1.0  -0.5856
  O  O392  1  0.435700  0.053500  0.465500  1.0  -0.6059
  O  O393  1  0.656100  0.539000  0.047500  1.0  -0.6778
  O  O394  1  0.674300  0.618900  0.107500  1.0  -0.6208
  O  O395  1  0.408700  0.547900  0.029700  1.0  -0.594
  O  O396  1  0.313100  0.586500  0.128000  1.0  -0.6373
  O  O397  1  0.245400  0.916900  0.436300  1.0  -0.6019
  O  O398  1  0.353600  0.962300  0.390200  1.0  -0.6202
