# generated using pymatgen
data_Cu5H40Rh2C60N10(Cl2O11)2
_symmetry_space_group_name_H-M   'P 1'
_cell_length_a   15.65300000
_cell_length_b   16.07910000
_cell_length_c   16.07910000
_cell_angle_alpha   112.32300000
_cell_angle_beta   90.81180000
_cell_angle_gamma   90.81180000
_symmetry_Int_Tables_number   1
_chemical_formula_structural   Cu5H40Rh2C60N10(Cl2O11)2
_chemical_formula_sum   'Cu10 H80 Rh4 C120 N20 Cl8 O44'
_cell_volume   3742.39035711
_cell_formula_units_Z   2
loop_
 _symmetry_equiv_pos_site_id
 _symmetry_equiv_pos_as_xyz
  1  'x, y, z'
loop_
 _atom_site_type_symbol
 _atom_site_label
 _atom_site_symmetry_multiplicity
 _atom_site_fract_x
 _atom_site_fract_y
 _atom_site_fract_z
 _atom_site_occupancy
 _atom_site_charge
  Cu  Cu1  1  0.065380  0.204900  0.717960  1.0  0.9161
  Cu  Cu2  1  0.431360  0.812540  0.340940  1.0  1.0177
  Cu  Cu3  1  0.434620  0.282040  0.795100  1.0  0.9166
  Cu  Cu4  1  0.068640  0.659060  0.187460  1.0  1.0199
  Cu  Cu5  1  0.934620  0.795100  0.282040  1.0  0.9175
  Cu  Cu6  1  0.568640  0.187460  0.659060  1.0  1.018
  Cu  Cu7  1  0.565380  0.717960  0.204900  1.0  0.9163
  Cu  Cu8  1  0.931360  0.340940  0.812540  1.0  1.0203
  Cu  Cu9  1  0.250000  0.771310  0.228690  1.0  1.0006
  Cu  Cu10  1  0.750000  0.228690  0.771310  1.0  1.0036
  H  H11  1  0.158600  0.156000  0.092200  1.0  0.1046
  H  H12  1  0.104200  0.157500  0.957100  1.0  0.1421
  H  H13  1  0.056300  0.421500  0.085500  1.0  0.1333
  H  H14  1  0.121700  0.416900  0.214900  1.0  0.1069
  H  H15  1  0.773600  0.896900  0.710700  1.0  0.1033
  H  H16  1  0.857200  0.019300  0.716500  1.0  0.1361
  H  H17  1  0.064400  0.890200  0.757800  1.0  0.1257
  H  H18  1  0.975800  0.771800  0.750800  1.0  0.1008
  H  H19  1  0.778400  0.409300  0.459500  1.0  0.0972
  H  H20  1  0.850700  0.413000  0.588400  1.0  0.1515
  H  H21  1  0.887500  0.144100  0.464100  1.0  0.1356
  H  H22  1  0.808300  0.147600  0.340000  1.0  0.0992
  H  H23  1  0.331600  0.540700  0.718300  1.0  0.0991
  H  H24  1  0.262900  0.418100  0.732900  1.0  0.1312
  H  H25  1  0.036400  0.536800  0.730200  1.0  0.1372
  H  H26  1  0.111200  0.653600  0.711400  1.0  0.1006
  H  H27  1  0.037700  0.079000  0.529000  1.0  0.1093
  H  H28  1  0.106000  0.963900  0.419300  1.0  0.1267
  H  H29  1  0.324100  0.037700  0.568100  1.0  0.1317
  H  H30  1  0.249600  0.150900  0.676500  1.0  0.0904
  H  H31  1  0.341400  0.907800  0.844000  1.0  0.1048
  H  H32  1  0.395800  0.042900  0.842500  1.0  0.1404
  H  H33  1  0.443700  0.914500  0.578500  1.0  0.1344
  H  H34  1  0.378300  0.785100  0.583100  1.0  0.1063
  H  H35  1  0.726400  0.289300  0.103100  1.0  0.1028
  H  H36  1  0.642800  0.283500  0.980700  1.0  0.1359
  H  H37  1  0.435600  0.242200  0.109800  1.0  0.1253
  H  H38  1  0.524200  0.249200  0.228200  1.0  0.1011
  H  H39  1  0.721600  0.540500  0.590700  1.0  0.0976
  H  H40  1  0.649300  0.411600  0.587000  1.0  0.1517
  H  H41  1  0.612500  0.535900  0.855900  1.0  0.136
  H  H42  1  0.691700  0.660000  0.852400  1.0  0.0974
  H  H43  1  0.168400  0.281700  0.459300  1.0  0.1001
  H  H44  1  0.237100  0.267100  0.581900  1.0  0.1324
  H  H45  1  0.463600  0.269800  0.463200  1.0  0.1368
  H  H46  1  0.388800  0.288600  0.346400  1.0  0.1007
  H  H47  1  0.462300  0.471000  0.921000  1.0  0.1086
  H  H48  1  0.394000  0.580700  0.036100  1.0  0.126
  H  H49  1  0.175900  0.431900  0.962300  1.0  0.1313
  H  H50  1  0.250400  0.323500  0.849100  1.0  0.0911
  H  H51  1  0.841400  0.844000  0.907800  1.0  0.1056
  H  H52  1  0.895800  0.842500  0.042900  1.0  0.1415
  H  H53  1  0.943700  0.578500  0.914500  1.0  0.133
  H  H54  1  0.878300  0.583100  0.785100  1.0  0.1069
  H  H55  1  0.226400  0.103100  0.289300  1.0  0.1031
  H  H56  1  0.142800  0.980700  0.283500  1.0  0.1354
  H  H57  1  0.935600  0.109800  0.242200  1.0  0.1251
  H  H58  1  0.024200  0.228200  0.249200  1.0  0.1006
  H  H59  1  0.221600  0.590700  0.540500  1.0  0.097
  H  H60  1  0.149300  0.587000  0.411600  1.0  0.1515
  H  H61  1  0.112500  0.855900  0.535900  1.0  0.1347
  H  H62  1  0.191700  0.852400  0.660000  1.0  0.0992
  H  H63  1  0.668400  0.459300  0.281700  1.0  0.0999
  H  H64  1  0.737100  0.581900  0.267100  1.0  0.1315
  H  H65  1  0.963600  0.463200  0.269800  1.0  0.1372
  H  H66  1  0.888800  0.346400  0.288600  1.0  0.1006
  H  H67  1  0.962300  0.921000  0.471000  1.0  0.1092
  H  H68  1  0.894000  0.036100  0.580700  1.0  0.1261
  H  H69  1  0.675900  0.962300  0.431900  1.0  0.1316
  H  H70  1  0.750400  0.849100  0.323500  1.0  0.0897
  H  H71  1  0.658600  0.092200  0.156000  1.0  0.1064
  H  H72  1  0.604200  0.957100  0.157500  1.0  0.1403
  H  H73  1  0.556300  0.085500  0.421500  1.0  0.1341
  H  H74  1  0.621700  0.214900  0.416900  1.0  0.106
  H  H75  1  0.273600  0.710700  0.896900  1.0  0.1029
  H  H76  1  0.357200  0.716500  0.019300  1.0  0.137
  H  H77  1  0.564400  0.757800  0.890200  1.0  0.1257
  H  H78  1  0.475800  0.750800  0.771800  1.0  0.1009
  H  H79  1  0.278400  0.459500  0.409300  1.0  0.0971
  H  H80  1  0.350700  0.588400  0.413000  1.0  0.1512
  H  H81  1  0.387500  0.464100  0.144100  1.0  0.1353
  H  H82  1  0.308300  0.340000  0.147600  1.0  0.0978
  H  H83  1  0.831600  0.718300  0.540700  1.0  0.1
  H  H84  1  0.762900  0.732900  0.418100  1.0  0.1317
  H  H85  1  0.536400  0.730200  0.536800  1.0  0.1368
  H  H86  1  0.611200  0.711400  0.653600  1.0  0.1009
  H  H87  1  0.537700  0.529000  0.079000  1.0  0.1085
  H  H88  1  0.606000  0.419300  0.963900  1.0  0.1268
  H  H89  1  0.824100  0.568100  0.037700  1.0  0.1312
  H  H90  1  0.749600  0.676500  0.150900  1.0  0.0907
  Rh  Rh91  1  0.209340  0.284490  0.277350  1.0  0.6463
  Rh  Rh92  1  0.290660  0.722650  0.715510  1.0  0.6445
  Rh  Rh93  1  0.790660  0.715510  0.722650  1.0  0.645
  Rh  Rh94  1  0.709340  0.277350  0.284490  1.0  0.6459
  C  C95  1  0.140400  0.211200  0.090000  1.0  0.1735
  C  C96  1  0.106900  0.211300  0.009300  1.0  -0.145
  C  C97  1  0.077500  0.291200  0.006400  1.0  -0.1116
  C  C98  1  0.080000  0.367200  0.084600  1.0  -0.0888
  C  C99  1  0.117400  0.363500  0.162100  1.0  0.1586
  C  C100  1  0.045100  0.294000  0.920200  1.0  0.7175
  C  C101  1  0.833700  0.895700  0.719500  1.0  0.1739
  C  C102  1  0.882900  0.968800  0.722800  1.0  -0.1375
  C  C103  1  0.971000  0.967100  0.735300  1.0  -0.0503
  C  C104  1  0.004800  0.892400  0.747000  1.0  -0.1242
  C  C105  1  0.951800  0.822200  0.743000  1.0  0.1785
  C  C106  1  0.031200  0.042300  0.735300  1.0  0.6474
  C  C107  1  0.799000  0.354700  0.461700  1.0  0.1746
  C  C108  1  0.841900  0.357500  0.538700  1.0  -0.15
  C  C109  1  0.872100  0.277300  0.542100  1.0  -0.1137
  C  C110  1  0.863200  0.198500  0.465900  1.0  -0.1152
  C  C111  1  0.817200  0.201600  0.391400  1.0  0.1596
  C  C112  1  0.911900  0.278100  0.628300  1.0  0.694
  C  C113  1  0.271100  0.540100  0.721500  1.0  0.175
  C  C114  1  0.230500  0.466500  0.730100  1.0  -0.1033
  C  C115  1  0.143100  0.464400  0.734600  1.0  -0.0825
  C  C116  1  0.097100  0.536300  0.727900  1.0  -0.1249
  C  C117  1  0.142100  0.606000  0.718000  1.0  0.1752
  C  C118  1  0.093600  0.391000  0.750600  1.0  0.7061
  C  C119  1  0.096500  0.070000  0.537600  1.0  0.1653
  C  C120  1  0.136900  0.001400  0.471800  1.0  -0.1511
  C  C121  1  0.221200  0.987300  0.482100  1.0  -0.1567
  C  C122  1  0.264900  0.044700  0.559500  1.0  -0.1243
  C  C123  1  0.219800  0.112400  0.623800  1.0  0.1812
  C  C124  1  0.268500  0.910400  0.413400  1.0  0.6748
  C  C125  1  0.359600  0.910000  0.788800  1.0  0.1713
  C  C126  1  0.393100  0.990700  0.788700  1.0  -0.1463
  C  C127  1  0.422500  0.993600  0.708800  1.0  -0.1115
  C  C128  1  0.420000  0.915400  0.632800  1.0  -0.0911
  C  C129  1  0.382600  0.837900  0.636500  1.0  0.1591
  C  C130  1  0.454900  0.079800  0.706000  1.0  0.7154
  C  C131  1  0.666300  0.280500  0.104300  1.0  0.1737
  C  C132  1  0.617100  0.277200  0.031200  1.0  -0.1349
  C  C133  1  0.529000  0.264700  0.032900  1.0  -0.0516
  C  C134  1  0.495200  0.253000  0.107600  1.0  -0.1207
  C  C135  1  0.548200  0.257000  0.177800  1.0  0.1816
  C  C136  1  0.468800  0.264700  0.957700  1.0  0.6483
  C  C137  1  0.701000  0.538300  0.645300  1.0  0.1751
  C  C138  1  0.658100  0.461300  0.642500  1.0  -0.1506
  C  C139  1  0.627900  0.457900  0.722700  1.0  -0.1142
  C  C140  1  0.636800  0.534100  0.801500  1.0  -0.1174
  C  C141  1  0.682800  0.608600  0.798400  1.0  0.1603
  C  C142  1  0.588100  0.371700  0.721900  1.0  0.6954
  C  C143  1  0.228900  0.278500  0.459900  1.0  0.1758
  C  C144  1  0.269500  0.269900  0.533500  1.0  -0.1021
  C  C145  1  0.356900  0.265400  0.535600  1.0  -0.0827
  C  C146  1  0.402900  0.272100  0.463700  1.0  -0.1212
  C  C147  1  0.357900  0.282000  0.394000  1.0  0.1766
  C  C148  1  0.406400  0.249400  0.609000  1.0  0.7069
  C  C149  1  0.403500  0.462400  0.930000  1.0  0.1635
  C  C150  1  0.363100  0.528200  0.998600  1.0  -0.1504
  C  C151  1  0.278800  0.517900  0.012700  1.0  -0.1577
  C  C152  1  0.235100  0.440500  0.955300  1.0  -0.1217
  C  C153  1  0.280200  0.376200  0.887600  1.0  0.1812
  C  C154  1  0.231500  0.586600  0.089600  1.0  0.674
  C  C155  1  0.859600  0.788800  0.910000  1.0  0.1726
  C  C156  1  0.893100  0.788700  0.990700  1.0  -0.1464
  C  C157  1  0.922500  0.708800  0.993600  1.0  -0.111
  C  C158  1  0.920000  0.632800  0.915400  1.0  -0.0885
  C  C159  1  0.882600  0.636500  0.837900  1.0  0.1587
  C  C160  1  0.954900  0.706000  0.079800  1.0  0.716
  C  C161  1  0.166300  0.104300  0.280500  1.0  0.1739
  C  C162  1  0.117100  0.031200  0.277200  1.0  -0.1365
  C  C163  1  0.029000  0.032900  0.264700  1.0  -0.0538
  C  C164  1  0.995200  0.107600  0.253000  1.0  -0.1225
  C  C165  1  0.048200  0.177800  0.257000  1.0  0.1791
  C  C166  1  0.968800  0.957700  0.264700  1.0  0.6458
  C  C167  1  0.201000  0.645300  0.538300  1.0  0.1743
  C  C168  1  0.158100  0.642500  0.461300  1.0  -0.149
  C  C169  1  0.127900  0.722700  0.457900  1.0  -0.1146
  C  C170  1  0.136800  0.801500  0.534100  1.0  -0.1154
  C  C171  1  0.182800  0.798400  0.608600  1.0  0.1597
  C  C172  1  0.088100  0.721900  0.371700  1.0  0.6958
  C  C173  1  0.728900  0.459900  0.278500  1.0  0.1756
  C  C174  1  0.769500  0.533500  0.269900  1.0  -0.1039
  C  C175  1  0.856900  0.535600  0.265400  1.0  -0.0821
  C  C176  1  0.902900  0.463700  0.272100  1.0  -0.1222
  C  C177  1  0.857900  0.394000  0.282000  1.0  0.1753
  C  C178  1  0.906400  0.609000  0.249400  1.0  0.7067
  C  C179  1  0.903500  0.930000  0.462400  1.0  0.1637
  C  C180  1  0.863100  0.998600  0.528200  1.0  -0.1519
  C  C181  1  0.778800  0.012700  0.517900  1.0  -0.1576
  C  C182  1  0.735100  0.955300  0.440500  1.0  -0.1216
  C  C183  1  0.780200  0.887600  0.376200  1.0  0.1807
  C  C184  1  0.731500  0.089600  0.586600  1.0  0.6735
  C  C185  1  0.640400  0.090000  0.211200  1.0  0.1743
  C  C186  1  0.606900  0.009300  0.211300  1.0  -0.1461
  C  C187  1  0.577500  0.006400  0.291200  1.0  -0.1116
  C  C188  1  0.580000  0.084600  0.367200  1.0  -0.0915
  C  C189  1  0.617400  0.162100  0.363500  1.0  0.1586
  C  C190  1  0.545100  0.920200  0.294000  1.0  0.717
  C  C191  1  0.333700  0.719500  0.895700  1.0  0.1737
  C  C192  1  0.382900  0.722800  0.968800  1.0  -0.1361
  C  C193  1  0.471000  0.735300  0.967100  1.0  -0.0509
  C  C194  1  0.504800  0.747000  0.892400  1.0  -0.1207
  C  C195  1  0.451800  0.743000  0.822200  1.0  0.1801
  C  C196  1  0.531200  0.735300  0.042300  1.0  0.6492
  C  C197  1  0.299000  0.461700  0.354700  1.0  0.1757
  C  C198  1  0.341900  0.538700  0.357500  1.0  -0.1507
  C  C199  1  0.372100  0.542100  0.277300  1.0  -0.1145
  C  C200  1  0.363200  0.465900  0.198500  1.0  -0.1169
  C  C201  1  0.317200  0.391400  0.201600  1.0  0.161
  C  C202  1  0.411900  0.628300  0.278100  1.0  0.6932
  C  C203  1  0.771100  0.721500  0.540100  1.0  0.1753
  C  C204  1  0.730500  0.730100  0.466500  1.0  -0.1017
  C  C205  1  0.643100  0.734600  0.464400  1.0  -0.0823
  C  C206  1  0.597100  0.727900  0.536300  1.0  -0.1235
  C  C207  1  0.642100  0.718000  0.606000  1.0  0.1772
  C  C208  1  0.593600  0.750600  0.391000  1.0  0.706
  C  C209  1  0.596500  0.537600  0.070000  1.0  0.165
  C  C210  1  0.636900  0.471800  0.001400  1.0  -0.1503
  C  C211  1  0.721200  0.482100  0.987300  1.0  -0.1565
  C  C212  1  0.764900  0.559500  0.044700  1.0  -0.1247
  C  C213  1  0.719800  0.623800  0.112400  1.0  0.1811
  C  C214  1  0.768500  0.413400  0.910400  1.0  0.6748
  N  N215  1  0.147900  0.285800  0.164600  1.0  -0.2902
  N  N216  1  0.867100  0.822400  0.728400  1.0  -0.2784
  N  N217  1  0.785400  0.278800  0.390600  1.0  -0.2865
  N  N218  1  0.228700  0.609900  0.717500  1.0  -0.2956
  N  N219  1  0.137400  0.126000  0.615200  1.0  -0.308
  N  N220  1  0.352100  0.835400  0.714200  1.0  -0.2896
  N  N221  1  0.632900  0.271600  0.177600  1.0  -0.2764
  N  N222  1  0.714600  0.609400  0.721200  1.0  -0.2861
  N  N223  1  0.271300  0.282500  0.390100  1.0  -0.2957
  N  N224  1  0.362600  0.384800  0.874000  1.0  -0.308
  N  N225  1  0.852100  0.714200  0.835400  1.0  -0.2895
  N  N226  1  0.132900  0.177600  0.271600  1.0  -0.278
  N  N227  1  0.214600  0.721200  0.609400  1.0  -0.2847
  N  N228  1  0.771300  0.390100  0.282500  1.0  -0.2967
  N  N229  1  0.862600  0.874000  0.384800  1.0  -0.3071
  N  N230  1  0.647900  0.164600  0.285800  1.0  -0.2886
  N  N231  1  0.367100  0.728400  0.822400  1.0  -0.2787
  N  N232  1  0.285400  0.390600  0.278800  1.0  -0.286
  N  N233  1  0.728700  0.717500  0.609900  1.0  -0.2958
  N  N234  1  0.637400  0.615200  0.126000  1.0  -0.3082
  Cl  Cl235  1  0.308790  0.185070  0.188930  1.0  -0.5081
  Cl  Cl236  1  0.110590  0.385110  0.368330  1.0  -0.5382
  Cl  Cl237  1  0.191210  0.811070  0.814930  1.0  -0.5085
  Cl  Cl238  1  0.389410  0.631670  0.614890  1.0  -0.541
  Cl  Cl239  1  0.691210  0.814930  0.811070  1.0  -0.5044
  Cl  Cl240  1  0.889410  0.614890  0.631670  1.0  -0.5425
  Cl  Cl241  1  0.808790  0.188930  0.185070  1.0  -0.5105
  Cl  Cl242  1  0.610590  0.368330  0.385110  1.0  -0.5386
  O  O243  1  0.986300  0.348100  0.924700  1.0  -0.5525
  O  O244  1  0.079800  0.242100  0.849700  1.0  -0.5929
  O  O245  1  0.995400  0.103000  0.714200  1.0  -0.5677
  O  O246  1  0.106900  0.037700  0.750500  1.0  -0.5229
  O  O247  1  0.882800  0.336100  0.698700  1.0  -0.5691
  O  O248  1  0.968600  0.221700  0.623500  1.0  -0.6067
  O  O249  1  0.125200  0.313800  0.720200  1.0  -0.5509
  O  O250  1  0.026200  0.414300  0.793100  1.0  -0.5791
  O  O251  1  0.340200  0.891400  0.435200  1.0  -0.5562
  O  O252  1  0.226800  0.872700  0.339500  1.0  -0.5997
  O  O253  1  0.366200  0.805700  0.232100  1.0  -0.6181
  O  O254  1  0.513700  0.075300  0.651900  1.0  -0.5543
  O  O255  1  0.420200  0.150300  0.757900  1.0  -0.5941
  O  O256  1  0.504600  0.285800  0.897000  1.0  -0.5679
  O  O257  1  0.393100  0.249500  0.962300  1.0  -0.5221
  O  O258  1  0.617200  0.301300  0.663900  1.0  -0.5692
  O  O259  1  0.531400  0.376500  0.778300  1.0  -0.6067
  O  O260  1  0.374800  0.279800  0.686200  1.0  -0.5513
  O  O261  1  0.473800  0.206900  0.585700  1.0  -0.5787
  O  O262  1  0.159800  0.564800  0.108600  1.0  -0.555
  O  O263  1  0.273200  0.660500  0.127300  1.0  -0.6003
  O  O264  1  0.133800  0.767900  0.194300  1.0  -0.6195
  O  O265  1  0.013700  0.651900  0.075300  1.0  -0.5533
  O  O266  1  0.920200  0.757900  0.150300  1.0  -0.5937
  O  O267  1  0.004600  0.897000  0.285800  1.0  -0.5665
  O  O268  1  0.893100  0.962300  0.249500  1.0  -0.5227
  O  O269  1  0.117200  0.663900  0.301300  1.0  -0.5686
  O  O270  1  0.031400  0.778300  0.376500  1.0  -0.6053
  O  O271  1  0.874800  0.686200  0.279800  1.0  -0.5505
  O  O272  1  0.973800  0.585700  0.206900  1.0  -0.5785
  O  O273  1  0.659800  0.108600  0.564800  1.0  -0.5562
  O  O274  1  0.773200  0.127300  0.660500  1.0  -0.6014
  O  O275  1  0.633800  0.194300  0.767900  1.0  -0.6197
  O  O276  1  0.486300  0.924700  0.348100  1.0  -0.5532
  O  O277  1  0.579800  0.849700  0.242100  1.0  -0.5908
  O  O278  1  0.495400  0.714200  0.103000  1.0  -0.5699
  O  O279  1  0.606900  0.750500  0.037700  1.0  -0.5207
  O  O280  1  0.382800  0.698700  0.336100  1.0  -0.5701
  O  O281  1  0.468600  0.623500  0.221700  1.0  -0.6069
  O  O282  1  0.625200  0.720200  0.313800  1.0  -0.5515
  O  O283  1  0.526200  0.793100  0.414300  1.0  -0.579
  O  O284  1  0.840200  0.435200  0.891400  1.0  -0.555
  O  O285  1  0.726800  0.339500  0.872700  1.0  -0.5995
  O  O286  1  0.866200  0.232100  0.805700  1.0  -0.6233
