# generated using pymatgen
data_CdNiH12(CN)7
_symmetry_space_group_name_H-M   'P 1'
_cell_length_a   11.86800000
_cell_length_b   13.03000000
_cell_length_c   7.71130000
_cell_angle_alpha   105.95600000
_cell_angle_beta   94.95100000
_cell_angle_gamma   91.58400000
_symmetry_Int_Tables_number   1
_chemical_formula_structural   CdNiH12(CN)7
_chemical_formula_sum   'Cd2 Ni2 H24 C14 N14'
_cell_volume   1140.61188152
_cell_formula_units_Z   2
loop_
 _symmetry_equiv_pos_site_id
 _symmetry_equiv_pos_as_xyz
  1  'x, y, z'
loop_
 _atom_site_type_symbol
 _atom_site_label
 _atom_site_symmetry_multiplicity
 _atom_site_fract_x
 _atom_site_fract_y
 _atom_site_fract_z
 _atom_site_occupancy
 _atom_site_charge
  Cd  Cd1  1  0.245620  0.194120  0.112750  1.0  0.9393
  Cd  Cd2  1  0.754380  0.805880  0.887250  1.0  0.9384
  Ni  Ni3  1  0.000000  0.000000  0.500000  1.0  0.0795
  Ni  Ni4  1  0.500000  0.500000  0.000000  1.0  0.3745
  H  H5  1  0.052520  0.293290  0.263470  1.0  0.1835
  H  H6  1  0.096410  0.362910  0.133300  1.0  0.2088
  H  H7  1  0.119520  0.443060  0.480700  1.0  0.0917
  H  H8  1  0.226910  0.466350  0.343350  1.0  0.0978
  H  H9  1  0.217660  0.316840  0.568960  1.0  0.0924
  H  H10  1  0.314690  0.428700  0.589030  1.0  0.0869
  H  H11  1  0.405560  0.335030  0.371350  1.0  0.1524
  H  H12  1  0.367270  0.241780  0.462240  1.0  0.226
  H  H13  1  0.327000  0.011910  0.888090  1.0  0.1452
  H  H14  1  0.327090  0.993270  0.089020  1.0  0.1995
  H  H15  1  0.502670  0.111320  0.974100  1.0  0.0852
  H  H16  1  0.502990  0.079180  0.186230  1.0  0.0851
  H  H17  1  0.947480  0.706710  0.736530  1.0  0.1832
  H  H18  1  0.903590  0.637090  0.866700  1.0  0.2107
  H  H19  1  0.880480  0.556940  0.519300  1.0  0.0942
  H  H20  1  0.773090  0.533650  0.656650  1.0  0.0994
  H  H21  1  0.782340  0.683160  0.431040  1.0  0.092
  H  H22  1  0.685310  0.571300  0.410970  1.0  0.0905
  H  H23  1  0.594440  0.664970  0.628650  1.0  0.1532
  H  H24  1  0.632730  0.758220  0.537760  1.0  0.2268
  H  H25  1  0.673000  0.988090  0.111910  1.0  0.144
  H  H26  1  0.672910  0.006730  0.910980  1.0  0.1979
  H  H27  1  0.497330  0.888680  0.025900  1.0  0.0853
  H  H28  1  0.497010  0.920820  0.813770  1.0  0.0856
  C  C29  1  0.093600  0.055700  0.361400  1.0  0.1467
  C  C30  1  0.081800  0.080900  0.711500  1.0  0.1363
  C  C31  1  0.412100  0.376600  0.988500  1.0  0.1499
  C  C32  1  0.454600  0.562800  0.229800  1.0  0.1554
  C  C33  1  0.182700  0.405300  0.390600  1.0  0.001
  C  C34  1  0.264000  0.361700  0.493200  1.0  0.062
  C  C35  1  0.474000  0.052100  0.040800  1.0  0.05
  C  C36  1  0.906400  0.944300  0.638600  1.0  0.1447
  C  C37  1  0.918200  0.919100  0.288500  1.0  0.1354
  C  C38  1  0.587900  0.623400  0.011500  1.0  0.1504
  C  C39  1  0.545400  0.437200  0.770200  1.0  0.1551
  C  C40  1  0.817300  0.594700  0.609400  1.0  0.0008
  C  C41  1  0.736000  0.638300  0.506800  1.0  0.0597
  C  C42  1  0.526000  0.947900  0.959200  1.0  0.0476
  N  N43  1  0.148400  0.090200  0.275100  1.0  -0.4027
  N  N44  1  0.132400  0.127100  0.843100  1.0  -0.4269
  N  N45  1  0.358900  0.303100  0.987900  1.0  -0.4433
  N  N46  1  0.424200  0.600700  0.365700  1.0  -0.4242
  N  N47  1  0.120600  0.326200  0.227300  1.0  -0.6052
  N  N48  1  0.339700  0.292100  0.392700  1.0  -0.5985
  N  N49  1  0.350300  0.043900  0.020200  1.0  -0.6206
  N  N50  1  0.851600  0.909800  0.724900  1.0  -0.4042
  N  N51  1  0.867600  0.872900  0.156900  1.0  -0.4276
  N  N52  1  0.641100  0.696900  0.012100  1.0  -0.4421
  N  N53  1  0.575800  0.399300  0.634300  1.0  -0.4241
  N  N54  1  0.879400  0.673800  0.772700  1.0  -0.606
  N  N55  1  0.660300  0.707900  0.607300  1.0  -0.598
  N  N56  1  0.649700  0.956100  0.979800  1.0  -0.6209
