# generated using pymatgen
data_Zn3H32C52(NO6)2
_symmetry_space_group_name_H-M   'P 1'
_cell_length_a   14.60800000
_cell_length_b   18.04100000
_cell_length_c   24.80300000
_cell_angle_alpha   90.00000000
_cell_angle_beta   90.00500000
_cell_angle_gamma   90.00000000
_symmetry_Int_Tables_number   1
_chemical_formula_structural   Zn3H32C52(NO6)2
_chemical_formula_sum   'Zn12 H128 C208 N8 O48'
_cell_volume   6536.65521829
_cell_formula_units_Z   4
loop_
 _symmetry_equiv_pos_site_id
 _symmetry_equiv_pos_as_xyz
  1  'x, y, z'
loop_
 _atom_site_type_symbol
 _atom_site_label
 _atom_site_symmetry_multiplicity
 _atom_site_fract_x
 _atom_site_fract_y
 _atom_site_fract_z
 _atom_site_occupancy
 _atom_site_charge
  Zn  Zn1  1  0.539670  0.064590  0.850540  1.0  0.9448
  Zn  Zn2  1  0.506210  0.256340  0.849070  1.0  1.1418
  Zn  Zn3  1  0.468570  0.449920  0.850110  1.0  0.9362
  Zn  Zn4  1  0.039670  0.435410  0.350540  1.0  0.9449
  Zn  Zn5  1  0.006210  0.243660  0.349070  1.0  1.1416
  Zn  Zn6  1  0.968570  0.050080  0.350110  1.0  0.9364
  Zn  Zn7  1  0.960330  0.564590  0.649460  1.0  0.9453
  Zn  Zn8  1  0.993790  0.756340  0.650930  1.0  1.142
  Zn  Zn9  1  0.031430  0.949920  0.649890  1.0  0.9367
  Zn  Zn10  1  0.460330  0.935410  0.149460  1.0  0.9455
  Zn  Zn11  1  0.493790  0.743660  0.150930  1.0  1.1416
  Zn  Zn12  1  0.531430  0.550080  0.149890  1.0  0.9369
  H  H13  1  0.486000  0.943300  0.924900  1.0  0.0817
  H  H14  1  0.467200  0.815400  0.926900  1.0  0.128
  H  H15  1  0.556000  0.810500  0.771100  1.0  0.1251
  H  H16  1  0.571800  0.937000  0.774500  1.0  0.092
  H  H17  1  0.523900  0.571300  0.923900  1.0  0.0855
  H  H18  1  0.544300  0.698400  0.925400  1.0  0.1239
  H  H19  1  0.447300  0.706400  0.772400  1.0  0.1183
  H  H20  1  0.429000  0.578600  0.775100  1.0  0.0932
  H  H21  1  0.832800  0.093700  0.818600  1.0  0.1035
  H  H22  1  0.982900  0.138500  0.814600  1.0  0.1079
  H  H23  1  0.900200  0.331900  0.882400  1.0  0.1175
  H  H24  1  0.750100  0.287000  0.886300  1.0  0.1052
  H  H25  1  0.019300  0.379100  0.848100  1.0  0.115
  H  H26  1  0.167300  0.424700  0.845100  1.0  0.0992
  H  H27  1  0.265600  0.216600  0.832500  1.0  0.0996
  H  H28  1  0.117600  0.169400  0.839800  1.0  0.1164
  H  H29  1  0.375000  0.026400  0.987700  1.0  0.1094
  H  H30  1  0.286000  0.026300  0.065500  1.0  0.1107
  H  H31  1  0.261600  0.250400  0.056300  1.0  0.1183
  H  H32  1  0.346000  0.249300  0.975800  1.0  0.1098
  H  H33  1  0.156600  0.035800  0.110000  1.0  0.11
  H  H34  1  0.078400  0.030200  0.192000  1.0  0.1095
  H  H35  1  0.180800  0.230500  0.232500  1.0  0.1034
  H  H36  1  0.252400  0.239200  0.148900  1.0  0.1118
  H  H37  1  0.335800  0.044400  0.729800  1.0  0.1047
  H  H38  1  0.240500  0.044800  0.655000  1.0  0.1115
  H  H39  1  0.346000  0.241900  0.608900  1.0  0.1138
  H  H40  1  0.437800  0.244400  0.686200  1.0  0.1047
  H  H41  1  0.223100  0.026500  0.569400  1.0  0.1191
  H  H42  1  0.131200  0.020300  0.492900  1.0  0.1012
  H  H43  1  0.121900  0.244000  0.486400  1.0  0.1064
  H  H44  1  0.216600  0.250800  0.561600  1.0  0.1096
  H  H45  1  0.986000  0.556700  0.424900  1.0  0.0821
  H  H46  1  0.967200  0.684600  0.426900  1.0  0.1283
  H  H47  1  0.056000  0.689500  0.271100  1.0  0.1246
  H  H48  1  0.071800  0.563000  0.274500  1.0  0.092
  H  H49  1  0.023900  0.928700  0.423900  1.0  0.0855
  H  H50  1  0.044300  0.801600  0.425400  1.0  0.1237
  H  H51  1  0.947300  0.793600  0.272400  1.0  0.1184
  H  H52  1  0.929000  0.921400  0.275100  1.0  0.0932
  H  H53  1  0.332800  0.406300  0.318600  1.0  0.1039
  H  H54  1  0.482900  0.361500  0.314600  1.0  0.1081
  H  H55  1  0.400200  0.168100  0.382400  1.0  0.1179
  H  H56  1  0.250100  0.213000  0.386300  1.0  0.1054
  H  H57  1  0.519300  0.120900  0.348100  1.0  0.1142
  H  H58  1  0.667300  0.075300  0.345100  1.0  0.0994
  H  H59  1  0.765600  0.283400  0.332500  1.0  0.0996
  H  H60  1  0.617600  0.330600  0.339800  1.0  0.1165
  H  H61  1  0.875000  0.473600  0.487700  1.0  0.1099
  H  H62  1  0.786000  0.473700  0.565500  1.0  0.1106
  H  H63  1  0.761600  0.249600  0.556300  1.0  0.1174
  H  H64  1  0.846000  0.250700  0.475800  1.0  0.1096
  H  H65  1  0.656600  0.464200  0.610000  1.0  0.1107
  H  H66  1  0.578400  0.469800  0.692000  1.0  0.1098
  H  H67  1  0.680800  0.269500  0.732500  1.0  0.1034
  H  H68  1  0.752400  0.260800  0.648900  1.0  0.1121
  H  H69  1  0.835800  0.455600  0.229800  1.0  0.1043
  H  H70  1  0.740500  0.455200  0.155000  1.0  0.1114
  H  H71  1  0.846000  0.258100  0.108900  1.0  0.1135
  H  H72  1  0.937800  0.255600  0.186200  1.0  0.1045
  H  H73  1  0.723100  0.473500  0.069400  1.0  0.1195
  H  H74  1  0.631200  0.479700  0.992900  1.0  0.1015
  H  H75  1  0.621900  0.256000  0.986400  1.0  0.1058
  H  H76  1  0.716600  0.249200  0.061600  1.0  0.1096
  H  H77  1  0.014000  0.443300  0.575100  1.0  0.0821
  H  H78  1  0.032800  0.315400  0.573100  1.0  0.1285
  H  H79  1  0.944000  0.310500  0.728900  1.0  0.1249
  H  H80  1  0.928200  0.437000  0.725500  1.0  0.0918
  H  H81  1  0.976100  0.071300  0.576100  1.0  0.0856
  H  H82  1  0.955700  0.198400  0.574600  1.0  0.1247
  H  H83  1  0.052700  0.206400  0.727600  1.0  0.117
  H  H84  1  0.071000  0.078600  0.724900  1.0  0.093
  H  H85  1  0.667200  0.593700  0.681400  1.0  0.1037
  H  H86  1  0.517100  0.638500  0.685400  1.0  0.1077
  H  H87  1  0.599800  0.831900  0.617600  1.0  0.1177
  H  H88  1  0.749900  0.787000  0.613700  1.0  0.1046
  H  H89  1  0.480700  0.879100  0.651900  1.0  0.1148
  H  H90  1  0.332700  0.924700  0.654900  1.0  0.0987
  H  H91  1  0.234400  0.716600  0.667500  1.0  0.0997
  H  H92  1  0.382400  0.669400  0.660200  1.0  0.1168
  H  H93  1  0.125000  0.526400  0.512300  1.0  0.1096
  H  H94  1  0.214000  0.526300  0.434500  1.0  0.1106
  H  H95  1  0.238400  0.750400  0.443700  1.0  0.1179
  H  H96  1  0.154000  0.749300  0.524200  1.0  0.1094
  H  H97  1  0.343400  0.535800  0.390000  1.0  0.1096
  H  H98  1  0.421600  0.530200  0.308000  1.0  0.1101
  H  H99  1  0.319200  0.730500  0.267500  1.0  0.1037
  H  H100  1  0.247600  0.739200  0.351100  1.0  0.1121
  H  H101  1  0.164200  0.544400  0.770200  1.0  0.1043
  H  H102  1  0.259500  0.544800  0.845000  1.0  0.1112
  H  H103  1  0.154000  0.741900  0.891100  1.0  0.1134
  H  H104  1  0.062200  0.744400  0.813800  1.0  0.1045
  H  H105  1  0.276900  0.526500  0.930600  1.0  0.1193
  H  H106  1  0.368800  0.520300  0.007100  1.0  0.1009
  H  H107  1  0.378100  0.744000  0.013600  1.0  0.1056
  H  H108  1  0.283400  0.750800  0.938400  1.0  0.109
  H  H109  1  0.514000  0.056700  0.075100  1.0  0.0818
  H  H110  1  0.532800  0.184600  0.073100  1.0  0.128
  H  H111  1  0.444000  0.189500  0.228900  1.0  0.1249
  H  H112  1  0.428200  0.063000  0.225500  1.0  0.092
  H  H113  1  0.476100  0.428700  0.076100  1.0  0.0858
  H  H114  1  0.455700  0.301600  0.074600  1.0  0.1251
  H  H115  1  0.552700  0.293600  0.227600  1.0  0.117
  H  H116  1  0.571000  0.421400  0.224900  1.0  0.0927
  H  H117  1  0.167200  0.906300  0.181400  1.0  0.1034
  H  H118  1  0.017100  0.861500  0.185400  1.0  0.1082
  H  H119  1  0.099800  0.668100  0.117600  1.0  0.1183
  H  H120  1  0.249900  0.713000  0.113700  1.0  0.1044
  H  H121  1  0.980700  0.620900  0.151900  1.0  0.114
  H  H122  1  0.832700  0.575300  0.154900  1.0  0.0988
  H  H123  1  0.734400  0.783400  0.167500  1.0  0.0999
  H  H124  1  0.882400  0.830600  0.160200  1.0  0.1174
  H  H125  1  0.625000  0.973600  0.012300  1.0  0.1101
  H  H126  1  0.714000  0.973700  0.934500  1.0  0.1105
  H  H127  1  0.738400  0.749600  0.943700  1.0  0.1181
  H  H128  1  0.654000  0.750700  0.024200  1.0  0.1093
  H  H129  1  0.843400  0.964200  0.890000  1.0  0.1096
  H  H130  1  0.921600  0.969800  0.808000  1.0  0.11
  H  H131  1  0.819200  0.769500  0.767500  1.0  0.1034
  H  H132  1  0.747600  0.760800  0.851100  1.0  0.112
  H  H133  1  0.664200  0.955600  0.270200  1.0  0.1041
  H  H134  1  0.759500  0.955200  0.345000  1.0  0.1114
  H  H135  1  0.654000  0.758100  0.391100  1.0  0.1133
  H  H136  1  0.562200  0.755600  0.313800  1.0  0.1044
  H  H137  1  0.776900  0.973500  0.430600  1.0  0.1191
  H  H138  1  0.868800  0.979700  0.507100  1.0  0.101
  H  H139  1  0.878100  0.756000  0.513600  1.0  0.1055
  H  H140  1  0.783400  0.749200  0.438400  1.0  0.1085
  C  C141  1  0.500800  0.915300  0.893680  1.0  0.1751
  C  C142  1  0.488700  0.839200  0.895120  1.0  -0.2108
  C  C143  1  0.508900  0.798110  0.848990  1.0  0.0981
  C  C144  1  0.541200  0.836600  0.803220  1.0  -0.1949
  C  C145  1  0.550900  0.911600  0.805700  1.0  0.1644
  C  C146  1  0.508300  0.599300  0.892750  1.0  0.1767
  C  C147  1  0.520400  0.675000  0.894050  1.0  -0.2089
  C  C148  1  0.497300  0.716710  0.849100  1.0  0.1002
  C  C149  1  0.463200  0.679600  0.804040  1.0  -0.1964
  C  C150  1  0.452900  0.603300  0.805860  1.0  0.1713
  C  C151  1  0.681300  0.157400  0.856530  1.0  0.6825
  C  C152  1  0.777000  0.186100  0.852530  1.0  -0.1388
  C  C153  1  0.846300  0.142200  0.831310  1.0  -0.0379
  C  C154  1  0.935800  0.169200  0.828660  1.0  -0.1501
  C  C155  1  0.956900  0.240780  0.846480  1.0  0.0427
  C  C156  1  0.886800  0.283800  0.868870  1.0  -0.1479
  C  C157  1  0.797300  0.256900  0.871500  1.0  -0.0271
  C  C158  1  0.052600  0.269400  0.842850  1.0  0.0385
  C  C159  1  0.069300  0.345600  0.845300  1.0  -0.1508
  C  C160  1  0.157200  0.372700  0.843710  1.0  -0.0394
  C  C161  1  0.231200  0.325000  0.840140  1.0  -0.1321
  C  C162  1  0.215400  0.249600  0.836850  1.0  -0.0251
  C  C163  1  0.127200  0.221500  0.839840  1.0  -0.1404
  C  C164  1  0.327400  0.353600  0.838780  1.0  0.6921
  C  C165  1  0.425900  0.137300  0.924540  1.0  0.6914
  C  C166  1  0.368400  0.138400  0.974500  1.0  -0.1198
  C  C167  1  0.351100  0.071600  0.001360  1.0  -0.0476
  C  C168  1  0.299100  0.071800  0.047840  1.0  -0.1363
  C  C169  1  0.265400  0.138400  0.069370  1.0  0.0474
  C  C170  1  0.283800  0.204800  0.042230  1.0  -0.1501
  C  C171  1  0.334700  0.204300  0.994500  1.0  -0.0315
  C  C172  1  0.213900  0.137000  0.121280  1.0  0.0487
  C  C173  1  0.161100  0.075900  0.134690  1.0  -0.1411
  C  C174  1  0.114700  0.072300  0.183540  1.0  -0.0347
  C  C175  1  0.121700  0.130300  0.219590  1.0  -0.1319
  C  C176  1  0.174700  0.191400  0.207100  1.0  -0.039
  C  C177  1  0.218700  0.195900  0.157890  1.0  -0.1392
  C  C178  1  0.076300  0.124300  0.273680  1.0  0.7014
  C  C179  1  0.457000  0.141800  0.764540  1.0  0.7047
  C  C180  1  0.397600  0.143400  0.715740  1.0  -0.144
  C  C181  1  0.337900  0.085000  0.705430  1.0  -0.0355
  C  C182  1  0.281800  0.084700  0.660630  1.0  -0.1576
  C  C183  1  0.285800  0.142700  0.623680  1.0  0.042
  C  C184  1  0.343800  0.201800  0.633640  1.0  -0.1316
  C  C185  1  0.399200  0.203100  0.679510  1.0  -0.0399
  C  C186  1  0.228100  0.139400  0.574100  1.0  0.0514
  C  C187  1  0.202600  0.070900  0.552720  1.0  -0.1502
  C  C188  1  0.147400  0.067300  0.507260  1.0  -0.0261
  C  C189  1  0.115800  0.130500  0.482780  1.0  -0.1465
  C  C190  1  0.142400  0.199800  0.503350  1.0  -0.0435
  C  C191  1  0.198300  0.203700  0.548230  1.0  -0.1429
  C  C192  1  0.053100  0.127100  0.435390  1.0  0.6949
  C  C193  1  0.000800  0.584700  0.393680  1.0  0.1753
  C  C194  1  0.988700  0.660800  0.395120  1.0  -0.2106
  C  C195  1  0.008900  0.701890  0.348990  1.0  0.0986
  C  C196  1  0.041200  0.663400  0.303220  1.0  -0.1947
  C  C197  1  0.050900  0.588400  0.305700  1.0  0.1629
  C  C198  1  0.008300  0.900700  0.392750  1.0  0.1766
  C  C199  1  0.020400  0.825000  0.394050  1.0  -0.2088
  C  C200  1  0.997300  0.783290  0.349100  1.0  0.1001
  C  C201  1  0.963200  0.820400  0.304040  1.0  -0.197
  C  C202  1  0.952900  0.896700  0.305860  1.0  0.1723
  C  C203  1  0.181300  0.342600  0.356530  1.0  0.6823
  C  C204  1  0.277000  0.313900  0.352530  1.0  -0.1385
  C  C205  1  0.346300  0.357800  0.331310  1.0  -0.0384
  C  C206  1  0.435800  0.330800  0.328660  1.0  -0.1504
  C  C207  1  0.456900  0.259220  0.346480  1.0  0.0434
  C  C208  1  0.386800  0.216200  0.368870  1.0  -0.147
  C  C209  1  0.297300  0.243100  0.371500  1.0  -0.0275
  C  C210  1  0.552600  0.230600  0.342850  1.0  0.0385
  C  C211  1  0.569300  0.154400  0.345300  1.0  -0.1503
  C  C212  1  0.657200  0.127300  0.343710  1.0  -0.0396
  C  C213  1  0.731200  0.175000  0.340140  1.0  -0.132
  C  C214  1  0.715400  0.250400  0.336850  1.0  -0.025
  C  C215  1  0.627200  0.278500  0.339840  1.0  -0.1416
  C  C216  1  0.827400  0.146400  0.338780  1.0  0.6915
  C  C217  1  0.925900  0.362700  0.424540  1.0  0.6913
  C  C218  1  0.868400  0.361600  0.474500  1.0  -0.1196
  C  C219  1  0.851100  0.428400  0.501360  1.0  -0.0475
  C  C220  1  0.799100  0.428200  0.547840  1.0  -0.1374
  C  C221  1  0.765400  0.361600  0.569370  1.0  0.0475
  C  C222  1  0.783800  0.295200  0.542230  1.0  -0.151
  C  C223  1  0.834700  0.295700  0.494500  1.0  -0.0321
  C  C224  1  0.713900  0.363000  0.621280  1.0  0.0491
  C  C225  1  0.661100  0.424100  0.634690  1.0  -0.1421
  C  C226  1  0.614700  0.427700  0.683540  1.0  -0.0356
  C  C227  1  0.621700  0.369700  0.719590  1.0  -0.1321
  C  C228  1  0.674700  0.308600  0.707100  1.0  -0.0385
  C  C229  1  0.718700  0.304100  0.657890  1.0  -0.1405
  C  C230  1  0.576300  0.375700  0.773680  1.0  0.7015
  C  C231  1  0.957000  0.358200  0.264540  1.0  0.7047
  C  C232  1  0.897600  0.356600  0.215740  1.0  -0.1441
  C  C233  1  0.837900  0.415000  0.205430  1.0  -0.0355
  C  C234  1  0.781800  0.415300  0.160630  1.0  -0.1594
  C  C235  1  0.785800  0.357300  0.123680  1.0  0.0425
  C  C236  1  0.843800  0.298200  0.133640  1.0  -0.1304
  C  C237  1  0.899200  0.296900  0.179510  1.0  -0.0397
  C  C238  1  0.728100  0.360600  0.074100  1.0  0.0517
  C  C239  1  0.702600  0.429100  0.052720  1.0  -0.1502
  C  C240  1  0.647400  0.432700  0.007260  1.0  -0.0266
  C  C241  1  0.615800  0.369500  0.982780  1.0  -0.1469
  C  C242  1  0.642400  0.300200  0.003350  1.0  -0.0439
  C  C243  1  0.698300  0.296300  0.048230  1.0  -0.1435
  C  C244  1  0.553100  0.372900  0.935390  1.0  0.695
  C  C245  1  0.999200  0.415300  0.606320  1.0  0.1754
  C  C246  1  0.011300  0.339200  0.604880  1.0  -0.2114
  C  C247  1  0.991100  0.298110  0.651010  1.0  0.0991
  C  C248  1  0.958800  0.336600  0.696780  1.0  -0.1958
  C  C249  1  0.949100  0.411600  0.694300  1.0  0.1648
  C  C250  1  0.991700  0.099300  0.607250  1.0  0.1764
  C  C251  1  0.979600  0.175000  0.605950  1.0  -0.2098
  C  C252  1  0.002700  0.216710  0.650900  1.0  0.0995
  C  C253  1  0.036800  0.179600  0.695960  1.0  -0.1954
  C  C254  1  0.047100  0.103300  0.694140  1.0  0.172
  C  C255  1  0.818700  0.657400  0.643470  1.0  0.6817
  C  C256  1  0.723000  0.686100  0.647470  1.0  -0.1381
  C  C257  1  0.653700  0.642200  0.668690  1.0  -0.0379
  C  C258  1  0.564200  0.669200  0.671340  1.0  -0.15
  C  C259  1  0.543100  0.740780  0.653520  1.0  0.0423
  C  C260  1  0.613200  0.783800  0.631130  1.0  -0.1485
  C  C261  1  0.702700  0.756900  0.628500  1.0  -0.028
  C  C262  1  0.447400  0.769400  0.657150  1.0  0.0382
  C  C263  1  0.430700  0.845600  0.654700  1.0  -0.1518
  C  C264  1  0.342800  0.872700  0.656290  1.0  -0.0392
  C  C265  1  0.268800  0.825000  0.659860  1.0  -0.1339
  C  C266  1  0.284600  0.749600  0.663150  1.0  -0.0248
  C  C267  1  0.372800  0.721500  0.660160  1.0  -0.1409
  C  C268  1  0.172600  0.853600  0.661220  1.0  0.6929
  C  C269  1  0.074100  0.637300  0.575460  1.0  0.6918
  C  C270  1  0.131600  0.638400  0.525500  1.0  -0.1197
  C  C271  1  0.148900  0.571600  0.498640  1.0  -0.0465
  C  C272  1  0.200900  0.571800  0.452160  1.0  -0.1354
  C  C273  1  0.234600  0.638400  0.430630  1.0  0.0467
  C  C274  1  0.216200  0.704800  0.457770  1.0  -0.1506
  C  C275  1  0.165300  0.704300  0.505500  1.0  -0.0319
  C  C276  1  0.286100  0.637000  0.378720  1.0  0.0472
  C  C277  1  0.338900  0.575900  0.365310  1.0  -0.1429
  C  C278  1  0.385300  0.572300  0.316460  1.0  -0.0349
  C  C279  1  0.378300  0.630300  0.280410  1.0  -0.1323
  C  C280  1  0.325300  0.691400  0.292900  1.0  -0.0396
  C  C281  1  0.281300  0.695900  0.342110  1.0  -0.1374
  C  C282  1  0.423700  0.624300  0.226320  1.0  0.7003
  C  C283  1  0.043000  0.641800  0.735460  1.0  0.7048
  C  C284  1  0.102400  0.643400  0.784260  1.0  -0.1441
  C  C285  1  0.162100  0.585000  0.794570  1.0  -0.0344
  C  C286  1  0.218200  0.584700  0.839370  1.0  -0.1592
  C  C287  1  0.214200  0.642700  0.876320  1.0  0.0421
  C  C288  1  0.156200  0.701800  0.866360  1.0  -0.1301
  C  C289  1  0.100800  0.703100  0.820490  1.0  -0.0407
  C  C290  1  0.271900  0.639400  0.925900  1.0  0.0522
  C  C291  1  0.297400  0.570900  0.947280  1.0  -0.1502
  C  C292  1  0.352600  0.567300  0.992740  1.0  -0.0269
  C  C293  1  0.384200  0.630500  0.017220  1.0  -0.1487
  C  C294  1  0.357600  0.699800  0.996650  1.0  -0.0441
  C  C295  1  0.301700  0.703700  0.951770  1.0  -0.143
  C  C296  1  0.446900  0.627100  0.064610  1.0  0.694
  C  C297  1  0.499200  0.084700  0.106320  1.0  0.1753
  C  C298  1  0.511300  0.160800  0.104880  1.0  -0.2109
  C  C299  1  0.491100  0.201890  0.151010  1.0  0.099
  C  C300  1  0.458800  0.163400  0.196780  1.0  -0.1952
  C  C301  1  0.449100  0.088400  0.194300  1.0  0.1651
  C  C302  1  0.491700  0.400700  0.107250  1.0  0.1767
  C  C303  1  0.479600  0.325000  0.105950  1.0  -0.2096
  C  C304  1  0.502700  0.283290  0.150900  1.0  0.0996
  C  C305  1  0.536800  0.320400  0.195960  1.0  -0.1959
  C  C306  1  0.547100  0.396700  0.194140  1.0  0.1721
  C  C307  1  0.318700  0.842600  0.143470  1.0  0.6819
  C  C308  1  0.223000  0.813900  0.147470  1.0  -0.138
  C  C309  1  0.153700  0.857800  0.168690  1.0  -0.0385
  C  C310  1  0.064200  0.830800  0.171340  1.0  -0.1506
  C  C311  1  0.043100  0.759220  0.153520  1.0  0.0422
  C  C312  1  0.113200  0.716200  0.131130  1.0  -0.1475
  C  C313  1  0.202700  0.743100  0.128500  1.0  -0.0282
  C  C314  1  0.947400  0.730600  0.157150  1.0  0.0385
  C  C315  1  0.930700  0.654400  0.154700  1.0  -0.152
  C  C316  1  0.842800  0.627300  0.156290  1.0  -0.0397
  C  C317  1  0.768800  0.675000  0.159860  1.0  -0.1337
  C  C318  1  0.784600  0.750400  0.163150  1.0  -0.0248
  C  C319  1  0.872800  0.778500  0.160160  1.0  -0.1409
  C  C320  1  0.672600  0.646400  0.161220  1.0  0.6925
  C  C321  1  0.574100  0.862700  0.075460  1.0  0.6915
  C  C322  1  0.631600  0.861600  0.025500  1.0  -0.1205
  C  C323  1  0.648900  0.928400  0.998640  1.0  -0.0471
  C  C324  1  0.700900  0.928200  0.952160  1.0  -0.1365
  C  C325  1  0.734600  0.861600  0.930630  1.0  0.0469
  C  C326  1  0.716200  0.795200  0.957770  1.0  -0.1515
  C  C327  1  0.665300  0.795700  0.005500  1.0  -0.0313
  C  C328  1  0.786100  0.863000  0.878720  1.0  0.0474
  C  C329  1  0.838900  0.924100  0.865310  1.0  -0.143
  C  C330  1  0.885300  0.927700  0.816460  1.0  -0.0358
  C  C331  1  0.878300  0.869700  0.780410  1.0  -0.1324
  C  C332  1  0.825300  0.808600  0.792900  1.0  -0.0391
  C  C333  1  0.781300  0.804100  0.842110  1.0  -0.1386
  C  C334  1  0.923700  0.875700  0.726320  1.0  0.7007
  C  C335  1  0.543000  0.858200  0.235460  1.0  0.7046
  C  C336  1  0.602400  0.856600  0.284260  1.0  -0.1442
  C  C337  1  0.662100  0.915000  0.294570  1.0  -0.0338
  C  C338  1  0.718200  0.915300  0.339370  1.0  -0.161
  C  C339  1  0.714200  0.857300  0.376320  1.0  0.0432
  C  C340  1  0.656200  0.798200  0.366360  1.0  -0.1305
  C  C341  1  0.600800  0.796900  0.320490  1.0  -0.0402
  C  C342  1  0.771900  0.860600  0.425900  1.0  0.0523
  C  C343  1  0.797400  0.929100  0.447280  1.0  -0.1505
  C  C344  1  0.852600  0.932700  0.492740  1.0  -0.0264
  C  C345  1  0.884200  0.869500  0.517220  1.0  -0.149
  C  C346  1  0.857600  0.800200  0.496650  1.0  -0.0443
  C  C347  1  0.801700  0.796300  0.451770  1.0  -0.144
  C  C348  1  0.946900  0.872900  0.564610  1.0  0.694
  N  N349  1  0.532300  0.951340  0.850270  1.0  -0.3354
  N  N350  1  0.475300  0.563030  0.849280  1.0  -0.3411
  N  N351  1  0.032300  0.548660  0.350270  1.0  -0.3358
  N  N352  1  0.975300  0.936970  0.349280  1.0  -0.3409
  N  N353  1  0.967700  0.451340  0.649730  1.0  -0.3346
  N  N354  1  0.024700  0.063030  0.650720  1.0  -0.342
  N  N355  1  0.467700  0.048660  0.149730  1.0  -0.3356
  N  N356  1  0.524700  0.436970  0.150720  1.0  -0.3417
  O  O357  1  0.667710  0.091230  0.841220  1.0  -0.5931
  O  O358  1  0.620570  0.197750  0.876750  1.0  -0.629
  O  O359  1  0.340440  0.420970  0.853070  1.0  -0.6092
  O  O360  1  0.389740  0.312510  0.821620  1.0  -0.6195
  O  O361  1  0.478800  0.081580  0.918950  1.0  -0.6085
  O  O362  1  0.416350  0.188410  0.890630  1.0  -0.619
  O  O363  1  0.025100  0.068130  0.280620  1.0  -0.6042
  O  O364  1  0.093520  0.171620  0.309430  1.0  -0.6177
  O  O365  1  0.461700  0.080470  0.788390  1.0  -0.603
  O  O366  1  0.501430  0.198940  0.776770  1.0  -0.6161
  O  O367  1  0.044700  0.063940  0.413550  1.0  -0.6074
  O  O368  1  0.012600  0.184380  0.420670  1.0  -0.6117
  O  O369  1  0.167710  0.408770  0.341220  1.0  -0.592
  O  O370  1  0.120570  0.302250  0.376750  1.0  -0.6289
  O  O371  1  0.840440  0.079030  0.353070  1.0  -0.6091
  O  O372  1  0.889740  0.187490  0.321620  1.0  -0.6192
  O  O373  1  0.978800  0.418420  0.418950  1.0  -0.6088
  O  O374  1  0.916350  0.311590  0.390630  1.0  -0.618
  O  O375  1  0.525100  0.431870  0.780620  1.0  -0.604
  O  O376  1  0.593520  0.328380  0.809430  1.0  -0.618
  O  O377  1  0.961700  0.419530  0.288390  1.0  -0.6028
  O  O378  1  0.001430  0.301060  0.276770  1.0  -0.6158
  O  O379  1  0.544700  0.436060  0.913550  1.0  -0.6078
  O  O380  1  0.512600  0.315620  0.920670  1.0  -0.6108
  O  O381  1  0.832290  0.591230  0.658780  1.0  -0.5937
  O  O382  1  0.879430  0.697750  0.623250  1.0  -0.6286
  O  O383  1  0.159560  0.920970  0.646930  1.0  -0.6086
  O  O384  1  0.110260  0.812510  0.678380  1.0  -0.6195
  O  O385  1  0.021200  0.581580  0.581050  1.0  -0.6079
  O  O386  1  0.083650  0.688410  0.609370  1.0  -0.6183
  O  O387  1  0.474900  0.568130  0.219380  1.0  -0.604
  O  O388  1  0.406480  0.671620  0.190570  1.0  -0.6177
  O  O389  1  0.038300  0.580470  0.711610  1.0  -0.6027
  O  O390  1  0.998570  0.698940  0.723230  1.0  -0.6166
  O  O391  1  0.455300  0.563940  0.086450  1.0  -0.6075
  O  O392  1  0.487400  0.684380  0.079330  1.0  -0.6118
  O  O393  1  0.332290  0.908770  0.158780  1.0  -0.5936
  O  O394  1  0.379430  0.802250  0.123250  1.0  -0.6283
  O  O395  1  0.659560  0.579030  0.146930  1.0  -0.6085
  O  O396  1  0.610260  0.687490  0.178380  1.0  -0.6191
  O  O397  1  0.521200  0.918420  0.081050  1.0  -0.608
  O  O398  1  0.583650  0.811590  0.109370  1.0  -0.6179
  O  O399  1  0.974900  0.931870  0.719380  1.0  -0.6035
  O  O400  1  0.906480  0.828380  0.690570  1.0  -0.6172
  O  O401  1  0.538300  0.919530  0.211610  1.0  -0.6024
  O  O402  1  0.498570  0.801060  0.223230  1.0  -0.6168
  O  O403  1  0.955300  0.936060  0.586450  1.0  -0.6084
  O  O404  1  0.987400  0.815620  0.579330  1.0  -0.611
