# generated using pymatgen
data_CrGa2CoP4H26C8(N3O8)2
_symmetry_space_group_name_H-M   'P 1'
_cell_length_a   23.74220000
_cell_length_b   23.74220000
_cell_length_c   13.48880000
_cell_angle_alpha   90.00000000
_cell_angle_beta   90.00000000
_cell_angle_gamma   120.00000000
_symmetry_Int_Tables_number   1
_chemical_formula_structural   CrGa2CoP4H26C8(N3O8)2
_chemical_formula_sum   'Cr9 Ga18 Co9 P36 H234 C72 N54 O144'
_cell_volume   6584.84967967
_cell_formula_units_Z   9
loop_
 _symmetry_equiv_pos_site_id
 _symmetry_equiv_pos_as_xyz
  1  'x, y, z'
loop_
 _atom_site_type_symbol
 _atom_site_label
 _atom_site_symmetry_multiplicity
 _atom_site_fract_x
 _atom_site_fract_y
 _atom_site_fract_z
 _atom_site_occupancy
 _atom_site_charge
  Cr  Cr1  1  0.349810  0.242770  0.915420  1.0  0.9792
  Cr  Cr2  1  0.016480  0.576100  0.248750  1.0  0.9791
  Cr  Cr3  1  0.683140  0.909440  0.582090  1.0  0.9792
  Cr  Cr4  1  0.757230  0.107040  0.915420  1.0  0.9804
  Cr  Cr5  1  0.423900  0.440370  0.248750  1.0  0.9804
  Cr  Cr6  1  0.090560  0.773710  0.582090  1.0  0.9804
  Cr  Cr7  1  0.892960  0.650190  0.915420  1.0  0.9781
  Cr  Cr8  1  0.559630  0.983520  0.248750  1.0  0.9846
  Cr  Cr9  1  0.226290  0.316860  0.582090  1.0  0.9781
  Ga  Ga10  1  0.306280  0.240300  0.213350  1.0  1.7049
  Ga  Ga11  1  0.242770  0.892960  0.084580  1.0  1.4449
  Ga  Ga12  1  0.972940  0.573640  0.546690  1.0  1.7049
  Ga  Ga13  1  0.909440  0.226290  0.417910  1.0  1.4449
  Ga  Ga14  1  0.639610  0.906970  0.880020  1.0  1.7051
  Ga  Ga15  1  0.576100  0.559630  0.751250  1.0  1.4448
  Ga  Ga16  1  0.759700  0.065970  0.213350  1.0  1.7061
  Ga  Ga17  1  0.107040  0.349810  0.084580  1.0  1.4434
  Ga  Ga18  1  0.426360  0.399310  0.546690  1.0  1.7067
  Ga  Ga19  1  0.773710  0.683140  0.417910  1.0  1.4434
  Ga  Ga20  1  0.093030  0.732640  0.880020  1.0  1.7061
  Ga  Ga21  1  0.440370  0.016480  0.751250  1.0  1.4442
  Ga  Ga22  1  0.934030  0.693720  0.213350  1.0  1.7067
  Ga  Ga23  1  0.650190  0.757230  0.084580  1.0  1.4454
  Ga  Ga24  1  0.600690  0.027060  0.546690  1.0  1.7067
  Ga  Ga25  1  0.316860  0.090560  0.417910  1.0  1.4454
  Ga  Ga26  1  0.267360  0.360390  0.880020  1.0  1.7067
  Ga  Ga27  1  0.983520  0.423900  0.751250  1.0  1.4447
  Co  Co28  1  0.360390  0.093030  0.119980  1.0  1.0028
  Co  Co29  1  0.027060  0.426360  0.453310  1.0  1.0027
  Co  Co30  1  0.693720  0.759700  0.786650  1.0  1.0027
  Co  Co31  1  0.906970  0.267360  0.119980  1.0  1.0065
  Co  Co32  1  0.573640  0.600690  0.453310  1.0  1.0088
  Co  Co33  1  0.240300  0.934030  0.786650  1.0  1.0065
  Co  Co34  1  0.732640  0.639610  0.119980  1.0  1.0026
  Co  Co35  1  0.399310  0.972940  0.453310  1.0  1.0028
  Co  Co36  1  0.065970  0.306280  0.786650  1.0  1.0026
  P  P37  1  0.418760  0.236190  0.119490  1.0  1.8022
  P  P38  1  0.326810  0.986960  0.277120  1.0  1.8011
  P  P39  1  0.085430  0.569520  0.452820  1.0  1.8022
  P  P40  1  0.993480  0.320290  0.610450  1.0  1.801
  P  P41  1  0.752090  0.902860  0.786160  1.0  1.8022
  P  P42  1  0.660140  0.653630  0.943790  1.0  1.8011
  P  P43  1  0.763810  0.182570  0.119490  1.0  1.7998
  P  P44  1  0.013040  0.339850  0.277120  1.0  1.8008
  P  P45  1  0.430480  0.515900  0.452820  1.0  1.7999
  P  P46  1  0.679710  0.673180  0.610450  1.0  1.8008
  P  P47  1  0.097140  0.849240  0.786160  1.0  1.7998
  P  P48  1  0.346370  0.006520  0.943790  1.0  1.8008
  P  P49  1  0.817430  0.581240  0.119490  1.0  1.8052
  P  P50  1  0.660150  0.673190  0.277120  1.0  1.8039
  P  P51  1  0.484100  0.914570  0.452820  1.0  1.8051
  P  P52  1  0.326820  0.006520  0.610450  1.0  1.8039
  P  P53  1  0.150760  0.247910  0.786160  1.0  1.8052
  P  P54  1  0.993480  0.339860  0.943790  1.0  1.8039
  P  P55  1  0.581240  0.763810  0.880510  1.0  1.7984
  P  P56  1  0.673190  0.013040  0.722880  1.0  1.8023
  P  P57  1  0.247910  0.097140  0.213840  1.0  1.7984
  P  P58  1  0.339860  0.346370  0.056210  1.0  1.802
  P  P59  1  0.914570  0.430480  0.547180  1.0  1.7984
  P  P60  1  0.006520  0.679710  0.389550  1.0  1.8023
  P  P61  1  0.236190  0.817430  0.880510  1.0  1.8051
  P  P62  1  0.986960  0.660150  0.722880  1.0  1.8016
  P  P63  1  0.902860  0.150760  0.213840  1.0  1.8051
  P  P64  1  0.653630  0.993480  0.056210  1.0  1.8016
  P  P65  1  0.569520  0.484100  0.547180  1.0  1.8052
  P  P66  1  0.320290  0.326820  0.389550  1.0  1.8016
  P  P67  1  0.182570  0.418760  0.880510  1.0  1.8069
  P  P68  1  0.339850  0.326810  0.722880  1.0  1.8031
  P  P69  1  0.849240  0.752090  0.213840  1.0  1.8069
  P  P70  1  0.006520  0.660140  0.056210  1.0  1.8031
  P  P71  1  0.515900  0.085430  0.547180  1.0  1.8068
  P  P72  1  0.673180  0.993480  0.389550  1.0  1.8031
  H  H73  1  0.455600  0.305000  0.820200  1.0  0.2688
  H  H74  1  0.472500  0.292700  0.920600  1.0  0.3015
  H  H75  1  0.328000  0.126000  0.893900  1.0  0.2674
  H  H76  1  0.235400  0.210200  0.916200  1.0  0.3221
  H  H77  1  0.237000  0.182000  0.005100  1.0  0.2165
  H  H78  1  0.452900  0.193500  0.889100  1.0  0.1032
  H  H79  1  0.484000  0.238000  0.787800  1.0  0.125
  H  H80  1  0.378400  0.193900  0.723600  1.0  0.0988
  H  H81  1  0.389900  0.137600  0.746100  1.0  0.1038
  H  H82  1  0.254600  0.147800  0.764300  1.0  0.1213
  H  H83  1  0.258100  0.080200  0.795600  1.0  0.1356
  H  H84  1  0.180400  0.107300  0.874100  1.0  0.1117
  H  H85  1  0.228000  0.097200  0.961800  1.0  0.1161
  H  H86  1  0.122270  0.638330  0.153530  1.0  0.2688
  H  H87  1  0.139170  0.626030  0.253930  1.0  0.3015
  H  H88  1  0.994670  0.459330  0.227230  1.0  0.2674
  H  H89  1  0.902070  0.543530  0.249530  1.0  0.3221
  H  H90  1  0.903670  0.515330  0.338430  1.0  0.2164
  H  H91  1  0.119570  0.526830  0.222430  1.0  0.1032
  H  H92  1  0.150670  0.571330  0.121130  1.0  0.125
  H  H93  1  0.045070  0.527230  0.056930  1.0  0.0988
  H  H94  1  0.056570  0.470930  0.079430  1.0  0.1038
  H  H95  1  0.921270  0.481130  0.097630  1.0  0.1212
  H  H96  1  0.924770  0.413530  0.128930  1.0  0.1357
  H  H97  1  0.847070  0.440630  0.207430  1.0  0.1117
  H  H98  1  0.894670  0.430530  0.295130  1.0  0.1161
  H  H99  1  0.788930  0.971670  0.486870  1.0  0.2688
  H  H100  1  0.805830  0.959370  0.587270  1.0  0.3015
  H  H101  1  0.661330  0.792670  0.560570  1.0  0.2674
  H  H102  1  0.568730  0.876870  0.582870  1.0  0.3221
  H  H103  1  0.570330  0.848670  0.671770  1.0  0.2165
  H  H104  1  0.786230  0.860170  0.555770  1.0  0.1033
  H  H105  1  0.817330  0.904670  0.454470  1.0  0.1226
  H  H106  1  0.711730  0.860570  0.390270  1.0  0.0988
  H  H107  1  0.723230  0.804270  0.412770  1.0  0.1038
  H  H108  1  0.587930  0.814470  0.430970  1.0  0.1212
  H  H109  1  0.591430  0.746870  0.462270  1.0  0.1356
  H  H110  1  0.513730  0.773970  0.540770  1.0  0.1107
  H  H111  1  0.561330  0.763870  0.628470  1.0  0.1161
  H  H112  1  0.695000  0.150600  0.820200  1.0  0.27
  H  H113  1  0.707300  0.179800  0.920600  1.0  0.3016
  H  H114  1  0.874000  0.202000  0.893900  1.0  0.2674
  H  H115  1  0.789800  0.025200  0.916200  1.0  0.3225
  H  H116  1  0.818000  0.055000  0.005100  1.0  0.217
  H  H117  1  0.806500  0.259400  0.889100  1.0  0.1029
  H  H118  1  0.762000  0.246000  0.787800  1.0  0.1189
  H  H119  1  0.806100  0.184500  0.723600  1.0  0.0985
  H  H120  1  0.862400  0.252300  0.746100  1.0  0.1029
  H  H121  1  0.852200  0.106800  0.764300  1.0  0.1208
  H  H122  1  0.919800  0.177900  0.795600  1.0  0.1431
  H  H123  1  0.892700  0.073100  0.874100  1.0  0.1099
  H  H124  1  0.902800  0.130800  0.961800  1.0  0.1148
  H  H125  1  0.361670  0.483930  0.153530  1.0  0.27
  H  H126  1  0.373970  0.513130  0.253930  1.0  0.3016
  H  H127  1  0.540670  0.535330  0.227230  1.0  0.2674
  H  H128  1  0.456470  0.358530  0.249530  1.0  0.3225
  H  H129  1  0.484670  0.388330  0.338430  1.0  0.217
  H  H130  1  0.473170  0.592730  0.222430  1.0  0.1029
  H  H131  1  0.428670  0.579330  0.121130  1.0  0.1189
  H  H132  1  0.472770  0.517830  0.056930  1.0  0.0985
  H  H133  1  0.529070  0.585630  0.079430  1.0  0.1029
  H  H134  1  0.518870  0.440130  0.097630  1.0  0.1208
  H  H135  1  0.586470  0.511230  0.128930  1.0  0.1431
  H  H136  1  0.559370  0.406430  0.207430  1.0  0.1099
  H  H137  1  0.569470  0.464130  0.295130  1.0  0.1148
  H  H138  1  0.028330  0.817270  0.486870  1.0  0.2694
  H  H139  1  0.040630  0.846470  0.587270  1.0  0.3016
  H  H140  1  0.207330  0.868670  0.560570  1.0  0.2674
  H  H141  1  0.123130  0.691870  0.582870  1.0  0.3225
  H  H142  1  0.151330  0.721670  0.671770  1.0  0.217
  H  H143  1  0.139830  0.926070  0.555770  1.0  0.1029
  H  H144  1  0.095330  0.912670  0.454470  1.0  0.1217
  H  H145  1  0.139430  0.851170  0.390270  1.0  0.0985
  H  H146  1  0.195730  0.918970  0.412770  1.0  0.1029
  H  H147  1  0.185530  0.773470  0.430970  1.0  0.1208
  H  H148  1  0.253130  0.844570  0.462270  1.0  0.143
  H  H149  1  0.226030  0.739770  0.540770  1.0  0.1097
  H  H150  1  0.236130  0.797470  0.628470  1.0  0.1148
  H  H151  1  0.849400  0.544400  0.820200  1.0  0.2685
  H  H152  1  0.820200  0.527500  0.920600  1.0  0.3048
  H  H153  1  0.798000  0.672000  0.893900  1.0  0.2704
  H  H154  1  0.974800  0.764600  0.916200  1.0  0.3269
  H  H155  1  0.945000  0.763000  0.005100  1.0  0.2158
  H  H156  1  0.740600  0.547100  0.889100  1.0  0.1032
  H  H157  1  0.754000  0.516000  0.787800  1.0  0.1229
  H  H158  1  0.815500  0.621600  0.723600  1.0  0.0976
  H  H159  1  0.747700  0.610100  0.746100  1.0  0.1018
  H  H160  1  0.893200  0.745400  0.764300  1.0  0.1193
  H  H161  1  0.822100  0.741900  0.795600  1.0  0.1387
  H  H162  1  0.926900  0.819600  0.874100  1.0  0.1079
  H  H163  1  0.869200  0.772000  0.961800  1.0  0.1146
  H  H164  1  0.516070  0.877730  0.153530  1.0  0.2685
  H  H165  1  0.486870  0.860830  0.253930  1.0  0.3048
  H  H166  1  0.464670  0.005330  0.227230  1.0  0.2704
  H  H167  1  0.641470  0.097930  0.249530  1.0  0.327
  H  H168  1  0.611670  0.096330  0.338430  1.0  0.2158
  H  H169  1  0.407270  0.880430  0.222430  1.0  0.1033
  H  H170  1  0.420670  0.849330  0.121130  1.0  0.1229
  H  H171  1  0.482170  0.954930  0.056930  1.0  0.0976
  H  H172  1  0.414370  0.943430  0.079430  1.0  0.1018
  H  H173  1  0.559870  0.078730  0.097630  1.0  0.1193
  H  H174  1  0.488770  0.075230  0.128930  1.0  0.1388
  H  H175  1  0.593570  0.152930  0.207430  1.0  0.108
  H  H176  1  0.535870  0.105330  0.295130  1.0  0.1146
  H  H177  1  0.182730  0.211070  0.486870  1.0  0.2679
  H  H178  1  0.153530  0.194170  0.587270  1.0  0.3048
  H  H179  1  0.131330  0.338670  0.560570  1.0  0.2704
  H  H180  1  0.308130  0.431270  0.582870  1.0  0.3269
  H  H181  1  0.278330  0.429670  0.671770  1.0  0.2158
  H  H182  1  0.073930  0.213770  0.555770  1.0  0.1032
  H  H183  1  0.087330  0.182670  0.454470  1.0  0.1149
  H  H184  1  0.148830  0.288270  0.390270  1.0  0.0976
  H  H185  1  0.081030  0.276770  0.412770  1.0  0.1018
  H  H186  1  0.226530  0.412070  0.430970  1.0  0.1193
  H  H187  1  0.155430  0.408570  0.462270  1.0  0.1388
  H  H188  1  0.260230  0.486270  0.540770  1.0  0.1097
  H  H189  1  0.202530  0.438670  0.628470  1.0  0.1146
  H  H190  1  0.544400  0.695000  0.179800  1.0  0.2593
  H  H191  1  0.527500  0.707300  0.079400  1.0  0.2953
  H  H192  1  0.672000  0.874000  0.106100  1.0  0.2684
  H  H193  1  0.764600  0.789800  0.083800  1.0  0.3173
  H  H194  1  0.763000  0.818000  0.994900  1.0  0.2161
  H  H195  1  0.547100  0.806500  0.110900  1.0  0.1034
  H  H196  1  0.516000  0.762000  0.212200  1.0  0.122
  H  H197  1  0.621600  0.806100  0.276400  1.0  0.0983
  H  H198  1  0.610100  0.862400  0.253900  1.0  0.1047
  H  H199  1  0.745400  0.852200  0.235700  1.0  0.1205
  H  H200  1  0.741900  0.919800  0.204400  1.0  0.1395
  H  H201  1  0.819600  0.892700  0.125900  1.0  0.1118
  H  H202  1  0.772000  0.902800  0.038200  1.0  0.1149
  H  H203  1  0.211070  0.028330  0.513130  1.0  0.2593
  H  H204  1  0.194170  0.040630  0.412730  1.0  0.2953
  H  H205  1  0.338670  0.207330  0.439430  1.0  0.2684
  H  H206  1  0.431270  0.123130  0.417130  1.0  0.3173
  H  H207  1  0.429670  0.151330  0.328230  1.0  0.2161
  H  H208  1  0.213770  0.139830  0.444230  1.0  0.1036
  H  H209  1  0.182670  0.095330  0.545530  1.0  0.1191
  H  H210  1  0.288270  0.139430  0.609730  1.0  0.0984
  H  H211  1  0.276770  0.195730  0.587230  1.0  0.1048
  H  H212  1  0.412070  0.185530  0.569030  1.0  0.1204
  H  H213  1  0.408570  0.253130  0.537730  1.0  0.1395
  H  H214  1  0.486270  0.226030  0.459230  1.0  0.1112
  H  H215  1  0.438670  0.236130  0.371530  1.0  0.1149
  H  H216  1  0.877730  0.361670  0.846470  1.0  0.2593
  H  H217  1  0.860830  0.373970  0.746070  1.0  0.2953
  H  H218  1  0.005330  0.540670  0.772770  1.0  0.2684
  H  H219  1  0.097930  0.456470  0.750470  1.0  0.3173
  H  H220  1  0.096330  0.484670  0.661570  1.0  0.216
  H  H221  1  0.880430  0.473170  0.777570  1.0  0.1034
  H  H222  1  0.849330  0.428670  0.878870  1.0  0.122
  H  H223  1  0.954930  0.472770  0.943070  1.0  0.0984
  H  H224  1  0.943430  0.529070  0.920570  1.0  0.1048
  H  H225  1  0.078730  0.518870  0.902370  1.0  0.1204
  H  H226  1  0.075230  0.586470  0.871070  1.0  0.1396
  H  H227  1  0.152930  0.559370  0.792570  1.0  0.1118
  H  H228  1  0.105330  0.569470  0.704870  1.0  0.1149
  H  H229  1  0.305000  0.849400  0.179800  1.0  0.2597
  H  H230  1  0.292700  0.820200  0.079400  1.0  0.2947
  H  H231  1  0.126000  0.798000  0.106100  1.0  0.27
  H  H232  1  0.210200  0.974800  0.083800  1.0  0.315
  H  H233  1  0.182000  0.945000  0.994900  1.0  0.2136
  H  H234  1  0.193500  0.740600  0.110900  1.0  0.1032
  H  H235  1  0.238000  0.754000  0.212200  1.0  0.1193
  H  H236  1  0.193900  0.815500  0.276400  1.0  0.0997
  H  H237  1  0.137600  0.747700  0.253900  1.0  0.1046
  H  H238  1  0.147800  0.893200  0.235700  1.0  0.1193
  H  H239  1  0.080200  0.822100  0.204400  1.0  0.1419
  H  H240  1  0.107300  0.926900  0.125900  1.0  0.1109
  H  H241  1  0.097200  0.869200  0.038200  1.0  0.1155
  H  H242  1  0.971670  0.182730  0.513130  1.0  0.2591
  H  H243  1  0.959370  0.153530  0.412730  1.0  0.2947
  H  H244  1  0.792670  0.131330  0.439430  1.0  0.27
  H  H245  1  0.876870  0.308130  0.417130  1.0  0.315
  H  H246  1  0.848670  0.278330  0.328230  1.0  0.2136
  H  H247  1  0.860170  0.073930  0.444230  1.0  0.1032
  H  H248  1  0.904670  0.087330  0.545530  1.0  0.1212
  H  H249  1  0.860570  0.148830  0.609730  1.0  0.0997
  H  H250  1  0.804270  0.081030  0.587230  1.0  0.1046
  H  H251  1  0.814470  0.226530  0.569030  1.0  0.1193
  H  H252  1  0.746870  0.155430  0.537730  1.0  0.1419
  H  H253  1  0.773970  0.260230  0.459230  1.0  0.1096
  H  H254  1  0.763870  0.202530  0.371530  1.0  0.1155
  H  H255  1  0.638330  0.516070  0.846470  1.0  0.2597
  H  H256  1  0.626030  0.486870  0.746070  1.0  0.2947
  H  H257  1  0.459330  0.464670  0.772770  1.0  0.27
  H  H258  1  0.543530  0.641470  0.750470  1.0  0.315
  H  H259  1  0.515330  0.611670  0.661570  1.0  0.2136
  H  H260  1  0.526830  0.407270  0.777570  1.0  0.1032
  H  H261  1  0.571330  0.420670  0.878870  1.0  0.1193
  H  H262  1  0.527230  0.482170  0.943070  1.0  0.0997
  H  H263  1  0.470930  0.414370  0.920570  1.0  0.1046
  H  H264  1  0.481130  0.559870  0.902370  1.0  0.1193
  H  H265  1  0.413530  0.488770  0.871070  1.0  0.1419
  H  H266  1  0.440630  0.593570  0.792570  1.0  0.1109
  H  H267  1  0.430530  0.535870  0.704870  1.0  0.1155
  H  H268  1  0.150600  0.455600  0.179800  1.0  0.2586
  H  H269  1  0.179800  0.472500  0.079400  1.0  0.2975
  H  H270  1  0.202000  0.328000  0.106100  1.0  0.2716
  H  H271  1  0.025200  0.235400  0.083800  1.0  0.3198
  H  H272  1  0.055000  0.237000  0.994900  1.0  0.2127
  H  H273  1  0.259400  0.452900  0.110900  1.0  0.1028
  H  H274  1  0.246000  0.484000  0.212200  1.0  0.1222
  H  H275  1  0.184500  0.378400  0.276400  1.0  0.0997
  H  H276  1  0.252300  0.389900  0.253900  1.0  0.108
  H  H277  1  0.106800  0.254600  0.235700  1.0  0.1207
  H  H278  1  0.177900  0.258100  0.204400  1.0  0.1382
  H  H279  1  0.073100  0.180400  0.125900  1.0  0.1075
  H  H280  1  0.130800  0.228000  0.038200  1.0  0.1143
  H  H281  1  0.817270  0.788930  0.513130  1.0  0.258
  H  H282  1  0.846470  0.805830  0.412730  1.0  0.2975
  H  H283  1  0.868670  0.661330  0.439430  1.0  0.2716
  H  H284  1  0.691870  0.568730  0.417130  1.0  0.3198
  H  H285  1  0.721670  0.570330  0.328230  1.0  0.2127
  H  H286  1  0.926070  0.786230  0.444230  1.0  0.1028
  H  H287  1  0.912670  0.817330  0.545530  1.0  0.1159
  H  H288  1  0.851170  0.711730  0.609730  1.0  0.0997
  H  H289  1  0.918970  0.723230  0.587230  1.0  0.1079
  H  H290  1  0.773470  0.587930  0.569030  1.0  0.1208
  H  H291  1  0.844570  0.591430  0.537730  1.0  0.1382
  H  H292  1  0.739770  0.513730  0.459230  1.0  0.1082
  H  H293  1  0.797470  0.561330  0.371530  1.0  0.1143
  H  H294  1  0.483930  0.122270  0.846470  1.0  0.2586
  H  H295  1  0.513130  0.139170  0.746070  1.0  0.2975
  H  H296  1  0.535330  0.994670  0.772770  1.0  0.2716
  H  H297  1  0.358530  0.902070  0.750470  1.0  0.3198
  H  H298  1  0.388330  0.903670  0.661570  1.0  0.2127
  H  H299  1  0.592730  0.119570  0.777570  1.0  0.1028
  H  H300  1  0.579330  0.150670  0.878870  1.0  0.1222
  H  H301  1  0.517830  0.045070  0.943070  1.0  0.0997
  H  H302  1  0.585630  0.056570  0.920570  1.0  0.108
  H  H303  1  0.440130  0.921270  0.902370  1.0  0.1207
  H  H304  1  0.511230  0.924770  0.871070  1.0  0.1382
  H  H305  1  0.406430  0.847070  0.792570  1.0  0.1076
  H  H306  1  0.464130  0.894670  0.704870  1.0  0.1143
  C  C307  1  0.447300  0.218200  0.830400  1.0  0.03
  C  C308  1  0.385000  0.173000  0.779800  1.0  0.0255
  C  C309  1  0.264800  0.122300  0.816900  1.0  0.009
  C  C310  1  0.223700  0.121000  0.903700  1.0  -0.038
  C  C311  1  0.113970  0.551530  0.163730  1.0  0.03
  C  C312  1  0.051670  0.506330  0.113130  1.0  0.0256
  C  C313  1  0.931470  0.455630  0.150230  1.0  0.009
  C  C314  1  0.890370  0.454330  0.237030  1.0  -0.038
  C  C315  1  0.780630  0.884870  0.497070  1.0  0.03
  C  C316  1  0.718330  0.839670  0.446470  1.0  0.0256
  C  C317  1  0.598130  0.788970  0.483570  1.0  0.009
  C  C318  1  0.557030  0.787670  0.570370  1.0  -0.038
  C  C319  1  0.781800  0.229100  0.830400  1.0  0.0303
  C  C320  1  0.827000  0.212000  0.779800  1.0  0.025
  C  C321  1  0.877700  0.142500  0.816900  1.0  0.002
  C  C322  1  0.879000  0.102700  0.903700  1.0  -0.0384
  C  C323  1  0.448470  0.562430  0.163730  1.0  0.0303
  C  C324  1  0.493670  0.545330  0.113130  1.0  0.025
  C  C325  1  0.544370  0.475830  0.150230  1.0  0.002
  C  C326  1  0.545670  0.436030  0.237030  1.0  -0.0384
  C  C327  1  0.115130  0.895770  0.497070  1.0  0.0303
  C  C328  1  0.160330  0.878670  0.446470  1.0  0.025
  C  C329  1  0.211030  0.809170  0.483570  1.0  0.002
  C  C330  1  0.212330  0.769370  0.570370  1.0  -0.0384
  C  C331  1  0.770900  0.552700  0.830400  1.0  0.0366
  C  C332  1  0.788000  0.615000  0.779800  1.0  0.0265
  C  C333  1  0.857500  0.735200  0.816900  1.0  0.0071
  C  C334  1  0.897300  0.776300  0.903700  1.0  -0.036
  C  C335  1  0.437570  0.886030  0.163730  1.0  0.0366
  C  C336  1  0.454670  0.948330  0.113130  1.0  0.0265
  C  C337  1  0.524170  0.068530  0.150230  1.0  0.0071
  C  C338  1  0.563970  0.109630  0.237030  1.0  -0.036
  C  C339  1  0.104230  0.219370  0.497070  1.0  0.0366
  C  C340  1  0.121330  0.281670  0.446470  1.0  0.0265
  C  C341  1  0.190830  0.401870  0.483570  1.0  0.0071
  C  C342  1  0.230630  0.442970  0.570370  1.0  -0.036
  C  C343  1  0.552700  0.781800  0.169600  1.0  0.0311
  C  C344  1  0.615000  0.827000  0.220200  1.0  0.025
  C  C345  1  0.735200  0.877700  0.183100  1.0  0.0069
  C  C346  1  0.776300  0.879000  0.096300  1.0  -0.0409
  C  C347  1  0.219370  0.115130  0.502930  1.0  0.0311
  C  C348  1  0.281670  0.160330  0.553530  1.0  0.025
  C  C349  1  0.401870  0.211030  0.516430  1.0  0.0069
  C  C350  1  0.442970  0.212330  0.429630  1.0  -0.0409
  C  C351  1  0.886030  0.448470  0.836270  1.0  0.0311
  C  C352  1  0.948330  0.493670  0.886870  1.0  0.025
  C  C353  1  0.068530  0.544370  0.849770  1.0  0.0069
  C  C354  1  0.109630  0.545670  0.762970  1.0  -0.0409
  C  C355  1  0.218200  0.770900  0.169600  1.0  0.0294
  C  C356  1  0.173000  0.788000  0.220200  1.0  0.0236
  C  C357  1  0.122300  0.857500  0.183100  1.0  0.0034
  C  C358  1  0.121000  0.897300  0.096300  1.0  -0.0384
  C  C359  1  0.884870  0.104230  0.502930  1.0  0.0294
  C  C360  1  0.839670  0.121330  0.553530  1.0  0.0236
  C  C361  1  0.788970  0.190830  0.516430  1.0  0.0034
  C  C362  1  0.787670  0.230630  0.429630  1.0  -0.0384
  C  C363  1  0.551530  0.437570  0.836270  1.0  0.0294
  C  C364  1  0.506330  0.454670  0.886870  1.0  0.0236
  C  C365  1  0.455630  0.524170  0.849770  1.0  0.0034
  C  C366  1  0.454330  0.563970  0.762970  1.0  -0.0384
  C  C367  1  0.229100  0.447300  0.169600  1.0  0.033
  C  C368  1  0.212000  0.385000  0.220200  1.0  0.025
  C  C369  1  0.142500  0.264800  0.183100  1.0  0.0051
  C  C370  1  0.102700  0.223700  0.096300  1.0  -0.0341
  C  C371  1  0.895770  0.780630  0.502930  1.0  0.033
  C  C372  1  0.878670  0.718330  0.553530  1.0  0.025
  C  C373  1  0.809170  0.598130  0.516430  1.0  0.0051
  C  C374  1  0.769370  0.557030  0.429630  1.0  -0.0341
  C  C375  1  0.562430  0.113970  0.836270  1.0  0.033
  C  C376  1  0.545330  0.051670  0.886870  1.0  0.025
  C  C377  1  0.475830  0.931470  0.849770  1.0  0.0051
  C  C378  1  0.436030  0.890370  0.762970  1.0  -0.0341
  N  N379  1  0.444400  0.275510  0.869300  1.0  -0.5962
  N  N380  1  0.332600  0.156560  0.851100  1.0  -0.3443
  N  N381  1  0.250820  0.188560  0.941300  1.0  -0.561
  N  N382  1  0.111070  0.608840  0.202630  1.0  -0.5962
  N  N383  1  0.999270  0.489890  0.184430  1.0  -0.3443
  N  N384  1  0.917490  0.521890  0.274630  1.0  -0.561
  N  N385  1  0.777730  0.942180  0.535970  1.0  -0.5962
  N  N386  1  0.665930  0.823230  0.517770  1.0  -0.3443
  N  N387  1  0.584150  0.855230  0.607970  1.0  -0.561
  N  N388  1  0.724490  0.168890  0.869300  1.0  -0.5962
  N  N389  1  0.843440  0.176040  0.851100  1.0  -0.3479
  N  N390  1  0.811440  0.062260  0.941300  1.0  -0.5585
  N  N391  1  0.391160  0.502220  0.202630  1.0  -0.5962
  N  N392  1  0.510110  0.509370  0.184430  1.0  -0.3479
  N  N393  1  0.478110  0.395590  0.274630  1.0  -0.5585
  N  N394  1  0.057820  0.835560  0.535970  1.0  -0.5962
  N  N395  1  0.176770  0.842710  0.517770  1.0  -0.3479
  N  N396  1  0.144770  0.728930  0.607970  1.0  -0.5585
  N  N397  1  0.831110  0.555600  0.869300  1.0  -0.5954
  N  N398  1  0.823960  0.667400  0.851100  1.0  -0.3473
  N  N399  1  0.937740  0.749180  0.941300  1.0  -0.5596
  N  N400  1  0.497780  0.888930  0.202630  1.0  -0.5954
  N  N401  1  0.490630  0.000730  0.184430  1.0  -0.3473
  N  N402  1  0.604410  0.082510  0.274630  1.0  -0.5596
  N  N403  1  0.164440  0.222270  0.535970  1.0  -0.5954
  N  N404  1  0.157290  0.334070  0.517770  1.0  -0.3473
  N  N405  1  0.271070  0.415850  0.607970  1.0  -0.5597
  N  N406  1  0.555600  0.724490  0.130700  1.0  -0.5991
  N  N407  1  0.667400  0.843440  0.148900  1.0  -0.3434
  N  N408  1  0.749180  0.811440  0.058700  1.0  -0.56
  N  N409  1  0.222270  0.057820  0.464030  1.0  -0.5991
  N  N410  1  0.334070  0.176770  0.482230  1.0  -0.3434
  N  N411  1  0.415850  0.144770  0.392030  1.0  -0.56
  N  N412  1  0.888930  0.391160  0.797370  1.0  -0.5991
  N  N413  1  0.000730  0.510110  0.815570  1.0  -0.3434
  N  N414  1  0.082510  0.478110  0.725370  1.0  -0.56
  N  N415  1  0.275510  0.831110  0.130700  1.0  -0.5976
  N  N416  1  0.156560  0.823960  0.148900  1.0  -0.346
  N  N417  1  0.188560  0.937740  0.058700  1.0  -0.5641
  N  N418  1  0.942180  0.164440  0.464030  1.0  -0.5975
  N  N419  1  0.823230  0.157290  0.482230  1.0  -0.3462
  N  N420  1  0.855230  0.271070  0.392030  1.0  -0.5641
  N  N421  1  0.608840  0.497780  0.797370  1.0  -0.5976
  N  N422  1  0.489890  0.490630  0.815570  1.0  -0.3462
  N  N423  1  0.521890  0.604410  0.725370  1.0  -0.5641
  N  N424  1  0.168890  0.444400  0.130700  1.0  -0.5951
  N  N425  1  0.176040  0.332600  0.148900  1.0  -0.3464
  N  N426  1  0.062260  0.250820  0.058700  1.0  -0.5607
  N  N427  1  0.835560  0.777730  0.464030  1.0  -0.5951
  N  N428  1  0.842710  0.665930  0.482230  1.0  -0.3464
  N  N429  1  0.728930  0.584150  0.392030  1.0  -0.5607
  N  N430  1  0.502220  0.111070  0.797370  1.0  -0.5951
  N  N431  1  0.509370  0.999270  0.815570  1.0  -0.3464
  N  N432  1  0.395590  0.917490  0.725370  1.0  -0.5607
  O  O433  1  0.367190  0.210180  0.037400  1.0  -0.8906
  O  O434  1  0.422340  0.175780  0.156400  1.0  -0.8414
  O  O435  1  0.391500  0.259460  0.206500  1.0  -0.9127
  O  O436  1  0.484140  0.289690  0.089300  1.0  -0.7593
  O  O437  1  0.375310  0.044500  0.211600  1.0  -0.8981
  O  O438  1  0.367050  0.958630  0.325000  1.0  -0.8834
  O  O439  1  0.271520  0.935160  0.217300  1.0  -0.8913
  O  O440  1  0.300270  0.010600  0.360000  1.0  -0.88
  O  O441  1  0.033860  0.543510  0.370730  1.0  -0.8907
  O  O442  1  0.089010  0.509110  0.489730  1.0  -0.8413
  O  O443  1  0.058170  0.592790  0.539830  1.0  -0.9121
  O  O444  1  0.150810  0.623020  0.422630  1.0  -0.7537
  O  O445  1  0.041980  0.377830  0.544930  1.0  -0.8981
  O  O446  1  0.033720  0.291960  0.658330  1.0  -0.8836
  O  O447  1  0.938190  0.268490  0.550630  1.0  -0.8913
  O  O448  1  0.966940  0.343930  0.693330  1.0  -0.88
  O  O449  1  0.700520  0.876850  0.704070  1.0  -0.8906
  O  O450  1  0.755670  0.842450  0.823070  1.0  -0.8414
  O  O451  1  0.724830  0.926130  0.873170  1.0  -0.9127
  O  O452  1  0.817470  0.956360  0.755970  1.0  -0.7737
  O  O453  1  0.708640  0.711170  0.878270  1.0  -0.8981
  O  O454  1  0.700380  0.625300  0.991670  1.0  -0.8833
  O  O455  1  0.604850  0.601830  0.883970  1.0  -0.8913
  O  O456  1  0.633600  0.677270  0.026670  1.0  -0.88
  O  O457  1  0.789820  0.157010  0.037400  1.0  -0.8903
  O  O458  1  0.824220  0.246560  0.156400  1.0  -0.8407
  O  O459  1  0.740540  0.132040  0.206500  1.0  -0.9108
  O  O460  1  0.710310  0.194450  0.089300  1.0  -0.7653
  O  O461  1  0.955500  0.330810  0.211600  1.0  -0.898
  O  O462  1  0.041370  0.408420  0.325000  1.0  -0.8828
  O  O463  1  0.064840  0.336360  0.217300  1.0  -0.8891
  O  O464  1  0.989400  0.289670  0.360000  1.0  -0.8809
  O  O465  1  0.456490  0.490340  0.370730  1.0  -0.8903
  O  O466  1  0.490890  0.579890  0.489730  1.0  -0.8407
  O  O467  1  0.407210  0.465370  0.539830  1.0  -0.9111
  O  O468  1  0.376980  0.527780  0.422630  1.0  -0.7768
  O  O469  1  0.622170  0.664140  0.544930  1.0  -0.898
  O  O470  1  0.708040  0.741750  0.658330  1.0  -0.8828
  O  O471  1  0.731510  0.669690  0.550630  1.0  -0.8891
  O  O472  1  0.656070  0.623000  0.693330  1.0  -0.8809
  O  O473  1  0.123150  0.823680  0.704070  1.0  -0.8903
  O  O474  1  0.157550  0.913230  0.823070  1.0  -0.8407
  O  O475  1  0.073870  0.798710  0.873170  1.0  -0.9108
  O  O476  1  0.043640  0.861120  0.755970  1.0  -0.7657
  O  O477  1  0.288830  0.997480  0.878270  1.0  -0.898
  O  O478  1  0.374700  0.075090  0.991670  1.0  -0.8828
  O  O479  1  0.398170  0.003030  0.883970  1.0  -0.8891
  O  O480  1  0.322730  0.956340  0.026670  1.0  -0.881
  O  O481  1  0.842990  0.632810  0.037400  1.0  -0.889
  O  O482  1  0.753440  0.577660  0.156400  1.0  -0.844
  O  O483  1  0.867960  0.608500  0.206500  1.0  -0.9113
  O  O484  1  0.805550  0.515860  0.089300  1.0  -0.7731
  O  O485  1  0.669190  0.624690  0.211600  1.0  -0.8974
  O  O486  1  0.591580  0.632950  0.325000  1.0  -0.8831
  O  O487  1  0.663640  0.728480  0.217300  1.0  -0.8888
  O  O488  1  0.710330  0.699730  0.360000  1.0  -0.88
  O  O489  1  0.509660  0.966140  0.370730  1.0  -0.889
  O  O490  1  0.420110  0.910990  0.489730  1.0  -0.8435
  O  O491  1  0.534630  0.941830  0.539830  1.0  -0.9113
  O  O492  1  0.472220  0.849190  0.422630  1.0  -0.7696
  O  O493  1  0.335860  0.958020  0.544930  1.0  -0.8974
  O  O494  1  0.258250  0.966280  0.658330  1.0  -0.8831
  O  O495  1  0.330310  0.061810  0.550630  1.0  -0.8888
  O  O496  1  0.377000  0.033060  0.693330  1.0  -0.8802
  O  O497  1  0.176320  0.299480  0.704070  1.0  -0.889
  O  O498  1  0.086770  0.244330  0.823070  1.0  -0.844
  O  O499  1  0.201290  0.275170  0.873170  1.0  -0.9113
  O  O500  1  0.138880  0.182530  0.755970  1.0  -0.7903
  O  O501  1  0.002520  0.291360  0.878270  1.0  -0.8974
  O  O502  1  0.924910  0.299620  0.991670  1.0  -0.8832
  O  O503  1  0.996970  0.395150  0.883970  1.0  -0.8888
  O  O504  1  0.043660  0.366400  0.026670  1.0  -0.8799
  O  O505  1  0.632810  0.789820  0.962600  1.0  -0.8993
  O  O506  1  0.577660  0.824220  0.843600  1.0  -0.8403
  O  O507  1  0.608500  0.740540  0.793500  1.0  -0.9134
  O  O508  1  0.515860  0.710310  0.910700  1.0  -0.7616
  O  O509  1  0.624690  0.955500  0.788400  1.0  -0.9013
  O  O510  1  0.632950  0.041370  0.675000  1.0  -0.8842
  O  O511  1  0.728480  0.064840  0.782700  1.0  -0.8918
  O  O512  1  0.699730  0.989400  0.640000  1.0  -0.8855
  O  O513  1  0.299480  0.123150  0.295930  1.0  -0.8993
  O  O514  1  0.244330  0.157550  0.176930  1.0  -0.8403
  O  O515  1  0.275170  0.073870  0.126830  1.0  -0.9134
  O  O516  1  0.182530  0.043640  0.244030  1.0  -0.7756
  O  O517  1  0.291360  0.288830  0.121730  1.0  -0.9013
  O  O518  1  0.299620  0.374700  0.008330  1.0  -0.8842
  O  O519  1  0.395150  0.398170  0.116030  1.0  -0.8918
  O  O520  1  0.366400  0.322730  0.973330  1.0  -0.8855
  O  O521  1  0.966140  0.456490  0.629270  1.0  -0.8993
  O  O522  1  0.910990  0.490890  0.510270  1.0  -0.8402
  O  O523  1  0.941830  0.407210  0.460170  1.0  -0.9129
  O  O524  1  0.849190  0.376980  0.577370  1.0  -0.7564
  O  O525  1  0.958020  0.622170  0.455070  1.0  -0.9013
  O  O526  1  0.966280  0.708040  0.341670  1.0  -0.8844
  O  O527  1  0.061810  0.731510  0.449370  1.0  -0.8918
  O  O528  1  0.033060  0.656070  0.306670  1.0  -0.8855
  O  O529  1  0.210180  0.842990  0.962600  1.0  -0.8978
  O  O530  1  0.175780  0.753440  0.843600  1.0  -0.8411
  O  O531  1  0.259460  0.867960  0.793500  1.0  -0.912
  O  O532  1  0.289690  0.805550  0.910700  1.0  -0.7671
  O  O533  1  0.044500  0.669190  0.788400  1.0  -0.8994
  O  O534  1  0.958630  0.591580  0.675000  1.0  -0.8836
  O  O535  1  0.935160  0.663640  0.782700  1.0  -0.8916
  O  O536  1  0.010600  0.710330  0.640000  1.0  -0.8857
  O  O537  1  0.876850  0.176320  0.295930  1.0  -0.8978
  O  O538  1  0.842450  0.086770  0.176930  1.0  -0.8411
  O  O539  1  0.926130  0.201290  0.126830  1.0  -0.912
  O  O540  1  0.956360  0.138880  0.244030  1.0  -0.7674
  O  O541  1  0.711170  0.002520  0.121730  1.0  -0.8994
  O  O542  1  0.625300  0.924910  0.008330  1.0  -0.8836
  O  O543  1  0.601830  0.996970  0.116030  1.0  -0.8916
  O  O544  1  0.677270  0.043660  0.973330  1.0  -0.8857
  O  O545  1  0.543510  0.509660  0.629270  1.0  -0.8978
  O  O546  1  0.509110  0.420110  0.510270  1.0  -0.8412
  O  O547  1  0.592790  0.534630  0.460170  1.0  -0.9122
  O  O548  1  0.623020  0.472220  0.577370  1.0  -0.7788
  O  O549  1  0.377830  0.335860  0.455070  1.0  -0.8994
  O  O550  1  0.291960  0.258250  0.341670  1.0  -0.8836
  O  O551  1  0.268490  0.330310  0.449370  1.0  -0.8916
  O  O552  1  0.343930  0.377000  0.306670  1.0  -0.8857
  O  O553  1  0.157010  0.367190  0.962600  1.0  -0.898
  O  O554  1  0.246560  0.422340  0.843600  1.0  -0.844
  O  O555  1  0.132040  0.391500  0.793500  1.0  -0.9123
  O  O556  1  0.194450  0.484140  0.910700  1.0  -0.7722
  O  O557  1  0.330810  0.375310  0.788400  1.0  -0.9004
  O  O558  1  0.408420  0.367050  0.675000  1.0  -0.8826
  O  O559  1  0.336360  0.271520  0.782700  1.0  -0.8906
  O  O560  1  0.289670  0.300270  0.640000  1.0  -0.8859
  O  O561  1  0.823680  0.700520  0.295930  1.0  -0.898
  O  O562  1  0.913230  0.755670  0.176930  1.0  -0.844
  O  O563  1  0.798710  0.724830  0.126830  1.0  -0.9123
  O  O564  1  0.861120  0.817470  0.244030  1.0  -0.7885
  O  O565  1  0.997480  0.708640  0.121730  1.0  -0.9004
  O  O566  1  0.075090  0.700380  0.008330  1.0  -0.8827
  O  O567  1  0.003030  0.604850  0.116030  1.0  -0.8906
  O  O568  1  0.956340  0.633600  0.973330  1.0  -0.8859
  O  O569  1  0.490340  0.033860  0.629270  1.0  -0.898
  O  O570  1  0.579890  0.089010  0.510270  1.0  -0.8435
  O  O571  1  0.465370  0.058170  0.460170  1.0  -0.9123
  O  O572  1  0.527780  0.150810  0.577370  1.0  -0.7678
  O  O573  1  0.664140  0.041980  0.455070  1.0  -0.9004
  O  O574  1  0.741750  0.033720  0.341670  1.0  -0.8827
  O  O575  1  0.669690  0.938190  0.449370  1.0  -0.8906
  O  O576  1  0.623000  0.966940  0.306670  1.0  -0.8862
