# generated using pymatgen
data_MnGa3P4H26C8(N3O8)2
_symmetry_space_group_name_H-M   'P 1'
_cell_length_a   23.66350000
_cell_length_b   23.66350000
_cell_length_c   13.56860000
_cell_angle_alpha   90.00000000
_cell_angle_beta   90.00000000
_cell_angle_gamma   120.00000000
_symmetry_Int_Tables_number   1
_chemical_formula_structural   MnGa3P4H26C8(N3O8)2
_chemical_formula_sum   'Mn9 Ga27 P36 H234 C72 N54 O144'
_cell_volume   6579.96573429
_cell_formula_units_Z   9
loop_
 _symmetry_equiv_pos_site_id
 _symmetry_equiv_pos_as_xyz
  1  'x, y, z'
loop_
 _atom_site_type_symbol
 _atom_site_label
 _atom_site_symmetry_multiplicity
 _atom_site_fract_x
 _atom_site_fract_y
 _atom_site_fract_z
 _atom_site_occupancy
 _atom_site_charge
  Mn  Mn1  1  0.361850  0.093330  0.118250  1.0  1.0685
  Mn  Mn2  1  0.028520  0.426660  0.451580  1.0  1.0686
  Mn  Mn3  1  0.695180  0.760000  0.784920  1.0  1.0686
  Mn  Mn4  1  0.906670  0.268520  0.118250  1.0  1.069
  Mn  Mn5  1  0.573340  0.601850  0.451580  1.0  1.069
  Mn  Mn6  1  0.240000  0.935190  0.784920  1.0  1.069
  Mn  Mn7  1  0.731480  0.638150  0.118250  1.0  1.0693
  Mn  Mn8  1  0.398150  0.971480  0.451580  1.0  1.0696
  Mn  Mn9  1  0.064810  0.304820  0.784920  1.0  1.0693
  Ga  Ga10  1  0.349910  0.243800  0.918020  1.0  1.4171
  Ga  Ga11  1  0.304820  0.240000  0.215080  1.0  1.6164
  Ga  Ga12  1  0.016580  0.577130  0.251350  1.0  1.4162
  Ga  Ga13  1  0.971480  0.573340  0.548420  1.0  1.6164
  Ga  Ga14  1  0.683240  0.910470  0.584690  1.0  1.4165
  Ga  Ga15  1  0.638150  0.906670  0.881750  1.0  1.6163
  Ga  Ga16  1  0.756200  0.106110  0.918020  1.0  1.417
  Ga  Ga17  1  0.760000  0.064810  0.215080  1.0  1.6176
  Ga  Ga18  1  0.422870  0.439440  0.251350  1.0  1.417
  Ga  Ga19  1  0.426660  0.398150  0.548420  1.0  1.6176
  Ga  Ga20  1  0.089530  0.772780  0.584690  1.0  1.417
  Ga  Ga21  1  0.093330  0.731480  0.881750  1.0  1.6176
  Ga  Ga22  1  0.893890  0.650090  0.918020  1.0  1.4157
  Ga  Ga23  1  0.935190  0.695180  0.215080  1.0  1.6182
  Ga  Ga24  1  0.560560  0.983420  0.251350  1.0  1.4155
  Ga  Ga25  1  0.601850  0.028520  0.548420  1.0  1.6191
  Ga  Ga26  1  0.227220  0.316760  0.584690  1.0  1.4149
  Ga  Ga27  1  0.268520  0.361850  0.881750  1.0  1.6182
  Ga  Ga28  1  0.650090  0.756200  0.081980  1.0  1.4157
  Ga  Ga29  1  0.316760  0.089530  0.415310  1.0  1.4162
  Ga  Ga30  1  0.983420  0.422870  0.748650  1.0  1.4153
  Ga  Ga31  1  0.243800  0.893890  0.081980  1.0  1.4147
  Ga  Ga32  1  0.910470  0.227220  0.415310  1.0  1.4147
  Ga  Ga33  1  0.577130  0.560560  0.748650  1.0  1.4147
  Ga  Ga34  1  0.106110  0.349910  0.081980  1.0  1.4136
  Ga  Ga35  1  0.772780  0.683240  0.415310  1.0  1.4142
  Ga  Ga36  1  0.439440  0.016580  0.748650  1.0  1.4142
  P  P37  1  0.420290  0.237860  0.122030  1.0  1.7594
  P  P38  1  0.327030  0.986170  0.274840  1.0  1.7561
  P  P39  1  0.086960  0.571190  0.455360  1.0  1.7593
  P  P40  1  0.993700  0.319500  0.608170  1.0  1.7566
  P  P41  1  0.753620  0.904530  0.788700  1.0  1.7594
  P  P42  1  0.660360  0.652840  0.941510  1.0  1.7561
  P  P43  1  0.762140  0.182430  0.122030  1.0  1.7604
  P  P44  1  0.013830  0.340860  0.274840  1.0  1.7558
  P  P45  1  0.428810  0.515760  0.455360  1.0  1.7604
  P  P46  1  0.680500  0.674190  0.608170  1.0  1.7562
  P  P47  1  0.095470  0.849100  0.788700  1.0  1.7604
  P  P48  1  0.347160  0.007530  0.941510  1.0  1.7558
  P  P49  1  0.817570  0.579710  0.122030  1.0  1.761
  P  P50  1  0.659140  0.672970  0.274840  1.0  1.7588
  P  P51  1  0.484240  0.913040  0.455360  1.0  1.761
  P  P52  1  0.325810  0.006300  0.608170  1.0  1.7584
  P  P53  1  0.150900  0.246380  0.788700  1.0  1.761
  P  P54  1  0.992470  0.339640  0.941510  1.0  1.7588
  P  P55  1  0.579710  0.762140  0.877970  1.0  1.7588
  P  P56  1  0.672970  0.013830  0.725160  1.0  1.7579
  P  P57  1  0.246380  0.095470  0.211300  1.0  1.7588
  P  P58  1  0.339640  0.347160  0.058490  1.0  1.7579
  P  P59  1  0.913040  0.428810  0.544640  1.0  1.7588
  P  P60  1  0.006300  0.680500  0.391830  1.0  1.7584
  P  P61  1  0.237860  0.817570  0.877970  1.0  1.7608
  P  P62  1  0.986170  0.659140  0.725160  1.0  1.7566
  P  P63  1  0.904530  0.150900  0.211300  1.0  1.7608
  P  P64  1  0.652840  0.992470  0.058490  1.0  1.7566
  P  P65  1  0.571190  0.484240  0.544640  1.0  1.7608
  P  P66  1  0.319500  0.325810  0.391830  1.0  1.757
  P  P67  1  0.182430  0.420290  0.877970  1.0  1.7609
  P  P68  1  0.340860  0.327030  0.725160  1.0  1.758
  P  P69  1  0.849100  0.753620  0.211300  1.0  1.7609
  P  P70  1  0.007530  0.660360  0.058490  1.0  1.758
  P  P71  1  0.515760  0.086960  0.544640  1.0  1.7608
  P  P72  1  0.674190  0.993700  0.391830  1.0  1.7577
  H  H73  1  0.450200  0.304300  0.821700  1.0  0.2491
  H  H74  1  0.478900  0.304700  0.922800  1.0  0.1573
  H  H75  1  0.335300  0.131200  0.907600  1.0  0.1469
  H  H76  1  0.239900  0.182700  0.010700  1.0  0.1758
  H  H77  1  0.217900  0.200400  0.914400  1.0  0.1932
  H  H78  1  0.463100  0.201500  0.884900  1.0  0.1162
  H  H79  1  0.480500  0.238900  0.765200  1.0  0.1287
  H  H80  1  0.388900  0.137400  0.752400  1.0  0.1078
  H  H81  1  0.376700  0.200200  0.726600  1.0  0.0949
  H  H82  1  0.254700  0.146400  0.759100  1.0  0.1238
  H  H83  1  0.249100  0.079000  0.800800  1.0  0.1235
  H  H84  1  0.181900  0.110100  0.879000  1.0  0.1235
  H  H85  1  0.223700  0.090200  0.964700  1.0  0.1263
  H  H86  1  0.116870  0.637630  0.155030  1.0  0.2491
  H  H87  1  0.145570  0.638030  0.256130  1.0  0.1572
  H  H88  1  0.001970  0.464530  0.240930  1.0  0.1469
  H  H89  1  0.906570  0.516030  0.344030  1.0  0.1758
  H  H90  1  0.884570  0.533730  0.247730  1.0  0.1932
  H  H91  1  0.129770  0.534830  0.218230  1.0  0.1162
  H  H92  1  0.147170  0.572230  0.098530  1.0  0.1287
  H  H93  1  0.055570  0.470730  0.085730  1.0  0.1078
  H  H94  1  0.043370  0.533530  0.059930  1.0  0.0949
  H  H95  1  0.921370  0.479730  0.092430  1.0  0.1286
  H  H96  1  0.915770  0.412330  0.134130  1.0  0.1235
  H  H97  1  0.848570  0.443430  0.212330  1.0  0.1235
  H  H98  1  0.890370  0.423530  0.298030  1.0  0.1263
  H  H99  1  0.783530  0.970970  0.488370  1.0  0.2491
  H  H100  1  0.812230  0.971370  0.589470  1.0  0.1573
  H  H101  1  0.668630  0.797870  0.574270  1.0  0.1472
  H  H102  1  0.573230  0.849370  0.677370  1.0  0.1758
  H  H103  1  0.551230  0.867070  0.581070  1.0  0.193
  H  H104  1  0.796430  0.868170  0.551570  1.0  0.1162
  H  H105  1  0.813830  0.905570  0.431870  1.0  0.1205
  H  H106  1  0.722230  0.804070  0.419070  1.0  0.1081
  H  H107  1  0.710030  0.866870  0.393270  1.0  0.0949
  H  H108  1  0.588030  0.813070  0.425770  1.0  0.1286
  H  H109  1  0.582430  0.745670  0.467470  1.0  0.1235
  H  H110  1  0.515230  0.776770  0.545670  1.0  0.1293
  H  H111  1  0.557030  0.756870  0.631370  1.0  0.1263
  H  H112  1  0.695700  0.145900  0.821700  1.0  0.2501
  H  H113  1  0.695300  0.174200  0.922800  1.0  0.1593
  H  H114  1  0.868800  0.204100  0.907600  1.0  0.1464
  H  H115  1  0.817300  0.057200  0.010700  1.0  0.1765
  H  H116  1  0.799600  0.017500  0.914400  1.0  0.1922
  H  H117  1  0.798500  0.261600  0.884900  1.0  0.1191
  H  H118  1  0.761100  0.241600  0.765200  1.0  0.1218
  H  H119  1  0.862600  0.251500  0.752400  1.0  0.1065
  H  H120  1  0.799800  0.176500  0.726600  1.0  0.0945
  H  H121  1  0.853600  0.108300  0.759100  1.0  0.1289
  H  H122  1  0.921000  0.170100  0.800800  1.0  0.125
  H  H123  1  0.889900  0.071800  0.879000  1.0  0.1337
  H  H124  1  0.909800  0.133500  0.964700  1.0  0.1255
  H  H125  1  0.362370  0.479230  0.155030  1.0  0.2501
  H  H126  1  0.361970  0.507530  0.256130  1.0  0.1594
  H  H127  1  0.535470  0.537430  0.240930  1.0  0.1464
  H  H128  1  0.483970  0.390530  0.344030  1.0  0.1765
  H  H129  1  0.466270  0.350830  0.247730  1.0  0.1922
  H  H130  1  0.465170  0.594930  0.218230  1.0  0.1191
  H  H131  1  0.427770  0.574930  0.098530  1.0  0.1218
  H  H132  1  0.529270  0.584830  0.085730  1.0  0.1065
  H  H133  1  0.466470  0.509830  0.059930  1.0  0.0945
  H  H134  1  0.520270  0.441630  0.092430  1.0  0.124
  H  H135  1  0.587670  0.503430  0.134130  1.0  0.125
  H  H136  1  0.556570  0.405130  0.212330  1.0  0.1337
  H  H137  1  0.576470  0.466830  0.298030  1.0  0.1255
  H  H138  1  0.029030  0.812570  0.488370  1.0  0.2501
  H  H139  1  0.028630  0.840870  0.589470  1.0  0.1594
  H  H140  1  0.202130  0.870770  0.574270  1.0  0.1464
  H  H141  1  0.150630  0.723870  0.677370  1.0  0.1765
  H  H142  1  0.132930  0.684170  0.581070  1.0  0.1923
  H  H143  1  0.131830  0.928270  0.551570  1.0  0.1191
  H  H144  1  0.094430  0.908270  0.431870  1.0  0.1289
  H  H145  1  0.195930  0.918170  0.419070  1.0  0.1065
  H  H146  1  0.133130  0.843170  0.393270  1.0  0.0945
  H  H147  1  0.186930  0.774970  0.425770  1.0  0.1289
  H  H148  1  0.254330  0.836770  0.467470  1.0  0.125
  H  H149  1  0.223230  0.738470  0.545670  1.0  0.1262
  H  H150  1  0.243130  0.800170  0.631370  1.0  0.1255
  H  H151  1  0.854100  0.549800  0.821700  1.0  0.2483
  H  H152  1  0.825800  0.521100  0.922800  1.0  0.1599
  H  H153  1  0.795900  0.664700  0.907600  1.0  0.145
  H  H154  1  0.942800  0.760100  0.010700  1.0  0.1721
  H  H155  1  0.982500  0.782100  0.914400  1.0  0.1881
  H  H156  1  0.738400  0.536900  0.884900  1.0  0.1195
  H  H157  1  0.758400  0.519500  0.765200  1.0  0.1331
  H  H158  1  0.748500  0.611100  0.752400  1.0  0.1053
  H  H159  1  0.823500  0.623300  0.726600  1.0  0.0931
  H  H160  1  0.891700  0.745300  0.759100  1.0  0.1289
  H  H161  1  0.829900  0.750900  0.800800  1.0  0.12
  H  H162  1  0.928200  0.818100  0.879000  1.0  0.1255
  H  H163  1  0.866500  0.776300  0.964700  1.0  0.1258
  H  H164  1  0.520770  0.883130  0.155030  1.0  0.2483
  H  H165  1  0.492470  0.854430  0.256130  1.0  0.1599
  H  H166  1  0.462570  0.998030  0.240930  1.0  0.1477
  H  H167  1  0.609470  0.093430  0.344030  1.0  0.1721
  H  H168  1  0.649170  0.115430  0.247730  1.0  0.1882
  H  H169  1  0.405070  0.870230  0.218230  1.0  0.1195
  H  H170  1  0.425070  0.852830  0.098530  1.0  0.1331
  H  H171  1  0.415170  0.944430  0.085730  1.0  0.1052
  H  H172  1  0.490170  0.956630  0.059930  1.0  0.0931
  H  H173  1  0.558370  0.078630  0.092430  1.0  0.1239
  H  H174  1  0.496570  0.084230  0.134130  1.0  0.12
  H  H175  1  0.594870  0.151430  0.212330  1.0  0.1256
  H  H176  1  0.533170  0.109630  0.298030  1.0  0.1258
  H  H177  1  0.187430  0.216470  0.488370  1.0  0.2483
  H  H178  1  0.159130  0.187770  0.589470  1.0  0.1598
  H  H179  1  0.129230  0.331370  0.574270  1.0  0.1477
  H  H180  1  0.276130  0.426770  0.677370  1.0  0.1721
  H  H181  1  0.315830  0.448770  0.581070  1.0  0.1884
  H  H182  1  0.071730  0.203570  0.551570  1.0  0.1195
  H  H183  1  0.091730  0.186170  0.431870  1.0  0.1232
  H  H184  1  0.081830  0.277770  0.419070  1.0  0.1052
  H  H185  1  0.156830  0.289970  0.393270  1.0  0.0931
  H  H186  1  0.225030  0.411970  0.425770  1.0  0.129
  H  H187  1  0.163230  0.417570  0.467470  1.0  0.12
  H  H188  1  0.261530  0.484770  0.545670  1.0  0.1297
  H  H189  1  0.199830  0.442970  0.631370  1.0  0.1258
  H  H190  1  0.549800  0.695700  0.178300  1.0  0.2498
  H  H191  1  0.521100  0.695300  0.077200  1.0  0.1579
  H  H192  1  0.664700  0.868800  0.092400  1.0  0.1479
  H  H193  1  0.760100  0.817300  0.989300  1.0  0.175
  H  H194  1  0.782100  0.799600  0.085600  1.0  0.1917
  H  H195  1  0.536900  0.798500  0.115100  1.0  0.1162
  H  H196  1  0.519500  0.761100  0.234800  1.0  0.1275
  H  H197  1  0.611100  0.862600  0.247600  1.0  0.1074
  H  H198  1  0.623300  0.799800  0.273400  1.0  0.0943
  H  H199  1  0.745300  0.853600  0.240900  1.0  0.1278
  H  H200  1  0.750900  0.921000  0.199200  1.0  0.1253
  H  H201  1  0.818100  0.889900  0.121000  1.0  0.1267
  H  H202  1  0.776300  0.909800  0.035300  1.0  0.125
  H  H203  1  0.216470  0.029030  0.511630  1.0  0.2498
  H  H204  1  0.187770  0.028630  0.410530  1.0  0.1579
  H  H205  1  0.331370  0.202130  0.425730  1.0  0.1475
  H  H206  1  0.426770  0.150630  0.322630  1.0  0.175
  H  H207  1  0.448770  0.132930  0.418930  1.0  0.1915
  H  H208  1  0.203570  0.131830  0.448430  1.0  0.1162
  H  H209  1  0.186170  0.094430  0.568130  1.0  0.1195
  H  H210  1  0.277770  0.195930  0.580930  1.0  0.1071
  H  H211  1  0.289970  0.133130  0.606730  1.0  0.0943
  H  H212  1  0.411970  0.186930  0.574230  1.0  0.123
  H  H213  1  0.417570  0.254330  0.532530  1.0  0.1253
  H  H214  1  0.484770  0.223230  0.454330  1.0  0.1319
  H  H215  1  0.442970  0.243130  0.368630  1.0  0.125
  H  H216  1  0.883130  0.362370  0.844970  1.0  0.2498
  H  H217  1  0.854430  0.361970  0.743870  1.0  0.1579
  H  H218  1  0.998030  0.535470  0.759070  1.0  0.1475
  H  H219  1  0.093430  0.483970  0.655970  1.0  0.175
  H  H220  1  0.115430  0.466270  0.752270  1.0  0.1916
  H  H221  1  0.870230  0.465170  0.781770  1.0  0.1162
  H  H222  1  0.852830  0.427770  0.901470  1.0  0.1275
  H  H223  1  0.944430  0.529270  0.914270  1.0  0.1071
  H  H224  1  0.956630  0.466470  0.940070  1.0  0.0943
  H  H225  1  0.078630  0.520270  0.907570  1.0  0.1277
  H  H226  1  0.084230  0.587670  0.865870  1.0  0.1253
  H  H227  1  0.151430  0.556570  0.787670  1.0  0.1267
  H  H228  1  0.109630  0.576470  0.701970  1.0  0.1251
  H  H229  1  0.304300  0.854100  0.178300  1.0  0.2507
  H  H230  1  0.304700  0.825800  0.077200  1.0  0.1569
  H  H231  1  0.131200  0.795900  0.092400  1.0  0.148
  H  H232  1  0.182700  0.942800  0.989300  1.0  0.1779
  H  H233  1  0.200400  0.982500  0.085600  1.0  0.1903
  H  H234  1  0.201500  0.738400  0.115100  1.0  0.1186
  H  H235  1  0.238900  0.758400  0.234800  1.0  0.1203
  H  H236  1  0.137400  0.748500  0.247600  1.0  0.1072
  H  H237  1  0.200200  0.823500  0.273400  1.0  0.0943
  H  H238  1  0.146400  0.891700  0.240900  1.0  0.1288
  H  H239  1  0.079000  0.829900  0.199200  1.0  0.1238
  H  H240  1  0.110100  0.928200  0.121000  1.0  0.1322
  H  H241  1  0.090200  0.866500  0.035300  1.0  0.1255
  H  H242  1  0.970970  0.187430  0.511630  1.0  0.2507
  H  H243  1  0.971370  0.159130  0.410530  1.0  0.157
  H  H244  1  0.797870  0.129230  0.425730  1.0  0.148
  H  H245  1  0.849370  0.276130  0.322630  1.0  0.1779
  H  H246  1  0.867070  0.315830  0.418930  1.0  0.1906
  H  H247  1  0.868170  0.071730  0.448430  1.0  0.1186
  H  H248  1  0.905570  0.091730  0.568130  1.0  0.1274
  H  H249  1  0.804070  0.081830  0.580930  1.0  0.1072
  H  H250  1  0.866870  0.156830  0.606730  1.0  0.0943
  H  H251  1  0.813070  0.225030  0.574230  1.0  0.1288
  H  H252  1  0.745670  0.163230  0.532530  1.0  0.1238
  H  H253  1  0.776770  0.261530  0.454330  1.0  0.1232
  H  H254  1  0.756870  0.199830  0.368630  1.0  0.1255
  H  H255  1  0.637630  0.520770  0.844970  1.0  0.2507
  H  H256  1  0.638030  0.492470  0.743870  1.0  0.1569
  H  H257  1  0.464530  0.462570  0.759070  1.0  0.148
  H  H258  1  0.516030  0.609470  0.655970  1.0  0.1779
  H  H259  1  0.533730  0.649170  0.752270  1.0  0.1903
  H  H260  1  0.534830  0.405070  0.781770  1.0  0.1186
  H  H261  1  0.572230  0.425070  0.901470  1.0  0.1203
  H  H262  1  0.470730  0.415170  0.914270  1.0  0.1072
  H  H263  1  0.533530  0.490170  0.940070  1.0  0.0943
  H  H264  1  0.479730  0.558370  0.907570  1.0  0.1239
  H  H265  1  0.412330  0.496570  0.865870  1.0  0.1238
  H  H266  1  0.443430  0.594870  0.787670  1.0  0.1322
  H  H267  1  0.423530  0.533170  0.701970  1.0  0.1255
  H  H268  1  0.145900  0.450200  0.178300  1.0  0.2485
  H  H269  1  0.174200  0.478900  0.077200  1.0  0.1598
  H  H270  1  0.204100  0.335300  0.092400  1.0  0.1473
  H  H271  1  0.057200  0.239900  0.989300  1.0  0.1736
  H  H272  1  0.017500  0.217900  0.085600  1.0  0.1887
  H  H273  1  0.261600  0.463100  0.115100  1.0  0.1191
  H  H274  1  0.241600  0.480500  0.234800  1.0  0.1314
  H  H275  1  0.251500  0.388900  0.247600  1.0  0.1103
  H  H276  1  0.176500  0.376700  0.273400  1.0  0.0948
  H  H277  1  0.108300  0.254700  0.240900  1.0  0.1288
  H  H278  1  0.170100  0.249100  0.199200  1.0  0.1232
  H  H279  1  0.071800  0.181900  0.121000  1.0  0.1194
  H  H280  1  0.133500  0.223700  0.035300  1.0  0.1252
  H  H281  1  0.812570  0.783530  0.511630  1.0  0.2485
  H  H282  1  0.840870  0.812230  0.410530  1.0  0.1597
  H  H283  1  0.870770  0.668630  0.425730  1.0  0.1445
  H  H284  1  0.723870  0.573230  0.322630  1.0  0.1736
  H  H285  1  0.684170  0.551230  0.418930  1.0  0.1889
  H  H286  1  0.928270  0.796430  0.448430  1.0  0.119
  H  H287  1  0.908270  0.813830  0.568130  1.0  0.1233
  H  H288  1  0.918170  0.722230  0.580930  1.0  0.1103
  H  H289  1  0.843170  0.710030  0.606730  1.0  0.0948
  H  H290  1  0.774970  0.588030  0.574230  1.0  0.1289
  H  H291  1  0.836770  0.582430  0.532530  1.0  0.1232
  H  H292  1  0.738470  0.515230  0.454330  1.0  0.1237
  H  H293  1  0.800170  0.557030  0.368630  1.0  0.1253
  H  H294  1  0.479230  0.116870  0.844970  1.0  0.2485
  H  H295  1  0.507530  0.145570  0.743870  1.0  0.1598
  H  H296  1  0.537430  0.001970  0.759070  1.0  0.1473
  H  H297  1  0.390530  0.906570  0.655970  1.0  0.1736
  H  H298  1  0.350830  0.884570  0.752270  1.0  0.1888
  H  H299  1  0.594930  0.129770  0.781770  1.0  0.1191
  H  H300  1  0.574930  0.147170  0.901470  1.0  0.1314
  H  H301  1  0.584830  0.055570  0.914270  1.0  0.1103
  H  H302  1  0.509830  0.043370  0.940070  1.0  0.0948
  H  H303  1  0.441630  0.921370  0.907570  1.0  0.124
  H  H304  1  0.503430  0.915770  0.865870  1.0  0.1232
  H  H305  1  0.405130  0.848570  0.787670  1.0  0.1194
  H  H306  1  0.466830  0.890370  0.701970  1.0  0.1252
  C  C307  1  0.449000  0.222400  0.828300  1.0  -0.0308
  C  C308  1  0.386200  0.175700  0.779300  1.0  0.0035
  C  C309  1  0.266500  0.123800  0.818100  1.0  -0.0009
  C  C310  1  0.225100  0.120900  0.905200  1.0  0.0103
  C  C311  1  0.115670  0.555730  0.161630  1.0  -0.0308
  C  C312  1  0.052870  0.509030  0.112630  1.0  0.0036
  C  C313  1  0.933170  0.457130  0.151430  1.0  -0.0009
  C  C314  1  0.891770  0.454230  0.238530  1.0  0.0103
  C  C315  1  0.782330  0.889070  0.494970  1.0  -0.0308
  C  C316  1  0.719530  0.842370  0.445970  1.0  0.0036
  C  C317  1  0.599830  0.790470  0.484770  1.0  -0.0007
  C  C318  1  0.558430  0.787570  0.571870  1.0  0.0103
  C  C319  1  0.777600  0.226600  0.828300  1.0  -0.0286
  C  C320  1  0.824300  0.210500  0.779300  1.0  0.0034
  C  C321  1  0.876200  0.142700  0.818100  1.0  -1e-04
  C  C322  1  0.879100  0.104200  0.905200  1.0  0.01
  C  C323  1  0.444270  0.559930  0.161630  1.0  -0.0286
  C  C324  1  0.490970  0.543830  0.112630  1.0  0.0034
  C  C325  1  0.542870  0.476030  0.151430  1.0  -1e-04
  C  C326  1  0.545770  0.437530  0.238530  1.0  0.01
  C  C327  1  0.110930  0.893270  0.494970  1.0  -0.0286
  C  C328  1  0.157630  0.877170  0.445970  1.0  0.0034
  C  C329  1  0.209530  0.809370  0.484770  1.0  -1e-04
  C  C330  1  0.212430  0.770870  0.571870  1.0  0.01
  C  C331  1  0.773400  0.551000  0.828300  1.0  -0.0232
  C  C332  1  0.789500  0.613800  0.779300  1.0  0.0051
  C  C333  1  0.857300  0.733500  0.818100  1.0  -0.0009
  C  C334  1  0.895800  0.774900  0.905200  1.0  0.0095
  C  C335  1  0.440070  0.884330  0.161630  1.0  -0.0216
  C  C336  1  0.456170  0.947130  0.112630  1.0  0.0047
  C  C337  1  0.523970  0.066830  0.151430  1.0  -0.0003
  C  C338  1  0.562470  0.108230  0.238530  1.0  0.0095
  C  C339  1  0.106730  0.217670  0.494970  1.0  -0.0216
  C  C340  1  0.122830  0.280470  0.445970  1.0  0.0047
  C  C341  1  0.190630  0.400170  0.484770  1.0  -0.0003
  C  C342  1  0.229130  0.441570  0.571870  1.0  0.0095
  C  C343  1  0.551000  0.777600  0.171700  1.0  -0.0305
  C  C344  1  0.613800  0.824300  0.220700  1.0  0.0039
  C  C345  1  0.733500  0.876200  0.181900  1.0  -0.0021
  C  C346  1  0.774900  0.879100  0.094800  1.0  0.0083
  C  C347  1  0.217670  0.110930  0.505030  1.0  -0.0306
  C  C348  1  0.280470  0.157630  0.554030  1.0  0.0037
  C  C349  1  0.400170  0.209530  0.515230  1.0  -0.0021
  C  C350  1  0.441570  0.212430  0.428130  1.0  0.0083
  C  C351  1  0.884330  0.444270  0.838370  1.0  -0.0306
  C  C352  1  0.947130  0.490970  0.887370  1.0  0.0037
  C  C353  1  0.066830  0.542870  0.848570  1.0  -0.0022
  C  C354  1  0.108230  0.545770  0.761470  1.0  0.0083
  C  C355  1  0.222400  0.773400  0.171700  1.0  -0.03
  C  C356  1  0.175700  0.789500  0.220700  1.0  0.0044
  C  C357  1  0.123800  0.857300  0.181900  1.0  -0.0011
  C  C358  1  0.120900  0.895800  0.094800  1.0  0.01
  C  C359  1  0.889070  0.106730  0.505030  1.0  -0.03
  C  C360  1  0.842370  0.122830  0.554030  1.0  0.0044
  C  C361  1  0.790470  0.190630  0.515230  1.0  -0.0011
  C  C362  1  0.787570  0.229130  0.428130  1.0  0.0101
  C  C363  1  0.555730  0.440070  0.838370  1.0  -0.03
  C  C364  1  0.509030  0.456170  0.887370  1.0  0.0044
  C  C365  1  0.457130  0.523970  0.848570  1.0  -0.0011
  C  C366  1  0.454230  0.562470  0.761470  1.0  0.01
  C  C367  1  0.226600  0.449000  0.171700  1.0  -0.0229
  C  C368  1  0.210500  0.386200  0.220700  1.0  0.0032
  C  C369  1  0.142700  0.266500  0.181900  1.0  -0.0008
  C  C370  1  0.104200  0.225100  0.094800  1.0  0.011
  C  C371  1  0.893270  0.782330  0.505030  1.0  -0.0229
  C  C372  1  0.877170  0.719530  0.554030  1.0  0.0036
  C  C373  1  0.809370  0.599830  0.515230  1.0  -0.0014
  C  C374  1  0.770870  0.558430  0.428130  1.0  0.011
  C  C375  1  0.559930  0.115670  0.838370  1.0  -0.0229
  C  C376  1  0.543830  0.052870  0.887370  1.0  0.0032
  C  C377  1  0.476030  0.933170  0.848570  1.0  -0.0008
  C  C378  1  0.437530  0.891770  0.761470  1.0  0.011
  N  N379  1  0.444700  0.278500  0.869800  1.0  -0.5438
  N  N380  1  0.333400  0.157700  0.852700  1.0  -0.3706
  N  N381  1  0.251400  0.188400  0.944100  1.0  -0.4409
  N  N382  1  0.111370  0.611830  0.203130  1.0  -0.5438
  N  N383  1  0.000070  0.491030  0.186030  1.0  -0.3706
  N  N384  1  0.918070  0.521730  0.277430  1.0  -0.4407
  N  N385  1  0.778030  0.945170  0.536470  1.0  -0.5439
  N  N386  1  0.666667  0.824370  0.519370  1.0  -0.368
  N  N387  1  0.584730  0.855070  0.610770  1.0  -0.4409
  N  N388  1  0.721500  0.166200  0.869800  1.0  -0.5434
  N  N389  1  0.842300  0.175700  0.852700  1.0  -0.3721
  N  N390  1  0.811600  0.063000  0.944100  1.0  -0.4367
  N  N391  1  0.388170  0.499530  0.203130  1.0  -0.5434
  N  N392  1  0.508970  0.509030  0.186030  1.0  -0.3721
  N  N393  1  0.478270  0.396330  0.277430  1.0  -0.4368
  N  N394  1  0.054830  0.832870  0.536470  1.0  -0.5434
  N  N395  1  0.175630  0.842370  0.519370  1.0  -0.3721
  N  N396  1  0.144930  0.729670  0.610770  1.0  -0.4367
  N  N397  1  0.833800  0.555300  0.869800  1.0  -0.5454
  N  N398  1  0.824300  0.666667  0.852700  1.0  -0.3695
  N  N399  1  0.937000  0.748600  0.944100  1.0  -0.4369
  N  N400  1  0.500470  0.888630  0.203130  1.0  -0.5452
  N  N401  1  0.490970  0.999930  0.186030  1.0  -0.3728
  N  N402  1  0.603670  0.081930  0.277430  1.0  -0.4366
  N  N403  1  0.167130  0.221970  0.536470  1.0  -0.5453
  N  N404  1  0.157630  0.333270  0.519370  1.0  -0.3728
  N  N405  1  0.270330  0.415270  0.610770  1.0  -0.4369
  N  N406  1  0.555300  0.721500  0.130200  1.0  -0.5435
  N  N407  1  0.666667  0.842300  0.147300  1.0  -0.37
  N  N408  1  0.748600  0.811600  0.055900  1.0  -0.437
  N  N409  1  0.221970  0.054830  0.463530  1.0  -0.5433
  N  N410  1  0.333270  0.175630  0.480630  1.0  -0.3722
  N  N411  1  0.415270  0.144930  0.389230  1.0  -0.437
  N  N412  1  0.888630  0.388170  0.796870  1.0  -0.5433
  N  N413  1  0.999930  0.508970  0.813970  1.0  -0.3722
  N  N414  1  0.081930  0.478270  0.722570  1.0  -0.4368
  N  N415  1  0.278500  0.833800  0.130200  1.0  -0.5419
  N  N416  1  0.157700  0.824300  0.147300  1.0  -0.3735
  N  N417  1  0.188400  0.937000  0.055900  1.0  -0.4385
  N  N418  1  0.945170  0.167130  0.463530  1.0  -0.542
  N  N419  1  0.824370  0.157630  0.480630  1.0  -0.3735
  N  N420  1  0.855070  0.270330  0.389230  1.0  -0.4385
  N  N421  1  0.611830  0.500470  0.796870  1.0  -0.5419
  N  N422  1  0.491030  0.490970  0.813970  1.0  -0.3735
  N  N423  1  0.521730  0.603670  0.722570  1.0  -0.4386
  N  N424  1  0.166200  0.444700  0.130200  1.0  -0.5435
  N  N425  1  0.175700  0.333400  0.147300  1.0  -0.3706
  N  N426  1  0.063000  0.251400  0.055900  1.0  -0.4385
  N  N427  1  0.832870  0.778030  0.463530  1.0  -0.5437
  N  N428  1  0.842370  0.666667  0.480630  1.0  -0.3679
  N  N429  1  0.729670  0.584730  0.389230  1.0  -0.4385
  N  N430  1  0.499530  0.111370  0.796870  1.0  -0.5435
  N  N431  1  0.509030  0.000070  0.813970  1.0  -0.3706
  N  N432  1  0.396330  0.918070  0.722570  1.0  -0.4383
  O  O433  1  0.369980  0.212150  0.038600  1.0  -0.8726
  O  O434  1  0.424390  0.177500  0.157600  1.0  -0.8466
  O  O435  1  0.392110  0.260010  0.208000  1.0  -0.8784
  O  O436  1  0.485700  0.291700  0.092900  1.0  -0.7421
  O  O437  1  0.376530  0.044360  0.212200  1.0  -0.8593
  O  O438  1  0.364730  0.955050  0.321800  1.0  -0.8626
  O  O439  1  0.271100  0.936410  0.214100  1.0  -0.8483
  O  O440  1  0.300900  0.009660  0.359300  1.0  -0.8671
  O  O441  1  0.036650  0.545480  0.371930  1.0  -0.8726
  O  O442  1  0.091060  0.510830  0.490930  1.0  -0.8467
  O  O443  1  0.058780  0.593340  0.541330  1.0  -0.8758
  O  O444  1  0.152370  0.625030  0.426230  1.0  -0.7593
  O  O445  1  0.043200  0.377690  0.545530  1.0  -0.8593
  O  O446  1  0.031400  0.288380  0.655130  1.0  -0.8628
  O  O447  1  0.937770  0.269740  0.547430  1.0  -0.8483
  O  O448  1  0.967570  0.342990  0.692630  1.0  -0.8672
  O  O449  1  0.703310  0.878820  0.705270  1.0  -0.8712
  O  O450  1  0.757720  0.844170  0.824270  1.0  -0.8465
  O  O451  1  0.725440  0.926680  0.874670  1.0  -0.8783
  O  O452  1  0.819030  0.958370  0.759570  1.0  -0.745
  O  O453  1  0.709860  0.711030  0.878870  1.0  -0.8593
  O  O454  1  0.698060  0.621720  0.988470  1.0  -0.8625
  O  O455  1  0.604430  0.603080  0.880770  1.0  -0.8517
  O  O456  1  0.634230  0.676330  0.025970  1.0  -0.8671
  O  O457  1  0.787850  0.157830  0.038600  1.0  -0.8723
  O  O458  1  0.822500  0.246890  0.157600  1.0  -0.8474
  O  O459  1  0.739990  0.132100  0.208000  1.0  -0.8752
  O  O460  1  0.708300  0.194000  0.092900  1.0  -0.7409
  O  O461  1  0.955640  0.332170  0.212200  1.0  -0.8603
  O  O462  1  0.044950  0.409680  0.321800  1.0  -0.8596
  O  O463  1  0.063590  0.334690  0.214100  1.0  -0.8528
  O  O464  1  0.990340  0.291240  0.359300  1.0  -0.8679
  O  O465  1  0.454520  0.491160  0.371930  1.0  -0.8723
  O  O466  1  0.489170  0.580220  0.490930  1.0  -0.8474
  O  O467  1  0.406660  0.465430  0.541330  1.0  -0.8776
  O  O468  1  0.374970  0.527330  0.426230  1.0  -0.7488
  O  O469  1  0.622310  0.665500  0.545530  1.0  -0.8603
  O  O470  1  0.711620  0.743010  0.655130  1.0  -0.8596
  O  O471  1  0.730260  0.668020  0.547430  1.0  -0.8528
  O  O472  1  0.657010  0.624570  0.692630  1.0  -0.8679
  O  O473  1  0.121180  0.824500  0.705270  1.0  -0.8723
  O  O474  1  0.155830  0.913560  0.824270  1.0  -0.8474
  O  O475  1  0.073320  0.798770  0.874670  1.0  -0.8752
  O  O476  1  0.041630  0.860670  0.759570  1.0  -0.7412
  O  O477  1  0.288970  0.998840  0.878870  1.0  -0.8603
  O  O478  1  0.378280  0.076350  0.988470  1.0  -0.8597
  O  O479  1  0.396920  0.001360  0.880770  1.0  -0.8528
  O  O480  1  0.323670  0.957910  0.025970  1.0  -0.8679
  O  O481  1  0.842170  0.630020  0.038600  1.0  -0.8696
  O  O482  1  0.753110  0.575610  0.157600  1.0  -0.8505
  O  O483  1  0.867900  0.607890  0.208000  1.0  -0.878
  O  O484  1  0.806000  0.514300  0.092900  1.0  -0.7458
  O  O485  1  0.667830  0.623470  0.212200  1.0  -0.8592
  O  O486  1  0.590320  0.635270  0.321800  1.0  -0.8604
  O  O487  1  0.665310  0.728900  0.214100  1.0  -0.8513
  O  O488  1  0.708760  0.699100  0.359300  1.0  -0.8671
  O  O489  1  0.508840  0.963350  0.371930  1.0  -0.8716
  O  O490  1  0.419780  0.908940  0.490930  1.0  -0.8506
  O  O491  1  0.534570  0.941220  0.541330  1.0  -0.8758
  O  O492  1  0.472670  0.847630  0.426230  1.0  -0.7531
  O  O493  1  0.334500  0.956800  0.545530  1.0  -0.8592
  O  O494  1  0.256990  0.968600  0.655130  1.0  -0.8603
  O  O495  1  0.331980  0.062230  0.547430  1.0  -0.8513
  O  O496  1  0.375430  0.032430  0.692630  1.0  -0.867
  O  O497  1  0.175500  0.296690  0.705270  1.0  -0.8716
  O  O498  1  0.086440  0.242280  0.824270  1.0  -0.8506
  O  O499  1  0.201230  0.274560  0.874670  1.0  -0.878
  O  O500  1  0.139330  0.180970  0.759570  1.0  -0.7575
  O  O501  1  0.001160  0.290140  0.878870  1.0  -0.8592
  O  O502  1  0.923650  0.301940  0.988470  1.0  -0.8604
  O  O503  1  0.998640  0.395570  0.880770  1.0  -0.8513
  O  O504  1  0.042090  0.365770  0.025970  1.0  -0.867
  O  O505  1  0.630020  0.787850  0.961400  1.0  -0.8721
  O  O506  1  0.575610  0.822500  0.842400  1.0  -0.8474
  O  O507  1  0.607890  0.739990  0.792000  1.0  -0.8781
  O  O508  1  0.514300  0.708300  0.907100  1.0  -0.7448
  O  O509  1  0.623470  0.955640  0.787800  1.0  -0.8576
  O  O510  1  0.635270  0.044950  0.678200  1.0  -0.8469
  O  O511  1  0.728900  0.063590  0.785900  1.0  -0.848
  O  O512  1  0.699100  0.990340  0.640700  1.0  -0.8692
  O  O513  1  0.296690  0.121180  0.294730  1.0  -0.8733
  O  O514  1  0.242280  0.155830  0.175730  1.0  -0.8474
  O  O515  1  0.274560  0.073320  0.125330  1.0  -0.8781
  O  O516  1  0.180970  0.041630  0.240430  1.0  -0.7487
  O  O517  1  0.290140  0.288970  0.121130  1.0  -0.8576
  O  O518  1  0.301940  0.378280  0.011530  1.0  -0.8469
  O  O519  1  0.395570  0.396920  0.119230  1.0  -0.8516
  O  O520  1  0.365770  0.323670  0.974030  1.0  -0.8692
  O  O521  1  0.963350  0.454520  0.628070  1.0  -0.873
  O  O522  1  0.908940  0.489170  0.509070  1.0  -0.8474
  O  O523  1  0.941220  0.406660  0.458670  1.0  -0.8781
  O  O524  1  0.847630  0.374970  0.573770  1.0  -0.7596
  O  O525  1  0.956800  0.622310  0.454470  1.0  -0.8575
  O  O526  1  0.968600  0.711620  0.344870  1.0  -0.8471
  O  O527  1  0.062230  0.730260  0.452570  1.0  -0.848
  O  O528  1  0.032430  0.657010  0.307370  1.0  -0.8692
  O  O529  1  0.212150  0.842170  0.961400  1.0  -0.8718
  O  O530  1  0.177500  0.753110  0.842400  1.0  -0.8497
  O  O531  1  0.260010  0.867900  0.792000  1.0  -0.8767
  O  O532  1  0.291700  0.806000  0.907100  1.0  -0.7416
  O  O533  1  0.044360  0.667830  0.787800  1.0  -0.8559
  O  O534  1  0.955050  0.590320  0.678200  1.0  -0.8475
  O  O535  1  0.936410  0.665310  0.785900  1.0  -0.8537
  O  O536  1  0.009660  0.708760  0.640700  1.0  -0.8685
  O  O537  1  0.878820  0.175500  0.294730  1.0  -0.8718
  O  O538  1  0.844170  0.086440  0.175730  1.0  -0.8497
  O  O539  1  0.926680  0.201230  0.125330  1.0  -0.8767
  O  O540  1  0.958370  0.139330  0.240430  1.0  -0.7417
  O  O541  1  0.711030  0.001160  0.121130  1.0  -0.8559
  O  O542  1  0.621720  0.923650  0.011530  1.0  -0.8477
  O  O543  1  0.603080  0.998640  0.119230  1.0  -0.8537
  O  O544  1  0.676330  0.042090  0.974030  1.0  -0.8685
  O  O545  1  0.545480  0.508840  0.628070  1.0  -0.8718
  O  O546  1  0.510830  0.419780  0.509070  1.0  -0.8497
  O  O547  1  0.593340  0.534570  0.458670  1.0  -0.8766
  O  O548  1  0.625030  0.472670  0.573770  1.0  -0.7502
  O  O549  1  0.377690  0.334500  0.454470  1.0  -0.8559
  O  O550  1  0.288380  0.256990  0.344870  1.0  -0.8476
  O  O551  1  0.269740  0.331980  0.452570  1.0  -0.8537
  O  O552  1  0.342990  0.375430  0.307370  1.0  -0.8685
  O  O553  1  0.157830  0.369980  0.961400  1.0  -0.8714
  O  O554  1  0.246890  0.424390  0.842400  1.0  -0.8523
  O  O555  1  0.132100  0.392110  0.792000  1.0  -0.8781
  O  O556  1  0.194000  0.485700  0.907100  1.0  -0.7451
  O  O557  1  0.332170  0.376530  0.787800  1.0  -0.8573
  O  O558  1  0.409680  0.364730  0.678200  1.0  -0.8478
  O  O559  1  0.334690  0.271100  0.785900  1.0  -0.851
  O  O560  1  0.291240  0.300900  0.640700  1.0  -0.8682
  O  O561  1  0.824500  0.703310  0.294730  1.0  -0.8699
  O  O562  1  0.913560  0.757720  0.175730  1.0  -0.8523
  O  O563  1  0.798770  0.725440  0.125330  1.0  -0.8781
  O  O564  1  0.860670  0.819030  0.240430  1.0  -0.7554
  O  O565  1  0.998840  0.709860  0.121130  1.0  -0.8572
  O  O566  1  0.076350  0.698060  0.011530  1.0  -0.8479
  O  O567  1  0.001360  0.604430  0.119230  1.0  -0.851
  O  O568  1  0.957910  0.634230  0.974030  1.0  -0.8682
  O  O569  1  0.491160  0.036650  0.628070  1.0  -0.8714
  O  O570  1  0.580220  0.091060  0.509070  1.0  -0.8523
  O  O571  1  0.465430  0.058780  0.458670  1.0  -0.8784
  O  O572  1  0.527330  0.152370  0.573770  1.0  -0.7537
  O  O573  1  0.665500  0.043200  0.454470  1.0  -0.8573
  O  O574  1  0.743010  0.031400  0.344870  1.0  -0.8478
  O  O575  1  0.668020  0.937770  0.452570  1.0  -0.851
  O  O576  1  0.624570  0.967570  0.307370  1.0  -0.8682
