# generated using pymatgen
data_ZnGa3P4H26C8(N3O8)2
_symmetry_space_group_name_H-M   'P 1'
_cell_length_a   23.68990000
_cell_length_b   23.68990000
_cell_length_c   13.54830000
_cell_angle_alpha   90.00000000
_cell_angle_beta   90.00000000
_cell_angle_gamma   120.00000000
_symmetry_Int_Tables_number   1
_chemical_formula_structural   ZnGa3P4H26C8(N3O8)2
_chemical_formula_sum   'Zn9 Ga27 P36 H234 C72 N54 O144'
_cell_volume   6584.78942652
_cell_formula_units_Z   9
loop_
 _symmetry_equiv_pos_site_id
 _symmetry_equiv_pos_as_xyz
  1  'x, y, z'
loop_
 _atom_site_type_symbol
 _atom_site_label
 _atom_site_symmetry_multiplicity
 _atom_site_fract_x
 _atom_site_fract_y
 _atom_site_fract_z
 _atom_site_occupancy
 _atom_site_charge
  Zn  Zn1  1  0.361750  0.092740  0.119310  1.0  1.0056
  Zn  Zn2  1  0.028420  0.426070  0.452640  1.0  1.0055
  Zn  Zn3  1  0.695080  0.759410  0.785980  1.0  1.006
  Zn  Zn4  1  0.907260  0.269010  0.119310  1.0  1.0054
  Zn  Zn5  1  0.573930  0.602340  0.452640  1.0  1.0052
  Zn  Zn6  1  0.240590  0.935680  0.785980  1.0  1.0057
  Zn  Zn7  1  0.730990  0.638250  0.119310  1.0  1.0046
  Zn  Zn8  1  0.397660  0.971580  0.452640  1.0  1.005
  Zn  Zn9  1  0.064320  0.304920  0.785980  1.0  1.0051
  Ga  Ga10  1  0.350150  0.243820  0.917020  1.0  1.4059
  Ga  Ga11  1  0.304920  0.240590  0.214020  1.0  1.6214
  Ga  Ga12  1  0.016820  0.577150  0.250350  1.0  1.4041
  Ga  Ga13  1  0.971580  0.573930  0.547360  1.0  1.6214
  Ga  Ga14  1  0.683480  0.910490  0.583690  1.0  1.4067
  Ga  Ga15  1  0.638250  0.907260  0.880690  1.0  1.6214
  Ga  Ga16  1  0.756180  0.106330  0.917020  1.0  1.4061
  Ga  Ga17  1  0.759410  0.064320  0.214020  1.0  1.6206
  Ga  Ga18  1  0.422850  0.439660  0.250350  1.0  1.406
  Ga  Ga19  1  0.426070  0.397660  0.547360  1.0  1.6204
  Ga  Ga20  1  0.089510  0.773000  0.583690  1.0  1.4061
  Ga  Ga21  1  0.092740  0.730990  0.880690  1.0  1.6205
  Ga  Ga22  1  0.893670  0.649850  0.917020  1.0  1.3995
  Ga  Ga23  1  0.935680  0.695080  0.214020  1.0  1.6216
  Ga  Ga24  1  0.560340  0.983180  0.250350  1.0  1.4046
  Ga  Ga25  1  0.602340  0.028420  0.547360  1.0  1.6216
  Ga  Ga26  1  0.227000  0.316520  0.583690  1.0  1.4038
  Ga  Ga27  1  0.269010  0.361750  0.880690  1.0  1.6214
  Ga  Ga28  1  0.649850  0.756180  0.082980  1.0  1.4061
  Ga  Ga29  1  0.316520  0.089510  0.416310  1.0  1.4053
  Ga  Ga30  1  0.983180  0.422850  0.749650  1.0  1.4035
  Ga  Ga31  1  0.243820  0.893670  0.082980  1.0  1.4055
  Ga  Ga32  1  0.910490  0.227000  0.416310  1.0  1.4055
  Ga  Ga33  1  0.577150  0.560340  0.749650  1.0  1.4055
  Ga  Ga34  1  0.106330  0.350150  0.082980  1.0  1.4047
  Ga  Ga35  1  0.773000  0.683480  0.416310  1.0  1.4004
  Ga  Ga36  1  0.439660  0.016820  0.749650  1.0  1.4055
  P  P37  1  0.419390  0.236760  0.122170  1.0  1.7903
  P  P38  1  0.326620  0.986130  0.276170  1.0  1.7177
  P  P39  1  0.086060  0.570090  0.455500  1.0  1.7904
  P  P40  1  0.993290  0.319460  0.609500  1.0  1.7174
  P  P41  1  0.752720  0.903430  0.788840  1.0  1.7903
  P  P42  1  0.659950  0.652800  0.942840  1.0  1.7177
  P  P43  1  0.763240  0.182630  0.122170  1.0  1.7884
  P  P44  1  0.013870  0.340490  0.276170  1.0  1.7173
  P  P45  1  0.429910  0.515960  0.455500  1.0  1.7885
  P  P46  1  0.680540  0.673820  0.609500  1.0  1.7177
  P  P47  1  0.096570  0.849300  0.788840  1.0  1.7884
  P  P48  1  0.347200  0.007160  0.942840  1.0  1.7175
  P  P49  1  0.817370  0.580610  0.122170  1.0  1.7932
  P  P50  1  0.659510  0.673380  0.276170  1.0  1.7194
  P  P51  1  0.484040  0.913940  0.455500  1.0  1.7932
  P  P52  1  0.326180  0.006710  0.609500  1.0  1.7197
  P  P53  1  0.150700  0.247280  0.788840  1.0  1.7932
  P  P54  1  0.992840  0.340050  0.942840  1.0  1.7194
  P  P55  1  0.580610  0.763240  0.877830  1.0  1.785
  P  P56  1  0.673380  0.013870  0.723830  1.0  1.72
  P  P57  1  0.247280  0.096570  0.211160  1.0  1.785
  P  P58  1  0.340050  0.347200  0.057160  1.0  1.72
  P  P59  1  0.913940  0.429910  0.544500  1.0  1.7849
  P  P60  1  0.006710  0.680540  0.390500  1.0  1.7198
  P  P61  1  0.236760  0.817370  0.877830  1.0  1.7921
  P  P62  1  0.986130  0.659510  0.723830  1.0  1.7185
  P  P63  1  0.903430  0.150700  0.211160  1.0  1.7921
  P  P64  1  0.652800  0.992840  0.057160  1.0  1.7185
  P  P65  1  0.570090  0.484040  0.544500  1.0  1.7922
  P  P66  1  0.319460  0.326180  0.390500  1.0  1.7188
  P  P67  1  0.182630  0.419390  0.877830  1.0  1.7928
  P  P68  1  0.340490  0.326620  0.723830  1.0  1.7179
  P  P69  1  0.849300  0.752720  0.211160  1.0  1.7928
  P  P70  1  0.007160  0.659950  0.057160  1.0  1.7179
  P  P71  1  0.515960  0.086060  0.544500  1.0  1.7928
  P  P72  1  0.673820  0.993290  0.390500  1.0  1.718
  H  H73  1  0.466900  0.291300  0.922000  1.0  0.2492
  H  H74  1  0.449700  0.302800  0.822500  1.0  0.2307
  H  H75  1  0.338200  0.130700  0.900100  1.0  0.1735
  H  H76  1  0.236700  0.208300  0.913400  1.0  0.2981
  H  H77  1  0.245000  0.191900  0.011100  1.0  0.2105
  H  H78  1  0.455900  0.195200  0.883900  1.0  0.0936
  H  H79  1  0.474400  0.226600  0.788300  1.0  0.1449
  H  H80  1  0.384900  0.132100  0.744400  1.0  0.0977
  H  H81  1  0.374000  0.194600  0.725800  1.0  0.0754
  H  H82  1  0.234300  0.071600  0.801100  1.0  0.1173
  H  H83  1  0.269500  0.153200  0.757300  1.0  0.1497
  H  H84  1  0.180300  0.101900  0.866300  1.0  0.1233
  H  H85  1  0.227300  0.094000  0.968200  1.0  0.1004
  H  H86  1  0.133570  0.624630  0.255330  1.0  0.2492
  H  H87  1  0.116370  0.636130  0.155830  1.0  0.2307
  H  H88  1  0.004870  0.464030  0.233430  1.0  0.1735
  H  H89  1  0.903370  0.541630  0.246730  1.0  0.2982
  H  H90  1  0.911670  0.525230  0.344430  1.0  0.2105
  H  H91  1  0.122570  0.528530  0.217230  1.0  0.0936
  H  H92  1  0.141070  0.559930  0.121630  1.0  0.1449
  H  H93  1  0.051570  0.465430  0.077730  1.0  0.098
  H  H94  1  0.040670  0.527930  0.059130  1.0  0.0749
  H  H95  1  0.900970  0.404930  0.134430  1.0  0.1173
  H  H96  1  0.936170  0.486530  0.090630  1.0  0.1499
  H  H97  1  0.846970  0.435230  0.199630  1.0  0.1234
  H  H98  1  0.893970  0.427330  0.301530  1.0  0.1004
  H  H99  1  0.800230  0.957970  0.588670  1.0  0.2493
  H  H100  1  0.783030  0.969470  0.489170  1.0  0.2307
  H  H101  1  0.671530  0.797370  0.566770  1.0  0.173
  H  H102  1  0.570030  0.874970  0.580070  1.0  0.2982
  H  H103  1  0.578330  0.858570  0.677770  1.0  0.2107
  H  H104  1  0.789230  0.861870  0.550570  1.0  0.0939
  H  H105  1  0.807730  0.893270  0.454970  1.0  0.1412
  H  H106  1  0.718230  0.798770  0.411070  1.0  0.0979
  H  H107  1  0.707330  0.861270  0.392470  1.0  0.0755
  H  H108  1  0.567630  0.738270  0.467770  1.0  0.1174
  H  H109  1  0.602830  0.819870  0.423970  1.0  0.1499
  H  H110  1  0.513630  0.768570  0.532970  1.0  0.1259
  H  H111  1  0.560630  0.760670  0.634870  1.0  0.1004
  H  H112  1  0.708700  0.175600  0.922000  1.0  0.2493
  H  H113  1  0.697200  0.146900  0.822500  1.0  0.2309
  H  H114  1  0.869300  0.207500  0.900100  1.0  0.1731
  H  H115  1  0.791700  0.028400  0.913400  1.0  0.2991
  H  H116  1  0.808100  0.053100  0.011100  1.0  0.2125
  H  H117  1  0.804800  0.260700  0.883900  1.0  0.0934
  H  H118  1  0.773400  0.247800  0.788300  1.0  0.1311
  H  H119  1  0.867900  0.252800  0.744400  1.0  0.0993
  H  H120  1  0.805400  0.179400  0.725800  1.0  0.0769
  H  H121  1  0.928400  0.162700  0.801100  1.0  0.1244
  H  H122  1  0.846800  0.116300  0.757300  1.0  0.151
  H  H123  1  0.898100  0.078400  0.866300  1.0  0.1255
  H  H124  1  0.906000  0.133300  0.968200  1.0  0.0991
  H  H125  1  0.375370  0.508930  0.255330  1.0  0.2493
  H  H126  1  0.363870  0.480230  0.155830  1.0  0.2309
  H  H127  1  0.535970  0.540830  0.233430  1.0  0.1731
  H  H128  1  0.458370  0.361730  0.246730  1.0  0.2991
  H  H129  1  0.474770  0.386430  0.344430  1.0  0.2127
  H  H130  1  0.471470  0.594030  0.217230  1.0  0.0934
  H  H131  1  0.440070  0.581130  0.121630  1.0  0.1311
  H  H132  1  0.534570  0.586130  0.077730  1.0  0.0995
  H  H133  1  0.472070  0.512730  0.059130  1.0  0.077
  H  H134  1  0.595070  0.496030  0.134430  1.0  0.1244
  H  H135  1  0.513470  0.449630  0.090630  1.0  0.1509
  H  H136  1  0.564770  0.411730  0.199630  1.0  0.1254
  H  H137  1  0.572670  0.466630  0.301530  1.0  0.0991
  H  H138  1  0.042030  0.842270  0.588670  1.0  0.2494
  H  H139  1  0.030530  0.813570  0.489170  1.0  0.2308
  H  H140  1  0.202630  0.874170  0.566770  1.0  0.1731
  H  H141  1  0.125030  0.695070  0.580070  1.0  0.2991
  H  H142  1  0.141430  0.719770  0.677770  1.0  0.2125
  H  H143  1  0.138130  0.927370  0.550570  1.0  0.0934
  H  H144  1  0.106730  0.914470  0.454970  1.0  0.1437
  H  H145  1  0.201230  0.919470  0.411070  1.0  0.0993
  H  H146  1  0.138730  0.846070  0.392470  1.0  0.0769
  H  H147  1  0.261730  0.829370  0.467770  1.0  0.1244
  H  H148  1  0.180130  0.782970  0.423970  1.0  0.151
  H  H149  1  0.231430  0.745070  0.532970  1.0  0.1219
  H  H150  1  0.239330  0.799970  0.634870  1.0  0.0991
  H  H151  1  0.824400  0.533100  0.922000  1.0  0.2515
  H  H152  1  0.853100  0.550300  0.822500  1.0  0.2312
  H  H153  1  0.792500  0.661800  0.900100  1.0  0.1745
  H  H154  1  0.971600  0.763300  0.913400  1.0  0.3003
  H  H155  1  0.946900  0.755000  0.011100  1.0  0.2102
  H  H156  1  0.739300  0.544100  0.883900  1.0  0.0962
  H  H157  1  0.752200  0.525600  0.788300  1.0  0.1446
  H  H158  1  0.747200  0.615100  0.744400  1.0  0.1003
  H  H159  1  0.820600  0.626000  0.725800  1.0  0.0746
  H  H160  1  0.837300  0.765700  0.801100  1.0  0.1261
  H  H161  1  0.883700  0.730500  0.757300  1.0  0.1478
  H  H162  1  0.921600  0.819700  0.866300  1.0  0.1187
  H  H163  1  0.866700  0.772700  0.968200  1.0  0.1023
  H  H164  1  0.491070  0.866430  0.255330  1.0  0.2514
  H  H165  1  0.519770  0.883630  0.155830  1.0  0.2312
  H  H166  1  0.459170  0.995130  0.233430  1.0  0.175
  H  H167  1  0.638270  0.096630  0.246730  1.0  0.3002
  H  H168  1  0.613570  0.088330  0.344430  1.0  0.2106
  H  H169  1  0.405970  0.877430  0.217230  1.0  0.0958
  H  H170  1  0.418870  0.858930  0.121630  1.0  0.1447
  H  H171  1  0.413870  0.948430  0.077730  1.0  0.1004
  H  H172  1  0.487270  0.959330  0.059130  1.0  0.0745
  H  H173  1  0.503970  0.099030  0.134430  1.0  0.1263
  H  H174  1  0.550370  0.063830  0.090630  1.0  0.148
  H  H175  1  0.588270  0.153030  0.199630  1.0  0.1187
  H  H176  1  0.533370  0.106030  0.301530  1.0  0.1024
  H  H177  1  0.157730  0.199770  0.588670  1.0  0.2514
  H  H178  1  0.186430  0.216970  0.489170  1.0  0.2312
  H  H179  1  0.125830  0.328470  0.566770  1.0  0.175
  H  H180  1  0.304930  0.429970  0.580070  1.0  0.3003
  H  H181  1  0.280230  0.421670  0.677770  1.0  0.2102
  H  H182  1  0.072630  0.210770  0.550570  1.0  0.0958
  H  H183  1  0.085530  0.192270  0.454970  1.0  0.1286
  H  H184  1  0.080530  0.281770  0.411070  1.0  0.1006
  H  H185  1  0.153930  0.292670  0.392470  1.0  0.074
  H  H186  1  0.170630  0.432370  0.467770  1.0  0.1263
  H  H187  1  0.217030  0.397170  0.423970  1.0  0.148
  H  H188  1  0.254930  0.486370  0.532970  1.0  0.1218
  H  H189  1  0.200030  0.439370  0.634870  1.0  0.1023
  H  H190  1  0.533100  0.708700  0.078000  1.0  0.2526
  H  H191  1  0.550300  0.697200  0.177500  1.0  0.229
  H  H192  1  0.661800  0.869300  0.099900  1.0  0.1726
  H  H193  1  0.763300  0.791700  0.086600  1.0  0.299
  H  H194  1  0.755000  0.808100  0.988900  1.0  0.2124
  H  H195  1  0.544100  0.804800  0.116100  1.0  0.0931
  H  H196  1  0.525600  0.773400  0.211700  1.0  0.1447
  H  H197  1  0.615100  0.867900  0.255600  1.0  0.1
  H  H198  1  0.626000  0.805400  0.274200  1.0  0.0751
  H  H199  1  0.765700  0.928400  0.198900  1.0  0.1221
  H  H200  1  0.730500  0.846800  0.242700  1.0  0.152
  H  H201  1  0.819700  0.898100  0.133700  1.0  0.123
  H  H202  1  0.772700  0.906000  0.031800  1.0  0.1014
  H  H203  1  0.199770  0.042030  0.411330  1.0  0.2525
  H  H204  1  0.216970  0.030530  0.510830  1.0  0.229
  H  H205  1  0.328470  0.202630  0.433230  1.0  0.1732
  H  H206  1  0.429970  0.125030  0.419930  1.0  0.299
  H  H207  1  0.421670  0.141430  0.322230  1.0  0.2122
  H  H208  1  0.210770  0.138130  0.449430  1.0  0.0929
  H  H209  1  0.192270  0.106730  0.545030  1.0  0.1371
  H  H210  1  0.281770  0.201230  0.588930  1.0  0.1002
  H  H211  1  0.292670  0.138730  0.607530  1.0  0.0751
  H  H212  1  0.432370  0.261730  0.532230  1.0  0.1221
  H  H213  1  0.397170  0.180130  0.576030  1.0  0.1522
  H  H214  1  0.486370  0.231430  0.467030  1.0  0.1242
  H  H215  1  0.439370  0.239330  0.365130  1.0  0.1014
  H  H216  1  0.866430  0.375370  0.744670  1.0  0.2523
  H  H217  1  0.883630  0.363870  0.844170  1.0  0.229
  H  H218  1  0.995130  0.535970  0.766570  1.0  0.173
  H  H219  1  0.096630  0.458370  0.753270  1.0  0.2991
  H  H220  1  0.088330  0.474770  0.655570  1.0  0.2122
  H  H221  1  0.877430  0.471470  0.782770  1.0  0.0928
  H  H222  1  0.858930  0.440070  0.878370  1.0  0.1447
  H  H223  1  0.948430  0.534570  0.922270  1.0  0.1003
  H  H224  1  0.959330  0.472070  0.940870  1.0  0.0744
  H  H225  1  0.099030  0.595070  0.865570  1.0  0.1221
  H  H226  1  0.063830  0.513470  0.909370  1.0  0.1521
  H  H227  1  0.153030  0.564770  0.800370  1.0  0.1231
  H  H228  1  0.106030  0.572670  0.698470  1.0  0.1014
  H  H229  1  0.291300  0.824400  0.078000  1.0  0.2521
  H  H230  1  0.302800  0.853100  0.177500  1.0  0.2298
  H  H231  1  0.130700  0.792500  0.099900  1.0  0.1743
  H  H232  1  0.208300  0.971600  0.086600  1.0  0.3001
  H  H233  1  0.191900  0.946900  0.988900  1.0  0.2154
  H  H234  1  0.195200  0.739300  0.116100  1.0  0.0927
  H  H235  1  0.226600  0.752200  0.211700  1.0  0.129
  H  H236  1  0.132100  0.747200  0.255600  1.0  0.0992
  H  H237  1  0.194600  0.820600  0.274200  1.0  0.0756
  H  H238  1  0.071600  0.837300  0.198900  1.0  0.1236
  H  H239  1  0.153200  0.883700  0.242700  1.0  0.1489
  H  H240  1  0.101900  0.921600  0.133700  1.0  0.1257
  H  H241  1  0.094000  0.866700  0.031800  1.0  0.1032
  H  H242  1  0.957970  0.157730  0.411330  1.0  0.2522
  H  H243  1  0.969470  0.186430  0.510830  1.0  0.2297
  H  H244  1  0.797370  0.125830  0.433230  1.0  0.1743
  H  H245  1  0.874970  0.304930  0.419930  1.0  0.3
  H  H246  1  0.858570  0.280230  0.322230  1.0  0.2154
  H  H247  1  0.861870  0.072630  0.449430  1.0  0.0927
  H  H248  1  0.893270  0.085530  0.545030  1.0  0.1419
  H  H249  1  0.798770  0.080530  0.588930  1.0  0.0993
  H  H250  1  0.861270  0.153930  0.607530  1.0  0.0756
  H  H251  1  0.738270  0.170630  0.532230  1.0  0.1236
  H  H252  1  0.819870  0.217030  0.576030  1.0  0.1489
  H  H253  1  0.768570  0.254930  0.467030  1.0  0.1214
  H  H254  1  0.760670  0.200030  0.365130  1.0  0.1032
  H  H255  1  0.624630  0.491070  0.744670  1.0  0.2522
  H  H256  1  0.636130  0.519770  0.844170  1.0  0.2298
  H  H257  1  0.464030  0.459170  0.766570  1.0  0.1743
  H  H258  1  0.541630  0.638270  0.753270  1.0  0.3001
  H  H259  1  0.525230  0.613570  0.655570  1.0  0.2156
  H  H260  1  0.528530  0.405970  0.782770  1.0  0.0927
  H  H261  1  0.559930  0.418870  0.878370  1.0  0.129
  H  H262  1  0.465430  0.413870  0.922270  1.0  0.0994
  H  H263  1  0.527930  0.487270  0.940870  1.0  0.0757
  H  H264  1  0.404930  0.503970  0.865570  1.0  0.1236
  H  H265  1  0.486530  0.550370  0.909370  1.0  0.1488
  H  H266  1  0.435230  0.588270  0.800370  1.0  0.1256
  H  H267  1  0.427330  0.533370  0.698470  1.0  0.1032
  H  H268  1  0.175600  0.466900  0.078000  1.0  0.2532
  H  H269  1  0.146900  0.449700  0.177500  1.0  0.2267
  H  H270  1  0.207500  0.338200  0.099900  1.0  0.1759
  H  H271  1  0.028400  0.236700  0.086600  1.0  0.2982
  H  H272  1  0.053100  0.245000  0.988900  1.0  0.2118
  H  H273  1  0.260700  0.455900  0.116100  1.0  0.0937
  H  H274  1  0.247800  0.474400  0.211700  1.0  0.1468
  H  H275  1  0.252800  0.384900  0.255600  1.0  0.1016
  H  H276  1  0.179400  0.374000  0.274200  1.0  0.0754
  H  H277  1  0.162700  0.234300  0.198900  1.0  0.1259
  H  H278  1  0.116300  0.269500  0.242700  1.0  0.1495
  H  H279  1  0.078400  0.180300  0.133700  1.0  0.1176
  H  H280  1  0.133300  0.227300  0.031800  1.0  0.1023
  H  H281  1  0.842270  0.800230  0.411330  1.0  0.2532
  H  H282  1  0.813570  0.783030  0.510830  1.0  0.2268
  H  H283  1  0.874170  0.671530  0.433230  1.0  0.1756
  H  H284  1  0.695070  0.570030  0.419930  1.0  0.2982
  H  H285  1  0.719770  0.578330  0.322230  1.0  0.2118
  H  H286  1  0.927370  0.789230  0.449430  1.0  0.0941
  H  H287  1  0.914470  0.807730  0.545030  1.0  0.1306
  H  H288  1  0.919470  0.718230  0.588930  1.0  0.1016
  H  H289  1  0.846070  0.707330  0.607530  1.0  0.0761
  H  H290  1  0.829370  0.567630  0.532230  1.0  0.1256
  H  H291  1  0.782970  0.602830  0.576030  1.0  0.1496
  H  H292  1  0.745070  0.513630  0.467030  1.0  0.1205
  H  H293  1  0.799970  0.560630  0.365130  1.0  0.1024
  H  H294  1  0.508930  0.133570  0.744670  1.0  0.2532
  H  H295  1  0.480230  0.116370  0.844170  1.0  0.2267
  H  H296  1  0.540830  0.004870  0.766570  1.0  0.1759
  H  H297  1  0.361730  0.903370  0.753270  1.0  0.2981
  H  H298  1  0.386430  0.911670  0.655570  1.0  0.2121
  H  H299  1  0.594030  0.122570  0.782770  1.0  0.0937
  H  H300  1  0.581130  0.141070  0.878370  1.0  0.1468
  H  H301  1  0.586130  0.051570  0.922270  1.0  0.1016
  H  H302  1  0.512730  0.040670  0.940870  1.0  0.076
  H  H303  1  0.496030  0.900970  0.865570  1.0  0.1259
  H  H304  1  0.449630  0.936170  0.909370  1.0  0.1496
  H  H305  1  0.411730  0.846970  0.800370  1.0  0.1177
  H  H306  1  0.466630  0.893970  0.698470  1.0  0.1024
  C  C307  1  0.448200  0.221300  0.828600  1.0  -0.0053
  C  C308  1  0.385600  0.174500  0.779300  1.0  0.0102
  C  C309  1  0.265600  0.123000  0.818500  1.0  -0.0053
  C  C310  1  0.225100  0.121400  0.906100  1.0  -0.0721
  C  C311  1  0.114870  0.554630  0.161930  1.0  -0.0053
  C  C312  1  0.052270  0.507830  0.112630  1.0  0.0102
  C  C313  1  0.932270  0.456330  0.151830  1.0  -0.0053
  C  C314  1  0.891770  0.454730  0.239430  1.0  -0.0721
  C  C315  1  0.781530  0.887970  0.495270  1.0  -0.005
  C  C316  1  0.718930  0.841170  0.445970  1.0  0.0106
  C  C317  1  0.598930  0.789670  0.485170  1.0  -0.0054
  C  C318  1  0.558430  0.788070  0.572770  1.0  -0.072
  C  C319  1  0.778700  0.226900  0.828600  1.0  -0.0073
  C  C320  1  0.825500  0.211100  0.779300  1.0  0.0114
  C  C321  1  0.877000  0.142600  0.818500  1.0  -0.0101
  C  C322  1  0.878600  0.103700  0.906100  1.0  -0.0705
  C  C323  1  0.445370  0.560230  0.161930  1.0  -0.0073
  C  C324  1  0.492170  0.544430  0.112630  1.0  0.0114
  C  C325  1  0.543670  0.475930  0.151830  1.0  -0.0101
  C  C326  1  0.545270  0.437030  0.239430  1.0  -0.0706
  C  C327  1  0.112030  0.893570  0.495270  1.0  -0.0073
  C  C328  1  0.158830  0.877770  0.445970  1.0  0.0114
  C  C329  1  0.210330  0.809270  0.485170  1.0  -0.0101
  C  C330  1  0.211930  0.770370  0.572770  1.0  -0.0705
  C  C331  1  0.773100  0.551800  0.828600  1.0  0.0004
  C  C332  1  0.788900  0.614400  0.779300  1.0  0.0129
  C  C333  1  0.857400  0.734400  0.818500  1.0  -0.0068
  C  C334  1  0.896300  0.774900  0.906100  1.0  -0.0671
  C  C335  1  0.439770  0.885130  0.161930  1.0  -0.0003
  C  C336  1  0.455570  0.947730  0.112630  1.0  0.0125
  C  C337  1  0.524070  0.067730  0.151830  1.0  -0.0066
  C  C338  1  0.562970  0.108230  0.239430  1.0  -0.0671
  C  C339  1  0.106430  0.218470  0.495270  1.0  -0.0003
  C  C340  1  0.122230  0.281070  0.445970  1.0  0.0125
  C  C341  1  0.190730  0.401070  0.485170  1.0  -0.0066
  C  C342  1  0.229630  0.441570  0.572770  1.0  -0.0671
  C  C343  1  0.551800  0.778700  0.171400  1.0  -0.0038
  C  C344  1  0.614400  0.825500  0.220700  1.0  0.0119
  C  C345  1  0.734400  0.877000  0.181500  1.0  -0.0073
  C  C346  1  0.774900  0.878600  0.093900  1.0  -0.0715
  C  C347  1  0.218470  0.112030  0.504730  1.0  -0.0041
  C  C348  1  0.281070  0.158830  0.554030  1.0  0.0116
  C  C349  1  0.401070  0.210330  0.514830  1.0  -0.0073
  C  C350  1  0.441570  0.211930  0.427230  1.0  -0.0716
  C  C351  1  0.885130  0.445370  0.838070  1.0  -0.0041
  C  C352  1  0.947730  0.492170  0.887370  1.0  0.0116
  C  C353  1  0.067730  0.543670  0.848170  1.0  -0.0073
  C  C354  1  0.108230  0.545270  0.760570  1.0  -0.0716
  C  C355  1  0.221300  0.773100  0.171400  1.0  -0.008
  C  C356  1  0.174500  0.788900  0.220700  1.0  0.0109
  C  C357  1  0.123000  0.857400  0.181500  1.0  -0.0098
  C  C358  1  0.121400  0.896300  0.093900  1.0  -0.072
  C  C359  1  0.887970  0.106430  0.504730  1.0  -0.008
  C  C360  1  0.841170  0.122230  0.554030  1.0  0.0109
  C  C361  1  0.789670  0.190730  0.514830  1.0  -0.0098
  C  C362  1  0.788070  0.229630  0.427230  1.0  -0.072
  C  C363  1  0.554630  0.439770  0.838070  1.0  -0.008
  C  C364  1  0.507830  0.455570  0.887370  1.0  0.0109
  C  C365  1  0.456330  0.524070  0.848170  1.0  -0.0098
  C  C366  1  0.454730  0.562970  0.760570  1.0  -0.072
  C  C367  1  0.226900  0.448200  0.171400  1.0  -0.0008
  C  C368  1  0.211100  0.385600  0.220700  1.0  0.0115
  C  C369  1  0.142600  0.265600  0.181500  1.0  -0.0089
  C  C370  1  0.103700  0.225100  0.093900  1.0  -0.0677
  C  C371  1  0.893570  0.781530  0.504730  1.0  -0.0004
  C  C372  1  0.877770  0.718930  0.554030  1.0  0.0119
  C  C373  1  0.809270  0.598930  0.514830  1.0  -0.009
  C  C374  1  0.770370  0.558430  0.427230  1.0  -0.0677
  C  C375  1  0.560230  0.114870  0.838070  1.0  -0.0008
  C  C376  1  0.544430  0.052270  0.887370  1.0  0.0115
  C  C377  1  0.475930  0.932270  0.848170  1.0  -0.0089
  C  C378  1  0.437030  0.891770  0.760570  1.0  -0.0677
  N  N379  1  0.444700  0.277400  0.867900  1.0  -0.4836
  N  N380  1  0.333400  0.157500  0.852700  1.0  -0.1991
  N  N381  1  0.251600  0.188800  0.944100  1.0  -0.5858
  N  N382  1  0.111370  0.610730  0.201230  1.0  -0.4836
  N  N383  1  0.000070  0.490830  0.186030  1.0  -0.1991
  N  N384  1  0.918270  0.522130  0.277430  1.0  -0.5858
  N  N385  1  0.778030  0.944070  0.534570  1.0  -0.4833
  N  N386  1  0.666667  0.824170  0.519370  1.0  -0.2024
  N  N387  1  0.584930  0.855470  0.610770  1.0  -0.5865
  N  N388  1  0.722600  0.167300  0.867900  1.0  -0.4836
  N  N389  1  0.842500  0.175900  0.852700  1.0  -0.1995
  N  N390  1  0.811200  0.062800  0.944100  1.0  -0.5853
  N  N391  1  0.389270  0.500630  0.201230  1.0  -0.4836
  N  N392  1  0.509170  0.509230  0.186030  1.0  -0.1995
  N  N393  1  0.477870  0.396130  0.277430  1.0  -0.5853
  N  N394  1  0.055930  0.833970  0.534570  1.0  -0.4836
  N  N395  1  0.175830  0.842570  0.519370  1.0  -0.1995
  N  N396  1  0.144530  0.729470  0.610770  1.0  -0.5853
  N  N397  1  0.832700  0.555300  0.867900  1.0  -0.483
  N  N398  1  0.824100  0.666667  0.852700  1.0  -0.2021
  N  N399  1  0.937200  0.748400  0.944100  1.0  -0.5866
  N  N400  1  0.499370  0.888630  0.201230  1.0  -0.4827
  N  N401  1  0.490770  0.999930  0.186030  1.0  -0.2007
  N  N402  1  0.603870  0.081730  0.277430  1.0  -0.5856
  N  N403  1  0.166030  0.221970  0.534570  1.0  -0.4827
  N  N404  1  0.157430  0.333270  0.519370  1.0  -0.2007
  N  N405  1  0.270530  0.415070  0.610770  1.0  -0.5856
  N  N406  1  0.555300  0.722600  0.132100  1.0  -0.4807
  N  N407  1  0.666667  0.842500  0.147300  1.0  -0.1986
  N  N408  1  0.748400  0.811200  0.055900  1.0  -0.5866
  N  N409  1  0.221970  0.055930  0.465430  1.0  -0.481
  N  N410  1  0.333270  0.175830  0.480630  1.0  -0.1953
  N  N411  1  0.415070  0.144530  0.389230  1.0  -0.5855
  N  N412  1  0.888630  0.389270  0.798770  1.0  -0.481
  N  N413  1  0.999930  0.509170  0.813970  1.0  -0.1953
  N  N414  1  0.081730  0.477870  0.722570  1.0  -0.5855
  N  N415  1  0.277400  0.832700  0.132100  1.0  -0.4832
  N  N416  1  0.157500  0.824100  0.147300  1.0  -0.1982
  N  N417  1  0.188800  0.937200  0.055900  1.0  -0.5854
  N  N418  1  0.944070  0.166030  0.465430  1.0  -0.4832
  N  N419  1  0.824170  0.157430  0.480630  1.0  -0.1982
  N  N420  1  0.855470  0.270530  0.389230  1.0  -0.5854
  N  N421  1  0.610730  0.499370  0.798770  1.0  -0.4832
  N  N422  1  0.490830  0.490770  0.813970  1.0  -0.1982
  N  N423  1  0.522130  0.603870  0.722570  1.0  -0.5854
  N  N424  1  0.167300  0.444700  0.132100  1.0  -0.4831
  N  N425  1  0.175900  0.333400  0.147300  1.0  -0.1962
  N  N426  1  0.062800  0.251600  0.055900  1.0  -0.5875
  N  N427  1  0.833970  0.778030  0.465430  1.0  -0.4832
  N  N428  1  0.842570  0.666667  0.480630  1.0  -0.1976
  N  N429  1  0.729470  0.584930  0.389230  1.0  -0.5883
  N  N430  1  0.500630  0.111370  0.798770  1.0  -0.4831
  N  N431  1  0.509230  0.000070  0.813970  1.0  -0.1962
  N  N432  1  0.396130  0.918270  0.722570  1.0  -0.5875
  O  O433  1  0.370220  0.212170  0.037600  1.0  -0.8733
  O  O434  1  0.423630  0.176770  0.158100  1.0  -0.8887
  O  O435  1  0.391350  0.259750  0.207500  1.0  -0.9199
  O  O436  1  0.485770  0.291140  0.094300  1.0  -0.7346
  O  O437  1  0.376210  0.044090  0.213200  1.0  -0.8696
  O  O438  1  0.364570  0.955400  0.323400  1.0  -0.8752
  O  O439  1  0.270950  0.935890  0.215500  1.0  -0.8736
  O  O440  1  0.299830  0.009550  0.359400  1.0  -0.924
  O  O441  1  0.036890  0.545500  0.370930  1.0  -0.8733
  O  O442  1  0.090300  0.510100  0.491430  1.0  -0.8887
  O  O443  1  0.058020  0.593080  0.540830  1.0  -0.9201
  O  O444  1  0.152440  0.624470  0.427630  1.0  -0.7392
  O  O445  1  0.042880  0.377420  0.546530  1.0  -0.8695
  O  O446  1  0.031240  0.288730  0.656730  1.0  -0.8753
  O  O447  1  0.937620  0.269220  0.548830  1.0  -0.8736
  O  O448  1  0.966500  0.342880  0.692730  1.0  -0.9236
  O  O449  1  0.703550  0.878840  0.704270  1.0  -0.8734
  O  O450  1  0.756960  0.843440  0.824770  1.0  -0.8887
  O  O451  1  0.724680  0.926420  0.874170  1.0  -0.9199
  O  O452  1  0.819100  0.957810  0.760970  1.0  -0.7424
  O  O453  1  0.709540  0.710760  0.879870  1.0  -0.8695
  O  O454  1  0.697900  0.622070  0.990070  1.0  -0.8753
  O  O455  1  0.604280  0.602560  0.882170  1.0  -0.8736
  O  O456  1  0.633160  0.676220  0.026070  1.0  -0.924
  O  O457  1  0.787830  0.158050  0.037600  1.0  -0.8737
  O  O458  1  0.823230  0.246860  0.158100  1.0  -0.8891
  O  O459  1  0.740250  0.131600  0.207500  1.0  -0.9193
  O  O460  1  0.708860  0.194630  0.094300  1.0  -0.7259
  O  O461  1  0.955910  0.332120  0.213200  1.0  -0.8688
  O  O462  1  0.044600  0.409170  0.323400  1.0  -0.8739
  O  O463  1  0.064110  0.335060  0.215500  1.0  -0.8736
  O  O464  1  0.990450  0.290280  0.359400  1.0  -0.9236
  O  O465  1  0.454500  0.491380  0.370930  1.0  -0.8737
  O  O466  1  0.489900  0.580190  0.491430  1.0  -0.8891
  O  O467  1  0.406920  0.464930  0.540830  1.0  -0.9195
  O  O468  1  0.375530  0.527960  0.427630  1.0  -0.7483
  O  O469  1  0.622580  0.665450  0.546530  1.0  -0.8687
  O  O470  1  0.711270  0.742500  0.656730  1.0  -0.8735
  O  O471  1  0.730780  0.668390  0.548830  1.0  -0.8736
  O  O472  1  0.657120  0.623610  0.692730  1.0  -0.9235
  O  O473  1  0.121160  0.824720  0.704270  1.0  -0.8737
  O  O474  1  0.156560  0.913530  0.824770  1.0  -0.8891
  O  O475  1  0.073580  0.798270  0.874170  1.0  -0.9193
  O  O476  1  0.042190  0.861300  0.760970  1.0  -0.7258
  O  O477  1  0.289240  0.998790  0.879870  1.0  -0.8687
  O  O478  1  0.377930  0.075840  0.990070  1.0  -0.8739
  O  O479  1  0.397440  0.001730  0.882170  1.0  -0.8736
  O  O480  1  0.323780  0.956950  0.026070  1.0  -0.9233
  O  O481  1  0.841950  0.629780  0.037600  1.0  -0.8741
  O  O482  1  0.753140  0.576370  0.158100  1.0  -0.8903
  O  O483  1  0.868400  0.608650  0.207500  1.0  -0.9204
  O  O484  1  0.805370  0.514230  0.094300  1.0  -0.7388
  O  O485  1  0.667880  0.623790  0.213200  1.0  -0.868
  O  O486  1  0.590830  0.635430  0.323400  1.0  -0.8743
  O  O487  1  0.664940  0.729050  0.215500  1.0  -0.8721
  O  O488  1  0.709720  0.700170  0.359400  1.0  -0.9228
  O  O489  1  0.508620  0.963110  0.370930  1.0  -0.8735
  O  O490  1  0.419810  0.909700  0.491430  1.0  -0.8902
  O  O491  1  0.535070  0.941980  0.540830  1.0  -0.9204
  O  O492  1  0.472040  0.847560  0.427630  1.0  -0.7415
  O  O493  1  0.334550  0.957120  0.546530  1.0  -0.8681
  O  O494  1  0.257500  0.968760  0.656730  1.0  -0.8743
  O  O495  1  0.331610  0.062380  0.548830  1.0  -0.8721
  O  O496  1  0.376390  0.033500  0.692730  1.0  -0.9231
  O  O497  1  0.175280  0.296450  0.704270  1.0  -0.8736
  O  O498  1  0.086470  0.243040  0.824770  1.0  -0.8903
  O  O499  1  0.201730  0.275320  0.874170  1.0  -0.9204
  O  O500  1  0.138700  0.180900  0.760970  1.0  -0.7534
  O  O501  1  0.001210  0.290460  0.879870  1.0  -0.868
  O  O502  1  0.924160  0.302100  0.990070  1.0  -0.8743
  O  O503  1  0.998270  0.395720  0.882170  1.0  -0.8721
  O  O504  1  0.043050  0.366840  0.026070  1.0  -0.9228
  O  O505  1  0.629780  0.787830  0.962400  1.0  -0.8756
  O  O506  1  0.576370  0.823230  0.841900  1.0  -0.8879
  O  O507  1  0.608650  0.740250  0.792500  1.0  -0.9207
  O  O508  1  0.514230  0.708860  0.905700  1.0  -0.7349
  O  O509  1  0.623790  0.955910  0.786800  1.0  -0.8659
  O  O510  1  0.635430  0.044600  0.676600  1.0  -0.8733
  O  O511  1  0.729050  0.064110  0.784500  1.0  -0.8726
  O  O512  1  0.700170  0.990450  0.640600  1.0  -0.9238
  O  O513  1  0.296450  0.121160  0.295730  1.0  -0.8756
  O  O514  1  0.243040  0.156560  0.175230  1.0  -0.8879
  O  O515  1  0.275320  0.073580  0.125830  1.0  -0.9207
  O  O516  1  0.180900  0.042190  0.239030  1.0  -0.7456
  O  O517  1  0.290460  0.289240  0.120130  1.0  -0.8659
  O  O518  1  0.302100  0.377930  0.009930  1.0  -0.8734
  O  O519  1  0.395720  0.397440  0.117830  1.0  -0.8727
  O  O520  1  0.366840  0.323780  0.973930  1.0  -0.9238
  O  O521  1  0.963110  0.454500  0.629070  1.0  -0.8756
  O  O522  1  0.909700  0.489900  0.508570  1.0  -0.8879
  O  O523  1  0.941980  0.406920  0.459170  1.0  -0.921
  O  O524  1  0.847560  0.375530  0.572370  1.0  -0.7391
  O  O525  1  0.957120  0.622580  0.453470  1.0  -0.8659
  O  O526  1  0.968760  0.711270  0.343270  1.0  -0.8737
  O  O527  1  0.062380  0.730780  0.451170  1.0  -0.8727
  O  O528  1  0.033500  0.657120  0.307270  1.0  -0.9234
  O  O529  1  0.212170  0.841950  0.962400  1.0  -0.8747
  O  O530  1  0.176770  0.753140  0.841900  1.0  -0.8875
  O  O531  1  0.259750  0.868400  0.792500  1.0  -0.9196
  O  O532  1  0.291140  0.805370  0.905700  1.0  -0.7288
  O  O533  1  0.044090  0.667880  0.786800  1.0  -0.8641
  O  O534  1  0.955400  0.590830  0.676600  1.0  -0.8735
  O  O535  1  0.935890  0.664940  0.784500  1.0  -0.8741
  O  O536  1  0.009550  0.709720  0.640600  1.0  -0.9239
  O  O537  1  0.878840  0.175280  0.295730  1.0  -0.8747
  O  O538  1  0.843440  0.086470  0.175230  1.0  -0.8875
  O  O539  1  0.926420  0.201730  0.125830  1.0  -0.9196
  O  O540  1  0.957810  0.138700  0.239030  1.0  -0.7286
  O  O541  1  0.710760  0.001210  0.120130  1.0  -0.864
  O  O542  1  0.622070  0.924160  0.009930  1.0  -0.8735
  O  O543  1  0.602560  0.998270  0.117830  1.0  -0.8741
  O  O544  1  0.676220  0.043050  0.973930  1.0  -0.9235
  O  O545  1  0.545500  0.508620  0.629070  1.0  -0.8747
  O  O546  1  0.510100  0.419810  0.508570  1.0  -0.8876
  O  O547  1  0.593080  0.535070  0.459170  1.0  -0.9197
  O  O548  1  0.624470  0.472040  0.572370  1.0  -0.7506
  O  O549  1  0.377420  0.334550  0.453470  1.0  -0.864
  O  O550  1  0.288730  0.257500  0.343270  1.0  -0.8731
  O  O551  1  0.269220  0.331610  0.451170  1.0  -0.8741
  O  O552  1  0.342880  0.376390  0.307270  1.0  -0.9238
  O  O553  1  0.158050  0.370220  0.962400  1.0  -0.8741
  O  O554  1  0.246860  0.423630  0.841900  1.0  -0.8895
  O  O555  1  0.131600  0.391350  0.792500  1.0  -0.9208
  O  O556  1  0.194630  0.485770  0.905700  1.0  -0.7392
  O  O557  1  0.332120  0.376210  0.786800  1.0  -0.8654
  O  O558  1  0.409170  0.364570  0.676600  1.0  -0.8722
  O  O559  1  0.335060  0.270950  0.784500  1.0  -0.8718
  O  O560  1  0.290280  0.299830  0.640600  1.0  -0.9234
  O  O561  1  0.824720  0.703550  0.295730  1.0  -0.8743
  O  O562  1  0.913530  0.756960  0.175230  1.0  -0.8895
  O  O563  1  0.798270  0.724680  0.125830  1.0  -0.9208
  O  O564  1  0.861300  0.819100  0.239030  1.0  -0.7519
  O  O565  1  0.998790  0.709540  0.120130  1.0  -0.8654
  O  O566  1  0.075840  0.697900  0.009930  1.0  -0.8722
  O  O567  1  0.001730  0.604280  0.117830  1.0  -0.8718
  O  O568  1  0.956950  0.633160  0.973930  1.0  -0.9234
  O  O569  1  0.491380  0.036890  0.629070  1.0  -0.8741
  O  O570  1  0.580190  0.090300  0.508570  1.0  -0.8893
  O  O571  1  0.464930  0.058020  0.459170  1.0  -0.9208
  O  O572  1  0.527960  0.152440  0.572370  1.0  -0.7415
  O  O573  1  0.665450  0.042880  0.453470  1.0  -0.8654
  O  O574  1  0.742500  0.031240  0.343270  1.0  -0.8722
  O  O575  1  0.668390  0.937620  0.451170  1.0  -0.8718
  O  O576  1  0.623610  0.966500  0.307270  1.0  -0.9238
