# generated using pymatgen
data_Ga3FeP4H22C8(N3O8)2
_symmetry_space_group_name_H-M   'P 1'
_cell_length_a   23.69650000
_cell_length_b   23.69650000
_cell_length_c   13.54370000
_cell_angle_alpha   90.00000000
_cell_angle_beta   90.00000000
_cell_angle_gamma   120.00000000
_symmetry_Int_Tables_number   1
_chemical_formula_structural   Ga3FeP4H22C8(N3O8)2
_chemical_formula_sum   'Ga27 Fe9 P36 H198 C72 N54 O144'
_cell_volume   6586.22202580
_cell_formula_units_Z   9
loop_
 _symmetry_equiv_pos_site_id
 _symmetry_equiv_pos_as_xyz
  1  'x, y, z'
loop_
 _atom_site_type_symbol
 _atom_site_label
 _atom_site_symmetry_multiplicity
 _atom_site_fract_x
 _atom_site_fract_y
 _atom_site_fract_z
 _atom_site_occupancy
 _atom_site_charge
  Ga  Ga1  1  0.349900  0.243630  0.916680  1.0  1.3582
  Ga  Ga2  1  0.305440  0.240250  0.214400  1.0  1.6365
  Ga  Ga3  1  0.016570  0.576960  0.250010  1.0  1.3584
  Ga  Ga4  1  0.972100  0.573590  0.547740  1.0  1.6364
  Ga  Ga5  1  0.683230  0.910300  0.583350  1.0  1.3582
  Ga  Ga6  1  0.638770  0.906920  0.881070  1.0  1.6365
  Ga  Ga7  1  0.756370  0.106270  0.916680  1.0  1.3574
  Ga  Ga8  1  0.759750  0.065180  0.214400  1.0  1.6377
  Ga  Ga9  1  0.423040  0.439600  0.250010  1.0  1.3574
  Ga  Ga10  1  0.426410  0.398520  0.547740  1.0  1.6377
  Ga  Ga11  1  0.089700  0.772940  0.583350  1.0  1.3574
  Ga  Ga12  1  0.093080  0.731850  0.881070  1.0  1.6377
  Ga  Ga13  1  0.893730  0.650100  0.916680  1.0  1.3592
  Ga  Ga14  1  0.934820  0.694560  0.214400  1.0  1.6384
  Ga  Ga15  1  0.560400  0.983430  0.250010  1.0  1.3592
  Ga  Ga16  1  0.601480  0.027900  0.547740  1.0  1.6385
  Ga  Ga17  1  0.227060  0.316770  0.583350  1.0  1.3592
  Ga  Ga18  1  0.268150  0.361230  0.881070  1.0  1.6384
  Ga  Ga19  1  0.650100  0.756370  0.083320  1.0  1.3591
  Ga  Ga20  1  0.316770  0.089700  0.416650  1.0  1.3591
  Ga  Ga21  1  0.983430  0.423040  0.749990  1.0  1.3593
  Ga  Ga22  1  0.243630  0.893730  0.083320  1.0  1.3587
  Ga  Ga23  1  0.910300  0.227060  0.416650  1.0  1.3587
  Ga  Ga24  1  0.576960  0.560400  0.749990  1.0  1.3587
  Ga  Ga25  1  0.106270  0.349900  0.083320  1.0  1.3567
  Ga  Ga26  1  0.772940  0.683230  0.416650  1.0  1.3567
  Ga  Ga27  1  0.439600  0.016570  0.749990  1.0  1.3567
  Fe  Fe28  1  0.361230  0.093080  0.118930  1.0  1.0644
  Fe  Fe29  1  0.027900  0.426410  0.452260  1.0  1.0644
  Fe  Fe30  1  0.694560  0.759750  0.785600  1.0  1.0644
  Fe  Fe31  1  0.906920  0.268150  0.118930  1.0  1.0648
  Fe  Fe32  1  0.573590  0.601480  0.452260  1.0  1.0647
  Fe  Fe33  1  0.240250  0.934820  0.785600  1.0  1.0648
  Fe  Fe34  1  0.731850  0.638770  0.118930  1.0  1.0636
  Fe  Fe35  1  0.398520  0.972100  0.452260  1.0  1.0637
  Fe  Fe36  1  0.065180  0.305440  0.785600  1.0  1.0636
  P  P37  1  0.419360  0.236950  0.120640  1.0  1.8082
  P  P38  1  0.327010  0.986610  0.275980  1.0  1.7802
  P  P39  1  0.086030  0.570280  0.453970  1.0  1.8082
  P  P40  1  0.993680  0.319940  0.609310  1.0  1.7803
  P  P41  1  0.752690  0.903620  0.787310  1.0  1.8082
  P  P42  1  0.660340  0.653280  0.942650  1.0  1.7802
  P  P43  1  0.763050  0.182410  0.120640  1.0  1.808
  P  P44  1  0.013390  0.340400  0.275980  1.0  1.7815
  P  P45  1  0.429720  0.515740  0.453970  1.0  1.808
  P  P46  1  0.680060  0.673730  0.609310  1.0  1.7814
  P  P47  1  0.096380  0.849080  0.787310  1.0  1.8079
  P  P48  1  0.346720  0.007070  0.942650  1.0  1.7815
  P  P49  1  0.817590  0.580640  0.120640  1.0  1.8099
  P  P50  1  0.659600  0.672990  0.275980  1.0  1.7836
  P  P51  1  0.484260  0.913970  0.453970  1.0  1.8099
  P  P52  1  0.326270  0.006320  0.609310  1.0  1.7836
  P  P53  1  0.150920  0.247310  0.787310  1.0  1.8099
  P  P54  1  0.992930  0.339660  0.942650  1.0  1.7836
  P  P55  1  0.580640  0.763050  0.879360  1.0  1.8037
  P  P56  1  0.672990  0.013390  0.724020  1.0  1.7814
  P  P57  1  0.247310  0.096380  0.212690  1.0  1.8037
  P  P58  1  0.339660  0.346720  0.057350  1.0  1.7814
  P  P59  1  0.913970  0.429720  0.546030  1.0  1.8037
  P  P60  1  0.006320  0.680060  0.390690  1.0  1.7815
  P  P61  1  0.236950  0.817590  0.879360  1.0  1.8098
  P  P62  1  0.986610  0.659600  0.724020  1.0  1.7821
  P  P63  1  0.903620  0.150920  0.212690  1.0  1.8098
  P  P64  1  0.653280  0.992930  0.057350  1.0  1.7821
  P  P65  1  0.570280  0.484260  0.546030  1.0  1.8098
  P  P66  1  0.319940  0.326270  0.390690  1.0  1.7821
  P  P67  1  0.182410  0.419360  0.879360  1.0  1.8106
  P  P68  1  0.340400  0.327010  0.724020  1.0  1.7818
  P  P69  1  0.849080  0.752690  0.212690  1.0  1.8106
  P  P70  1  0.007070  0.660340  0.057350  1.0  1.7818
  P  P71  1  0.515740  0.086030  0.546030  1.0  1.8106
  P  P72  1  0.673730  0.993680  0.390690  1.0  1.7818
  H  H73  1  0.476200  0.291300  0.920400  1.0  0.161
  H  H74  1  0.457600  0.312400  0.825000  1.0  0.2004
  H  H75  1  0.224700  0.206000  0.909400  1.0  0.1954
  H  H76  1  0.248700  0.183000  0.014200  1.0  0.1892
  H  H77  1  0.451200  0.197100  0.893500  1.0  0.1178
  H  H78  1  0.388900  0.131200  0.763400  1.0  0.1273
  H  H79  1  0.379900  0.209000  0.724300  1.0  0.1145
  H  H80  1  0.264200  0.148600  0.751300  1.0  0.176
  H  H81  1  0.242400  0.075600  0.789600  1.0  0.1522
  H  H82  1  0.174600  0.097800  0.878800  1.0  0.1255
  H  H83  1  0.222900  0.094200  0.973200  1.0  0.1871
  H  H84  1  0.142870  0.624630  0.253730  1.0  0.161
  H  H85  1  0.124270  0.645730  0.158330  1.0  0.2003
  H  H86  1  0.891370  0.539330  0.242730  1.0  0.1952
  H  H87  1  0.915370  0.516330  0.347530  1.0  0.1892
  H  H88  1  0.117870  0.530430  0.226830  1.0  0.1178
  H  H89  1  0.055570  0.464530  0.096730  1.0  0.1272
  H  H90  1  0.046570  0.542330  0.057630  1.0  0.1145
  H  H91  1  0.930870  0.481930  0.084630  1.0  0.1763
  H  H92  1  0.909070  0.408930  0.122930  1.0  0.1522
  H  H93  1  0.841270  0.431130  0.212130  1.0  0.1255
  H  H94  1  0.889570  0.427530  0.306530  1.0  0.187
  H  H95  1  0.809530  0.957970  0.587070  1.0  0.1623
  H  H96  1  0.790930  0.979070  0.491670  1.0  0.2003
  H  H97  1  0.558030  0.872670  0.576070  1.0  0.1954
  H  H98  1  0.582030  0.849670  0.680870  1.0  0.1892
  H  H99  1  0.784530  0.863770  0.560170  1.0  0.1178
  H  H100  1  0.722230  0.797870  0.430070  1.0  0.1272
  H  H101  1  0.713230  0.875670  0.390970  1.0  0.1145
  H  H102  1  0.597530  0.815270  0.417970  1.0  0.176
  H  H103  1  0.575730  0.742270  0.456270  1.0  0.1522
  H  H104  1  0.507930  0.764470  0.545470  1.0  0.1244
  H  H105  1  0.556230  0.760870  0.639870  1.0  0.187
  H  H106  1  0.708700  0.184900  0.920400  1.0  0.1617
  H  H107  1  0.687600  0.145200  0.825000  1.0  0.1989
  H  H108  1  0.794000  0.018700  0.909400  1.0  0.1963
  H  H109  1  0.817000  0.065700  0.014200  1.0  0.1886
  H  H110  1  0.802900  0.254100  0.893500  1.0  0.1189
  H  H111  1  0.868800  0.257700  0.763400  1.0  0.1273
  H  H112  1  0.791000  0.170900  0.724300  1.0  0.1144
  H  H113  1  0.851400  0.115600  0.751300  1.0  0.175
  H  H114  1  0.924400  0.166800  0.789600  1.0  0.1512
  H  H115  1  0.902200  0.076800  0.878800  1.0  0.1234
  H  H116  1  0.905800  0.128700  0.973200  1.0  0.1884
  H  H117  1  0.375370  0.518230  0.253730  1.0  0.1617
  H  H118  1  0.354270  0.478530  0.158330  1.0  0.199
  H  H119  1  0.460670  0.352030  0.242730  1.0  0.1962
  H  H120  1  0.483670  0.399030  0.347530  1.0  0.1886
  H  H121  1  0.469570  0.587430  0.226830  1.0  0.1189
  H  H122  1  0.535470  0.591030  0.096730  1.0  0.1274
  H  H123  1  0.457670  0.504230  0.057630  1.0  0.1144
  H  H124  1  0.518070  0.448930  0.084630  1.0  0.175
  H  H125  1  0.591070  0.500130  0.122930  1.0  0.1516
  H  H126  1  0.568870  0.410130  0.212130  1.0  0.1234
  H  H127  1  0.572470  0.462030  0.306530  1.0  0.1884
  H  H128  1  0.042030  0.851570  0.587070  1.0  0.1608
  H  H129  1  0.020930  0.811870  0.491670  1.0  0.199
  H  H130  1  0.127330  0.685370  0.576070  1.0  0.1963
  H  H131  1  0.150330  0.732370  0.680870  1.0  0.1886
  H  H132  1  0.136230  0.920770  0.560170  1.0  0.1189
  H  H133  1  0.202130  0.924370  0.430070  1.0  0.1274
  H  H134  1  0.124330  0.837570  0.390970  1.0  0.1144
  H  H135  1  0.184730  0.782270  0.417970  1.0  0.175
  H  H136  1  0.257730  0.833470  0.456270  1.0  0.1512
  H  H137  1  0.235530  0.743470  0.545470  1.0  0.1239
  H  H138  1  0.239130  0.795370  0.639870  1.0  0.1884
  H  H139  1  0.815100  0.523800  0.920400  1.0  0.1626
  H  H140  1  0.854800  0.542400  0.825000  1.0  0.1998
  H  H141  1  0.981300  0.775300  0.909400  1.0  0.1951
  H  H142  1  0.934300  0.751300  0.014200  1.0  0.1891
  H  H143  1  0.745900  0.548800  0.893500  1.0  0.1196
  H  H144  1  0.742300  0.611100  0.763400  1.0  0.1295
  H  H145  1  0.829100  0.620100  0.724300  1.0  0.1142
  H  H146  1  0.884400  0.735800  0.751300  1.0  0.1763
  H  H147  1  0.833200  0.757600  0.789600  1.0  0.1512
  H  H148  1  0.923200  0.825400  0.878800  1.0  0.1233
  H  H149  1  0.871300  0.777100  0.973200  1.0  0.1868
  H  H150  1  0.481770  0.857130  0.253730  1.0  0.1626
  H  H151  1  0.521470  0.875730  0.158330  1.0  0.1998
  H  H152  1  0.647970  0.108630  0.242730  1.0  0.1952
  H  H153  1  0.600970  0.084630  0.347530  1.0  0.1891
  H  H154  1  0.412570  0.882130  0.226830  1.0  0.1196
  H  H155  1  0.408970  0.944430  0.096730  1.0  0.1295
  H  H156  1  0.495770  0.953430  0.057630  1.0  0.1142
  H  H157  1  0.551070  0.069130  0.084630  1.0  0.1762
  H  H158  1  0.499870  0.090930  0.122930  1.0  0.1512
  H  H159  1  0.589870  0.158730  0.212130  1.0  0.1233
  H  H160  1  0.537970  0.110430  0.306530  1.0  0.1868
  H  H161  1  0.148430  0.190470  0.587070  1.0  0.1626
  H  H162  1  0.188130  0.209070  0.491670  1.0  0.1998
  H  H163  1  0.314630  0.441970  0.576070  1.0  0.1951
  H  H164  1  0.267630  0.417970  0.680870  1.0  0.1891
  H  H165  1  0.079230  0.215470  0.560170  1.0  0.1196
  H  H166  1  0.075630  0.277770  0.430070  1.0  0.1295
  H  H167  1  0.162430  0.286770  0.390970  1.0  0.1142
  H  H168  1  0.217730  0.402470  0.417970  1.0  0.1763
  H  H169  1  0.166530  0.424270  0.456270  1.0  0.1512
  H  H170  1  0.256530  0.492070  0.545470  1.0  0.1227
  H  H171  1  0.204630  0.443770  0.639870  1.0  0.1868
  H  H172  1  0.523800  0.708700  0.079600  1.0  0.1606
  H  H173  1  0.542400  0.687600  0.175000  1.0  0.2013
  H  H174  1  0.775300  0.794000  0.090600  1.0  0.1953
  H  H175  1  0.751300  0.817000  0.985800  1.0  0.1893
  H  H176  1  0.548800  0.802900  0.106500  1.0  0.1168
  H  H177  1  0.611100  0.868800  0.236600  1.0  0.1276
  H  H178  1  0.620100  0.791000  0.275700  1.0  0.1148
  H  H179  1  0.735800  0.851400  0.248700  1.0  0.1759
  H  H180  1  0.757600  0.924400  0.210400  1.0  0.1503
  H  H181  1  0.825400  0.902200  0.121200  1.0  0.1234
  H  H182  1  0.777100  0.905800  0.026800  1.0  0.1854
  H  H183  1  0.190470  0.042030  0.412930  1.0  0.1611
  H  H184  1  0.209070  0.020930  0.508330  1.0  0.2013
  H  H185  1  0.441970  0.127330  0.423930  1.0  0.1953
  H  H186  1  0.417970  0.150330  0.319130  1.0  0.1893
  H  H187  1  0.215470  0.136230  0.439830  1.0  0.1168
  H  H188  1  0.277770  0.202130  0.569930  1.0  0.1276
  H  H189  1  0.286770  0.124330  0.609030  1.0  0.1148
  H  H190  1  0.402470  0.184730  0.582030  1.0  0.1759
  H  H191  1  0.424270  0.257730  0.543730  1.0  0.1502
  H  H192  1  0.492070  0.235530  0.454530  1.0  0.1234
  H  H193  1  0.443770  0.239130  0.360130  1.0  0.1853
  H  H194  1  0.857130  0.375370  0.746270  1.0  0.1606
  H  H195  1  0.875730  0.354270  0.841670  1.0  0.2013
  H  H196  1  0.108630  0.460670  0.757270  1.0  0.1951
  H  H197  1  0.084630  0.483670  0.652470  1.0  0.1893
  H  H198  1  0.882130  0.469570  0.773170  1.0  0.1168
  H  H199  1  0.944430  0.535470  0.903270  1.0  0.1276
  H  H200  1  0.953430  0.457670  0.942370  1.0  0.1148
  H  H201  1  0.069130  0.518070  0.915370  1.0  0.1762
  H  H202  1  0.090930  0.591070  0.877070  1.0  0.1502
  H  H203  1  0.158730  0.568870  0.787870  1.0  0.1234
  H  H204  1  0.110430  0.572470  0.693470  1.0  0.1854
  H  H205  1  0.291300  0.815100  0.079600  1.0  0.1617
  H  H206  1  0.312400  0.854800  0.175000  1.0  0.1988
  H  H207  1  0.206000  0.981300  0.090600  1.0  0.1961
  H  H208  1  0.183000  0.934300  0.985800  1.0  0.191
  H  H209  1  0.197100  0.745900  0.106500  1.0  0.1181
  H  H210  1  0.131200  0.742300  0.236600  1.0  0.1283
  H  H211  1  0.209000  0.829100  0.275700  1.0  0.1156
  H  H212  1  0.148600  0.884400  0.248700  1.0  0.1765
  H  H213  1  0.075600  0.833200  0.210400  1.0  0.1511
  H  H214  1  0.097800  0.923200  0.121200  1.0  0.1234
  H  H215  1  0.094200  0.871300  0.026800  1.0  0.1877
  H  H216  1  0.957970  0.148430  0.412930  1.0  0.1609
  H  H217  1  0.979070  0.188130  0.508330  1.0  0.1989
  H  H218  1  0.872670  0.314630  0.423930  1.0  0.1961
  H  H219  1  0.849670  0.267630  0.319130  1.0  0.191
  H  H220  1  0.863770  0.079230  0.439830  1.0  0.1181
  H  H221  1  0.797870  0.075630  0.569930  1.0  0.1284
  H  H222  1  0.875670  0.162430  0.609030  1.0  0.1156
  H  H223  1  0.815270  0.217730  0.582030  1.0  0.1765
  H  H224  1  0.742270  0.166530  0.543730  1.0  0.1511
  H  H225  1  0.764470  0.256530  0.454530  1.0  0.1245
  H  H226  1  0.760870  0.204630  0.360130  1.0  0.1877
  H  H227  1  0.624630  0.481770  0.746270  1.0  0.1617
  H  H228  1  0.645730  0.521470  0.841670  1.0  0.1988
  H  H229  1  0.539330  0.647970  0.757270  1.0  0.196
  H  H230  1  0.516330  0.600970  0.652470  1.0  0.191
  H  H231  1  0.530430  0.412570  0.773170  1.0  0.1181
  H  H232  1  0.464530  0.408970  0.903270  1.0  0.1285
  H  H233  1  0.542330  0.495770  0.942370  1.0  0.1156
  H  H234  1  0.481930  0.551070  0.915370  1.0  0.1765
  H  H235  1  0.408930  0.499870  0.877070  1.0  0.1515
  H  H236  1  0.431130  0.589870  0.787870  1.0  0.1234
  H  H237  1  0.427530  0.537970  0.693470  1.0  0.1877
  H  H238  1  0.184900  0.476200  0.079600  1.0  0.1622
  H  H239  1  0.145200  0.457600  0.175000  1.0  0.1992
  H  H240  1  0.018700  0.224700  0.090600  1.0  0.1948
  H  H241  1  0.065700  0.248700  0.985800  1.0  0.1895
  H  H242  1  0.254100  0.451200  0.106500  1.0  0.1201
  H  H243  1  0.257700  0.388900  0.236600  1.0  0.1286
  H  H244  1  0.170900  0.379900  0.275700  1.0  0.1142
  H  H245  1  0.115600  0.264200  0.248700  1.0  0.1757
  H  H246  1  0.166800  0.242400  0.210400  1.0  0.1524
  H  H247  1  0.076800  0.174600  0.121200  1.0  0.1241
  H  H248  1  0.128700  0.222900  0.026800  1.0  0.1863
  H  H249  1  0.851570  0.809530  0.412930  1.0  0.1623
  H  H250  1  0.811870  0.790930  0.508330  1.0  0.1991
  H  H251  1  0.685370  0.558030  0.423930  1.0  0.1948
  H  H252  1  0.732370  0.582030  0.319130  1.0  0.1895
  H  H253  1  0.920770  0.784530  0.439830  1.0  0.1201
  H  H254  1  0.924370  0.722230  0.569930  1.0  0.1287
  H  H255  1  0.837570  0.713230  0.609030  1.0  0.1142
  H  H256  1  0.782270  0.597530  0.582030  1.0  0.1757
  H  H257  1  0.833470  0.575730  0.543730  1.0  0.1525
  H  H258  1  0.743470  0.507930  0.454530  1.0  0.1229
  H  H259  1  0.795370  0.556230  0.360130  1.0  0.1863
  H  H260  1  0.518230  0.142870  0.746270  1.0  0.1622
  H  H261  1  0.478530  0.124270  0.841670  1.0  0.1992
  H  H262  1  0.352030  0.891370  0.757270  1.0  0.1949
  H  H263  1  0.399030  0.915370  0.652470  1.0  0.1895
  H  H264  1  0.587430  0.117870  0.773170  1.0  0.1201
  H  H265  1  0.591030  0.055570  0.903270  1.0  0.1287
  H  H266  1  0.504230  0.046570  0.942370  1.0  0.1142
  H  H267  1  0.448930  0.930870  0.915370  1.0  0.1756
  H  H268  1  0.500130  0.909070  0.877070  1.0  0.1525
  H  H269  1  0.410130  0.841270  0.787870  1.0  0.1241
  H  H270  1  0.462030  0.889570  0.693470  1.0  0.1863
  C  C271  1  0.448300  0.220500  0.828000  1.0  0.1275
  C  C272  1  0.385200  0.174400  0.779500  1.0  0.0664
  C  C273  1  0.266100  0.123600  0.818600  1.0  -0.0887
  C  C274  1  0.224700  0.120800  0.904900  1.0  -0.028
  C  C275  1  0.114970  0.553830  0.161330  1.0  0.1274
  C  C276  1  0.051870  0.507730  0.112830  1.0  0.0664
  C  C277  1  0.932770  0.456930  0.151930  1.0  -0.0888
  C  C278  1  0.891370  0.454130  0.238230  1.0  -0.028
  C  C279  1  0.781630  0.887170  0.494670  1.0  0.1275
  C  C280  1  0.718530  0.841070  0.446170  1.0  0.0664
  C  C281  1  0.599430  0.790270  0.485270  1.0  -0.0888
  C  C282  1  0.558030  0.787470  0.571570  1.0  -0.028
  C  C283  1  0.779500  0.227800  0.828000  1.0  0.1271
  C  C284  1  0.825600  0.210800  0.779500  1.0  0.0694
  C  C285  1  0.876400  0.142500  0.818600  1.0  -0.0922
  C  C286  1  0.879200  0.103900  0.904900  1.0  -0.0279
  C  C287  1  0.446170  0.561130  0.161330  1.0  0.1271
  C  C288  1  0.492270  0.544130  0.112830  1.0  0.0694
  C  C289  1  0.543070  0.475830  0.151930  1.0  -0.0923
  C  C290  1  0.545870  0.437230  0.238230  1.0  -0.0279
  C  C291  1  0.112830  0.894470  0.494670  1.0  0.127
  C  C292  1  0.158930  0.877470  0.446170  1.0  0.0694
  C  C293  1  0.209730  0.809170  0.485270  1.0  -0.0922
  C  C294  1  0.212530  0.770570  0.571570  1.0  -0.0279
  C  C295  1  0.772200  0.551700  0.828000  1.0  0.1271
  C  C296  1  0.789200  0.614800  0.779500  1.0  0.0677
  C  C297  1  0.857500  0.733900  0.818600  1.0  -0.091
  C  C298  1  0.896100  0.775300  0.904900  1.0  -0.0285
  C  C299  1  0.438870  0.885030  0.161330  1.0  0.1271
  C  C300  1  0.455870  0.948130  0.112830  1.0  0.0677
  C  C301  1  0.524170  0.067230  0.151930  1.0  -0.091
  C  C302  1  0.562770  0.108630  0.238230  1.0  -0.0285
  C  C303  1  0.105530  0.218370  0.494670  1.0  0.1271
  C  C304  1  0.122530  0.281470  0.446170  1.0  0.0677
  C  C305  1  0.190830  0.400570  0.485270  1.0  -0.091
  C  C306  1  0.229430  0.441970  0.571570  1.0  -0.0284
  C  C307  1  0.551700  0.779500  0.172000  1.0  0.1291
  C  C308  1  0.614800  0.825600  0.220500  1.0  0.0663
  C  C309  1  0.733900  0.876400  0.181400  1.0  -0.0895
  C  C310  1  0.775300  0.879200  0.095100  1.0  -0.0292
  C  C311  1  0.218370  0.112830  0.505330  1.0  0.1291
  C  C312  1  0.281470  0.158930  0.553830  1.0  0.0663
  C  C313  1  0.400570  0.209730  0.514730  1.0  -0.0895
  C  C314  1  0.441970  0.212530  0.428430  1.0  -0.0292
  C  C315  1  0.885030  0.446170  0.838670  1.0  0.1291
  C  C316  1  0.948130  0.492270  0.887170  1.0  0.0663
  C  C317  1  0.067230  0.543070  0.848070  1.0  -0.0894
  C  C318  1  0.108630  0.545870  0.761770  1.0  -0.0292
  C  C319  1  0.220500  0.772200  0.172000  1.0  0.1282
  C  C320  1  0.174400  0.789200  0.220500  1.0  0.0682
  C  C321  1  0.123600  0.857500  0.181400  1.0  -0.0918
  C  C322  1  0.120800  0.896100  0.095100  1.0  -0.0283
  C  C323  1  0.887170  0.105530  0.505330  1.0  0.128
  C  C324  1  0.841070  0.122530  0.553830  1.0  0.0682
  C  C325  1  0.790270  0.190830  0.514730  1.0  -0.0918
  C  C326  1  0.787470  0.229430  0.428430  1.0  -0.0283
  C  C327  1  0.553830  0.438870  0.838670  1.0  0.1282
  C  C328  1  0.507730  0.455870  0.887170  1.0  0.0682
  C  C329  1  0.456930  0.524170  0.848070  1.0  -0.0918
  C  C330  1  0.454130  0.562770  0.761770  1.0  -0.0283
  C  C331  1  0.227800  0.448300  0.172000  1.0  0.1287
  C  C332  1  0.210800  0.385200  0.220500  1.0  0.0653
  C  C333  1  0.142500  0.266100  0.181400  1.0  -0.0892
  C  C334  1  0.103900  0.224700  0.095100  1.0  -0.0254
  C  C335  1  0.894470  0.781630  0.505330  1.0  0.1287
  C  C336  1  0.877470  0.718530  0.553830  1.0  0.0653
  C  C337  1  0.809170  0.599430  0.514730  1.0  -0.0892
  C  C338  1  0.770570  0.558030  0.428430  1.0  -0.0254
  C  C339  1  0.561130  0.114970  0.838670  1.0  0.1287
  C  C340  1  0.544130  0.051870  0.887170  1.0  0.0653
  C  C341  1  0.475830  0.932770  0.848070  1.0  -0.0892
  C  C342  1  0.437230  0.891370  0.761770  1.0  -0.0254
  N  N343  1  0.444400  0.277700  0.869400  1.0  -0.6223
  N  N344  1  0.333500  0.156800  0.852700  1.0  -0.3528
  N  N345  1  0.251400  0.188800  0.942600  1.0  -0.4726
  N  N346  1  0.111070  0.611030  0.202730  1.0  -0.6222
  N  N347  1  0.000170  0.490130  0.186030  1.0  -0.3528
  N  N348  1  0.918070  0.522130  0.275930  1.0  -0.4727
  N  N349  1  0.777730  0.944370  0.536070  1.0  -0.6224
  N  N350  1  0.666830  0.823470  0.519370  1.0  -0.3528
  N  N351  1  0.584730  0.855470  0.609270  1.0  -0.4726
  N  N352  1  0.722300  0.166700  0.869400  1.0  -0.6221
  N  N353  1  0.843200  0.176700  0.852700  1.0  -0.3533
  N  N354  1  0.811200  0.062600  0.942600  1.0  -0.4739
  N  N355  1  0.388970  0.500030  0.202730  1.0  -0.6221
  N  N356  1  0.509870  0.510030  0.186030  1.0  -0.3533
  N  N357  1  0.477870  0.395930  0.275930  1.0  -0.4741
  N  N358  1  0.055630  0.833370  0.536070  1.0  -0.622
  N  N359  1  0.176530  0.843370  0.519370  1.0  -0.3533
  N  N360  1  0.144530  0.729270  0.609270  1.0  -0.4738
  N  N361  1  0.833300  0.555600  0.869400  1.0  -0.622
  N  N362  1  0.823300  0.666500  0.852700  1.0  -0.3528
  N  N363  1  0.937400  0.748600  0.942600  1.0  -0.4732
  N  N364  1  0.499970  0.888930  0.202730  1.0  -0.622
  N  N365  1  0.489970  0.999830  0.186030  1.0  -0.3528
  N  N366  1  0.604070  0.081930  0.275930  1.0  -0.4732
  N  N367  1  0.166630  0.222270  0.536070  1.0  -0.6221
  N  N368  1  0.156630  0.333170  0.519370  1.0  -0.3528
  N  N369  1  0.270730  0.415270  0.609270  1.0  -0.4732
  N  N370  1  0.555600  0.722300  0.130600  1.0  -0.6225
  N  N371  1  0.666500  0.843200  0.147300  1.0  -0.3554
  N  N372  1  0.748600  0.811200  0.057400  1.0  -0.4709
  N  N373  1  0.222270  0.055630  0.463930  1.0  -0.6225
  N  N374  1  0.333170  0.176530  0.480630  1.0  -0.3554
  N  N375  1  0.415270  0.144530  0.390730  1.0  -0.4709
  N  N376  1  0.888930  0.388970  0.797270  1.0  -0.6224
  N  N377  1  0.999830  0.509870  0.813970  1.0  -0.3554
  N  N378  1  0.081930  0.477870  0.724070  1.0  -0.4709
  N  N379  1  0.277700  0.833300  0.130600  1.0  -0.6203
  N  N380  1  0.156800  0.823300  0.147300  1.0  -0.3549
  N  N381  1  0.188800  0.937400  0.057400  1.0  -0.4701
  N  N382  1  0.944370  0.166630  0.463930  1.0  -0.6202
  N  N383  1  0.823470  0.156630  0.480630  1.0  -0.3549
  N  N384  1  0.855470  0.270730  0.390730  1.0  -0.4701
  N  N385  1  0.611030  0.499970  0.797270  1.0  -0.6203
  N  N386  1  0.490130  0.489970  0.813970  1.0  -0.3549
  N  N387  1  0.522130  0.604070  0.724070  1.0  -0.4701
  N  N388  1  0.166700  0.444400  0.130600  1.0  -0.6221
  N  N389  1  0.176700  0.333500  0.147300  1.0  -0.354
  N  N390  1  0.062600  0.251400  0.057400  1.0  -0.4739
  N  N391  1  0.833370  0.777730  0.463930  1.0  -0.6222
  N  N392  1  0.843370  0.666830  0.480630  1.0  -0.354
  N  N393  1  0.729270  0.584730  0.390730  1.0  -0.4738
  N  N394  1  0.500030  0.111070  0.797270  1.0  -0.6221
  N  N395  1  0.510030  0.000170  0.813970  1.0  -0.354
  N  N396  1  0.395930  0.918070  0.724070  1.0  -0.4738
  O  O397  1  0.368900  0.211800  0.038000  1.0  -0.8581
  O  O398  1  0.423400  0.176800  0.156800  1.0  -0.8564
  O  O399  1  0.391600  0.259800  0.207100  1.0  -0.832
  O  O400  1  0.484700  0.290800  0.091400  1.0  -0.733
  O  O401  1  0.376200  0.045000  0.212700  1.0  -0.8803
  O  O402  1  0.366100  0.957100  0.322800  1.0  -0.8279
  O  O403  1  0.271600  0.936100  0.215600  1.0  -0.8223
  O  O404  1  0.300300  0.009700  0.359300  1.0  -0.857
  O  O405  1  0.035570  0.545130  0.371330  1.0  -0.8581
  O  O406  1  0.090070  0.510130  0.490130  1.0  -0.8564
  O  O407  1  0.058270  0.593130  0.540430  1.0  -0.8319
  O  O408  1  0.151370  0.624130  0.424730  1.0  -0.7244
  O  O409  1  0.042870  0.378330  0.546030  1.0  -0.8803
  O  O410  1  0.032770  0.290430  0.656130  1.0  -0.8279
  O  O411  1  0.938270  0.269430  0.548930  1.0  -0.8223
  O  O412  1  0.966970  0.343030  0.692630  1.0  -0.8558
  O  O413  1  0.702230  0.878470  0.704670  1.0  -0.8581
  O  O414  1  0.756730  0.843470  0.823470  1.0  -0.8564
  O  O415  1  0.724930  0.926470  0.873770  1.0  -0.832
  O  O416  1  0.818030  0.957470  0.758070  1.0  -0.733
  O  O417  1  0.709530  0.711670  0.879370  1.0  -0.8803
  O  O418  1  0.699430  0.623770  0.989470  1.0  -0.8279
  O  O419  1  0.604930  0.602770  0.882270  1.0  -0.8223
  O  O420  1  0.633630  0.676370  0.025970  1.0  -0.8573
  O  O421  1  0.788200  0.157100  0.038000  1.0  -0.8573
  O  O422  1  0.823200  0.246600  0.156800  1.0  -0.858
  O  O423  1  0.740200  0.131800  0.207100  1.0  -0.8323
  O  O424  1  0.709200  0.193900  0.091400  1.0  -0.7339
  O  O425  1  0.955000  0.331200  0.212700  1.0  -0.8808
  O  O426  1  0.042900  0.409000  0.322800  1.0  -0.8257
  O  O427  1  0.063900  0.335500  0.215600  1.0  -0.8243
  O  O428  1  0.990300  0.290600  0.359300  1.0  -0.8566
  O  O429  1  0.454870  0.490430  0.371330  1.0  -0.8574
  O  O430  1  0.489870  0.579930  0.490130  1.0  -0.8581
  O  O431  1  0.406870  0.465130  0.540430  1.0  -0.8323
  O  O432  1  0.375870  0.527230  0.424730  1.0  -0.738
  O  O433  1  0.621670  0.664530  0.546030  1.0  -0.8807
  O  O434  1  0.709570  0.742330  0.656130  1.0  -0.8257
  O  O435  1  0.730570  0.668830  0.548930  1.0  -0.8239
  O  O436  1  0.656970  0.623930  0.692630  1.0  -0.8562
  O  O437  1  0.121530  0.823770  0.704670  1.0  -0.8573
  O  O438  1  0.156530  0.913270  0.823470  1.0  -0.858
  O  O439  1  0.073530  0.798470  0.873770  1.0  -0.8323
  O  O440  1  0.042530  0.860570  0.758070  1.0  -0.7339
  O  O441  1  0.288330  0.997870  0.879370  1.0  -0.8808
  O  O442  1  0.376230  0.075670  0.989470  1.0  -0.8257
  O  O443  1  0.397230  0.002170  0.882270  1.0  -0.8239
  O  O444  1  0.323630  0.957270  0.025970  1.0  -0.8562
  O  O445  1  0.842900  0.631100  0.038000  1.0  -0.8568
  O  O446  1  0.753400  0.576600  0.156800  1.0  -0.8603
  O  O447  1  0.868200  0.608400  0.207100  1.0  -0.8323
  O  O448  1  0.806100  0.515300  0.091400  1.0  -0.754
  O  O449  1  0.668800  0.623800  0.212700  1.0  -0.8802
  O  O450  1  0.591000  0.633900  0.322800  1.0  -0.8268
  O  O451  1  0.664500  0.728400  0.215600  1.0  -0.8235
  O  O452  1  0.709400  0.699700  0.359300  1.0  -0.8566
  O  O453  1  0.509570  0.964430  0.371330  1.0  -0.8567
  O  O454  1  0.420070  0.909930  0.490130  1.0  -0.8603
  O  O455  1  0.534870  0.941730  0.540430  1.0  -0.8324
  O  O456  1  0.472770  0.848630  0.424730  1.0  -0.7282
  O  O457  1  0.335470  0.957130  0.546030  1.0  -0.8803
  O  O458  1  0.257670  0.967230  0.656130  1.0  -0.8268
  O  O459  1  0.331170  0.061730  0.548930  1.0  -0.8238
  O  O460  1  0.376070  0.033030  0.692630  1.0  -0.8593
  O  O461  1  0.176230  0.297770  0.704670  1.0  -0.8568
  O  O462  1  0.086730  0.243270  0.823470  1.0  -0.8602
  O  O463  1  0.201530  0.275070  0.873770  1.0  -0.8323
  O  O464  1  0.139430  0.181970  0.758070  1.0  -0.754
  O  O465  1  0.002130  0.290470  0.879370  1.0  -0.8802
  O  O466  1  0.924330  0.300570  0.989470  1.0  -0.8268
  O  O467  1  0.997830  0.395070  0.882270  1.0  -0.8235
  O  O468  1  0.042730  0.366370  0.025970  1.0  -0.8566
  O  O469  1  0.631100  0.788200  0.962000  1.0  -0.8624
  O  O470  1  0.576600  0.823200  0.843200  1.0  -0.8539
  O  O471  1  0.608400  0.740200  0.792900  1.0  -0.8324
  O  O472  1  0.515300  0.709200  0.908600  1.0  -0.734
  O  O473  1  0.623800  0.955000  0.787300  1.0  -0.8822
  O  O474  1  0.633900  0.042900  0.677200  1.0  -0.8259
  O  O475  1  0.728400  0.063900  0.784400  1.0  -0.8239
  O  O476  1  0.699700  0.990300  0.640700  1.0  -0.8567
  O  O477  1  0.297770  0.121530  0.295330  1.0  -0.8624
  O  O478  1  0.243270  0.156530  0.176530  1.0  -0.8539
  O  O479  1  0.275070  0.073530  0.126230  1.0  -0.8324
  O  O480  1  0.181970  0.042530  0.241930  1.0  -0.734
  O  O481  1  0.290470  0.288330  0.120630  1.0  -0.8822
  O  O482  1  0.300570  0.376230  0.010530  1.0  -0.8259
  O  O483  1  0.395070  0.397230  0.117730  1.0  -0.8239
  O  O484  1  0.366370  0.323630  0.974030  1.0  -0.8571
  O  O485  1  0.964430  0.454870  0.628670  1.0  -0.8624
  O  O486  1  0.909930  0.489870  0.509870  1.0  -0.854
  O  O487  1  0.941730  0.406870  0.459570  1.0  -0.8326
  O  O488  1  0.848630  0.375870  0.575270  1.0  -0.7245
  O  O489  1  0.957130  0.621670  0.453970  1.0  -0.8822
  O  O490  1  0.967230  0.709570  0.343870  1.0  -0.8259
  O  O491  1  0.061730  0.730570  0.451070  1.0  -0.8239
  O  O492  1  0.033030  0.656970  0.307370  1.0  -0.8554
  O  O493  1  0.211800  0.842900  0.962000  1.0  -0.8617
  O  O494  1  0.176800  0.753400  0.843200  1.0  -0.8541
  O  O495  1  0.259800  0.868200  0.792900  1.0  -0.8313
  O  O496  1  0.290800  0.806100  0.908600  1.0  -0.7352
  O  O497  1  0.045000  0.668800  0.787300  1.0  -0.8827
  O  O498  1  0.957100  0.591000  0.677200  1.0  -0.8264
  O  O499  1  0.936100  0.664500  0.784400  1.0  -0.8219
  O  O500  1  0.009700  0.709400  0.640700  1.0  -0.8571
  O  O501  1  0.878470  0.176230  0.295330  1.0  -0.8617
  O  O502  1  0.843470  0.086730  0.176530  1.0  -0.8541
  O  O503  1  0.926470  0.201530  0.126230  1.0  -0.8313
  O  O504  1  0.957470  0.139430  0.241930  1.0  -0.7352
  O  O505  1  0.711670  0.002130  0.120630  1.0  -0.8827
  O  O506  1  0.623770  0.924330  0.010530  1.0  -0.8264
  O  O507  1  0.602770  0.997830  0.117730  1.0  -0.8215
  O  O508  1  0.676370  0.042730  0.974030  1.0  -0.8568
  O  O509  1  0.545130  0.509570  0.628670  1.0  -0.8617
  O  O510  1  0.510130  0.420070  0.509870  1.0  -0.8542
  O  O511  1  0.593130  0.534870  0.459570  1.0  -0.8314
  O  O512  1  0.624130  0.472770  0.575270  1.0  -0.7381
  O  O513  1  0.378330  0.335470  0.453970  1.0  -0.8826
  O  O514  1  0.290430  0.257670  0.343870  1.0  -0.8264
  O  O515  1  0.269430  0.331170  0.451070  1.0  -0.8215
  O  O516  1  0.343030  0.376070  0.307370  1.0  -0.8568
  O  O517  1  0.157100  0.368900  0.962000  1.0  -0.861
  O  O518  1  0.246600  0.423400  0.843200  1.0  -0.858
  O  O519  1  0.131800  0.391600  0.792900  1.0  -0.8322
  O  O520  1  0.193900  0.484700  0.908600  1.0  -0.7542
  O  O521  1  0.331200  0.376200  0.787300  1.0  -0.8819
  O  O522  1  0.409000  0.366100  0.677200  1.0  -0.8277
  O  O523  1  0.335500  0.271600  0.784400  1.0  -0.8229
  O  O524  1  0.290600  0.300300  0.640700  1.0  -0.8562
  O  O525  1  0.823770  0.702230  0.295330  1.0  -0.861
  O  O526  1  0.913270  0.756730  0.176530  1.0  -0.858
  O  O527  1  0.798470  0.724930  0.126230  1.0  -0.8322
  O  O528  1  0.860570  0.818030  0.241930  1.0  -0.7542
  O  O529  1  0.997870  0.709530  0.120630  1.0  -0.8819
  O  O530  1  0.075670  0.699430  0.010530  1.0  -0.8277
  O  O531  1  0.002170  0.604930  0.117730  1.0  -0.8229
  O  O532  1  0.957270  0.633630  0.974030  1.0  -0.8562
  O  O533  1  0.490430  0.035570  0.628670  1.0  -0.861
  O  O534  1  0.579930  0.090070  0.509870  1.0  -0.8582
  O  O535  1  0.465130  0.058270  0.459570  1.0  -0.832
  O  O536  1  0.527230  0.151370  0.575270  1.0  -0.7279
  O  O537  1  0.664530  0.042870  0.453970  1.0  -0.8819
  O  O538  1  0.742330  0.032770  0.343870  1.0  -0.8277
  O  O539  1  0.668830  0.938270  0.451070  1.0  -0.8233
  O  O540  1  0.623930  0.966970  0.307370  1.0  -0.8589
