# generated using pymatgen
data_CrGa3P4H26C8(N3O8)2
_symmetry_space_group_name_H-M   'P 1'
_cell_length_a   23.71600000
_cell_length_b   23.71600000
_cell_length_c   13.44700000
_cell_angle_alpha   90.00000000
_cell_angle_beta   90.00000000
_cell_angle_gamma   120.00000000
_symmetry_Int_Tables_number   1
_chemical_formula_structural   CrGa3P4H26C8(N3O8)2
_chemical_formula_sum   'Cr9 Ga27 P36 H234 C72 N54 O144'
_cell_volume   6549.96410398
_cell_formula_units_Z   9
loop_
 _symmetry_equiv_pos_site_id
 _symmetry_equiv_pos_as_xyz
  1  'x, y, z'
loop_
 _atom_site_type_symbol
 _atom_site_label
 _atom_site_symmetry_multiplicity
 _atom_site_fract_x
 _atom_site_fract_y
 _atom_site_fract_z
 _atom_site_occupancy
 _atom_site_charge
  Cr  Cr1  1  0.350010  0.242700  0.914760  1.0  0.9991
  Cr  Cr2  1  0.016680  0.576030  0.248090  1.0  1.0046
  Cr  Cr3  1  0.683340  0.909370  0.581430  1.0  0.9991
  Cr  Cr4  1  0.757300  0.107310  0.914760  1.0  0.9991
  Cr  Cr5  1  0.423970  0.440640  0.248090  1.0  0.9991
  Cr  Cr6  1  0.090630  0.773980  0.581430  1.0  0.9991
  Cr  Cr7  1  0.892690  0.649990  0.914760  1.0  0.9971
  Cr  Cr8  1  0.559360  0.983320  0.248090  1.0  0.9971
  Cr  Cr9  1  0.226020  0.316660  0.581430  1.0  0.9971
  Ga  Ga10  1  0.360080  0.092960  0.120550  1.0  1.6405
  Ga  Ga11  1  0.242700  0.892690  0.085240  1.0  1.4495
  Ga  Ga12  1  0.026750  0.426290  0.453880  1.0  1.6415
  Ga  Ga13  1  0.909370  0.226020  0.418570  1.0  1.4495
  Ga  Ga14  1  0.693410  0.759630  0.787220  1.0  1.6419
  Ga  Ga15  1  0.576030  0.559360  0.751910  1.0  1.4495
  Ga  Ga16  1  0.907040  0.267120  0.120550  1.0  1.6386
  Ga  Ga17  1  0.107310  0.350010  0.085240  1.0  1.4485
  Ga  Ga18  1  0.573710  0.600450  0.453880  1.0  1.6404
  Ga  Ga19  1  0.773980  0.683340  0.418570  1.0  1.4485
  Ga  Ga20  1  0.240370  0.933790  0.787220  1.0  1.6389
  Ga  Ga21  1  0.440640  0.016680  0.751910  1.0  1.4485
  Ga  Ga22  1  0.732880  0.639920  0.120550  1.0  1.6413
  Ga  Ga23  1  0.649990  0.757300  0.085240  1.0  1.4502
  Ga  Ga24  1  0.399550  0.973250  0.453880  1.0  1.6418
  Ga  Ga25  1  0.316660  0.090630  0.418570  1.0  1.4502
  Ga  Ga26  1  0.066210  0.306590  0.787220  1.0  1.6399
  Ga  Ga27  1  0.983320  0.423970  0.751910  1.0  1.4501
  Ga  Ga28  1  0.639920  0.907040  0.879450  1.0  1.6393
  Ga  Ga29  1  0.306590  0.240370  0.212780  1.0  1.6407
  Ga  Ga30  1  0.973250  0.573710  0.546120  1.0  1.6402
  Ga  Ga31  1  0.092960  0.732880  0.879450  1.0  1.6397
  Ga  Ga32  1  0.759630  0.066210  0.212780  1.0  1.6401
  Ga  Ga33  1  0.426290  0.399550  0.546120  1.0  1.6415
  Ga  Ga34  1  0.267120  0.360080  0.879450  1.0  1.6419
  Ga  Ga35  1  0.933790  0.693410  0.212780  1.0  1.6405
  Ga  Ga36  1  0.600450  0.026750  0.546120  1.0  1.6424
  P  P37  1  0.418770  0.236050  0.119160  1.0  1.7211
  P  P38  1  0.326720  0.987060  0.277880  1.0  1.7501
  P  P39  1  0.085440  0.569380  0.452490  1.0  1.7211
  P  P40  1  0.993390  0.320390  0.611210  1.0  1.7501
  P  P41  1  0.752100  0.902720  0.785830  1.0  1.7211
  P  P42  1  0.660050  0.653730  0.944550  1.0  1.7501
  P  P43  1  0.763950  0.182720  0.119160  1.0  1.7193
  P  P44  1  0.012940  0.339660  0.277880  1.0  1.75
  P  P45  1  0.430620  0.516050  0.452490  1.0  1.7193
  P  P46  1  0.679610  0.672990  0.611210  1.0  1.75
  P  P47  1  0.097280  0.849390  0.785830  1.0  1.7193
  P  P48  1  0.346270  0.006330  0.944550  1.0  1.75
  P  P49  1  0.817280  0.581230  0.119160  1.0  1.7249
  P  P50  1  0.660340  0.673280  0.277880  1.0  1.7519
  P  P51  1  0.483950  0.914560  0.452490  1.0  1.7249
  P  P52  1  0.327010  0.006610  0.611210  1.0  1.7518
  P  P53  1  0.150610  0.247900  0.785830  1.0  1.7249
  P  P54  1  0.993670  0.339950  0.944550  1.0  1.7519
  P  P55  1  0.581230  0.763950  0.880840  1.0  1.7169
  P  P56  1  0.673280  0.012940  0.722120  1.0  1.7518
  P  P57  1  0.247900  0.097280  0.214170  1.0  1.7169
  P  P58  1  0.339950  0.346270  0.055450  1.0  1.7518
  P  P59  1  0.914560  0.430620  0.547510  1.0  1.7169
  P  P60  1  0.006610  0.679610  0.388790  1.0  1.7518
  P  P61  1  0.236050  0.817280  0.880840  1.0  1.7238
  P  P62  1  0.987060  0.660340  0.722120  1.0  1.7507
  P  P63  1  0.902720  0.150610  0.214170  1.0  1.7238
  P  P64  1  0.653730  0.993670  0.055450  1.0  1.7507
  P  P65  1  0.569380  0.483950  0.547510  1.0  1.7238
  P  P66  1  0.320390  0.327010  0.388790  1.0  1.7507
  P  P67  1  0.182720  0.418770  0.880840  1.0  1.7269
  P  P68  1  0.339660  0.326720  0.722120  1.0  1.7523
  P  P69  1  0.849390  0.752100  0.214170  1.0  1.7269
  P  P70  1  0.006330  0.660050  0.055450  1.0  1.7523
  P  P71  1  0.516050  0.085440  0.547510  1.0  1.7269
  P  P72  1  0.672990  0.993390  0.388790  1.0  1.7522
  H  H73  1  0.477000  0.295700  0.925200  1.0  0.1761
  H  H74  1  0.457100  0.303200  0.821100  1.0  0.2331
  H  H75  1  0.330300  0.123600  0.896800  1.0  0.1494
  H  H76  1  0.228700  0.200800  0.911800  1.0  0.2887
  H  H77  1  0.247000  0.193600  0.017700  1.0  0.1649
  H  H78  1  0.449000  0.191500  0.889200  1.0  0.1021
  H  H79  1  0.487200  0.236400  0.799500  1.0  0.2039
  H  H80  1  0.381900  0.130700  0.751900  1.0  0.1008
  H  H81  1  0.383600  0.196900  0.725200  1.0  0.1092
  H  H82  1  0.253600  0.078300  0.806600  1.0  0.1233
  H  H83  1  0.261400  0.147600  0.759600  1.0  0.1119
  H  H84  1  0.180200  0.105500  0.878000  1.0  0.1289
  H  H85  1  0.229800  0.101200  0.954000  1.0  0.1963
  H  H86  1  0.143670  0.629030  0.258530  1.0  0.1759
  H  H87  1  0.123770  0.636530  0.154430  1.0  0.2331
  H  H88  1  0.996970  0.456930  0.230130  1.0  0.1494
  H  H89  1  0.895370  0.534130  0.245130  1.0  0.2887
  H  H90  1  0.913670  0.526930  0.351030  1.0  0.1648
  H  H91  1  0.115670  0.524830  0.222530  1.0  0.1021
  H  H92  1  0.153870  0.569730  0.132830  1.0  0.2039
  H  H93  1  0.048570  0.464030  0.085230  1.0  0.1013
  H  H94  1  0.050270  0.530230  0.058530  1.0  0.1092
  H  H95  1  0.920270  0.411630  0.139930  1.0  0.1232
  H  H96  1  0.928070  0.480930  0.092930  1.0  0.1119
  H  H97  1  0.846870  0.438830  0.211330  1.0  0.1289
  H  H98  1  0.896470  0.434530  0.287330  1.0  0.1963
  H  H99  1  0.810330  0.962370  0.591870  1.0  0.1761
  H  H100  1  0.790430  0.969870  0.487770  1.0  0.2331
  H  H101  1  0.663630  0.790270  0.563470  1.0  0.1494
  H  H102  1  0.562030  0.867470  0.578470  1.0  0.2885
  H  H103  1  0.580330  0.860270  0.684370  1.0  0.1649
  H  H104  1  0.782330  0.858170  0.555870  1.0  0.1021
  H  H105  1  0.820530  0.903070  0.466170  1.0  0.204
  H  H106  1  0.715230  0.797370  0.418570  1.0  0.1008
  H  H107  1  0.716930  0.863570  0.391870  1.0  0.1092
  H  H108  1  0.586930  0.744970  0.473270  1.0  0.1233
  H  H109  1  0.594730  0.814270  0.426270  1.0  0.1119
  H  H110  1  0.513530  0.772170  0.544670  1.0  0.1289
  H  H111  1  0.563130  0.767870  0.620670  1.0  0.1963
  H  H112  1  0.704300  0.181300  0.925200  1.0  0.176
  H  H113  1  0.696800  0.153900  0.821100  1.0  0.2319
  H  H114  1  0.876400  0.206700  0.896800  1.0  0.1494
  H  H115  1  0.799200  0.027900  0.911800  1.0  0.2882
  H  H116  1  0.806400  0.053400  0.017700  1.0  0.1645
  H  H117  1  0.808500  0.257500  0.889200  1.0  0.1004
  H  H118  1  0.763600  0.250800  0.799500  1.0  0.1991
  H  H119  1  0.869300  0.251200  0.751900  1.0  0.1015
  H  H120  1  0.803100  0.186700  0.725200  1.0  0.1102
  H  H121  1  0.921700  0.175300  0.806600  1.0  0.121
  H  H122  1  0.852400  0.113800  0.759600  1.0  0.1124
  H  H123  1  0.894500  0.074700  0.878000  1.0  0.1296
  H  H124  1  0.898800  0.128600  0.954000  1.0  0.1969
  H  H125  1  0.370970  0.514630  0.258530  1.0  0.1761
  H  H126  1  0.363470  0.487230  0.154430  1.0  0.232
  H  H127  1  0.543070  0.540030  0.230130  1.0  0.1494
  H  H128  1  0.465870  0.361230  0.245130  1.0  0.2881
  H  H129  1  0.473070  0.386730  0.351030  1.0  0.1644
  H  H130  1  0.475170  0.590830  0.222530  1.0  0.1004
  H  H131  1  0.430270  0.584130  0.132830  1.0  0.1991
  H  H132  1  0.535970  0.584530  0.085230  1.0  0.101
  H  H133  1  0.469770  0.520030  0.058530  1.0  0.1102
  H  H134  1  0.588370  0.508630  0.139930  1.0  0.1213
  H  H135  1  0.519070  0.447130  0.092930  1.0  0.1124
  H  H136  1  0.561170  0.408030  0.211330  1.0  0.1296
  H  H137  1  0.565470  0.461930  0.287330  1.0  0.1969
  H  H138  1  0.037630  0.847970  0.591870  1.0  0.1762
  H  H139  1  0.030130  0.820570  0.487770  1.0  0.2321
  H  H140  1  0.209730  0.873370  0.563470  1.0  0.1494
  H  H141  1  0.132530  0.694570  0.578470  1.0  0.2883
  H  H142  1  0.139730  0.720070  0.684370  1.0  0.1645
  H  H143  1  0.141830  0.924170  0.555870  1.0  0.1004
  H  H144  1  0.096930  0.917470  0.466170  1.0  0.2033
  H  H145  1  0.202630  0.917870  0.418570  1.0  0.1015
  H  H146  1  0.136430  0.853370  0.391870  1.0  0.1102
  H  H147  1  0.255030  0.841970  0.473270  1.0  0.121
  H  H148  1  0.185730  0.780470  0.426270  1.0  0.1124
  H  H149  1  0.227830  0.741370  0.544670  1.0  0.1282
  H  H150  1  0.232130  0.795270  0.620670  1.0  0.1969
  H  H151  1  0.818700  0.523000  0.925200  1.0  0.1766
  H  H152  1  0.846100  0.542900  0.821100  1.0  0.2308
  H  H153  1  0.793300  0.669700  0.896800  1.0  0.1534
  H  H154  1  0.972100  0.771300  0.911800  1.0  0.2873
  H  H155  1  0.946600  0.753000  0.017700  1.0  0.1648
  H  H156  1  0.742500  0.551000  0.889200  1.0  0.1017
  H  H157  1  0.749200  0.512800  0.799500  1.0  0.1982
  H  H158  1  0.748800  0.618100  0.751900  1.0  0.0979
  H  H159  1  0.813300  0.616400  0.725200  1.0  0.1086
  H  H160  1  0.824700  0.746400  0.806600  1.0  0.1242
  H  H161  1  0.886200  0.738600  0.759600  1.0  0.1116
  H  H162  1  0.925300  0.819800  0.878000  1.0  0.1287
  H  H163  1  0.871400  0.770200  0.954000  1.0  0.1958
  H  H164  1  0.485370  0.856330  0.258530  1.0  0.1765
  H  H165  1  0.512770  0.876230  0.154430  1.0  0.2308
  H  H166  1  0.459970  0.003030  0.230130  1.0  0.1534
  H  H167  1  0.638770  0.104630  0.245130  1.0  0.2873
  H  H168  1  0.613270  0.086330  0.351030  1.0  0.1648
  H  H169  1  0.409170  0.884330  0.222530  1.0  0.1017
  H  H170  1  0.415870  0.846130  0.132830  1.0  0.1982
  H  H171  1  0.415470  0.951430  0.085230  1.0  0.0973
  H  H172  1  0.479970  0.949730  0.058530  1.0  0.1086
  H  H173  1  0.491370  0.079730  0.139930  1.0  0.1242
  H  H174  1  0.552870  0.071930  0.092930  1.0  0.1116
  H  H175  1  0.591970  0.153130  0.211330  1.0  0.1287
  H  H176  1  0.538070  0.103530  0.287330  1.0  0.1958
  H  H177  1  0.152030  0.189670  0.591870  1.0  0.1768
  H  H178  1  0.179430  0.209570  0.487770  1.0  0.2307
  H  H179  1  0.126630  0.336370  0.563470  1.0  0.1534
  H  H180  1  0.305430  0.437970  0.578470  1.0  0.2873
  H  H181  1  0.279930  0.419670  0.684370  1.0  0.1648
  H  H182  1  0.075830  0.217670  0.555870  1.0  0.1017
  H  H183  1  0.082530  0.179470  0.466170  1.0  0.1946
  H  H184  1  0.082130  0.284770  0.418570  1.0  0.0979
  H  H185  1  0.146630  0.283070  0.391870  1.0  0.1086
  H  H186  1  0.158030  0.413070  0.473270  1.0  0.1245
  H  H187  1  0.219530  0.405270  0.426270  1.0  0.1116
  H  H188  1  0.258630  0.486470  0.544670  1.0  0.1294
  H  H189  1  0.204730  0.436870  0.620670  1.0  0.1958
  H  H190  1  0.523000  0.704300  0.074800  1.0  0.1749
  H  H191  1  0.542900  0.696800  0.178900  1.0  0.2194
  H  H192  1  0.669700  0.876400  0.103200  1.0  0.1502
  H  H193  1  0.771300  0.799200  0.088200  1.0  0.281
  H  H194  1  0.753000  0.806400  0.982300  1.0  0.1661
  H  H195  1  0.551000  0.808500  0.110800  1.0  0.1009
  H  H196  1  0.512800  0.763600  0.200500  1.0  0.2016
  H  H197  1  0.618100  0.869300  0.248100  1.0  0.1
  H  H198  1  0.616400  0.803100  0.274800  1.0  0.1093
  H  H199  1  0.746400  0.921700  0.193400  1.0  0.1238
  H  H200  1  0.738600  0.852400  0.240400  1.0  0.1125
  H  H201  1  0.819800  0.894500  0.122000  1.0  0.1314
  H  H202  1  0.770200  0.898800  0.046000  1.0  0.1996
  H  H203  1  0.189670  0.037630  0.408130  1.0  0.1749
  H  H204  1  0.209570  0.030130  0.512230  1.0  0.2195
  H  H205  1  0.336370  0.209730  0.436530  1.0  0.1502
  H  H206  1  0.437970  0.132530  0.421530  1.0  0.2808
  H  H207  1  0.419670  0.139730  0.315630  1.0  0.1661
  H  H208  1  0.217670  0.141830  0.444130  1.0  0.1009
  H  H209  1  0.179470  0.096930  0.533830  1.0  0.1991
  H  H210  1  0.284770  0.202630  0.581430  1.0  0.1
  H  H211  1  0.283070  0.136430  0.608130  1.0  0.1093
  H  H212  1  0.413070  0.255030  0.526730  1.0  0.1238
  H  H213  1  0.405270  0.185730  0.573730  1.0  0.1125
  H  H214  1  0.486470  0.227830  0.455330  1.0  0.1312
  H  H215  1  0.436870  0.232130  0.379330  1.0  0.1996
  H  H216  1  0.856330  0.370970  0.741470  1.0  0.1747
  H  H217  1  0.876230  0.363470  0.845570  1.0  0.2194
  H  H218  1  0.003030  0.543070  0.769870  1.0  0.1502
  H  H219  1  0.104630  0.465870  0.754870  1.0  0.281
  H  H220  1  0.086330  0.473070  0.648970  1.0  0.166
  H  H221  1  0.884330  0.475170  0.777470  1.0  0.1009
  H  H222  1  0.846130  0.430270  0.867170  1.0  0.2016
  H  H223  1  0.951430  0.535970  0.914770  1.0  0.1005
  H  H224  1  0.949730  0.469770  0.941470  1.0  0.1093
  H  H225  1  0.079730  0.588370  0.860070  1.0  0.1237
  H  H226  1  0.071930  0.519070  0.907070  1.0  0.1124
  H  H227  1  0.153130  0.561170  0.788670  1.0  0.1314
  H  H228  1  0.103530  0.565470  0.712670  1.0  0.1996
  H  H229  1  0.295700  0.818700  0.074800  1.0  0.1746
  H  H230  1  0.303200  0.846100  0.178900  1.0  0.2198
  H  H231  1  0.123600  0.793300  0.103200  1.0  0.1516
  H  H232  1  0.200800  0.972100  0.088200  1.0  0.2795
  H  H233  1  0.193600  0.946600  0.982300  1.0  0.1679
  H  H234  1  0.191500  0.742500  0.110800  1.0  0.1006
  H  H235  1  0.236400  0.749200  0.200500  1.0  0.1975
  H  H236  1  0.130700  0.748800  0.248100  1.0  0.1017
  H  H237  1  0.196900  0.813300  0.274800  1.0  0.1096
  H  H238  1  0.078300  0.824700  0.193400  1.0  0.1196
  H  H239  1  0.147600  0.886200  0.240400  1.0  0.1123
  H  H240  1  0.105500  0.925300  0.122000  1.0  0.1312
  H  H241  1  0.101200  0.871400  0.046000  1.0  0.1976
  H  H242  1  0.962370  0.152030  0.408130  1.0  0.1747
  H  H243  1  0.969870  0.179430  0.512230  1.0  0.2199
  H  H244  1  0.790270  0.126630  0.436530  1.0  0.1516
  H  H245  1  0.867470  0.305430  0.421530  1.0  0.2797
  H  H246  1  0.860270  0.279930  0.315630  1.0  0.1679
  H  H247  1  0.858170  0.075830  0.444130  1.0  0.1006
  H  H248  1  0.903070  0.082530  0.533830  1.0  0.2007
  H  H249  1  0.797370  0.082130  0.581430  1.0  0.1017
  H  H250  1  0.863570  0.146630  0.608130  1.0  0.1096
  H  H251  1  0.744970  0.158030  0.526730  1.0  0.1196
  H  H252  1  0.814270  0.219530  0.573730  1.0  0.1123
  H  H253  1  0.772170  0.258630  0.455330  1.0  0.1291
  H  H254  1  0.767870  0.204730  0.379330  1.0  0.1976
  H  H255  1  0.629030  0.485370  0.741470  1.0  0.1747
  H  H256  1  0.636530  0.512770  0.845570  1.0  0.2199
  H  H257  1  0.456930  0.459970  0.769870  1.0  0.1516
  H  H258  1  0.534130  0.638770  0.754870  1.0  0.2795
  H  H259  1  0.526930  0.613270  0.648970  1.0  0.1679
  H  H260  1  0.524830  0.409170  0.777470  1.0  0.1006
  H  H261  1  0.569730  0.415870  0.867170  1.0  0.1975
  H  H262  1  0.464030  0.415470  0.914770  1.0  0.1012
  H  H263  1  0.530230  0.479970  0.941470  1.0  0.1096
  H  H264  1  0.411630  0.491370  0.860070  1.0  0.1199
  H  H265  1  0.480930  0.552870  0.907070  1.0  0.1123
  H  H266  1  0.438830  0.591970  0.788670  1.0  0.1312
  H  H267  1  0.434530  0.538070  0.712670  1.0  0.1976
  H  H268  1  0.181300  0.477000  0.074800  1.0  0.1792
  H  H269  1  0.153900  0.457100  0.178900  1.0  0.2176
  H  H270  1  0.206700  0.330300  0.103200  1.0  0.1525
  H  H271  1  0.027900  0.228700  0.088200  1.0  0.2785
  H  H272  1  0.053400  0.247000  0.982300  1.0  0.1669
  H  H273  1  0.257500  0.449000  0.110800  1.0  0.0988
  H  H274  1  0.250800  0.487200  0.200500  1.0  0.201
  H  H275  1  0.251200  0.381900  0.248100  1.0  0.1043
  H  H276  1  0.186700  0.383600  0.274800  1.0  0.1107
  H  H277  1  0.175300  0.253600  0.193400  1.0  0.1218
  H  H278  1  0.113800  0.261400  0.240400  1.0  0.1122
  H  H279  1  0.074700  0.180200  0.122000  1.0  0.1255
  H  H280  1  0.128600  0.229800  0.046000  1.0  0.198
  H  H281  1  0.847970  0.810330  0.408130  1.0  0.1792
  H  H282  1  0.820570  0.790430  0.512230  1.0  0.2175
  H  H283  1  0.873370  0.663630  0.436530  1.0  0.1526
  H  H284  1  0.694570  0.562030  0.421530  1.0  0.2785
  H  H285  1  0.720070  0.580330  0.315630  1.0  0.1669
  H  H286  1  0.924170  0.782330  0.444130  1.0  0.0988
  H  H287  1  0.917470  0.820530  0.533830  1.0  0.1964
  H  H288  1  0.917870  0.715230  0.581430  1.0  0.1043
  H  H289  1  0.853370  0.716930  0.608130  1.0  0.1107
  H  H290  1  0.841970  0.586930  0.526730  1.0  0.1221
  H  H291  1  0.780470  0.594730  0.573730  1.0  0.1122
  H  H292  1  0.741370  0.513530  0.455330  1.0  0.1268
  H  H293  1  0.795270  0.563130  0.379330  1.0  0.198
  H  H294  1  0.514630  0.143670  0.741470  1.0  0.1791
  H  H295  1  0.487230  0.123770  0.845570  1.0  0.2176
  H  H296  1  0.540030  0.996970  0.769870  1.0  0.1525
  H  H297  1  0.361230  0.895370  0.754870  1.0  0.2786
  H  H298  1  0.386730  0.913670  0.648970  1.0  0.1669
  H  H299  1  0.590830  0.115670  0.777470  1.0  0.0988
  H  H300  1  0.584130  0.153870  0.867170  1.0  0.201
  H  H301  1  0.584530  0.048570  0.914770  1.0  0.1038
  H  H302  1  0.520030  0.050270  0.941470  1.0  0.1107
  H  H303  1  0.508630  0.920270  0.860070  1.0  0.1218
  H  H304  1  0.447130  0.928070  0.907070  1.0  0.1122
  H  H305  1  0.408030  0.846870  0.788670  1.0  0.1255
  H  H306  1  0.461930  0.896470  0.712670  1.0  0.198
  C  C307  1  0.447100  0.218000  0.829900  1.0  0.033
  C  C308  1  0.384700  0.171900  0.780600  1.0  0.0243
  C  C309  1  0.265000  0.122400  0.816600  1.0  -0.0096
  C  C310  1  0.224100  0.121300  0.902600  1.0  -0.0344
  C  C311  1  0.113770  0.551330  0.163230  1.0  0.033
  C  C312  1  0.051370  0.505230  0.113930  1.0  0.0243
  C  C313  1  0.931670  0.455730  0.149930  1.0  -0.0096
  C  C314  1  0.890770  0.454630  0.235930  1.0  -0.0344
  C  C315  1  0.780430  0.884670  0.496570  1.0  0.0331
  C  C316  1  0.718030  0.838570  0.447270  1.0  0.0243
  C  C317  1  0.598330  0.789070  0.483270  1.0  -0.0095
  C  C318  1  0.557430  0.787970  0.569270  1.0  -0.0344
  C  C319  1  0.782000  0.229100  0.829900  1.0  0.0268
  C  C320  1  0.828100  0.212800  0.780600  1.0  0.0233
  C  C321  1  0.877600  0.142600  0.816600  1.0  -0.0117
  C  C322  1  0.878700  0.102800  0.902600  1.0  -0.0384
  C  C323  1  0.448670  0.562430  0.163230  1.0  0.0268
  C  C324  1  0.494770  0.546130  0.113930  1.0  0.0233
  C  C325  1  0.544270  0.475930  0.149930  1.0  -0.0117
  C  C326  1  0.545370  0.436130  0.235930  1.0  -0.0384
  C  C327  1  0.115330  0.895770  0.496570  1.0  0.0268
  C  C328  1  0.161430  0.879470  0.447270  1.0  0.0233
  C  C329  1  0.210930  0.809270  0.483270  1.0  -0.0117
  C  C330  1  0.212030  0.769470  0.569270  1.0  -0.0384
  C  C331  1  0.770900  0.552900  0.829900  1.0  0.0345
  C  C332  1  0.787200  0.615300  0.780600  1.0  0.0261
  C  C333  1  0.857400  0.735000  0.816600  1.0  -0.0096
  C  C334  1  0.897200  0.775900  0.902600  1.0  -0.0316
  C  C335  1  0.437570  0.886230  0.163230  1.0  0.0345
  C  C336  1  0.453870  0.948630  0.113930  1.0  0.0261
  C  C337  1  0.524070  0.068330  0.149930  1.0  -0.0096
  C  C338  1  0.563870  0.109230  0.235930  1.0  -0.0316
  C  C339  1  0.104230  0.219570  0.496570  1.0  0.0345
  C  C340  1  0.120530  0.281970  0.447270  1.0  0.0261
  C  C341  1  0.190730  0.401670  0.483270  1.0  -0.0096
  C  C342  1  0.230530  0.442570  0.569270  1.0  -0.0316
  C  C343  1  0.552900  0.782000  0.170100  1.0  0.0298
  C  C344  1  0.615300  0.828100  0.219400  1.0  0.0263
  C  C345  1  0.735000  0.877600  0.183400  1.0  -0.0107
  C  C346  1  0.775900  0.878700  0.097400  1.0  -0.0373
  C  C347  1  0.219570  0.115330  0.503430  1.0  0.0299
  C  C348  1  0.281970  0.161430  0.552730  1.0  0.0263
  C  C349  1  0.401670  0.210930  0.516730  1.0  -0.0107
  C  C350  1  0.442570  0.212030  0.430730  1.0  -0.0373
  C  C351  1  0.886230  0.448670  0.836770  1.0  0.0298
  C  C352  1  0.948630  0.494770  0.886070  1.0  0.0263
  C  C353  1  0.068330  0.544270  0.850070  1.0  -0.0107
  C  C354  1  0.109230  0.545370  0.764070  1.0  -0.0373
  C  C355  1  0.218000  0.770900  0.170100  1.0  0.0288
  C  C356  1  0.171900  0.787200  0.219400  1.0  0.024
  C  C357  1  0.122400  0.857400  0.183400  1.0  -0.0121
  C  C358  1  0.121300  0.897200  0.097400  1.0  -0.0355
  C  C359  1  0.884670  0.104230  0.503430  1.0  0.0288
  C  C360  1  0.838570  0.120530  0.552730  1.0  0.024
  C  C361  1  0.789070  0.190730  0.516730  1.0  -0.0121
  C  C362  1  0.787970  0.230530  0.430730  1.0  -0.0355
  C  C363  1  0.551330  0.437570  0.836770  1.0  0.0288
  C  C364  1  0.505230  0.453870  0.886070  1.0  0.024
  C  C365  1  0.455730  0.524070  0.850070  1.0  -0.0121
  C  C366  1  0.454630  0.563870  0.764070  1.0  -0.0355
  C  C367  1  0.229100  0.447100  0.170100  1.0  0.0329
  C  C368  1  0.212800  0.384700  0.219400  1.0  0.0255
  C  C369  1  0.142600  0.265000  0.183400  1.0  -0.0095
  C  C370  1  0.102800  0.224100  0.097400  1.0  -0.0309
  C  C371  1  0.895770  0.780430  0.503430  1.0  0.033
  C  C372  1  0.879470  0.718030  0.552730  1.0  0.0255
  C  C373  1  0.809270  0.598330  0.516730  1.0  -0.0095
  C  C374  1  0.769470  0.557430  0.430730  1.0  -0.0309
  C  C375  1  0.562430  0.113770  0.836770  1.0  0.0329
  C  C376  1  0.546130  0.051370  0.886070  1.0  0.0255
  C  C377  1  0.475930  0.931670  0.850070  1.0  -0.0095
  C  C378  1  0.436130  0.890770  0.764070  1.0  -0.0309
  N  N379  1  0.444400  0.275300  0.869200  1.0  -0.5807
  N  N380  1  0.332500  0.157100  0.850900  1.0  -0.3096
  N  N381  1  0.251300  0.188800  0.940500  1.0  -0.5534
  N  N382  1  0.111070  0.608630  0.202530  1.0  -0.5806
  N  N383  1  0.999170  0.490430  0.184230  1.0  -0.3096
  N  N384  1  0.917970  0.522130  0.273830  1.0  -0.5534
  N  N385  1  0.777730  0.941970  0.535870  1.0  -0.5806
  N  N386  1  0.665830  0.823770  0.517570  1.0  -0.3096
  N  N387  1  0.584630  0.855470  0.607170  1.0  -0.5534
  N  N388  1  0.724700  0.169100  0.869200  1.0  -0.5814
  N  N389  1  0.842900  0.175400  0.850900  1.0  -0.3108
  N  N390  1  0.811200  0.062500  0.940500  1.0  -0.5522
  N  N391  1  0.391370  0.502430  0.202530  1.0  -0.5815
  N  N392  1  0.509570  0.508730  0.184230  1.0  -0.3108
  N  N393  1  0.477870  0.395830  0.273830  1.0  -0.5523
  N  N394  1  0.058030  0.835770  0.535870  1.0  -0.5814
  N  N395  1  0.176230  0.842070  0.517570  1.0  -0.3108
  N  N396  1  0.144530  0.729170  0.607170  1.0  -0.5522
  N  N397  1  0.830900  0.555600  0.869200  1.0  -0.5824
  N  N398  1  0.824600  0.667500  0.850900  1.0  -0.3091
  N  N399  1  0.937500  0.748700  0.940500  1.0  -0.5545
  N  N400  1  0.497570  0.888930  0.202530  1.0  -0.5825
  N  N401  1  0.491270  0.000830  0.184230  1.0  -0.3091
  N  N402  1  0.604170  0.082030  0.273830  1.0  -0.5545
  N  N403  1  0.164230  0.222270  0.535870  1.0  -0.5826
  N  N404  1  0.157930  0.334170  0.517570  1.0  -0.3091
  N  N405  1  0.270830  0.415370  0.607170  1.0  -0.5544
  N  N406  1  0.555600  0.724700  0.130800  1.0  -0.5816
  N  N407  1  0.667500  0.842900  0.149100  1.0  -0.3159
  N  N408  1  0.748700  0.811200  0.059500  1.0  -0.5509
  N  N409  1  0.222270  0.058030  0.464130  1.0  -0.5815
  N  N410  1  0.334170  0.176230  0.482430  1.0  -0.3159
  N  N411  1  0.415370  0.144530  0.392830  1.0  -0.5509
  N  N412  1  0.888930  0.391370  0.797470  1.0  -0.5814
  N  N413  1  0.000830  0.509570  0.815770  1.0  -0.3159
  N  N414  1  0.082030  0.477870  0.726170  1.0  -0.5509
  N  N415  1  0.275300  0.830900  0.130800  1.0  -0.5789
  N  N416  1  0.157100  0.824600  0.149100  1.0  -0.3171
  N  N417  1  0.188800  0.937500  0.059500  1.0  -0.5545
  N  N418  1  0.941970  0.164230  0.464130  1.0  -0.5789
  N  N419  1  0.823770  0.157930  0.482430  1.0  -0.3171
  N  N420  1  0.855470  0.270830  0.392830  1.0  -0.5544
  N  N421  1  0.608630  0.497570  0.797470  1.0  -0.5789
  N  N422  1  0.490430  0.491270  0.815770  1.0  -0.3171
  N  N423  1  0.522130  0.604170  0.726170  1.0  -0.5546
  N  N424  1  0.169100  0.444400  0.130800  1.0  -0.5796
  N  N425  1  0.175400  0.332500  0.149100  1.0  -0.3162
  N  N426  1  0.062500  0.251300  0.059500  1.0  -0.5546
  N  N427  1  0.835770  0.777730  0.464130  1.0  -0.5798
  N  N428  1  0.842070  0.665830  0.482430  1.0  -0.3162
  N  N429  1  0.729170  0.584630  0.392830  1.0  -0.5547
  N  N430  1  0.502430  0.111070  0.797470  1.0  -0.5797
  N  N431  1  0.508730  0.999170  0.815770  1.0  -0.3162
  N  N432  1  0.395830  0.917970  0.726170  1.0  -0.5546
  O  O433  1  0.366990  0.210280  0.037100  1.0  -0.9216
  O  O434  1  0.421780  0.175160  0.156400  1.0  -0.8594
  O  O435  1  0.391100  0.259070  0.206100  1.0  -0.8995
  O  O436  1  0.484010  0.289000  0.090200  1.0  -0.7494
  O  O437  1  0.374970  0.044500  0.212200  1.0  -0.8873
  O  O438  1  0.367260  0.959010  0.326100  1.0  -0.8811
  O  O439  1  0.271660  0.935100  0.218400  1.0  -0.8909
  O  O440  1  0.300310  0.010930  0.360900  1.0  -0.8754
  O  O441  1  0.033660  0.543610  0.370430  1.0  -0.9216
  O  O442  1  0.088450  0.508490  0.489730  1.0  -0.8594
  O  O443  1  0.057770  0.592400  0.539430  1.0  -0.8995
  O  O444  1  0.150680  0.622330  0.423530  1.0  -0.7496
  O  O445  1  0.041640  0.377830  0.545530  1.0  -0.8874
  O  O446  1  0.033930  0.292340  0.659430  1.0  -0.8811
  O  O447  1  0.938330  0.268430  0.551730  1.0  -0.8908
  O  O448  1  0.966980  0.344260  0.694230  1.0  -0.8754
  O  O449  1  0.700320  0.876950  0.703770  1.0  -0.9216
  O  O450  1  0.755110  0.841830  0.823070  1.0  -0.8593
  O  O451  1  0.724430  0.925740  0.872770  1.0  -0.8992
  O  O452  1  0.817340  0.955670  0.756870  1.0  -0.7593
  O  O453  1  0.708300  0.711170  0.878870  1.0  -0.8874
  O  O454  1  0.700590  0.625680  0.992770  1.0  -0.8811
  O  O455  1  0.604990  0.601770  0.885070  1.0  -0.8909
  O  O456  1  0.633640  0.677600  0.027570  1.0  -0.8757
  O  O457  1  0.789720  0.156710  0.037100  1.0  -0.9205
  O  O458  1  0.824840  0.246620  0.156400  1.0  -0.8608
  O  O459  1  0.740930  0.132030  0.206100  1.0  -0.8991
  O  O460  1  0.711000  0.195010  0.090200  1.0  -0.7424
  O  O461  1  0.955500  0.330470  0.212200  1.0  -0.8888
  O  O462  1  0.040990  0.408250  0.326100  1.0  -0.881
  O  O463  1  0.064900  0.336560  0.218400  1.0  -0.8885
  O  O464  1  0.989070  0.289380  0.360900  1.0  -0.8753
  O  O465  1  0.456390  0.490040  0.370430  1.0  -0.9205
  O  O466  1  0.491510  0.579950  0.489730  1.0  -0.8608
  O  O467  1  0.407600  0.465360  0.539430  1.0  -0.8991
  O  O468  1  0.377670  0.528340  0.423530  1.0  -0.7646
  O  O469  1  0.622170  0.663800  0.545530  1.0  -0.8887
  O  O470  1  0.707660  0.741580  0.659430  1.0  -0.8801
  O  O471  1  0.731570  0.669890  0.551730  1.0  -0.8885
  O  O472  1  0.655740  0.622710  0.694230  1.0  -0.875
  O  O473  1  0.123050  0.823380  0.703770  1.0  -0.9205
  O  O474  1  0.158170  0.913290  0.823070  1.0  -0.8608
  O  O475  1  0.074260  0.798700  0.872770  1.0  -0.8991
  O  O476  1  0.044330  0.861680  0.756870  1.0  -0.7469
  O  O477  1  0.288830  0.997140  0.878870  1.0  -0.8889
  O  O478  1  0.374320  0.074920  0.992770  1.0  -0.881
  O  O479  1  0.398230  0.003230  0.885070  1.0  -0.8885
  O  O480  1  0.322400  0.956050  0.027570  1.0  -0.875
  O  O481  1  0.843290  0.633010  0.037100  1.0  -0.9204
  O  O482  1  0.753380  0.578220  0.156400  1.0  -0.8616
  O  O483  1  0.867970  0.608900  0.206100  1.0  -0.8997
  O  O484  1  0.804990  0.515990  0.090200  1.0  -0.7676
  O  O485  1  0.669530  0.625030  0.212200  1.0  -0.8871
  O  O486  1  0.591750  0.632740  0.326100  1.0  -0.8815
  O  O487  1  0.663440  0.728340  0.218400  1.0  -0.8881
  O  O488  1  0.710620  0.699690  0.360900  1.0  -0.8745
  O  O489  1  0.509960  0.966340  0.370430  1.0  -0.9204
  O  O490  1  0.420050  0.911550  0.489730  1.0  -0.8615
  O  O491  1  0.534640  0.942230  0.539430  1.0  -0.8997
  O  O492  1  0.471660  0.849320  0.423530  1.0  -0.7572
  O  O493  1  0.336200  0.958360  0.545530  1.0  -0.8871
  O  O494  1  0.258420  0.966070  0.659430  1.0  -0.8815
  O  O495  1  0.330110  0.061670  0.551730  1.0  -0.8881
  O  O496  1  0.377290  0.033020  0.694230  1.0  -0.8745
  O  O497  1  0.176620  0.299680  0.703770  1.0  -0.9204
  O  O498  1  0.086710  0.244890  0.823070  1.0  -0.8615
  O  O499  1  0.201300  0.275570  0.872770  1.0  -0.8996
  O  O500  1  0.138320  0.182660  0.756870  1.0  -0.7907
  O  O501  1  0.002860  0.291700  0.878870  1.0  -0.8872
  O  O502  1  0.925080  0.299410  0.992770  1.0  -0.8815
  O  O503  1  0.996770  0.395010  0.885070  1.0  -0.8881
  O  O504  1  0.043950  0.366360  0.027570  1.0  -0.8747
  O  O505  1  0.633010  0.789720  0.962900  1.0  -0.9207
  O  O506  1  0.578220  0.824840  0.843600  1.0  -0.8594
  O  O507  1  0.608900  0.740930  0.793900  1.0  -0.8996
  O  O508  1  0.515990  0.711000  0.909800  1.0  -0.7524
  O  O509  1  0.625030  0.955500  0.787800  1.0  -0.8891
  O  O510  1  0.632740  0.040990  0.673900  1.0  -0.8831
  O  O511  1  0.728340  0.064900  0.781600  1.0  -0.8913
  O  O512  1  0.699690  0.989070  0.639100  1.0  -0.8791
  O  O513  1  0.299680  0.123050  0.296230  1.0  -0.9207
  O  O514  1  0.244890  0.158170  0.176930  1.0  -0.8594
  O  O515  1  0.275570  0.074260  0.127230  1.0  -0.8993
  O  O516  1  0.182660  0.044330  0.243130  1.0  -0.7638
  O  O517  1  0.291700  0.288830  0.121130  1.0  -0.8891
  O  O518  1  0.299410  0.374320  0.007230  1.0  -0.8831
  O  O519  1  0.395010  0.398230  0.114930  1.0  -0.8914
  O  O520  1  0.366360  0.322400  0.972430  1.0  -0.8794
  O  O521  1  0.966340  0.456390  0.629570  1.0  -0.9207
  O  O522  1  0.911550  0.491510  0.510270  1.0  -0.8594
  O  O523  1  0.942230  0.407600  0.460570  1.0  -0.8997
  O  O524  1  0.849320  0.377670  0.576470  1.0  -0.7521
  O  O525  1  0.958360  0.622170  0.454470  1.0  -0.8893
  O  O526  1  0.966070  0.707660  0.340570  1.0  -0.8831
  O  O527  1  0.061670  0.731570  0.448270  1.0  -0.8913
  O  O528  1  0.033020  0.655740  0.305770  1.0  -0.8791
  O  O529  1  0.210280  0.843290  0.962900  1.0  -0.9193
  O  O530  1  0.175160  0.753380  0.843600  1.0  -0.8603
  O  O531  1  0.259070  0.867970  0.793900  1.0  -0.8995
  O  O532  1  0.289000  0.804990  0.909800  1.0  -0.7433
  O  O533  1  0.044500  0.669530  0.787800  1.0  -0.8878
  O  O534  1  0.959010  0.591750  0.673900  1.0  -0.8833
  O  O535  1  0.935100  0.663440  0.781600  1.0  -0.8905
  O  O536  1  0.010930  0.710620  0.639100  1.0  -0.8794
  O  O537  1  0.876950  0.176620  0.296230  1.0  -0.9193
  O  O538  1  0.841830  0.086710  0.176930  1.0  -0.8603
  O  O539  1  0.925740  0.201300  0.127230  1.0  -0.8995
  O  O540  1  0.955670  0.138320  0.243130  1.0  -0.7471
  O  O541  1  0.711170  0.002860  0.121130  1.0  -0.8878
  O  O542  1  0.625680  0.925080  0.007230  1.0  -0.8833
  O  O543  1  0.601770  0.996770  0.114930  1.0  -0.8905
  O  O544  1  0.677600  0.043950  0.972430  1.0  -0.879
  O  O545  1  0.543610  0.509960  0.629570  1.0  -0.9193
  O  O546  1  0.508490  0.420050  0.510270  1.0  -0.8602
  O  O547  1  0.592400  0.534640  0.460570  1.0  -0.8994
  O  O548  1  0.622330  0.471660  0.576470  1.0  -0.7649
  O  O549  1  0.377830  0.336200  0.454470  1.0  -0.8877
  O  O550  1  0.292340  0.258420  0.340570  1.0  -0.8824
  O  O551  1  0.268430  0.330110  0.448270  1.0  -0.8905
  O  O552  1  0.344260  0.377290  0.305770  1.0  -0.879
  O  O553  1  0.156710  0.366990  0.962900  1.0  -0.9181
  O  O554  1  0.246620  0.421780  0.843600  1.0  -0.8625
  O  O555  1  0.132030  0.391100  0.793900  1.0  -0.9002
  O  O556  1  0.195010  0.484010  0.909800  1.0  -0.7696
  O  O557  1  0.330470  0.374970  0.787800  1.0  -0.8884
  O  O558  1  0.408250  0.367260  0.673900  1.0  -0.8809
  O  O559  1  0.336560  0.271660  0.781600  1.0  -0.8887
  O  O560  1  0.289380  0.300310  0.639100  1.0  -0.8794
  O  O561  1  0.823380  0.700320  0.296230  1.0  -0.9181
  O  O562  1  0.913290  0.755110  0.176930  1.0  -0.8625
  O  O563  1  0.798700  0.724430  0.127230  1.0  -0.9001
  O  O564  1  0.861680  0.817340  0.243130  1.0  -0.7914
  O  O565  1  0.997140  0.708300  0.121130  1.0  -0.8884
  O  O566  1  0.074920  0.700590  0.007230  1.0  -0.8809
  O  O567  1  0.003230  0.604990  0.114930  1.0  -0.8887
  O  O568  1  0.956050  0.633640  0.972430  1.0  -0.8796
  O  O569  1  0.490040  0.033660  0.629570  1.0  -0.9181
  O  O570  1  0.579950  0.088450  0.510270  1.0  -0.8625
  O  O571  1  0.465360  0.057770  0.460570  1.0  -0.9002
  O  O572  1  0.528340  0.150680  0.576470  1.0  -0.7586
  O  O573  1  0.663800  0.041640  0.454470  1.0  -0.8884
  O  O574  1  0.741580  0.033930  0.340570  1.0  -0.8809
  O  O575  1  0.669890  0.938330  0.448270  1.0  -0.8887
  O  O576  1  0.622710  0.966980  0.305770  1.0  -0.8794
