# generated using pymatgen
data_Ga3CoP4H26C8(N3O8)2
_symmetry_space_group_name_H-M   'P 1'
_cell_length_a   23.74000000
_cell_length_b   23.74000000
_cell_length_c   13.48510000
_cell_angle_alpha   90.00000000
_cell_angle_beta   90.00000000
_cell_angle_gamma   120.00000000
_symmetry_Int_Tables_number   1
_chemical_formula_structural   Ga3CoP4H26C8(N3O8)2
_chemical_formula_sum   'Ga27 Co9 P36 H234 C72 N54 O144'
_cell_volume   6581.82350502
_cell_formula_units_Z   9
loop_
 _symmetry_equiv_pos_site_id
 _symmetry_equiv_pos_as_xyz
  1  'x, y, z'
loop_
 _atom_site_type_symbol
 _atom_site_label
 _atom_site_symmetry_multiplicity
 _atom_site_fract_x
 _atom_site_fract_y
 _atom_site_fract_z
 _atom_site_occupancy
 _atom_site_charge
  Ga  Ga1  1  0.349720  0.242830  0.915440  1.0  1.426
  Ga  Ga2  1  0.306280  0.240250  0.213350  1.0  1.6661
  Ga  Ga3  1  0.016390  0.576160  0.248770  1.0  1.4299
  Ga  Ga4  1  0.972940  0.573590  0.546690  1.0  1.6661
  Ga  Ga5  1  0.683050  0.909500  0.582110  1.0  1.426
  Ga  Ga6  1  0.639610  0.906920  0.880020  1.0  1.6662
  Ga  Ga7  1  0.757170  0.106890  0.915440  1.0  1.4283
  Ga  Ga8  1  0.759750  0.066020  0.213350  1.0  1.6663
  Ga  Ga9  1  0.423840  0.440220  0.248770  1.0  1.4294
  Ga  Ga10  1  0.426410  0.399360  0.546690  1.0  1.6663
  Ga  Ga11  1  0.090500  0.773560  0.582110  1.0  1.4284
  Ga  Ga12  1  0.093080  0.732690  0.880020  1.0  1.6663
  Ga  Ga13  1  0.893110  0.650280  0.915440  1.0  1.4289
  Ga  Ga14  1  0.933980  0.693720  0.213350  1.0  1.6675
  Ga  Ga15  1  0.559780  0.983610  0.248770  1.0  1.425
  Ga  Ga16  1  0.600640  0.027060  0.546690  1.0  1.6676
  Ga  Ga17  1  0.226440  0.316950  0.582110  1.0  1.4289
  Ga  Ga18  1  0.267310  0.360390  0.880020  1.0  1.6675
  Ga  Ga19  1  0.650280  0.757170  0.084560  1.0  1.4252
  Ga  Ga20  1  0.316950  0.090500  0.417890  1.0  1.4252
  Ga  Ga21  1  0.983610  0.423840  0.751230  1.0  1.4291
  Ga  Ga22  1  0.242830  0.893110  0.084560  1.0  1.4279
  Ga  Ga23  1  0.909500  0.226440  0.417890  1.0  1.4279
  Ga  Ga24  1  0.576160  0.559780  0.751230  1.0  1.4289
  Ga  Ga25  1  0.106890  0.349720  0.084560  1.0  1.4283
  Ga  Ga26  1  0.773560  0.683050  0.417890  1.0  1.4283
  Ga  Ga27  1  0.440220  0.016390  0.751230  1.0  1.4244
  Co  Co28  1  0.360390  0.093080  0.119980  1.0  0.9942
  Co  Co29  1  0.027060  0.426410  0.453310  1.0  0.9941
  Co  Co30  1  0.693720  0.759750  0.786650  1.0  0.9941
  Co  Co31  1  0.906920  0.267310  0.119980  1.0  0.9958
  Co  Co32  1  0.573590  0.600640  0.453310  1.0  0.9958
  Co  Co33  1  0.240250  0.933980  0.786650  1.0  0.9958
  Co  Co34  1  0.732690  0.639610  0.119980  1.0  0.9935
  Co  Co35  1  0.399360  0.972940  0.453310  1.0  0.9937
  Co  Co36  1  0.066020  0.306280  0.786650  1.0  0.9935
  P  P37  1  0.418760  0.236210  0.119500  1.0  1.7938
  P  P38  1  0.326800  0.986970  0.277250  1.0  1.7466
  P  P39  1  0.085430  0.569540  0.452830  1.0  1.7936
  P  P40  1  0.993470  0.320300  0.610580  1.0  1.7466
  P  P41  1  0.752090  0.902880  0.786170  1.0  1.7938
  P  P42  1  0.660130  0.653640  0.943920  1.0  1.7466
  P  P43  1  0.763790  0.182550  0.119500  1.0  1.7914
  P  P44  1  0.013030  0.339830  0.277250  1.0  1.7466
  P  P45  1  0.430460  0.515880  0.452830  1.0  1.7911
  P  P46  1  0.679700  0.673160  0.610580  1.0  1.7466
  P  P47  1  0.097120  0.849220  0.786170  1.0  1.7914
  P  P48  1  0.346360  0.006500  0.943920  1.0  1.7466
  P  P49  1  0.817450  0.581240  0.119500  1.0  1.7969
  P  P50  1  0.660170  0.673200  0.277250  1.0  1.7493
  P  P51  1  0.484120  0.914570  0.452830  1.0  1.7969
  P  P52  1  0.326840  0.006530  0.610580  1.0  1.7493
  P  P53  1  0.150780  0.247910  0.786170  1.0  1.7969
  P  P54  1  0.993500  0.339870  0.943920  1.0  1.7493
  P  P55  1  0.581240  0.763790  0.880500  1.0  1.7907
  P  P56  1  0.673200  0.013030  0.722750  1.0  1.7488
  P  P57  1  0.247910  0.097120  0.213830  1.0  1.7908
  P  P58  1  0.339870  0.346360  0.056080  1.0  1.7488
  P  P59  1  0.914570  0.430460  0.547170  1.0  1.7905
  P  P60  1  0.006530  0.679700  0.389420  1.0  1.7488
  P  P61  1  0.236210  0.817450  0.880500  1.0  1.7959
  P  P62  1  0.986970  0.660170  0.722750  1.0  1.7471
  P  P63  1  0.902880  0.150780  0.213830  1.0  1.7959
  P  P64  1  0.653640  0.993500  0.056080  1.0  1.7471
  P  P65  1  0.569540  0.484120  0.547170  1.0  1.7957
  P  P66  1  0.320300  0.326840  0.389420  1.0  1.7471
  P  P67  1  0.182550  0.418760  0.880500  1.0  1.7981
  P  P68  1  0.339830  0.326800  0.722750  1.0  1.7487
  P  P69  1  0.849220  0.752090  0.213830  1.0  1.7981
  P  P70  1  0.006500  0.660130  0.056080  1.0  1.7487
  P  P71  1  0.515880  0.085430  0.547170  1.0  1.7982
  P  P72  1  0.673160  0.993470  0.389420  1.0  1.7488
  H  H73  1  0.451100  0.298600  0.813300  1.0  0.2528
  H  H74  1  0.473400  0.290800  0.921700  1.0  0.2348
  H  H75  1  0.332800  0.127300  0.895500  1.0  0.237
  H  H76  1  0.246100  0.191000  0.007700  1.0  0.3167
  H  H77  1  0.229900  0.203400  0.908300  1.0  0.2587
  H  H78  1  0.453700  0.193300  0.890500  1.0  0.1054
  H  H79  1  0.473200  0.234900  0.785800  1.0  0.1411
  H  H80  1  0.382800  0.198600  0.724300  1.0  0.099
  H  H81  1  0.377500  0.128600  0.756300  1.0  0.1086
  H  H82  1  0.260800  0.147800  0.757200  1.0  0.1138
  H  H83  1  0.247300  0.077200  0.804500  1.0  0.1048
  H  H84  1  0.230700  0.100100  0.957000  1.0  0.0959
  H  H85  1  0.175800  0.100100  0.867900  1.0  0.1243
  H  H86  1  0.117770  0.631930  0.146630  1.0  0.2528
  H  H87  1  0.140070  0.624130  0.255030  1.0  0.2347
  H  H88  1  0.999470  0.460630  0.228830  1.0  0.237
  H  H89  1  0.912770  0.524330  0.341030  1.0  0.3167
  H  H90  1  0.896570  0.536730  0.241630  1.0  0.2587
  H  H91  1  0.120370  0.526630  0.223830  1.0  0.1054
  H  H92  1  0.139870  0.568230  0.119130  1.0  0.1411
  H  H93  1  0.049470  0.531930  0.057630  1.0  0.099
  H  H94  1  0.044170  0.461930  0.089630  1.0  0.1096
  H  H95  1  0.927470  0.481130  0.090530  1.0  0.1137
  H  H96  1  0.913970  0.410530  0.137830  1.0  0.1049
  H  H97  1  0.897370  0.433430  0.290330  1.0  0.0959
  H  H98  1  0.842470  0.433430  0.201230  1.0  0.1243
  H  H99  1  0.784430  0.965270  0.479970  1.0  0.2528
  H  H100  1  0.806730  0.957470  0.588370  1.0  0.2348
  H  H101  1  0.666130  0.793970  0.562170  1.0  0.237
  H  H102  1  0.579430  0.857670  0.674370  1.0  0.3167
  H  H103  1  0.563230  0.870070  0.574970  1.0  0.2587
  H  H104  1  0.787030  0.859970  0.557170  1.0  0.1052
  H  H105  1  0.806530  0.901570  0.452470  1.0  0.1298
  H  H106  1  0.716130  0.865270  0.390970  1.0  0.099
  H  H107  1  0.710830  0.795270  0.422970  1.0  0.1088
  H  H108  1  0.594130  0.814470  0.423870  1.0  0.1138
  H  H109  1  0.580630  0.743870  0.471170  1.0  0.1048
  H  H110  1  0.564030  0.766770  0.623670  1.0  0.0959
  H  H111  1  0.509130  0.766770  0.534570  1.0  0.1249
  H  H112  1  0.701400  0.152500  0.813300  1.0  0.2528
  H  H113  1  0.709200  0.182600  0.921700  1.0  0.2351
  H  H114  1  0.872700  0.205500  0.895500  1.0  0.2388
  H  H115  1  0.809000  0.055100  0.007700  1.0  0.3176
  H  H116  1  0.796600  0.026500  0.908300  1.0  0.2618
  H  H117  1  0.806700  0.260400  0.890500  1.0  0.1054
  H  H118  1  0.765100  0.238300  0.785800  1.0  0.1333
  H  H119  1  0.801400  0.184200  0.724300  1.0  0.099
  H  H120  1  0.871400  0.248900  0.756300  1.0  0.107
  H  H121  1  0.852200  0.113000  0.757200  1.0  0.1144
  H  H122  1  0.922800  0.170100  0.804500  1.0  0.1076
  H  H123  1  0.899900  0.130600  0.957000  1.0  0.0958
  H  H124  1  0.899900  0.075700  0.867900  1.0  0.1222
  H  H125  1  0.368070  0.485830  0.146630  1.0  0.2528
  H  H126  1  0.375870  0.515930  0.255030  1.0  0.2352
  H  H127  1  0.539370  0.538830  0.228830  1.0  0.2388
  H  H128  1  0.475670  0.388430  0.341030  1.0  0.3176
  H  H129  1  0.463270  0.359830  0.241630  1.0  0.2617
  H  H130  1  0.473370  0.593730  0.223830  1.0  0.1055
  H  H131  1  0.431770  0.571630  0.119130  1.0  0.1333
  H  H132  1  0.468070  0.517530  0.057630  1.0  0.099
  H  H133  1  0.538070  0.582230  0.089630  1.0  0.107
  H  H134  1  0.518870  0.446330  0.090530  1.0  0.1144
  H  H135  1  0.589470  0.503430  0.137830  1.0  0.1076
  H  H136  1  0.566570  0.463930  0.290330  1.0  0.0958
  H  H137  1  0.566570  0.409030  0.201230  1.0  0.1222
  H  H138  1  0.034730  0.819170  0.479970  1.0  0.2527
  H  H139  1  0.042530  0.849270  0.588370  1.0  0.2351
  H  H140  1  0.206030  0.872170  0.562170  1.0  0.2388
  H  H141  1  0.142330  0.721770  0.674370  1.0  0.3176
  H  H142  1  0.129930  0.693170  0.574970  1.0  0.2617
  H  H143  1  0.140030  0.927070  0.557170  1.0  0.1054
  H  H144  1  0.098430  0.904970  0.452470  1.0  0.1314
  H  H145  1  0.134730  0.850870  0.390970  1.0  0.099
  H  H146  1  0.204730  0.915570  0.422970  1.0  0.107
  H  H147  1  0.185530  0.779670  0.423870  1.0  0.1144
  H  H148  1  0.256130  0.836770  0.471170  1.0  0.1076
  H  H149  1  0.233230  0.797270  0.623670  1.0  0.0958
  H  H150  1  0.233230  0.742370  0.534570  1.0  0.1229
  H  H151  1  0.847500  0.548900  0.813300  1.0  0.2508
  H  H152  1  0.817400  0.526600  0.921700  1.0  0.2356
  H  H153  1  0.794500  0.667200  0.895500  1.0  0.2383
  H  H154  1  0.944900  0.753900  0.007700  1.0  0.3157
  H  H155  1  0.973500  0.770100  0.908300  1.0  0.2595
  H  H156  1  0.739600  0.546300  0.890500  1.0  0.1076
  H  H157  1  0.761700  0.526800  0.785800  1.0  0.1389
  H  H158  1  0.815800  0.617200  0.724300  1.0  0.0977
  H  H159  1  0.751100  0.622500  0.756300  1.0  0.1052
  H  H160  1  0.887000  0.739200  0.757200  1.0  0.1136
  H  H161  1  0.829900  0.752700  0.804500  1.0  0.1004
  H  H162  1  0.869400  0.769300  0.957000  1.0  0.0943
  H  H163  1  0.924300  0.824200  0.867900  1.0  0.1161
  H  H164  1  0.514170  0.882230  0.146630  1.0  0.2508
  H  H165  1  0.484070  0.859930  0.255030  1.0  0.2356
  H  H166  1  0.461170  0.000530  0.228830  1.0  0.2383
  H  H167  1  0.611570  0.087230  0.341030  1.0  0.3157
  H  H168  1  0.640170  0.103430  0.241630  1.0  0.2595
  H  H169  1  0.406270  0.879630  0.223830  1.0  0.1076
  H  H170  1  0.428370  0.860130  0.119130  1.0  0.1389
  H  H171  1  0.482470  0.950530  0.057630  1.0  0.0977
  H  H172  1  0.417770  0.955830  0.089630  1.0  0.1052
  H  H173  1  0.553670  0.072530  0.090530  1.0  0.1136
  H  H174  1  0.496570  0.086030  0.137830  1.0  0.1005
  H  H175  1  0.536070  0.102630  0.290330  1.0  0.0944
  H  H176  1  0.590970  0.157530  0.201230  1.0  0.1161
  H  H177  1  0.180830  0.215570  0.479970  1.0  0.2508
  H  H178  1  0.150730  0.193270  0.588370  1.0  0.2355
  H  H179  1  0.127830  0.333870  0.562170  1.0  0.2383
  H  H180  1  0.278230  0.420570  0.674370  1.0  0.3157
  H  H181  1  0.306830  0.436770  0.574970  1.0  0.2595
  H  H182  1  0.072930  0.212970  0.557170  1.0  0.1076
  H  H183  1  0.095030  0.193470  0.452470  1.0  0.1282
  H  H184  1  0.149130  0.283870  0.390970  1.0  0.0977
  H  H185  1  0.084430  0.289170  0.422970  1.0  0.1052
  H  H186  1  0.220330  0.405870  0.423870  1.0  0.1136
  H  H187  1  0.163230  0.419370  0.471170  1.0  0.1004
  H  H188  1  0.202730  0.435970  0.623670  1.0  0.0943
  H  H189  1  0.257630  0.490870  0.534570  1.0  0.1185
  H  H190  1  0.548900  0.701400  0.186700  1.0  0.2539
  H  H191  1  0.526600  0.709200  0.078300  1.0  0.2337
  H  H192  1  0.667200  0.872700  0.104500  1.0  0.2383
  H  H193  1  0.753900  0.809000  0.992300  1.0  0.317
  H  H194  1  0.770100  0.796600  0.091700  1.0  0.2612
  H  H195  1  0.546300  0.806700  0.109500  1.0  0.1049
  H  H196  1  0.526800  0.765100  0.214200  1.0  0.1428
  H  H197  1  0.617200  0.801400  0.275700  1.0  0.0997
  H  H198  1  0.622500  0.871400  0.243700  1.0  0.1068
  H  H199  1  0.739200  0.852200  0.242800  1.0  0.113
  H  H200  1  0.752700  0.922800  0.195500  1.0  0.1043
  H  H201  1  0.769300  0.899900  0.043000  1.0  0.0964
  H  H202  1  0.824200  0.899900  0.132100  1.0  0.1243
  H  H203  1  0.215570  0.034730  0.520030  1.0  0.2539
  H  H204  1  0.193270  0.042530  0.411630  1.0  0.2337
  H  H205  1  0.333870  0.206030  0.437830  1.0  0.2383
  H  H206  1  0.420570  0.142330  0.325630  1.0  0.317
  H  H207  1  0.436770  0.129930  0.425030  1.0  0.2613
  H  H208  1  0.212970  0.140030  0.442830  1.0  0.1048
  H  H209  1  0.193470  0.098430  0.547530  1.0  0.1312
  H  H210  1  0.283870  0.134730  0.609030  1.0  0.0997
  H  H211  1  0.289170  0.204730  0.577030  1.0  0.1069
  H  H212  1  0.405870  0.185530  0.576130  1.0  0.113
  H  H213  1  0.419370  0.256130  0.528830  1.0  0.1043
  H  H214  1  0.435970  0.233230  0.376330  1.0  0.0964
  H  H215  1  0.490870  0.233230  0.465430  1.0  0.1244
  H  H216  1  0.882230  0.368070  0.853370  1.0  0.2539
  H  H217  1  0.859930  0.375870  0.744970  1.0  0.2336
  H  H218  1  0.000530  0.539370  0.771170  1.0  0.2383
  H  H219  1  0.087230  0.475670  0.658970  1.0  0.317
  H  H220  1  0.103430  0.463270  0.758370  1.0  0.2612
  H  H221  1  0.879630  0.473370  0.776170  1.0  0.1049
  H  H222  1  0.860130  0.431770  0.880870  1.0  0.1428
  H  H223  1  0.950530  0.468070  0.942370  1.0  0.0997
  H  H224  1  0.955830  0.538070  0.910370  1.0  0.1081
  H  H225  1  0.072530  0.518870  0.909470  1.0  0.113
  H  H226  1  0.086030  0.589470  0.862170  1.0  0.1044
  H  H227  1  0.102630  0.566570  0.709670  1.0  0.0964
  H  H228  1  0.157530  0.566570  0.798770  1.0  0.1243
  H  H229  1  0.298600  0.847500  0.186700  1.0  0.2512
  H  H230  1  0.290800  0.817400  0.078300  1.0  0.2342
  H  H231  1  0.127300  0.794500  0.104500  1.0  0.2387
  H  H232  1  0.191000  0.944900  0.992300  1.0  0.3191
  H  H233  1  0.203400  0.973500  0.091700  1.0  0.2622
  H  H234  1  0.193300  0.739600  0.109500  1.0  0.1059
  H  H235  1  0.234900  0.761700  0.214200  1.0  0.1375
  H  H236  1  0.198600  0.815800  0.275700  1.0  0.0998
  H  H237  1  0.128600  0.751100  0.243700  1.0  0.1086
  H  H238  1  0.147800  0.887000  0.242800  1.0  0.1133
  H  H239  1  0.077200  0.829900  0.195500  1.0  0.1047
  H  H240  1  0.100100  0.869400  0.043000  1.0  0.0959
  H  H241  1  0.100100  0.924300  0.132100  1.0  0.1234
  H  H242  1  0.965270  0.180830  0.520030  1.0  0.2511
  H  H243  1  0.957470  0.150730  0.411630  1.0  0.2342
  H  H244  1  0.793970  0.127830  0.437830  1.0  0.2387
  H  H245  1  0.857670  0.278230  0.325630  1.0  0.3191
  H  H246  1  0.870070  0.306830  0.425030  1.0  0.2622
  H  H247  1  0.859970  0.072930  0.442830  1.0  0.1059
  H  H248  1  0.901570  0.095030  0.547530  1.0  0.1343
  H  H249  1  0.865270  0.149130  0.609030  1.0  0.0998
  H  H250  1  0.795270  0.084430  0.577030  1.0  0.1086
  H  H251  1  0.814470  0.220330  0.576130  1.0  0.1133
  H  H252  1  0.743870  0.163230  0.528830  1.0  0.1047
  H  H253  1  0.766770  0.202730  0.376330  1.0  0.0959
  H  H254  1  0.766770  0.257630  0.465430  1.0  0.1223
  H  H255  1  0.631930  0.514170  0.853370  1.0  0.2512
  H  H256  1  0.624130  0.484070  0.744970  1.0  0.2343
  H  H257  1  0.460630  0.461170  0.771170  1.0  0.2387
  H  H258  1  0.524330  0.611570  0.658970  1.0  0.3191
  H  H259  1  0.536730  0.640170  0.758370  1.0  0.2621
  H  H260  1  0.526630  0.406270  0.776170  1.0  0.106
  H  H261  1  0.568230  0.428370  0.880870  1.0  0.1375
  H  H262  1  0.531930  0.482470  0.942370  1.0  0.0997
  H  H263  1  0.461930  0.417770  0.910370  1.0  0.1084
  H  H264  1  0.481130  0.553670  0.909470  1.0  0.1133
  H  H265  1  0.410530  0.496570  0.862170  1.0  0.1046
  H  H266  1  0.433430  0.536070  0.709670  1.0  0.0959
  H  H267  1  0.433430  0.590970  0.798770  1.0  0.1234
  H  H268  1  0.152500  0.451100  0.186700  1.0  0.2503
  H  H269  1  0.182600  0.473400  0.078300  1.0  0.2366
  H  H270  1  0.205500  0.332800  0.104500  1.0  0.2395
  H  H271  1  0.055100  0.246100  0.992300  1.0  0.316
  H  H272  1  0.026500  0.229900  0.091700  1.0  0.2585
  H  H273  1  0.260400  0.453700  0.109500  1.0  0.1069
  H  H274  1  0.238300  0.473200  0.214200  1.0  0.1411
  H  H275  1  0.184200  0.382800  0.275700  1.0  0.1003
  H  H276  1  0.248900  0.377500  0.243700  1.0  0.1117
  H  H277  1  0.113000  0.260800  0.242800  1.0  0.1149
  H  H278  1  0.170100  0.247300  0.195500  1.0  0.1028
  H  H279  1  0.130600  0.230700  0.043000  1.0  0.0949
  H  H280  1  0.075700  0.175800  0.132100  1.0  0.1179
  H  H281  1  0.819170  0.784430  0.520030  1.0  0.2503
  H  H282  1  0.849270  0.806730  0.411630  1.0  0.2367
  H  H283  1  0.872170  0.666130  0.437830  1.0  0.2394
  H  H284  1  0.721770  0.579430  0.325630  1.0  0.316
  H  H285  1  0.693170  0.563230  0.425030  1.0  0.2585
  H  H286  1  0.927070  0.787030  0.442830  1.0  0.1069
  H  H287  1  0.904970  0.806530  0.547530  1.0  0.1326
  H  H288  1  0.850870  0.716130  0.609030  1.0  0.1003
  H  H289  1  0.915570  0.710830  0.577030  1.0  0.1117
  H  H290  1  0.779670  0.594130  0.576130  1.0  0.1149
  H  H291  1  0.836770  0.580630  0.528830  1.0  0.1028
  H  H292  1  0.797270  0.564030  0.376330  1.0  0.0949
  H  H293  1  0.742370  0.509130  0.465430  1.0  0.1193
  H  H294  1  0.485830  0.117770  0.853370  1.0  0.2503
  H  H295  1  0.515930  0.140070  0.744970  1.0  0.2366
  H  H296  1  0.538830  0.999470  0.771170  1.0  0.2395
  H  H297  1  0.388430  0.912770  0.658970  1.0  0.316
  H  H298  1  0.359830  0.896570  0.758370  1.0  0.2585
  H  H299  1  0.593730  0.120370  0.776170  1.0  0.1069
  H  H300  1  0.571630  0.139870  0.880870  1.0  0.1411
  H  H301  1  0.517530  0.049470  0.942370  1.0  0.1003
  H  H302  1  0.582230  0.044170  0.910370  1.0  0.1117
  H  H303  1  0.446330  0.927470  0.909470  1.0  0.1149
  H  H304  1  0.503430  0.913970  0.862170  1.0  0.1028
  H  H305  1  0.463930  0.897370  0.709670  1.0  0.095
  H  H306  1  0.409030  0.842470  0.798770  1.0  0.1179
  C  C307  1  0.447300  0.218600  0.831100  1.0  0.0414
  C  C308  1  0.384900  0.173000  0.779700  1.0  -1e-04
  C  C309  1  0.265000  0.123000  0.816800  1.0  0.0228
  C  C310  1  0.223700  0.121400  0.902900  1.0  0.0143
  C  C311  1  0.113970  0.551930  0.164430  1.0  0.0415
  C  C312  1  0.051570  0.506330  0.113030  1.0  -1e-04
  C  C313  1  0.931670  0.456330  0.150130  1.0  0.0228
  C  C314  1  0.890370  0.454730  0.236230  1.0  0.0143
  C  C315  1  0.780630  0.885270  0.497770  1.0  0.0414
  C  C316  1  0.718230  0.839670  0.446370  1.0  -1e-04
  C  C317  1  0.598330  0.789670  0.483470  1.0  0.0228
  C  C318  1  0.557030  0.788070  0.569570  1.0  0.0143
  C  C319  1  0.781400  0.228700  0.831100  1.0  0.0473
  C  C320  1  0.827000  0.211900  0.779700  1.0  0.0022
  C  C321  1  0.877000  0.142000  0.816800  1.0  0.0175
  C  C322  1  0.878600  0.102300  0.902900  1.0  0.0103
  C  C323  1  0.448070  0.562030  0.164430  1.0  0.0473
  C  C324  1  0.493670  0.545230  0.113030  1.0  0.0022
  C  C325  1  0.543670  0.475330  0.150130  1.0  0.0175
  C  C326  1  0.545270  0.435630  0.236230  1.0  0.0103
  C  C327  1  0.114730  0.895370  0.497770  1.0  0.0473
  C  C328  1  0.160330  0.878570  0.446370  1.0  0.0022
  C  C329  1  0.210330  0.808670  0.483470  1.0  0.0175
  C  C330  1  0.211930  0.768970  0.569570  1.0  0.0103
  C  C331  1  0.771300  0.552700  0.831100  1.0  0.0485
  C  C332  1  0.788100  0.615100  0.779700  1.0  0.0031
  C  C333  1  0.858000  0.735000  0.816800  1.0  0.0198
  C  C334  1  0.897700  0.776300  0.902900  1.0  0.0193
  C  C335  1  0.437970  0.886030  0.164430  1.0  0.0485
  C  C336  1  0.454770  0.948430  0.113030  1.0  0.0031
  C  C337  1  0.524670  0.068330  0.150130  1.0  0.0198
  C  C338  1  0.564370  0.109630  0.236230  1.0  0.0193
  C  C339  1  0.104630  0.219370  0.497770  1.0  0.0485
  C  C340  1  0.121430  0.281770  0.446370  1.0  0.0031
  C  C341  1  0.191330  0.401670  0.483470  1.0  0.0198
  C  C342  1  0.231030  0.442970  0.569570  1.0  0.0193
  C  C343  1  0.552700  0.781400  0.168900  1.0  0.0437
  C  C344  1  0.615100  0.827000  0.220300  1.0  0.0017
  C  C345  1  0.735000  0.877000  0.183200  1.0  0.0205
  C  C346  1  0.776300  0.878600  0.097100  1.0  0.0109
  C  C347  1  0.219370  0.114730  0.502230  1.0  0.0437
  C  C348  1  0.281770  0.160330  0.553630  1.0  0.0017
  C  C349  1  0.401670  0.210330  0.516530  1.0  0.0205
  C  C350  1  0.442970  0.211930  0.430430  1.0  0.0109
  C  C351  1  0.886030  0.448070  0.835570  1.0  0.0437
  C  C352  1  0.948430  0.493670  0.886970  1.0  0.0017
  C  C353  1  0.068330  0.543670  0.849870  1.0  0.0205
  C  C354  1  0.109630  0.545270  0.763770  1.0  0.0109
  C  C355  1  0.218600  0.771300  0.168900  1.0  0.0451
  C  C356  1  0.173000  0.788100  0.220300  1.0  0.0026
  C  C357  1  0.123000  0.858000  0.183200  1.0  0.0173
  C  C358  1  0.121400  0.897700  0.097100  1.0  0.0124
  C  C359  1  0.885270  0.104630  0.502230  1.0  0.0451
  C  C360  1  0.839670  0.121430  0.553630  1.0  0.0026
  C  C361  1  0.789670  0.191330  0.516530  1.0  0.0173
  C  C362  1  0.788070  0.231030  0.430430  1.0  0.0124
  C  C363  1  0.551930  0.437970  0.835570  1.0  0.0451
  C  C364  1  0.506330  0.454770  0.886970  1.0  0.0026
  C  C365  1  0.456330  0.524670  0.849870  1.0  0.0173
  C  C366  1  0.454730  0.564370  0.763770  1.0  0.0124
  C  C367  1  0.228700  0.447300  0.168900  1.0  0.0474
  C  C368  1  0.211900  0.384900  0.220300  1.0  0.0024
  C  C369  1  0.142000  0.265000  0.183200  1.0  0.0208
  C  C370  1  0.102300  0.223700  0.097100  1.0  0.02
  C  C371  1  0.895370  0.780630  0.502230  1.0  0.0472
  C  C372  1  0.878570  0.718230  0.553630  1.0  0.0024
  C  C373  1  0.808670  0.598330  0.516530  1.0  0.0208
  C  C374  1  0.768970  0.557030  0.430430  1.0  0.02
  C  C375  1  0.562030  0.113970  0.835570  1.0  0.0474
  C  C376  1  0.545230  0.051570  0.886970  1.0  0.0024
  C  C377  1  0.475330  0.931670  0.849870  1.0  0.0208
  C  C378  1  0.435630  0.890370  0.763770  1.0  0.02
  N  N379  1  0.444360  0.275770  0.869300  1.0  -0.5305
  N  N380  1  0.332400  0.156630  0.851300  1.0  -0.3566
  N  N381  1  0.250990  0.188880  0.941200  1.0  -0.6154
  N  N382  1  0.111030  0.609100  0.202630  1.0  -0.5305
  N  N383  1  0.999070  0.489960  0.184630  1.0  -0.3566
  N  N384  1  0.917660  0.522210  0.274530  1.0  -0.6154
  N  N385  1  0.777690  0.942440  0.535970  1.0  -0.5305
  N  N386  1  0.665730  0.823300  0.517970  1.0  -0.3565
  N  N387  1  0.584320  0.855550  0.607870  1.0  -0.6154
  N  N388  1  0.724230  0.168590  0.869300  1.0  -0.5322
  N  N389  1  0.843370  0.175770  0.851300  1.0  -0.3576
  N  N390  1  0.811120  0.062110  0.941200  1.0  -0.6119
  N  N391  1  0.390900  0.501920  0.202630  1.0  -0.5322
  N  N392  1  0.510040  0.509100  0.184630  1.0  -0.3576
  N  N393  1  0.477790  0.395440  0.274530  1.0  -0.6119
  N  N394  1  0.057560  0.835260  0.535970  1.0  -0.5323
  N  N395  1  0.176700  0.842440  0.517970  1.0  -0.3576
  N  N396  1  0.144450  0.728780  0.607870  1.0  -0.6119
  N  N397  1  0.831410  0.555640  0.869300  1.0  -0.5319
  N  N398  1  0.824230  0.667600  0.851300  1.0  -0.3578
  N  N399  1  0.937890  0.749010  0.941200  1.0  -0.6144
  N  N400  1  0.498080  0.888970  0.202630  1.0  -0.5319
  N  N401  1  0.490900  0.000930  0.184630  1.0  -0.3578
  N  N402  1  0.604560  0.082340  0.274530  1.0  -0.6144
  N  N403  1  0.164740  0.222310  0.535970  1.0  -0.5319
  N  N404  1  0.157560  0.334270  0.517970  1.0  -0.3578
  N  N405  1  0.271220  0.415680  0.607870  1.0  -0.6145
  N  N406  1  0.555640  0.724230  0.130700  1.0  -0.5309
  N  N407  1  0.667600  0.843370  0.148700  1.0  -0.3545
  N  N408  1  0.749010  0.811120  0.058800  1.0  -0.6126
  N  N409  1  0.222310  0.057560  0.464030  1.0  -0.5309
  N  N410  1  0.334270  0.176700  0.482030  1.0  -0.3545
  N  N411  1  0.415680  0.144450  0.392130  1.0  -0.6126
  N  N412  1  0.888970  0.390900  0.797370  1.0  -0.5309
  N  N413  1  0.000930  0.510040  0.815370  1.0  -0.3545
  N  N414  1  0.082340  0.477790  0.725470  1.0  -0.6126
  N  N415  1  0.275770  0.831410  0.130700  1.0  -0.53
  N  N416  1  0.156630  0.824230  0.148700  1.0  -0.355
  N  N417  1  0.188880  0.937890  0.058800  1.0  -0.6147
  N  N418  1  0.942440  0.164740  0.464030  1.0  -0.53
  N  N419  1  0.823300  0.157560  0.482030  1.0  -0.355
  N  N420  1  0.855550  0.271220  0.392130  1.0  -0.6147
  N  N421  1  0.609100  0.498080  0.797370  1.0  -0.53
  N  N422  1  0.489960  0.490900  0.815370  1.0  -0.355
  N  N423  1  0.522210  0.604560  0.725470  1.0  -0.6147
  N  N424  1  0.168590  0.444360  0.130700  1.0  -0.533
  N  N425  1  0.175770  0.332400  0.148700  1.0  -0.3549
  N  N426  1  0.062110  0.250990  0.058800  1.0  -0.6142
  N  N427  1  0.835260  0.777690  0.464030  1.0  -0.533
  N  N428  1  0.842440  0.665730  0.482030  1.0  -0.3549
  N  N429  1  0.728780  0.584320  0.392130  1.0  -0.6142
  N  N430  1  0.501920  0.111030  0.797370  1.0  -0.533
  N  N431  1  0.509100  0.999070  0.815370  1.0  -0.3549
  N  N432  1  0.395440  0.917660  0.725470  1.0  -0.6142
  O  O433  1  0.367130  0.210280  0.037780  1.0  -0.9019
  O  O434  1  0.422240  0.175690  0.156280  1.0  -0.8685
  O  O435  1  0.391440  0.259110  0.206800  1.0  -0.9163
  O  O436  1  0.484010  0.289680  0.089200  1.0  -0.7975
  O  O437  1  0.375230  0.044690  0.212100  1.0  -0.8867
  O  O438  1  0.367090  0.958820  0.325260  1.0  -0.892
  O  O439  1  0.271610  0.935290  0.217660  1.0  -0.8946
  O  O440  1  0.300320  0.010650  0.360390  1.0  -0.904
  O  O441  1  0.033800  0.543610  0.371110  1.0  -0.9019
  O  O442  1  0.088910  0.509020  0.489610  1.0  -0.8685
  O  O443  1  0.058110  0.592440  0.540130  1.0  -0.9165
  O  O444  1  0.150680  0.623010  0.422530  1.0  -0.7876
  O  O445  1  0.041900  0.378020  0.545430  1.0  -0.8867
  O  O446  1  0.033760  0.292150  0.658590  1.0  -0.892
  O  O447  1  0.938280  0.268620  0.550990  1.0  -0.8946
  O  O448  1  0.966990  0.343980  0.693720  1.0  -0.9031
  O  O449  1  0.700460  0.876950  0.704450  1.0  -0.9019
  O  O450  1  0.755570  0.842360  0.822950  1.0  -0.8685
  O  O451  1  0.724770  0.925780  0.873470  1.0  -0.9163
  O  O452  1  0.817340  0.956350  0.755870  1.0  -0.8031
  O  O453  1  0.708560  0.711360  0.878770  1.0  -0.8867
  O  O454  1  0.700420  0.625490  0.991930  1.0  -0.892
  O  O455  1  0.604940  0.601960  0.884330  1.0  -0.8946
  O  O456  1  0.633650  0.677320  0.027060  1.0  -0.9041
  O  O457  1  0.789720  0.156850  0.037780  1.0  -0.9009
  O  O458  1  0.824310  0.246550  0.156280  1.0  -0.8689
  O  O459  1  0.740890  0.132330  0.206800  1.0  -0.9156
  O  O460  1  0.710320  0.194330  0.089200  1.0  -0.7996
  O  O461  1  0.955310  0.330540  0.212100  1.0  -0.8874
  O  O462  1  0.041180  0.408270  0.325260  1.0  -0.8911
  O  O463  1  0.064710  0.336320  0.217660  1.0  -0.8936
  O  O464  1  0.989350  0.289670  0.360390  1.0  -0.9037
  O  O465  1  0.456390  0.490180  0.371110  1.0  -0.9009
  O  O466  1  0.490980  0.579880  0.489610  1.0  -0.8691
  O  O467  1  0.407560  0.465660  0.540130  1.0  -0.9156
  O  O468  1  0.376990  0.527660  0.422530  1.0  -0.8076
  O  O469  1  0.621980  0.663870  0.545430  1.0  -0.8874
  O  O470  1  0.707850  0.741600  0.658590  1.0  -0.8909
  O  O471  1  0.731380  0.669650  0.550990  1.0  -0.8936
  O  O472  1  0.656020  0.623000  0.693720  1.0  -0.9028
  O  O473  1  0.123050  0.823520  0.704450  1.0  -0.9009
  O  O474  1  0.157640  0.913220  0.822950  1.0  -0.8689
  O  O475  1  0.074220  0.799000  0.873470  1.0  -0.9156
  O  O476  1  0.043650  0.861000  0.755870  1.0  -0.7948
  O  O477  1  0.288640  0.997210  0.878770  1.0  -0.8874
  O  O478  1  0.374510  0.074940  0.991930  1.0  -0.891
  O  O479  1  0.398040  0.002990  0.884330  1.0  -0.8936
  O  O480  1  0.322680  0.956340  0.027060  1.0  -0.9037
  O  O481  1  0.843150  0.632870  0.037780  1.0  -0.8996
  O  O482  1  0.753450  0.577760  0.156280  1.0  -0.8696
  O  O483  1  0.867670  0.608560  0.206800  1.0  -0.9161
  O  O484  1  0.805670  0.515990  0.089200  1.0  -0.8071
  O  O485  1  0.669460  0.624770  0.212100  1.0  -0.8866
  O  O486  1  0.591730  0.632910  0.325260  1.0  -0.8917
  O  O487  1  0.663680  0.728390  0.217660  1.0  -0.893
  O  O488  1  0.710330  0.699680  0.360390  1.0  -0.9024
  O  O489  1  0.509820  0.966200  0.371110  1.0  -0.8996
  O  O490  1  0.420120  0.911090  0.489610  1.0  -0.8697
  O  O491  1  0.534340  0.941890  0.540130  1.0  -0.9161
  O  O492  1  0.472340  0.849320  0.422530  1.0  -0.8027
  O  O493  1  0.336130  0.958100  0.545430  1.0  -0.8866
  O  O494  1  0.258400  0.966240  0.658590  1.0  -0.8917
  O  O495  1  0.330350  0.061720  0.550990  1.0  -0.893
  O  O496  1  0.377000  0.033010  0.693720  1.0  -0.9031
  O  O497  1  0.176480  0.299540  0.704450  1.0  -0.8996
  O  O498  1  0.086780  0.244430  0.822950  1.0  -0.8696
  O  O499  1  0.201000  0.275230  0.873470  1.0  -0.9161
  O  O500  1  0.139000  0.182660  0.755870  1.0  -0.8144
  O  O501  1  0.002790  0.291440  0.878770  1.0  -0.8866
  O  O502  1  0.925060  0.299580  0.991930  1.0  -0.8917
  O  O503  1  0.997010  0.395060  0.884330  1.0  -0.893
  O  O504  1  0.043660  0.366350  0.027060  1.0  -0.9022
  O  O505  1  0.632870  0.789720  0.962220  1.0  -0.9126
  O  O506  1  0.577760  0.824310  0.843720  1.0  -0.8651
  O  O507  1  0.608560  0.740890  0.793200  1.0  -0.917
  O  O508  1  0.515990  0.710320  0.910800  1.0  -0.7984
  O  O509  1  0.624770  0.955310  0.787900  1.0  -0.8888
  O  O510  1  0.632910  0.041180  0.674740  1.0  -0.8927
  O  O511  1  0.728390  0.064710  0.782340  1.0  -0.8942
  O  O512  1  0.699680  0.989350  0.639610  1.0  -0.9029
  O  O513  1  0.299540  0.123050  0.295550  1.0  -0.9126
  O  O514  1  0.244430  0.157640  0.177050  1.0  -0.8651
  O  O515  1  0.275230  0.074220  0.126530  1.0  -0.917
  O  O516  1  0.182660  0.043650  0.244130  1.0  -0.8052
  O  O517  1  0.291440  0.288640  0.121230  1.0  -0.8888
  O  O518  1  0.299580  0.374510  0.008070  1.0  -0.8927
  O  O519  1  0.395060  0.398040  0.115670  1.0  -0.8943
  O  O520  1  0.366350  0.322680  0.972940  1.0  -0.903
  O  O521  1  0.966200  0.456390  0.628890  1.0  -0.9126
  O  O522  1  0.911090  0.490980  0.510390  1.0  -0.8651
  O  O523  1  0.941890  0.407560  0.459870  1.0  -0.9172
  O  O524  1  0.849320  0.376990  0.577470  1.0  -0.7893
  O  O525  1  0.958100  0.621980  0.454570  1.0  -0.8888
  O  O526  1  0.966240  0.707850  0.341410  1.0  -0.8927
  O  O527  1  0.061720  0.731380  0.449010  1.0  -0.8942
  O  O528  1  0.033010  0.656020  0.306280  1.0  -0.902
  O  O529  1  0.210280  0.843150  0.962220  1.0  -0.9123
  O  O530  1  0.175690  0.753450  0.843720  1.0  -0.8673
  O  O531  1  0.259110  0.867670  0.793200  1.0  -0.9153
  O  O532  1  0.289680  0.805670  0.910800  1.0  -0.7986
  O  O533  1  0.044690  0.669460  0.787900  1.0  -0.8876
  O  O534  1  0.958820  0.591730  0.674740  1.0  -0.8928
  O  O535  1  0.935290  0.663680  0.782340  1.0  -0.8941
  O  O536  1  0.010650  0.710330  0.639610  1.0  -0.9036
  O  O537  1  0.876950  0.176480  0.295550  1.0  -0.9123
  O  O538  1  0.842360  0.086780  0.177050  1.0  -0.8674
  O  O539  1  0.925780  0.201000  0.126530  1.0  -0.9153
  O  O540  1  0.956350  0.139000  0.244130  1.0  -0.7936
  O  O541  1  0.711360  0.002790  0.121230  1.0  -0.8876
  O  O542  1  0.625490  0.925060  0.008070  1.0  -0.8928
  O  O543  1  0.601960  0.997010  0.115670  1.0  -0.894
  O  O544  1  0.677320  0.043660  0.972940  1.0  -0.9036
  O  O545  1  0.543610  0.509820  0.628890  1.0  -0.9123
  O  O546  1  0.509020  0.420120  0.510390  1.0  -0.8675
  O  O547  1  0.592440  0.534340  0.459870  1.0  -0.9153
  O  O548  1  0.623010  0.472340  0.577470  1.0  -0.8076
  O  O549  1  0.378020  0.336130  0.454570  1.0  -0.8875
  O  O550  1  0.292150  0.258400  0.341410  1.0  -0.8927
  O  O551  1  0.268620  0.330350  0.449010  1.0  -0.8941
  O  O552  1  0.343980  0.377000  0.306280  1.0  -0.9027
  O  O553  1  0.156850  0.367130  0.962220  1.0  -0.911
  O  O554  1  0.246550  0.422240  0.843720  1.0  -0.8697
  O  O555  1  0.132330  0.391440  0.793200  1.0  -0.9166
  O  O556  1  0.194330  0.484010  0.910800  1.0  -0.8076
  O  O557  1  0.330540  0.375230  0.787900  1.0  -0.8888
  O  O558  1  0.408270  0.367090  0.674740  1.0  -0.8911
  O  O559  1  0.336320  0.271610  0.782340  1.0  -0.8923
  O  O560  1  0.289670  0.300320  0.639610  1.0  -0.9021
  O  O561  1  0.823520  0.700460  0.295550  1.0  -0.911
  O  O562  1  0.913220  0.755570  0.177050  1.0  -0.8697
  O  O563  1  0.799000  0.724770  0.126530  1.0  -0.9166
  O  O564  1  0.861000  0.817340  0.244130  1.0  -0.8129
  O  O565  1  0.997210  0.708560  0.121230  1.0  -0.8888
  O  O566  1  0.074940  0.700420  0.008070  1.0  -0.8911
  O  O567  1  0.002990  0.604940  0.115670  1.0  -0.8924
  O  O568  1  0.956340  0.633650  0.972940  1.0  -0.9021
  O  O569  1  0.490180  0.033800  0.628890  1.0  -0.911
  O  O570  1  0.579880  0.088910  0.510390  1.0  -0.8697
  O  O571  1  0.465660  0.058110  0.459870  1.0  -0.9166
  O  O572  1  0.527660  0.150680  0.577470  1.0  -0.8022
  O  O573  1  0.663870  0.041900  0.454570  1.0  -0.8888
  O  O574  1  0.741600  0.033760  0.341410  1.0  -0.8911
  O  O575  1  0.669650  0.938280  0.449010  1.0  -0.8923
  O  O576  1  0.623000  0.966990  0.306280  1.0  -0.9029
