# generated using pymatgen
data_CdCoH22C34N10ClO4
_symmetry_space_group_name_H-M   'P 1'
_cell_length_a   21.85800000
_cell_length_b   21.85800000
_cell_length_c   23.33300000
_cell_angle_alpha   90.00000000
_cell_angle_beta   90.00000000
_cell_angle_gamma   120.00000000
_symmetry_Int_Tables_number   1
_chemical_formula_structural   CdCoH22C34N10ClO4
_chemical_formula_sum   'Cd6 Co6 H132 C204 N60 Cl6 O24'
_cell_volume   9654.32814144
_cell_formula_units_Z   6
loop_
 _symmetry_equiv_pos_site_id
 _symmetry_equiv_pos_as_xyz
  1  'x, y, z'
loop_
 _atom_site_type_symbol
 _atom_site_label
 _atom_site_symmetry_multiplicity
 _atom_site_fract_x
 _atom_site_fract_y
 _atom_site_fract_z
 _atom_site_occupancy
 _atom_site_charge
  Cd  Cd1  1  0.593520  0.129510  0.871320  1.0  0.8918
  Cd  Cd2  1  0.406480  0.535990  0.795350  1.0  0.8916
  Cd  Cd3  1  0.535990  0.406480  0.537990  1.0  0.8918
  Cd  Cd4  1  0.129510  0.593520  0.462010  1.0  0.8912
  Cd  Cd5  1  0.870490  0.464010  0.204650  1.0  0.8921
  Cd  Cd6  1  0.464010  0.870490  0.128680  1.0  0.8904
  Co  Co7  1  0.526150  0.889860  0.852880  1.0  0.5795
  Co  Co8  1  0.473850  0.363710  0.813790  1.0  0.5778
  Co  Co9  1  0.363710  0.473850  0.519550  1.0  0.5788
  Co  Co10  1  0.889860  0.526150  0.480450  1.0  0.5779
  Co  Co11  1  0.110140  0.636290  0.186210  1.0  0.5777
  Co  Co12  1  0.636290  0.110140  0.147120  1.0  0.5789
  H  H13  1  0.453800  0.097300  0.813800  1.0  0.0841
  H  H14  1  0.379700  0.048100  0.736300  1.0  0.0999
  H  H15  1  0.359000  0.937200  0.703600  1.0  0.1001
  H  H16  1  0.447900  0.912200  0.717700  1.0  0.0926
  H  H17  1  0.720600  0.979800  0.721500  1.0  0.1118
  H  H18  1  0.764400  0.904300  0.760000  1.0  0.0946
  H  H19  1  0.701200  0.825700  0.837700  1.0  0.0922
  H  H20  1  0.449000  0.688900  0.923700  1.0  0.0941
  H  H21  1  0.383200  0.635500  0.002400  1.0  0.101
  H  H22  1  0.383100  0.707200  0.081100  1.0  0.082
  H  H23  1  0.525500  0.875800  0.001700  1.0  0.0846
  H  H24  1  0.750900  0.169200  0.866400  1.0  0.0895
  H  H25  1  0.832200  0.131400  0.894700  1.0  0.1034
  H  H26  1  0.788700  0.023000  0.941900  1.0  0.1083
  H  H27  1  0.665400  0.946800  0.946100  1.0  0.1036
  H  H28  1  0.387700  0.973600  0.949100  1.0  0.125
  H  H29  1  0.279000  0.881900  0.913000  1.0  0.0988
  H  H30  1  0.280900  0.805300  0.844400  1.0  0.0932
  H  H31  1  0.538100  0.649900  0.710200  1.0  0.0758
  H  H32  1  0.576900  0.760000  0.670900  1.0  0.108
  H  H33  1  0.536900  0.834200  0.709100  1.0  0.1222
  H  H34  1  0.424500  0.682800  0.825400  1.0  0.0734
  H  H35  1  0.546200  0.643500  0.852870  1.0  0.0843
  H  H36  1  0.620300  0.668400  0.930370  1.0  0.1019
  H  H37  1  0.641000  0.578200  0.963070  1.0  0.1014
  H  H38  1  0.552100  0.464300  0.948970  1.0  0.0942
  H  H39  1  0.279400  0.259200  0.945170  1.0  0.1134
  H  H40  1  0.235600  0.139900  0.906670  1.0  0.0951
  H  H41  1  0.298800  0.124500  0.828970  1.0  0.0886
  H  H42  1  0.551000  0.239900  0.742970  1.0  0.0953
  H  H43  1  0.616800  0.252300  0.664270  1.0  0.0999
  H  H44  1  0.616900  0.324100  0.585570  1.0  0.0818
  H  H45  1  0.474500  0.350300  0.664970  1.0  0.0842
  H  H46  1  0.249100  0.418300  0.800270  1.0  0.089
  H  H47  1  0.167800  0.299200  0.771970  1.0  0.1021
  H  H48  1  0.211300  0.234300  0.724770  1.0  0.109
  H  H49  1  0.334600  0.281400  0.720570  1.0  0.1025
  H  H50  1  0.612300  0.585900  0.717570  1.0  0.1238
  H  H51  1  0.721000  0.602900  0.753670  1.0  0.0988
  H  H52  1  0.719100  0.524400  0.822270  1.0  0.0928
  H  H53  1  0.461900  0.111800  0.956470  1.0  0.0726
  H  H54  1  0.423100  0.183100  0.995770  1.0  0.1087
  H  H55  1  0.463100  0.297300  0.957570  1.0  0.1214
  H  H56  1  0.575500  0.258300  0.841270  1.0  0.0728
  H  H57  1  0.643500  0.546200  0.480470  1.0  0.084
  H  H58  1  0.668400  0.620300  0.402970  1.0  0.1014
  H  H59  1  0.578200  0.641000  0.370270  1.0  0.1032
  H  H60  1  0.464300  0.552100  0.384370  1.0  0.0923
  H  H61  1  0.259200  0.279400  0.388170  1.0  0.1113
  H  H62  1  0.139900  0.235600  0.426670  1.0  0.0951
  H  H63  1  0.124500  0.298800  0.504370  1.0  0.0937
  H  H64  1  0.239900  0.551000  0.590370  1.0  0.0946
  H  H65  1  0.252300  0.616800  0.669070  1.0  0.1014
  H  H66  1  0.324100  0.616900  0.747770  1.0  0.0823
  H  H67  1  0.350300  0.474500  0.668370  1.0  0.0839
  H  H68  1  0.418300  0.249100  0.533070  1.0  0.0892
  H  H69  1  0.299200  0.167800  0.561370  1.0  0.1033
  H  H70  1  0.234300  0.211300  0.608570  1.0  0.1085
  H  H71  1  0.281400  0.334600  0.612770  1.0  0.1032
  H  H72  1  0.585900  0.612300  0.615770  1.0  0.1249
  H  H73  1  0.602900  0.721000  0.579670  1.0  0.0986
  H  H74  1  0.524400  0.719100  0.511070  1.0  0.0941
  H  H75  1  0.111800  0.461900  0.376870  1.0  0.075
  H  H76  1  0.183100  0.423100  0.337570  1.0  0.108
  H  H77  1  0.297300  0.463100  0.375770  1.0  0.122
  H  H78  1  0.258300  0.575500  0.492070  1.0  0.0714
  H  H79  1  0.097300  0.453800  0.519530  1.0  0.0847
  H  H80  1  0.048100  0.379700  0.597030  1.0  0.1029
  H  H81  1  0.937200  0.359000  0.629730  1.0  0.1033
  H  H82  1  0.912200  0.447900  0.615630  1.0  0.0918
  H  H83  1  0.979800  0.720600  0.611830  1.0  0.1119
  H  H84  1  0.904300  0.764400  0.573330  1.0  0.0971
  H  H85  1  0.825700  0.701200  0.495630  1.0  0.0966
  H  H86  1  0.688900  0.449000  0.409630  1.0  0.095
  H  H87  1  0.635500  0.383200  0.330930  1.0  0.1009
  H  H88  1  0.707200  0.383100  0.252230  1.0  0.0818
  H  H89  1  0.875800  0.525500  0.331630  1.0  0.0838
  H  H90  1  0.169200  0.750900  0.466930  1.0  0.0899
  H  H91  1  0.131400  0.832200  0.438630  1.0  0.1031
  H  H92  1  0.023000  0.788700  0.391430  1.0  0.1093
  H  H93  1  0.946800  0.665400  0.387230  1.0  0.1023
  H  H94  1  0.973600  0.387700  0.384230  1.0  0.124
  H  H95  1  0.881900  0.279000  0.420330  1.0  0.0976
  H  H96  1  0.805300  0.280900  0.488930  1.0  0.0925
  H  H97  1  0.649900  0.538100  0.623130  1.0  0.0753
  H  H98  1  0.760000  0.576900  0.662430  1.0  0.1086
  H  H99  1  0.834200  0.536900  0.624230  1.0  0.1204
  H  H100  1  0.682800  0.424500  0.507930  1.0  0.0729
  H  H101  1  0.902700  0.356500  0.147130  1.0  0.0836
  H  H102  1  0.951900  0.331600  0.069630  1.0  0.1013
  H  H103  1  0.062800  0.421800  0.036930  1.0  0.1016
  H  H104  1  0.087800  0.535700  0.051030  1.0  0.0937
  H  H105  1  0.020200  0.740800  0.054830  1.0  0.1121
  H  H106  1  0.095700  0.860100  0.093330  1.0  0.0962
  H  H107  1  0.174300  0.875500  0.171030  1.0  0.0894
  H  H108  1  0.311100  0.760100  0.257030  1.0  0.0952
  H  H109  1  0.364500  0.747700  0.335730  1.0  0.1003
  H  H110  1  0.292800  0.675900  0.414430  1.0  0.082
  H  H111  1  0.124200  0.649700  0.335030  1.0  0.0843
  H  H112  1  0.830800  0.581700  0.199730  1.0  0.0883
  H  H113  1  0.868600  0.700800  0.228030  1.0  0.102
  H  H114  1  0.977000  0.765700  0.275230  1.0  0.1092
  H  H115  1  0.053200  0.718600  0.279430  1.0  0.1028
  H  H116  1  0.026400  0.414100  0.282430  1.0  0.1241
  H  H117  1  0.118100  0.397100  0.246330  1.0  0.098
  H  H118  1  0.194700  0.475600  0.177730  1.0  0.093
  H  H119  1  0.350100  0.888200  0.043530  1.0  0.0755
  H  H120  1  0.240000  0.816900  0.004230  1.0  0.1077
  H  H121  1  0.165800  0.702700  0.042430  1.0  0.1219
  H  H122  1  0.317200  0.741700  0.158730  1.0  0.0727
  H  H123  1  0.356500  0.902700  0.186200  1.0  0.0847
  H  H124  1  0.331600  0.951900  0.263700  1.0  0.1009
  H  H125  1  0.421800  0.062800  0.296400  1.0  0.1021
  H  H126  1  0.535700  0.087800  0.282300  1.0  0.0923
  H  H127  1  0.740800  0.020200  0.278500  1.0  0.1108
  H  H128  1  0.860100  0.095700  0.240000  1.0  0.0941
  H  H129  1  0.875500  0.174300  0.162300  1.0  0.0931
  H  H130  1  0.760100  0.311100  0.076300  1.0  0.0946
  H  H131  1  0.747700  0.364500  0.997600  1.0  0.1012
  H  H132  1  0.675900  0.292800  0.918900  1.0  0.0825
  H  H133  1  0.649700  0.124200  0.998300  1.0  0.0861
  H  H134  1  0.581700  0.830800  0.133600  1.0  0.0894
  H  H135  1  0.700800  0.868600  0.105300  1.0  0.1027
  H  H136  1  0.765700  0.977000  0.058100  1.0  0.1083
  H  H137  1  0.718600  0.053200  0.053900  1.0  0.1036
  H  H138  1  0.414100  0.026400  0.050900  1.0  0.1247
  H  H139  1  0.397100  0.118100  0.087000  1.0  0.0988
  H  H140  1  0.475600  0.194700  0.155600  1.0  0.0942
  H  H141  1  0.888200  0.350100  0.289800  1.0  0.0757
  H  H142  1  0.816900  0.240000  0.329100  1.0  0.1083
  H  H143  1  0.702700  0.165800  0.290900  1.0  0.1208
  H  H144  1  0.741700  0.317200  0.174600  1.0  0.0729
  C  C145  1  0.454800  0.061000  0.792200  1.0  0.1404
  C  C146  1  0.407200  0.028600  0.749900  1.0  -0.1502
  C  C147  1  0.398700  0.966800  0.726700  1.0  -0.142
  C  C148  1  0.448500  0.950300  0.737800  1.0  -0.1347
  C  C149  1  0.502600  0.988000  0.778900  1.0  0.4508
  C  C150  1  0.602600  0.980100  0.762200  1.0  0.5336
  C  C151  1  0.641000  0.942600  0.780300  1.0  0.1817
  C  C152  1  0.698600  0.948700  0.752900  1.0  -0.1165
  C  C153  1  0.723800  0.903200  0.775800  1.0  -0.0779
  C  C154  1  0.686500  0.856700  0.822600  1.0  -0.1153
  C  C155  1  0.631300  0.857900  0.844400  1.0  0.1697
  C  C156  1  0.586500  0.812900  0.895500  1.0  0.5446
  C  C157  1  0.490200  0.787600  0.953100  1.0  0.1631
  C  C158  1  0.449800  0.716600  0.955400  1.0  -0.1372
  C  C159  1  0.411700  0.685500  0.001000  1.0  -0.1411
  C  C160  1  0.413500  0.728200  0.049200  1.0  0.1127
  C  C161  1  0.494600  0.826000  0.001800  1.0  0.1384
  C  C162  1  0.733700  0.123300  0.882000  1.0  0.1428
  C  C163  1  0.782900  0.101600  0.900500  1.0  -0.137
  C  C164  1  0.757400  0.037100  0.926600  1.0  -0.1321
  C  C165  1  0.684300  0.992600  0.930000  1.0  -0.1502
  C  C166  1  0.639300  0.015800  0.909800  1.0  0.3743
  C  C167  1  0.520300  0.988800  0.924400  1.0  0.5134
  C  C168  1  0.447800  0.935400  0.909400  1.0  0.1657
  C  C169  1  0.385700  0.937800  0.924800  1.0  -0.1077
  C  C170  1  0.322500  0.885100  0.902300  1.0  -0.1288
  C  C171  1  0.323200  0.837000  0.863900  1.0  -0.109
  C  C172  1  0.379000  0.834200  0.854200  1.0  0.1732
  C  C173  1  0.391600  0.787800  0.811300  1.0  0.5813
  C  C174  1  0.522400  0.679700  0.726200  1.0  0.1481
  C  C175  1  0.545700  0.745000  0.702800  1.0  -0.1538
  C  C176  1  0.523500  0.789700  0.726100  1.0  -0.1035
  C  C177  1  0.480900  0.766900  0.775300  1.0  0.1654
  C  C178  1  0.457100  0.699700  0.794400  1.0  0.1038
  C  C179  1  0.545200  0.606200  0.874470  1.0  0.1412
  C  C180  1  0.592800  0.621400  0.916770  1.0  -0.1504
  C  C181  1  0.601300  0.568100  0.939970  1.0  -0.1414
  C  C182  1  0.551500  0.501800  0.928870  1.0  -0.1351
  C  C183  1  0.497400  0.485400  0.887770  1.0  0.4482
  C  C184  1  0.397400  0.377500  0.904470  1.0  0.5336
  C  C185  1  0.359000  0.301600  0.886370  1.0  0.1832
  C  C186  1  0.301400  0.250100  0.913770  1.0  -0.1164
  C  C187  1  0.276200  0.179400  0.890870  1.0  -0.0784
  C  C188  1  0.313500  0.170200  0.844070  1.0  -0.1099
  C  C189  1  0.368700  0.226600  0.822270  1.0  0.1659
  C  C190  1  0.413500  0.226400  0.771170  1.0  0.5459
  C  C191  1  0.509800  0.297400  0.713570  1.0  0.1611
  C  C192  1  0.550200  0.266800  0.711270  1.0  -0.137
  C  C193  1  0.588300  0.273800  0.665670  1.0  -0.1365
  C  C194  1  0.586500  0.314700  0.617470  1.0  0.1154
  C  C195  1  0.505400  0.331400  0.664870  1.0  0.1378
  C  C196  1  0.266300  0.389600  0.784670  1.0  0.1422
  C  C197  1  0.217100  0.318700  0.766170  1.0  -0.1381
  C  C198  1  0.242600  0.279700  0.740070  1.0  -0.1324
  C  C199  1  0.315700  0.308300  0.736670  1.0  -0.1537
  C  C200  1  0.360700  0.376500  0.756870  1.0  0.3741
  C  C201  1  0.479700  0.468500  0.742270  1.0  0.515
  C  C202  1  0.552200  0.487600  0.757270  1.0  0.1656
  C  C203  1  0.614300  0.552100  0.741870  1.0  -0.1109
  C  C204  1  0.677500  0.562600  0.764370  1.0  -0.1279
  C  C205  1  0.676800  0.513800  0.802770  1.0  -0.1036
  C  C206  1  0.621000  0.455200  0.812470  1.0  0.1708
  C  C207  1  0.608400  0.396200  0.855370  1.0  0.5825
  C  C208  1  0.477600  0.157300  0.940470  1.0  0.1496
  C  C209  1  0.454300  0.199300  0.963870  1.0  -0.1543
  C  C210  1  0.476500  0.266200  0.940570  1.0  -0.1042
  C  C211  1  0.519100  0.286000  0.891370  1.0  0.1654
  C  C212  1  0.542900  0.242600  0.872270  1.0  0.102
  C  C213  1  0.606200  0.545200  0.458870  1.0  0.1412
  C  C214  1  0.621400  0.592800  0.416570  1.0  -0.1486
  C  C215  1  0.568100  0.601300  0.393370  1.0  -0.1472
  C  C216  1  0.501800  0.551500  0.404470  1.0  -0.1345
  C  C217  1  0.485400  0.497400  0.445570  1.0  0.4482
  C  C218  1  0.377500  0.397400  0.428870  1.0  0.5301
  C  C219  1  0.301600  0.359000  0.446970  1.0  0.1789
  C  C220  1  0.250100  0.301400  0.419570  1.0  -0.1155
  C  C221  1  0.179400  0.276200  0.442470  1.0  -0.0771
  C  C222  1  0.170200  0.313500  0.489270  1.0  -0.1125
  C  C223  1  0.226600  0.368700  0.511070  1.0  0.1682
  C  C224  1  0.226400  0.413500  0.562170  1.0  0.5429
  C  C225  1  0.297400  0.509800  0.619770  1.0  0.163
  C  C226  1  0.266800  0.550200  0.622070  1.0  -0.1358
  C  C227  1  0.273800  0.588300  0.667670  1.0  -0.1383
  C  C228  1  0.314700  0.586500  0.715870  1.0  0.1163
  C  C229  1  0.331400  0.505400  0.668470  1.0  0.1377
  C  C230  1  0.389600  0.266300  0.548670  1.0  0.1445
  C  C231  1  0.318700  0.217100  0.567170  1.0  -0.1353
  C  C232  1  0.279700  0.242600  0.593270  1.0  -0.1303
  C  C233  1  0.308300  0.315700  0.596670  1.0  -0.1546
  C  C234  1  0.376500  0.360700  0.576470  1.0  0.3738
  C  C235  1  0.468500  0.479700  0.591070  1.0  0.5137
  C  C236  1  0.487600  0.552200  0.576070  1.0  0.1654
  C  C237  1  0.552100  0.614300  0.591470  1.0  -0.1089
  C  C238  1  0.562600  0.677500  0.568970  1.0  -0.1302
  C  C239  1  0.513800  0.676800  0.530570  1.0  -0.1066
  C  C240  1  0.455200  0.621000  0.520870  1.0  0.1741
  C  C241  1  0.396200  0.608400  0.477970  1.0  0.5884
  C  C242  1  0.157300  0.477600  0.392870  1.0  0.1475
  C  C243  1  0.199300  0.454300  0.369470  1.0  -0.1513
  C  C244  1  0.266200  0.476500  0.392770  1.0  -0.1044
  C  C245  1  0.286000  0.519100  0.441970  1.0  0.1674
  C  C246  1  0.242600  0.542900  0.461070  1.0  0.102
  C  C247  1  0.061000  0.454800  0.541130  1.0  0.1413
  C  C248  1  0.028600  0.407200  0.583430  1.0  -0.1501
  C  C249  1  0.966800  0.398700  0.606630  1.0  -0.1474
  C  C250  1  0.950300  0.448500  0.595530  1.0  -0.1373
  C  C251  1  0.988000  0.502600  0.554430  1.0  0.4499
  C  C252  1  0.980100  0.602600  0.571130  1.0  0.5322
  C  C253  1  0.942600  0.641000  0.553030  1.0  0.1825
  C  C254  1  0.948700  0.698600  0.580430  1.0  -0.1143
  C  C255  1  0.903200  0.723800  0.557530  1.0  -0.0761
  C  C256  1  0.856700  0.686500  0.510730  1.0  -0.1117
  C  C257  1  0.857900  0.631300  0.488930  1.0  0.1675
  C  C258  1  0.812900  0.586500  0.437830  1.0  0.5412
  C  C259  1  0.787600  0.490200  0.380230  1.0  0.1624
  C  C260  1  0.716600  0.449800  0.377930  1.0  -0.1358
  C  C261  1  0.685500  0.411700  0.332330  1.0  -0.1388
  C  C262  1  0.728200  0.413500  0.284130  1.0  0.1159
  C  C263  1  0.826000  0.494600  0.331530  1.0  0.1375
  C  C264  1  0.123300  0.733700  0.451330  1.0  0.1454
  C  C265  1  0.101600  0.782900  0.432830  1.0  -0.1262
  C  C266  1  0.037100  0.757400  0.406730  1.0  -0.1296
  C  C267  1  0.992600  0.684300  0.403330  1.0  -0.154
  C  C268  1  0.015800  0.639300  0.423530  1.0  0.3742
  C  C269  1  0.988800  0.520300  0.408930  1.0  0.5145
  C  C270  1  0.935400  0.447800  0.423930  1.0  0.1654
  C  C271  1  0.937800  0.385700  0.408530  1.0  -0.1073
  C  C272  1  0.885100  0.322500  0.431030  1.0  -0.1299
  C  C273  1  0.837000  0.323200  0.469430  1.0  -0.1085
  C  C274  1  0.834200  0.379000  0.479130  1.0  0.1749
  C  C275  1  0.787800  0.391600  0.522030  1.0  0.5891
  C  C276  1  0.679700  0.522400  0.607130  1.0  0.1482
  C  C277  1  0.745000  0.545700  0.630530  1.0  -0.1513
  C  C278  1  0.789700  0.523500  0.607230  1.0  -0.1042
  C  C279  1  0.766900  0.480900  0.558030  1.0  0.1673
  C  C280  1  0.699700  0.457100  0.538930  1.0  0.1029
  C  C281  1  0.939000  0.393800  0.125530  1.0  0.142
  C  C282  1  0.971400  0.378600  0.083230  1.0  -0.1511
  C  C283  1  0.033200  0.431900  0.060030  1.0  -0.1428
  C  C284  1  0.049700  0.498200  0.071130  1.0  -0.1357
  C  C285  1  0.012000  0.514600  0.112230  1.0  0.4486
  C  C286  1  0.019900  0.622500  0.095530  1.0  0.5354
  C  C287  1  0.057400  0.698400  0.113630  1.0  0.1805
  C  C288  1  0.051300  0.749900  0.086230  1.0  -0.116
  C  C289  1  0.096800  0.820600  0.109130  1.0  -0.079
  C  C290  1  0.143300  0.829800  0.155930  1.0  -0.1067
  C  C291  1  0.142100  0.773400  0.177730  1.0  0.166
  C  C292  1  0.187100  0.773600  0.228830  1.0  0.5426
  C  C293  1  0.212400  0.702600  0.286430  1.0  0.1627
  C  C294  1  0.283400  0.733200  0.288730  1.0  -0.1361
  C  C295  1  0.314500  0.726200  0.334330  1.0  -0.1375
  C  C296  1  0.271800  0.685300  0.382530  1.0  0.1149
  C  C297  1  0.174000  0.668600  0.335130  1.0  0.1373
  C  C298  1  0.876700  0.610400  0.215330  1.0  0.1428
  C  C299  1  0.898400  0.681300  0.233830  1.0  -0.1393
  C  C300  1  0.962900  0.720300  0.259930  1.0  -0.1292
  C  C301  1  0.007400  0.691700  0.263330  1.0  -0.1534
  C  C302  1  0.984200  0.623500  0.243130  1.0  0.3736
  C  C303  1  0.011200  0.531500  0.257730  1.0  0.514
  C  C304  1  0.064600  0.512400  0.242730  1.0  0.1653
  C  C305  1  0.062200  0.447900  0.258130  1.0  -0.1091
  C  C306  1  0.114900  0.437400  0.235630  1.0  -0.1288
  C  C307  1  0.163000  0.486200  0.197230  1.0  -0.1016
  C  C308  1  0.165800  0.544800  0.187530  1.0  0.1703
  C  C309  1  0.212200  0.603800  0.144630  1.0  0.5805
  C  C310  1  0.320300  0.842700  0.059530  1.0  0.1486
  C  C311  1  0.255000  0.800700  0.036130  1.0  -0.1527
  C  C312  1  0.210300  0.733800  0.059430  1.0  -0.1036
  C  C313  1  0.233100  0.714000  0.108630  1.0  0.1658
  C  C314  1  0.300300  0.757400  0.127730  1.0  0.1015
  C  C315  1  0.393800  0.939000  0.207800  1.0  0.1408
  C  C316  1  0.378600  0.971400  0.250100  1.0  -0.1507
  C  C317  1  0.431900  0.033200  0.273300  1.0  -0.1427
  C  C318  1  0.498200  0.049700  0.262200  1.0  -0.136
  C  C319  1  0.514600  0.012000  0.221100  1.0  0.4522
  C  C320  1  0.622500  0.019900  0.237800  1.0  0.5331
  C  C321  1  0.698400  0.057400  0.219700  1.0  0.1832
  C  C322  1  0.749900  0.051300  0.247100  1.0  -0.1175
  C  C323  1  0.820600  0.096800  0.224200  1.0  -0.0772
  C  C324  1  0.829800  0.143300  0.177400  1.0  -0.1149
  C  C325  1  0.773400  0.142100  0.155600  1.0  0.1684
  C  C326  1  0.773600  0.187100  0.104500  1.0  0.5432
  C  C327  1  0.702600  0.212400  0.046900  1.0  0.1615
  C  C328  1  0.733200  0.283400  0.044600  1.0  -0.1381
  C  C329  1  0.726200  0.314500  0.999000  1.0  -0.1358
  C  C330  1  0.685300  0.271800  0.950800  1.0  0.1119
  C  C331  1  0.668600  0.174000  0.998200  1.0  0.1373
  C  C332  1  0.610400  0.876700  0.118000  1.0  0.1424
  C  C333  1  0.681300  0.898400  0.099500  1.0  -0.1375
  C  C334  1  0.720300  0.962900  0.073400  1.0  -0.1327
  C  C335  1  0.691700  0.007400  0.070000  1.0  -0.1498
  C  C336  1  0.623500  0.984200  0.090200  1.0  0.374
  C  C337  1  0.531500  0.011200  0.075600  1.0  0.5142
  C  C338  1  0.512400  0.064600  0.090600  1.0  0.1649
  C  C339  1  0.447900  0.062200  0.075200  1.0  -0.1074
  C  C340  1  0.437400  0.114900  0.097700  1.0  -0.1283
  C  C341  1  0.486200  0.163000  0.136100  1.0  -0.1096
  C  C342  1  0.544800  0.165800  0.145800  1.0  0.1733
  C  C343  1  0.603800  0.212200  0.188700  1.0  0.5824
  C  C344  1  0.842700  0.320300  0.273800  1.0  0.1489
  C  C345  1  0.800700  0.255000  0.297200  1.0  -0.1538
  C  C346  1  0.733800  0.210300  0.273900  1.0  -0.1055
  C  C347  1  0.714000  0.233100  0.224700  1.0  0.165
  C  C348  1  0.757400  0.300300  0.205600  1.0  0.1042
  N  N349  1  0.503200  0.042600  0.804200  1.0  -0.3813
  N  N350  1  0.545300  0.962000  0.794100  1.0  -0.3264
  N  N351  1  0.608100  0.898000  0.822600  1.0  -0.2565
  N  N352  1  0.535500  0.823000  0.904700  1.0  -0.337
  N  N353  1  0.457500  0.795700  0.047800  1.0  -0.3438
  N  N354  1  0.663200  0.078800  0.886900  1.0  -0.3677
  N  N355  1  0.566300  0.967900  0.908000  1.0  -0.4071
  N  N356  1  0.442200  0.882900  0.877200  1.0  -0.2947
  N  N357  1  0.459900  0.810900  0.804000  1.0  -0.4129
  N  N358  1  0.477500  0.656000  0.771600  1.0  -0.3684
  N  N359  1  0.496800  0.539400  0.862470  1.0  -0.3798
  N  N360  1  0.454700  0.416700  0.872570  1.0  -0.3262
  N  N361  1  0.391900  0.289900  0.844070  1.0  -0.2583
  N  N362  1  0.464500  0.287500  0.761970  1.0  -0.3364
  N  N363  1  0.542500  0.338200  0.618870  1.0  -0.342
  N  N364  1  0.336800  0.415600  0.779770  1.0  -0.3663
  N  N365  1  0.433700  0.401600  0.758670  1.0  -0.4091
  N  N366  1  0.557800  0.440700  0.789470  1.0  -0.2917
  N  N367  1  0.540100  0.351000  0.862670  1.0  -0.4131
  N  N368  1  0.522500  0.178500  0.895070  1.0  -0.3697
  N  N369  1  0.539400  0.496800  0.470870  1.0  -0.3777
  N  N370  1  0.416700  0.454700  0.460770  1.0  -0.3263
  N  N371  1  0.289900  0.391900  0.489270  1.0  -0.2603
  N  N372  1  0.287500  0.464500  0.571370  1.0  -0.337
  N  N373  1  0.338200  0.542500  0.714470  1.0  -0.3382
  N  N374  1  0.415600  0.336800  0.553570  1.0  -0.3672
  N  N375  1  0.401600  0.433700  0.574670  1.0  -0.4077
  N  N376  1  0.440700  0.557800  0.543870  1.0  -0.2947
  N  N377  1  0.351000  0.540100  0.470670  1.0  -0.4129
  N  N378  1  0.178500  0.522500  0.438270  1.0  -0.37
  N  N379  1  0.042600  0.503200  0.529130  1.0  -0.3786
  N  N380  1  0.962000  0.545300  0.539230  1.0  -0.3258
  N  N381  1  0.898000  0.608100  0.510730  1.0  -0.2599
  N  N382  1  0.823000  0.535500  0.428630  1.0  -0.3375
  N  N383  1  0.795700  0.457500  0.285530  1.0  -0.3385
  N  N384  1  0.078800  0.663200  0.446430  1.0  -0.3668
  N  N385  1  0.967900  0.566300  0.425330  1.0  -0.4081
  N  N386  1  0.882900  0.442200  0.456130  1.0  -0.2955
  N  N387  1  0.810900  0.459900  0.529330  1.0  -0.4148
  N  N388  1  0.656000  0.477500  0.561730  1.0  -0.3708
  N  N389  1  0.957400  0.460600  0.137530  1.0  -0.3789
  N  N390  1  0.038000  0.583300  0.127430  1.0  -0.326
  N  N391  1  0.102000  0.710100  0.155930  1.0  -0.2583
  N  N392  1  0.177000  0.712500  0.238030  1.0  -0.3357
  N  N393  1  0.204300  0.661800  0.381130  1.0  -0.3415
  N  N394  1  0.921200  0.584400  0.220230  1.0  -0.3648
  N  N395  1  0.032100  0.598400  0.241330  1.0  -0.4085
  N  N396  1  0.117100  0.559300  0.210530  1.0  -0.2913
  N  N397  1  0.189100  0.649000  0.137330  1.0  -0.4124
  N  N398  1  0.344000  0.821500  0.104930  1.0  -0.3695
  N  N399  1  0.460600  0.957400  0.195800  1.0  -0.3798
  N  N400  1  0.583300  0.038000  0.205900  1.0  -0.3266
  N  N401  1  0.710100  0.102000  0.177400  1.0  -0.2547
  N  N402  1  0.712500  0.177000  0.095300  1.0  -0.337
  N  N403  1  0.661800  0.204300  0.952200  1.0  -0.3438
  N  N404  1  0.584400  0.921200  0.113100  1.0  -0.3665
  N  N405  1  0.598400  0.032100  0.092000  1.0  -0.4068
  N  N406  1  0.559300  0.117100  0.122800  1.0  -0.2939
  N  N407  1  0.649000  0.189100  0.196000  1.0  -0.4145
  N  N408  1  0.821500  0.344000  0.228400  1.0  -0.3691
  Cl  Cl409  1  0.664530  0.215830  0.795710  1.0  -0.5797
  Cl  Cl410  1  0.335470  0.551300  0.870960  1.0  -0.5799
  Cl  Cl411  1  0.551300  0.335470  0.462380  1.0  -0.5773
  Cl  Cl412  1  0.215830  0.664530  0.537620  1.0  -0.5769
  Cl  Cl413  1  0.784170  0.448700  0.129040  1.0  -0.5837
  Cl  Cl414  1  0.448700  0.784170  0.204290  1.0  -0.5774
  O  O415  1  0.628000  0.025100  0.722600  1.0  -0.5318
  O  O416  1  0.603500  0.772100  0.920200  1.0  -0.6009
  O  O417  1  0.533800  0.046100  0.947800  1.0  -0.6435
  O  O418  1  0.340900  0.736800  0.788200  1.0  -0.5373
  O  O419  1  0.372000  0.397100  0.944070  1.0  -0.5224
  O  O420  1  0.396500  0.168600  0.746470  1.0  -0.5987
  O  O421  1  0.466200  0.512300  0.718870  1.0  -0.64
  O  O422  1  0.659100  0.395900  0.878470  1.0  -0.5372
  O  O423  1  0.397100  0.372000  0.389270  1.0  -0.5302
  O  O424  1  0.168600  0.396500  0.586870  1.0  -0.5973
  O  O425  1  0.512300  0.466200  0.614470  1.0  -0.6443
  O  O426  1  0.395900  0.659100  0.454870  1.0  -0.5358
  O  O427  1  0.025100  0.628000  0.610730  1.0  -0.5358
  O  O428  1  0.772100  0.603500  0.413130  1.0  -0.5998
  O  O429  1  0.046100  0.533800  0.385530  1.0  -0.6443
  O  O430  1  0.736800  0.340900  0.545130  1.0  -0.5338
  O  O431  1  0.974900  0.602900  0.055930  1.0  -0.529
  O  O432  1  0.227900  0.831400  0.253530  1.0  -0.5993
  O  O433  1  0.953900  0.487700  0.281130  1.0  -0.6414
  O  O434  1  0.263200  0.604100  0.121530  1.0  -0.5362
  O  O435  1  0.602900  0.974900  0.277400  1.0  -0.5342
  O  O436  1  0.831400  0.227900  0.079800  1.0  -0.6005
  O  O437  1  0.487700  0.953900  0.052200  1.0  -0.6444
  O  O438  1  0.604100  0.263200  0.211800  1.0  -0.5367
