# generated using pymatgen
data_CdH14C22N3O2
_symmetry_space_group_name_H-M   'P 1'
_cell_length_a   11.39200000
_cell_length_b   15.56840000
_cell_length_c   17.66850000
_cell_angle_alpha   82.41520000
_cell_angle_beta   71.19300000
_cell_angle_gamma   68.53890000
_symmetry_Int_Tables_number   1
_chemical_formula_structural   CdH14C22N3O2
_chemical_formula_sum   'Cd4 H56 C88 N12 O8'
_cell_volume   2760.28176256
_cell_formula_units_Z   4
loop_
 _symmetry_equiv_pos_site_id
 _symmetry_equiv_pos_as_xyz
  1  'x, y, z'
loop_
 _atom_site_type_symbol
 _atom_site_label
 _atom_site_symmetry_multiplicity
 _atom_site_fract_x
 _atom_site_fract_y
 _atom_site_fract_z
 _atom_site_occupancy
 _atom_site_charge
  Cd  Cd1  1  0.150410  0.085870  0.544350  1.0  0.4037
  Cd  Cd2  1  0.219370  0.585870  0.044350  1.0  0.4026
  Cd  Cd3  1  0.780630  0.414130  0.955650  1.0  0.4023
  Cd  Cd4  1  0.849590  0.914130  0.455650  1.0  0.4
  H  H5  1  0.509700  0.213700  0.378700  1.0  0.0984
  H  H6  1  0.594500  0.334400  0.338000  1.0  0.109
  H  H7  1  0.276300  0.501300  0.498700  1.0  0.1094
  H  H8  1  0.191500  0.380800  0.532400  1.0  0.0945
  H  H9  1  0.683300  0.434700  0.318100  1.0  0.1165
  H  H10  1  0.844600  0.445100  0.202900  1.0  0.1223
  H  H11  1  0.043300  0.446900  0.113100  1.0  0.0765
  H  H12  1  0.021100  0.665600  0.212800  1.0  0.0894
  H  H13  1  0.819400  0.672200  0.304800  1.0  0.1178
  H  H14  1  0.340700  0.606600  0.453200  1.0  0.1101
  H  H15  1  0.554000  0.811100  0.389700  1.0  0.1088
  H  H16  1  0.439700  0.953500  0.448700  1.0  0.0706
  H  H17  1  0.120700  0.888900  0.542300  1.0  0.0442
  H  H18  1  0.227400  0.742900  0.488900  1.0  0.1254
  H  H19  1  0.897900  0.713700  0.878700  1.0  0.098
  H  H20  1  0.733100  0.834400  0.838000  1.0  0.1095
  H  H21  1  0.723700  0.001300  0.998700  1.0  0.1087
  H  H22  1  0.895300  0.880800  0.032400  1.0  0.0955
  H  H23  1  0.563900  0.934700  0.818100  1.0  0.1154
  H  H24  1  0.507400  0.945100  0.702900  1.0  0.1236
  H  H25  1  0.396700  0.946900  0.613100  1.0  0.0747
  H  H26  1  0.100500  0.165600  0.712800  1.0  0.0891
  H  H27  1  0.203600  0.172200  0.804800  1.0  0.1194
  H  H28  1  0.599500  0.106600  0.953200  1.0  0.1095
  H  H29  1  0.245200  0.311100  0.889700  1.0  0.1085
  H  H30  1  0.158100  0.453500  0.948700  1.0  0.0709
  H  H31  1  0.448100  0.388900  0.042300  1.0  0.0475
  H  H32  1  0.540800  0.242900  0.988900  1.0  0.1263
  H  H33  1  0.102100  0.286300  0.121300  1.0  0.0986
  H  H34  1  0.266900  0.165600  0.162000  1.0  0.1098
  H  H35  1  0.276300  0.998700  0.001300  1.0  0.1076
  H  H36  1  0.104700  0.119200  0.967600  1.0  0.096
  H  H37  1  0.436100  0.065300  0.181900  1.0  0.1169
  H  H38  1  0.492600  0.054900  0.297100  1.0  0.1233
  H  H39  1  0.603300  0.053100  0.386900  1.0  0.0761
  H  H40  1  0.899500  0.834400  0.287200  1.0  0.0891
  H  H41  1  0.796400  0.827800  0.195200  1.0  0.119
  H  H42  1  0.400500  0.893400  0.046800  1.0  0.1095
  H  H43  1  0.754800  0.688900  0.110300  1.0  0.1083
  H  H44  1  0.841900  0.546500  0.051300  1.0  0.0709
  H  H45  1  0.551900  0.611100  0.957700  1.0  0.0454
  H  H46  1  0.459200  0.757100  0.011100  1.0  0.1266
  H  H47  1  0.490300  0.786300  0.621300  1.0  0.0985
  H  H48  1  0.405500  0.665600  0.662000  1.0  0.1092
  H  H49  1  0.723700  0.498700  0.501300  1.0  0.1101
  H  H50  1  0.808500  0.619200  0.467600  1.0  0.0941
  H  H51  1  0.316700  0.565300  0.681900  1.0  0.1177
  H  H52  1  0.155400  0.554900  0.797100  1.0  0.123
  H  H53  1  0.956700  0.553100  0.886900  1.0  0.0769
  H  H54  1  0.978900  0.334400  0.787200  1.0  0.0891
  H  H55  1  0.180600  0.327800  0.695200  1.0  0.117
  H  H56  1  0.659300  0.393400  0.546800  1.0  0.1109
  H  H57  1  0.446000  0.188900  0.610300  1.0  0.1093
  H  H58  1  0.560300  0.046500  0.551300  1.0  0.0708
  H  H59  1  0.879300  0.111100  0.457700  1.0  0.0466
  H  H60  1  0.772600  0.257100  0.511100  1.0  0.1264
  C  C61  1  0.289100  0.207800  0.484400  1.0  0.6462
  C  C62  1  0.340500  0.287200  0.459200  1.0  -0.1288
  C  C63  1  0.461000  0.272800  0.402200  1.0  -0.0584
  C  C64  1  0.512400  0.344900  0.378700  1.0  -0.1299
  C  C65  1  0.446100  0.430300  0.413500  1.0  0.0146
  C  C66  1  0.324400  0.443700  0.472700  1.0  -0.1354
  C  C67  1  0.274800  0.370900  0.493100  1.0  -0.0181
  C  C68  1  0.503000  0.506700  0.390500  1.0  0.1001
  C  C69  1  0.628200  0.494100  0.339500  1.0  -0.2166
  C  C70  1  0.674100  0.568100  0.319500  1.0  0.2334
  C  C71  1  0.807600  0.558800  0.263600  1.0  0.0618
  C  C72  1  0.877500  0.492200  0.205800  1.0  -0.1904
  C  C73  1  0.996100  0.494000  0.151800  1.0  0.1615
  C  C74  1  0.982900  0.621600  0.209800  1.0  0.159
  C  C75  1  0.863300  0.625300  0.265700  1.0  -0.1618
  C  C76  1  0.428600  0.594600  0.419200  1.0  -0.2072
  C  C77  1  0.479200  0.665600  0.399400  1.0  0.2325
  C  C78  1  0.405500  0.759600  0.433000  1.0  0.0577
  C  C79  1  0.464600  0.824900  0.421700  1.0  -0.1621
  C  C80  1  0.395100  0.910500  0.456700  1.0  0.1546
  C  C81  1  0.210700  0.872500  0.511100  1.0  0.1292
  C  C82  1  0.273500  0.785100  0.479300  1.0  -0.2082
  C  C83  1  0.018700  0.707800  0.984400  1.0  0.6457
  C  C84  1  0.913100  0.787200  0.959200  1.0  -0.1283
  C  C85  1  0.864000  0.772800  0.902200  1.0  -0.0526
  C  C86  1  0.764000  0.844900  0.878700  1.0  -0.126
  C  C87  1  0.710100  0.930300  0.913500  1.0  0.0025
  C  C88  1  0.759200  0.943700  0.972700  1.0  -0.137
  C  C89  1  0.861200  0.870900  0.993100  1.0  -0.025
  C  C90  1  0.599800  0.006700  0.890500  1.0  0.1002
  C  C91  1  0.538200  0.994100  0.839500  1.0  -0.2157
  C  C92  1  0.438300  0.068100  0.819500  1.0  0.232
  C  C93  1  0.370000  0.058800  0.763600  1.0  0.0636
  C  C94  1  0.424500  0.992200  0.705800  1.0  -0.19
  C  C95  1  0.358100  0.994000  0.651800  1.0  0.1645
  C  C96  1  0.185700  0.121600  0.709800  1.0  0.1584
  C  C97  1  0.245700  0.125300  0.765700  1.0  -0.1596
  C  C98  1  0.557600  0.094600  0.919200  1.0  -0.2076
  C  C99  1  0.455800  0.165600  0.899400  1.0  0.2316
  C  C100  1  0.401900  0.259600  0.933000  1.0  0.0485
  C  C101  1  0.288800  0.324900  0.921700  1.0  -0.159
  C  C102  1  0.237700  0.410500  0.956700  1.0  0.1571
  C  C103  1  0.405700  0.372500  0.011100  1.0  0.1234
  C  C104  1  0.462100  0.285100  0.979300  1.0  -0.2082
  C  C105  1  0.981300  0.292200  0.015600  1.0  0.6438
  C  C106  1  0.086900  0.212800  0.040800  1.0  -0.1296
  C  C107  1  0.136000  0.227200  0.097800  1.0  -0.0553
  C  C108  1  0.236000  0.155100  0.121300  1.0  -0.1266
  C  C109  1  0.289900  0.069700  0.086500  1.0  0.0041
  C  C110  1  0.240800  0.056300  0.027300  1.0  -0.1374
  C  C111  1  0.138800  0.129100  0.006900  1.0  -0.0244
  C  C112  1  0.400200  0.993300  0.109500  1.0  0.1026
  C  C113  1  0.461800  0.005900  0.160500  1.0  -0.2165
  C  C114  1  0.561700  0.931900  0.180500  1.0  0.2321
  C  C115  1  0.630000  0.941200  0.236400  1.0  0.0642
  C  C116  1  0.575500  0.007800  0.294200  1.0  -0.187
  C  C117  1  0.641900  0.006000  0.348200  1.0  0.1649
  C  C118  1  0.814300  0.878400  0.290200  1.0  0.1559
  C  C119  1  0.754300  0.874700  0.234300  1.0  -0.1599
  C  C120  1  0.442400  0.905400  0.080800  1.0  -0.2007
  C  C121  1  0.544200  0.834400  0.100600  1.0  0.2316
  C  C122  1  0.598100  0.740400  0.067000  1.0  0.0555
  C  C123  1  0.711200  0.675100  0.078300  1.0  -0.1612
  C  C124  1  0.762300  0.589500  0.043300  1.0  0.1559
  C  C125  1  0.594300  0.627500  0.988900  1.0  0.1235
  C  C126  1  0.537900  0.714900  0.020700  1.0  -0.2081
  C  C127  1  0.710900  0.792200  0.515600  1.0  0.6562
  C  C128  1  0.659500  0.712800  0.540800  1.0  -0.1253
  C  C129  1  0.539000  0.727200  0.597800  1.0  -0.0587
  C  C130  1  0.487600  0.655100  0.621300  1.0  -0.1298
  C  C131  1  0.553900  0.569700  0.586500  1.0  0.0151
  C  C132  1  0.675600  0.556300  0.527300  1.0  -0.1378
  C  C133  1  0.725200  0.629100  0.506900  1.0  -0.0201
  C  C134  1  0.497000  0.493300  0.609500  1.0  0.102
  C  C135  1  0.371800  0.505900  0.660500  1.0  -0.217
  C  C136  1  0.325900  0.431900  0.680500  1.0  0.2336
  C  C137  1  0.192400  0.441200  0.736400  1.0  0.063
  C  C138  1  0.122500  0.507800  0.794200  1.0  -0.1894
  C  C139  1  0.003900  0.506000  0.848200  1.0  0.1611
  C  C140  1  0.017100  0.378400  0.790200  1.0  0.1589
  C  C141  1  0.136700  0.374700  0.734300  1.0  -0.1597
  C  C142  1  0.571400  0.405400  0.580800  1.0  -0.2067
  C  C143  1  0.520800  0.334400  0.600600  1.0  0.2348
  C  C144  1  0.594500  0.240400  0.567000  1.0  0.0569
  C  C145  1  0.535400  0.175100  0.578300  1.0  -0.1602
  C  C146  1  0.604900  0.089500  0.543300  1.0  0.1569
  C  C147  1  0.789300  0.127500  0.488900  1.0  0.1254
  C  C148  1  0.726500  0.214900  0.520700  1.0  -0.2063
  N  N149  1  0.600200  0.653000  0.349400  1.0  -0.4055
  N  N150  1  0.046800  0.558700  0.151700  1.0  -0.2912
  N  N151  1  0.270300  0.935500  0.500300  1.0  -0.2853
  N  N152  1  0.397400  0.153000  0.849400  1.0  -0.4064
  N  N153  1  0.242800  0.058700  0.651700  1.0  -0.2956
  N  N154  1  0.293900  0.435500  0.000300  1.0  -0.2886
  N  N155  1  0.602600  0.847000  0.150600  1.0  -0.4073
  N  N156  1  0.757200  0.941300  0.348300  1.0  -0.2948
  N  N157  1  0.706100  0.564500  0.999700  1.0  -0.2861
  N  N158  1  0.399800  0.347000  0.650600  1.0  -0.4069
  N  N159  1  0.953200  0.441300  0.848300  1.0  -0.2921
  N  N160  1  0.729700  0.064500  0.499700  1.0  -0.2862
  O  O161  1  0.357900  0.128300  0.463500  1.0  -0.5657
  O  O162  1  0.168300  0.230000  0.529800  1.0  -0.579
  O  O163  1  0.050300  0.628300  0.963500  1.0  -0.5638
  O  O164  1  0.071900  0.730000  0.029800  1.0  -0.582
  O  O165  1  0.949700  0.371700  0.036500  1.0  -0.5632
  O  O166  1  0.928100  0.270000  0.970200  1.0  -0.5823
  O  O167  1  0.642100  0.871700  0.536500  1.0  -0.565
  O  O168  1  0.831700  0.770000  0.470200  1.0  -0.5809
