# generated using pymatgen
data_Cd3H14(C5O2)6
_symmetry_space_group_name_H-M   'P 1'
_cell_length_a   20.04070000
_cell_length_b   10.06740000
_cell_length_c   18.92730000
_cell_angle_alpha   90.00000000
_cell_angle_beta   101.30000000
_cell_angle_gamma   90.00000000
_symmetry_Int_Tables_number   1
_chemical_formula_structural   Cd3H14(C5O2)6
_chemical_formula_sum   'Cd12 H56 C120 O48'
_cell_volume   3744.70196046
_cell_formula_units_Z   4
loop_
 _symmetry_equiv_pos_site_id
 _symmetry_equiv_pos_as_xyz
  1  'x, y, z'
loop_
 _atom_site_type_symbol
 _atom_site_label
 _atom_site_symmetry_multiplicity
 _atom_site_fract_x
 _atom_site_fract_y
 _atom_site_fract_z
 _atom_site_occupancy
 _atom_site_charge
  Cd  Cd1  1  0.905190  0.949380  0.973800  1.0  1.0773
  Cd  Cd2  1  0.405190  0.449380  0.973800  1.0  1.0773
  Cd  Cd3  1  0.094810  0.949380  0.526200  1.0  1.0774
  Cd  Cd4  1  0.594810  0.449380  0.526200  1.0  1.0774
  Cd  Cd5  1  0.094810  0.050620  0.026200  1.0  1.0784
  Cd  Cd6  1  0.594810  0.550620  0.026200  1.0  1.0784
  Cd  Cd7  1  0.905190  0.050620  0.473800  1.0  1.0785
  Cd  Cd8  1  0.405190  0.550620  0.473800  1.0  1.0785
  Cd  Cd9  1  0.750000  0.750000  0.000000  1.0  1.2033
  Cd  Cd10  1  0.250000  0.250000  0.000000  1.0  1.2033
  Cd  Cd11  1  0.250000  0.750000  0.500000  1.0  1.2033
  Cd  Cd12  1  0.750000  0.250000  0.500000  1.0  1.2033
  H  H13  1  0.773900  0.104200  0.749200  1.0  0.1071
  H  H14  1  0.673200  0.839400  0.844800  1.0  0.1019
  H  H15  1  0.678500  0.136000  0.660100  1.0  0.1
  H  H16  1  0.577800  0.871400  0.756900  1.0  0.1084
  H  H17  1  0.562700  0.232600  0.640600  1.0  0.1146
  H  H18  1  0.525100  0.841100  0.628800  1.0  0.1165
  H  H19  1  0.390900  0.095800  0.516800  1.0  0.118
  H  H20  1  0.273900  0.604200  0.749200  1.0  0.1071
  H  H21  1  0.173200  0.339400  0.844800  1.0  0.1019
  H  H22  1  0.178500  0.636000  0.660100  1.0  0.1
  H  H23  1  0.077800  0.371400  0.756900  1.0  0.1084
  H  H24  1  0.062700  0.732600  0.640600  1.0  0.1146
  H  H25  1  0.025100  0.341100  0.628800  1.0  0.1165
  H  H26  1  0.890900  0.595800  0.516800  1.0  0.118
  H  H27  1  0.226100  0.104200  0.750800  1.0  0.1069
  H  H28  1  0.326800  0.839400  0.655200  1.0  0.102
  H  H29  1  0.321500  0.136000  0.839900  1.0  0.0998
  H  H30  1  0.422200  0.871400  0.743100  1.0  0.1084
  H  H31  1  0.437300  0.232600  0.859400  1.0  0.1153
  H  H32  1  0.474900  0.841100  0.871200  1.0  0.1167
  H  H33  1  0.609100  0.095800  0.983200  1.0  0.1182
  H  H34  1  0.726100  0.604200  0.750800  1.0  0.1069
  H  H35  1  0.826800  0.339400  0.655200  1.0  0.102
  H  H36  1  0.821500  0.636000  0.839900  1.0  0.0998
  H  H37  1  0.922200  0.371400  0.743100  1.0  0.1084
  H  H38  1  0.937300  0.732600  0.859400  1.0  0.1153
  H  H39  1  0.974900  0.341100  0.871200  1.0  0.1167
  H  H40  1  0.109100  0.595800  0.983200  1.0  0.1182
  H  H41  1  0.226100  0.895800  0.250800  1.0  0.107
  H  H42  1  0.326800  0.160600  0.155200  1.0  0.1021
  H  H43  1  0.321500  0.864000  0.339900  1.0  0.1001
  H  H44  1  0.422200  0.128600  0.243100  1.0  0.1089
  H  H45  1  0.437300  0.767400  0.359400  1.0  0.1152
  H  H46  1  0.474900  0.158900  0.371200  1.0  0.1164
  H  H47  1  0.609100  0.904200  0.483200  1.0  0.1183
  H  H48  1  0.726100  0.395800  0.250800  1.0  0.107
  H  H49  1  0.826800  0.660600  0.155200  1.0  0.1021
  H  H50  1  0.821500  0.364000  0.339900  1.0  0.1001
  H  H51  1  0.922200  0.628600  0.243100  1.0  0.1089
  H  H52  1  0.937300  0.267400  0.359400  1.0  0.1152
  H  H53  1  0.974900  0.658900  0.371200  1.0  0.1164
  H  H54  1  0.109100  0.404200  0.483200  1.0  0.1183
  H  H55  1  0.773900  0.895800  0.249200  1.0  0.1071
  H  H56  1  0.673200  0.160600  0.344800  1.0  0.1016
  H  H57  1  0.678500  0.864000  0.160100  1.0  0.1002
  H  H58  1  0.577800  0.128600  0.256900  1.0  0.1086
  H  H59  1  0.562700  0.767400  0.140600  1.0  0.1147
  H  H60  1  0.525100  0.158900  0.128800  1.0  0.1156
  H  H61  1  0.390900  0.904200  0.016800  1.0  0.1175
  H  H62  1  0.273900  0.395800  0.249200  1.0  0.1071
  H  H63  1  0.173200  0.660600  0.344800  1.0  0.1016
  H  H64  1  0.178500  0.364000  0.160100  1.0  0.1002
  H  H65  1  0.077800  0.628600  0.256900  1.0  0.1086
  H  H66  1  0.062700  0.267400  0.140600  1.0  0.1147
  H  H67  1  0.025100  0.658900  0.128800  1.0  0.1156
  H  H68  1  0.890900  0.404200  0.016800  1.0  0.1175
  C  C69  1  0.794750  0.951600  0.864920  1.0  0.7153
  C  C70  1  0.733560  0.968800  0.806640  1.0  -0.1442
  C  C71  1  0.734340  0.057200  0.750980  1.0  -0.0589
  C  C72  1  0.674500  0.899900  0.807900  1.0  -0.0239
  C  C73  1  0.676810  0.077100  0.697480  1.0  -0.127
  C  C74  1  0.617100  0.919400  0.755200  1.0  -0.1343
  C  C75  1  0.617040  0.009600  0.699620  1.0  0.0612
  C  C76  1  0.554060  0.032700  0.645220  1.0  0.0509
  C  C77  1  0.534700  0.161600  0.622810  1.0  -0.0534
  C  C78  1  0.512080  0.927900  0.616140  1.0  -0.0399
  C  C79  1  0.474100  0.185300  0.574200  1.0  -0.1443
  C  C80  1  0.451260  0.951500  0.568690  1.0  -0.1555
  C  C81  1  0.432080  0.080200  0.548110  1.0  0.0293
  C  C82  1  0.454590  0.323500  0.547940  1.0  0.6913
  C  C83  1  0.406900  0.836800  0.536480  1.0  0.6973
  C  C84  1  0.294750  0.451600  0.864920  1.0  0.7153
  C  C85  1  0.233560  0.468800  0.806640  1.0  -0.1442
  C  C86  1  0.234340  0.557200  0.750980  1.0  -0.0589
  C  C87  1  0.174500  0.399900  0.807900  1.0  -0.0239
  C  C88  1  0.176810  0.577100  0.697480  1.0  -0.127
  C  C89  1  0.117100  0.419400  0.755200  1.0  -0.1343
  C  C90  1  0.117040  0.509600  0.699620  1.0  0.0612
  C  C91  1  0.054060  0.532700  0.645220  1.0  0.0509
  C  C92  1  0.034700  0.661600  0.622810  1.0  -0.0534
  C  C93  1  0.012080  0.427900  0.616140  1.0  -0.0399
  C  C94  1  0.974100  0.685300  0.574200  1.0  -0.1443
  C  C95  1  0.951260  0.451500  0.568690  1.0  -0.1555
  C  C96  1  0.932080  0.580200  0.548110  1.0  0.0293
  C  C97  1  0.954590  0.823500  0.547940  1.0  0.6913
  C  C98  1  0.906900  0.336800  0.536480  1.0  0.6973
  C  C99  1  0.205250  0.951600  0.635080  1.0  0.7154
  C  C100  1  0.266440  0.968800  0.693360  1.0  -0.1444
  C  C101  1  0.265660  0.057200  0.749020  1.0  -0.0584
  C  C102  1  0.325500  0.899900  0.692100  1.0  -0.0245
  C  C103  1  0.323190  0.077100  0.802520  1.0  -0.1275
  C  C104  1  0.382900  0.919400  0.744800  1.0  -0.1351
  C  C105  1  0.382960  0.009600  0.800380  1.0  0.06
  C  C106  1  0.445940  0.032700  0.854780  1.0  0.0503
  C  C107  1  0.465300  0.161600  0.877190  1.0  -0.053
  C  C108  1  0.487920  0.927900  0.883860  1.0  -0.0412
  C  C109  1  0.525900  0.185300  0.925800  1.0  -0.1448
  C  C110  1  0.548740  0.951500  0.931310  1.0  -0.1559
  C  C111  1  0.567920  0.080200  0.951890  1.0  0.0287
  C  C112  1  0.545410  0.323500  0.952060  1.0  0.6913
  C  C113  1  0.593100  0.836800  0.963520  1.0  0.6981
  C  C114  1  0.705250  0.451600  0.635080  1.0  0.7154
  C  C115  1  0.766440  0.468800  0.693360  1.0  -0.1444
  C  C116  1  0.765660  0.557200  0.749020  1.0  -0.0584
  C  C117  1  0.825500  0.399900  0.692100  1.0  -0.0245
  C  C118  1  0.823190  0.577100  0.802520  1.0  -0.1275
  C  C119  1  0.882900  0.419400  0.744800  1.0  -0.1351
  C  C120  1  0.882960  0.509600  0.800380  1.0  0.06
  C  C121  1  0.945940  0.532700  0.854780  1.0  0.0503
  C  C122  1  0.965300  0.661600  0.877190  1.0  -0.053
  C  C123  1  0.987920  0.427900  0.883860  1.0  -0.0412
  C  C124  1  0.025900  0.685300  0.925800  1.0  -0.1448
  C  C125  1  0.048740  0.451500  0.931310  1.0  -0.1559
  C  C126  1  0.067920  0.580200  0.951890  1.0  0.0287
  C  C127  1  0.045410  0.823500  0.952060  1.0  0.6913
  C  C128  1  0.093100  0.336800  0.963520  1.0  0.6981
  C  C129  1  0.205250  0.048400  0.135080  1.0  0.716
  C  C130  1  0.266440  0.031200  0.193360  1.0  -0.1444
  C  C131  1  0.265660  0.942800  0.249020  1.0  -0.0591
  C  C132  1  0.325500  0.100100  0.192100  1.0  -0.025
  C  C133  1  0.323190  0.922900  0.302520  1.0  -0.128
  C  C134  1  0.382900  0.080600  0.244800  1.0  -0.135
  C  C135  1  0.382960  0.990400  0.300380  1.0  0.06
  C  C136  1  0.445940  0.967300  0.354780  1.0  0.0502
  C  C137  1  0.465300  0.838400  0.377190  1.0  -0.0522
  C  C138  1  0.487920  0.072100  0.383860  1.0  -0.0437
  C  C139  1  0.525900  0.814700  0.425800  1.0  -0.1458
  C  C140  1  0.548740  0.048500  0.431310  1.0  -0.1556
  C  C141  1  0.567920  0.919800  0.451890  1.0  0.0294
  C  C142  1  0.545410  0.676500  0.452060  1.0  0.6899
  C  C143  1  0.593100  0.163200  0.463520  1.0  0.6984
  C  C144  1  0.705250  0.548400  0.135080  1.0  0.716
  C  C145  1  0.766440  0.531200  0.193360  1.0  -0.1444
  C  C146  1  0.765660  0.442800  0.249020  1.0  -0.0591
  C  C147  1  0.825500  0.600100  0.192100  1.0  -0.025
  C  C148  1  0.823190  0.422900  0.302520  1.0  -0.128
  C  C149  1  0.882900  0.580600  0.244800  1.0  -0.135
  C  C150  1  0.882960  0.490400  0.300380  1.0  0.06
  C  C151  1  0.945940  0.467300  0.354780  1.0  0.0502
  C  C152  1  0.965300  0.338400  0.377190  1.0  -0.0522
  C  C153  1  0.987920  0.572100  0.383860  1.0  -0.0437
  C  C154  1  0.025900  0.314700  0.425800  1.0  -0.1458
  C  C155  1  0.048740  0.548500  0.431310  1.0  -0.1556
  C  C156  1  0.067920  0.419800  0.451890  1.0  0.0294
  C  C157  1  0.045410  0.176500  0.452060  1.0  0.6899
  C  C158  1  0.093100  0.663200  0.463520  1.0  0.6984
  C  C159  1  0.794750  0.048400  0.364920  1.0  0.7157
  C  C160  1  0.733560  0.031200  0.306640  1.0  -0.1441
  C  C161  1  0.734340  0.942800  0.250980  1.0  -0.0597
  C  C162  1  0.674500  0.100100  0.307900  1.0  -0.0249
  C  C163  1  0.676810  0.922900  0.197480  1.0  -0.127
  C  C164  1  0.617100  0.080600  0.255200  1.0  -0.1341
  C  C165  1  0.617040  0.990400  0.199620  1.0  0.0612
  C  C166  1  0.554060  0.967300  0.145220  1.0  0.0507
  C  C167  1  0.534700  0.838400  0.122810  1.0  -0.0529
  C  C168  1  0.512080  0.072100  0.116140  1.0  -0.0415
  C  C169  1  0.474100  0.814700  0.074200  1.0  -0.1445
  C  C170  1  0.451260  0.048500  0.068690  1.0  -0.1548
  C  C171  1  0.432080  0.919800  0.048110  1.0  0.0303
  C  C172  1  0.454590  0.676500  0.047940  1.0  0.6896
  C  C173  1  0.406900  0.163200  0.036480  1.0  0.6979
  C  C174  1  0.294750  0.548400  0.364920  1.0  0.7157
  C  C175  1  0.233560  0.531200  0.306640  1.0  -0.1441
  C  C176  1  0.234340  0.442800  0.250980  1.0  -0.0597
  C  C177  1  0.174500  0.600100  0.307900  1.0  -0.0249
  C  C178  1  0.176810  0.422900  0.197480  1.0  -0.127
  C  C179  1  0.117100  0.580600  0.255200  1.0  -0.1341
  C  C180  1  0.117040  0.490400  0.199620  1.0  0.0612
  C  C181  1  0.054060  0.467300  0.145220  1.0  0.0507
  C  C182  1  0.034700  0.338400  0.122810  1.0  -0.0529
  C  C183  1  0.012080  0.572100  0.116140  1.0  -0.0415
  C  C184  1  0.974100  0.314700  0.074200  1.0  -0.1445
  C  C185  1  0.951260  0.548500  0.068690  1.0  -0.1548
  C  C186  1  0.932080  0.419800  0.048110  1.0  0.0303
  C  C187  1  0.954590  0.176500  0.047940  1.0  0.6896
  C  C188  1  0.906900  0.663200  0.036480  1.0  0.6979
  O  O189  1  0.791740  0.890300  0.921290  1.0  -0.7043
  O  O190  1  0.850080  0.000200  0.857390  1.0  -0.598
  O  O191  1  0.004260  0.918500  0.933730  1.0  -0.6527
  O  O192  1  0.897490  0.159300  0.008330  1.0  -0.5996
  O  O193  1  0.934940  0.776000  0.041250  1.0  -0.6124
  O  O194  1  0.653070  0.861900  0.992280  1.0  -0.6413
  O  O195  1  0.291740  0.390300  0.921290  1.0  -0.7043
  O  O196  1  0.350080  0.500200  0.857390  1.0  -0.598
  O  O197  1  0.504260  0.418500  0.933730  1.0  -0.6527
  O  O198  1  0.397490  0.659300  0.008330  1.0  -0.5996
  O  O199  1  0.434940  0.276000  0.041250  1.0  -0.6124
  O  O200  1  0.153070  0.361900  0.992280  1.0  -0.6413
  O  O201  1  0.208260  0.890300  0.578710  1.0  -0.7035
  O  O202  1  0.149920  0.000200  0.642610  1.0  -0.5983
  O  O203  1  0.995740  0.918500  0.566270  1.0  -0.652
  O  O204  1  0.102510  0.159300  0.491670  1.0  -0.5995
  O  O205  1  0.065060  0.776000  0.458750  1.0  -0.6112
  O  O206  1  0.346930  0.861900  0.507720  1.0  -0.6405
  O  O207  1  0.708260  0.390300  0.578710  1.0  -0.7035
  O  O208  1  0.649920  0.500200  0.642610  1.0  -0.5983
  O  O209  1  0.495740  0.418500  0.566270  1.0  -0.652
  O  O210  1  0.602510  0.659300  0.491670  1.0  -0.5995
  O  O211  1  0.565060  0.276000  0.458750  1.0  -0.6112
  O  O212  1  0.846930  0.361900  0.507720  1.0  -0.6405
  O  O213  1  0.208260  0.109700  0.078710  1.0  -0.7029
  O  O214  1  0.149920  0.999800  0.142610  1.0  -0.5973
  O  O215  1  0.995740  0.081500  0.066270  1.0  -0.6523
  O  O216  1  0.102510  0.840700  0.991670  1.0  -0.5991
  O  O217  1  0.065060  0.224000  0.958750  1.0  -0.6112
  O  O218  1  0.346930  0.138100  0.007720  1.0  -0.6408
  O  O219  1  0.708260  0.609700  0.078710  1.0  -0.7029
  O  O220  1  0.649920  0.499800  0.142610  1.0  -0.5973
  O  O221  1  0.495740  0.581500  0.066270  1.0  -0.6523
  O  O222  1  0.602510  0.340700  0.991670  1.0  -0.5991
  O  O223  1  0.565060  0.724000  0.958750  1.0  -0.6112
  O  O224  1  0.846930  0.638100  0.007720  1.0  -0.6408
  O  O225  1  0.791740  0.109700  0.421290  1.0  -0.7031
  O  O226  1  0.850080  0.999800  0.357390  1.0  -0.5989
  O  O227  1  0.004260  0.081500  0.433730  1.0  -0.653
  O  O228  1  0.897490  0.840700  0.508330  1.0  -0.5993
  O  O229  1  0.934940  0.224000  0.541250  1.0  -0.6126
  O  O230  1  0.653070  0.138100  0.492280  1.0  -0.6414
  O  O231  1  0.291740  0.609700  0.421290  1.0  -0.7031
  O  O232  1  0.350080  0.499800  0.357390  1.0  -0.5989
  O  O233  1  0.504260  0.581500  0.433730  1.0  -0.653
  O  O234  1  0.397490  0.340700  0.508330  1.0  -0.5993
  O  O235  1  0.434940  0.724000  0.541250  1.0  -0.6126
  O  O236  1  0.153070  0.638100  0.492280  1.0  -0.6414
