# generated using pymatgen
data_Cd3H14(C5O2)6
_symmetry_space_group_name_H-M   'P 1'
_cell_length_a   10.07140000
_cell_length_b   11.19630000
_cell_length_c   18.94200000
_cell_angle_alpha   99.98660000
_cell_angle_beta   90.00000000
_cell_angle_gamma   116.72900000
_symmetry_Int_Tables_number   1
_chemical_formula_structural   Cd3H14(C5O2)6
_chemical_formula_sum   'Cd6 H28 C60 O24'
_cell_volume   1871.40072456
_cell_formula_units_Z   2
loop_
 _symmetry_equiv_pos_site_id
 _symmetry_equiv_pos_as_xyz
  1  'x, y, z'
loop_
 _atom_site_type_symbol
 _atom_site_label
 _atom_site_symmetry_multiplicity
 _atom_site_fract_x
 _atom_site_fract_y
 _atom_site_fract_z
 _atom_site_occupancy
 _atom_site_charge
  Cd  Cd1  1  0.456230  0.810260  0.974120  1.0  1.0808
  Cd  Cd2  1  0.645970  0.189740  0.525880  1.0  1.08
  Cd  Cd3  1  0.543770  0.189740  0.025880  1.0  1.0803
  Cd  Cd4  1  0.354030  0.810260  0.474120  1.0  1.0811
  Cd  Cd5  1  0.500000  0.500000  0.000000  1.0  1.2231
  Cd  Cd6  1  0.000000  0.500000  0.500000  1.0  1.2231
  H  H7  1  0.335700  0.347600  0.843700  1.0  0.0796
  H  H8  1  0.202800  0.154000  0.757400  1.0  0.1052
  H  H9  1  0.829100  0.125400  0.641100  1.0  0.1086
  H  H10  1  0.043800  0.359800  0.659600  1.0  0.1131
  H  H11  1  0.183500  0.048600  0.630100  1.0  0.1141
  H  H12  1  0.171600  0.548600  0.748900  1.0  0.0961
  H  H13  1  0.796900  0.782400  0.516800  1.0  0.1078
  H  H14  1  0.988100  0.652400  0.656300  1.0  0.0802
  H  H15  1  0.048800  0.846000  0.742600  1.0  0.1057
  H  H16  1  0.703700  0.874600  0.858900  1.0  0.1088
  H  H17  1  0.684000  0.640200  0.840400  1.0  0.1133
  H  H18  1  0.134900  0.951400  0.869900  1.0  0.1141
  H  H19  1  0.623000  0.451400  0.751100  1.0  0.0959
  H  H20  1  0.014500  0.217600  0.983200  1.0  0.1073
  H  H21  1  0.664300  0.652400  0.156300  1.0  0.0796
  H  H22  1  0.797200  0.846000  0.242600  1.0  0.1059
  H  H23  1  0.170900  0.874600  0.358900  1.0  0.1086
  H  H24  1  0.956200  0.640200  0.340400  1.0  0.1133
  H  H25  1  0.816500  0.951400  0.369900  1.0  0.114
  H  H26  1  0.828400  0.451400  0.251100  1.0  0.0962
  H  H27  1  0.203100  0.217600  0.483200  1.0  0.107
  H  H28  1  0.011900  0.347600  0.343700  1.0  0.0794
  H  H29  1  0.951200  0.154000  0.257400  1.0  0.1052
  H  H30  1  0.296300  0.125400  0.141100  1.0  0.1081
  H  H31  1  0.316000  0.359800  0.159600  1.0  0.1127
  H  H32  1  0.865100  0.048600  0.130100  1.0  0.1144
  H  H33  1  0.377000  0.548600  0.248900  1.0  0.0962
  H  H34  1  0.985500  0.782400  0.016800  1.0  0.1081
  C  C35  1  0.274800  0.349800  0.807500  1.0  -0.0207
  C  C36  1  0.070100  0.814000  0.536300  1.0  0.7007
  C  C37  1  0.195800  0.233400  0.755200  1.0  -0.1283
  C  C38  1  0.872200  0.069600  0.623100  1.0  -0.0591
  C  C39  1  0.788200  0.947800  0.574300  1.0  -0.1448
  C  C40  1  0.100100  0.355600  0.697200  1.0  -0.152
  C  C41  1  0.107500  0.234400  0.700300  1.0  0.0727
  C  C42  1  0.084400  0.023800  0.616700  1.0  -0.0567
  C  C43  1  0.999500  0.902600  0.568200  1.0  -0.1578
  C  C44  1  0.021400  0.107800  0.645100  1.0  0.0211
  C  C45  1  0.177900  0.468800  0.750700  1.0  -0.0165
  C  C46  1  0.264600  0.467800  0.806800  1.0  -0.1595
  C  C47  1  0.343900  0.590000  0.864800  1.0  0.724
  C  C48  1  0.853200  0.864600  0.548200  1.0  0.0132
  C  C49  1  0.630900  0.910400  0.548400  1.0  0.6817
  C  C50  1  0.925000  0.650200  0.692500  1.0  -0.0204
  C  C51  1  0.256100  0.186000  0.963700  1.0  0.7009
  C  C52  1  0.962400  0.766600  0.744800  1.0  -0.1287
  C  C53  1  0.802600  0.930400  0.876900  1.0  -0.0579
  C  C54  1  0.840400  0.052200  0.925700  1.0  -0.1438
  C  C55  1  0.744500  0.644400  0.802800  1.0  -0.1521
  C  C56  1  0.873100  0.765600  0.799700  1.0  0.0728
  C  C57  1  0.060600  0.976200  0.883300  1.0  -0.0563
  C  C58  1  0.096900  0.097400  0.931800  1.0  -0.1578
  C  C59  1  0.913600  0.892200  0.854900  1.0  0.0215
  C  C60  1  0.709100  0.531200  0.749300  1.0  -0.0164
  C  C61  1  0.796800  0.532200  0.693200  1.0  -0.1587
  C  C62  1  0.753900  0.410000  0.635200  1.0  0.724
  C  C63  1  0.988600  0.135400  0.951800  1.0  0.0124
  C  C64  1  0.720500  0.089600  0.951600  1.0  0.6829
  C  C65  1  0.725200  0.650200  0.192500  1.0  -0.0187
  C  C66  1  0.929900  0.186000  0.463700  1.0  0.7003
  C  C67  1  0.804200  0.766600  0.244800  1.0  -0.128
  C  C68  1  0.127800  0.930400  0.376900  1.0  -0.0599
  C  C69  1  0.211800  0.052200  0.425700  1.0  -0.1462
  C  C70  1  0.899900  0.644400  0.302800  1.0  -0.1526
  C  C71  1  0.892500  0.765600  0.299700  1.0  0.0726
  C  C72  1  0.915600  0.976200  0.383300  1.0  -0.056
  C  C73  1  0.000500  0.097400  0.431800  1.0  -0.1587
  C  C74  1  0.978600  0.892200  0.354900  1.0  0.0217
  C  C75  1  0.822100  0.531200  0.249300  1.0  -0.0171
  C  C76  1  0.735400  0.532200  0.193200  1.0  -0.1568
  C  C77  1  0.656100  0.410000  0.135200  1.0  0.7245
  C  C78  1  0.146800  0.135400  0.451800  1.0  0.0128
  C  C79  1  0.369100  0.089600  0.451600  1.0  0.6825
  C  C80  1  0.075000  0.349800  0.307500  1.0  -0.0186
  C  C81  1  0.743900  0.814000  0.036300  1.0  0.6991
  C  C82  1  0.037600  0.233400  0.255200  1.0  -0.1274
  C  C83  1  0.197400  0.069600  0.123100  1.0  -0.0606
  C  C84  1  0.159600  0.947800  0.074300  1.0  -0.1462
  C  C85  1  0.255500  0.355600  0.197200  1.0  -0.1524
  C  C86  1  0.126900  0.234400  0.200300  1.0  0.0725
  C  C87  1  0.939400  0.023800  0.116700  1.0  -0.0562
  C  C88  1  0.903100  0.902600  0.068200  1.0  -0.1591
  C  C89  1  0.086400  0.107800  0.145100  1.0  0.0214
  C  C90  1  0.290900  0.468800  0.250700  1.0  -0.0164
  C  C91  1  0.203200  0.467800  0.306800  1.0  -0.1578
  C  C92  1  0.246100  0.590000  0.364800  1.0  0.7245
  C  C93  1  0.011400  0.864600  0.048200  1.0  0.0132
  C  C94  1  0.279500  0.910400  0.048400  1.0  0.682
  O  O95  1  0.402200  0.583800  0.920500  1.0  -0.7103
  O  O96  1  0.349600  0.700600  0.857100  1.0  -0.5744
  O  O97  1  0.557500  0.796000  0.508700  1.0  -0.5801
  O  O98  1  0.578600  0.992400  0.566800  1.0  -0.6292
  O  O99  1  0.984100  0.693800  0.507900  1.0  -0.6381
  O  O100  1  0.210200  0.869400  0.541600  1.0  -0.6073
  O  O101  1  0.818400  0.416200  0.579500  1.0  -0.71
  O  O102  1  0.649000  0.299400  0.642900  1.0  -0.5734
  O  O103  1  0.761500  0.204000  0.991300  1.0  -0.5785
  O  O104  1  0.586200  0.007600  0.933200  1.0  -0.6294
  O  O105  1  0.290300  0.306200  0.992100  1.0  -0.6381
  O  O106  1  0.340800  0.130600  0.958400  1.0  -0.6074
  O  O107  1  0.597800  0.416200  0.079500  1.0  -0.7086
  O  O108  1  0.650400  0.299400  0.142900  1.0  -0.574
  O  O109  1  0.442500  0.204000  0.491300  1.0  -0.5784
  O  O110  1  0.421400  0.007600  0.433200  1.0  -0.6285
  O  O111  1  0.015900  0.306200  0.492100  1.0  -0.6378
  O  O112  1  0.789800  0.130600  0.458400  1.0  -0.6072
  O  O113  1  0.181600  0.583800  0.420500  1.0  -0.7084
  O  O114  1  0.351000  0.700600  0.357100  1.0  -0.5746
  O  O115  1  0.238500  0.796000  0.008700  1.0  -0.5801
  O  O116  1  0.413800  0.992400  0.066800  1.0  -0.6272
  O  O117  1  0.709700  0.693800  0.007900  1.0  -0.638
  O  O118  1  0.659200  0.869400  0.041600  1.0  -0.6067
