# generated using pymatgen
data_Zn5H24C24(N3O11)2
_symmetry_space_group_name_H-M   'P 1'
_cell_length_a   5.58070000
_cell_length_b   13.79300000
_cell_length_c   24.06400000
_cell_angle_alpha   90.00000000
_cell_angle_beta   95.91000000
_cell_angle_gamma   90.00000000
_symmetry_Int_Tables_number   1
_chemical_formula_structural   Zn5H24C24(N3O11)2
_chemical_formula_sum   'Zn10 H48 C48 N12 O44'
_cell_volume   1842.47133651
_cell_formula_units_Z   2
loop_
 _symmetry_equiv_pos_site_id
 _symmetry_equiv_pos_as_xyz
  1  'x, y, z'
loop_
 _atom_site_type_symbol
 _atom_site_label
 _atom_site_symmetry_multiplicity
 _atom_site_fract_x
 _atom_site_fract_y
 _atom_site_fract_z
 _atom_site_occupancy
 _atom_site_charge
  Zn  Zn1  1  0.998290  0.576220  0.550170  1.0  1.0602
  Zn  Zn2  1  0.691060  0.752770  0.494110  1.0  1.0721
  Zn  Zn3  1  0.001710  0.076220  0.949830  1.0  1.0604
  Zn  Zn4  1  0.308940  0.252770  0.005890  1.0  1.0713
  Zn  Zn5  1  0.001710  0.423780  0.449830  1.0  1.0604
  Zn  Zn6  1  0.308940  0.247230  0.505890  1.0  1.0713
  Zn  Zn7  1  0.998290  0.923780  0.050170  1.0  1.0601
  Zn  Zn8  1  0.691060  0.747230  0.994110  1.0  1.0716
  Zn  Zn9  1  0.500000  0.500000  0.500000  1.0  1.0813
  Zn  Zn10  1  0.500000  0.000000  0.000000  1.0  1.0813
  H  H11  1  0.719600  0.513200  0.688100  1.0  0.0968
  H  H12  1  0.647800  0.474900  0.745500  1.0  0.0827
  H  H13  1  0.501700  0.367700  0.674600  1.0  0.1232
  H  H14  1  0.282900  0.414500  0.700900  1.0  0.129
  H  H15  1  0.469000  0.890200  0.677900  1.0  0.083
  H  H16  1  0.522700  0.821100  0.629100  1.0  0.0991
  H  H17  1  0.229900  0.930100  0.596600  1.0  0.1563
  H  H18  1  0.070500  0.901100  0.643700  1.0  0.1406
  H  H19  1  0.834000  0.717300  0.779800  1.0  0.0727
  H  H20  1  0.923600  0.617600  0.805500  1.0  0.0925
  H  H21  1  0.206500  0.703200  0.867800  1.0  0.128
  H  H22  1  0.089400  0.800500  0.844600  1.0  0.1353
  H  H23  1  0.280400  0.013200  0.811900  1.0  0.0948
  H  H24  1  0.352200  0.974900  0.754500  1.0  0.0831
  H  H25  1  0.498300  0.867700  0.825400  1.0  0.1225
  H  H26  1  0.717100  0.914500  0.799100  1.0  0.1284
  H  H27  1  0.531000  0.390200  0.822100  1.0  0.0834
  H  H28  1  0.477300  0.321100  0.870900  1.0  0.0993
  H  H29  1  0.770100  0.430100  0.903400  1.0  0.1558
  H  H30  1  0.929500  0.401100  0.856300  1.0  0.1398
  H  H31  1  0.166000  0.217300  0.720200  1.0  0.0745
  H  H32  1  0.076400  0.117600  0.694500  1.0  0.0911
  H  H33  1  0.793500  0.203200  0.632200  1.0  0.1227
  H  H34  1  0.910600  0.300500  0.655400  1.0  0.1371
  H  H35  1  0.280400  0.486800  0.311900  1.0  0.0948
  H  H36  1  0.352200  0.525100  0.254500  1.0  0.0831
  H  H37  1  0.498300  0.632300  0.325400  1.0  0.1221
  H  H38  1  0.717100  0.585500  0.299100  1.0  0.1286
  H  H39  1  0.531000  0.109800  0.322100  1.0  0.0835
  H  H40  1  0.477300  0.178900  0.370900  1.0  0.0996
  H  H41  1  0.770100  0.069900  0.403400  1.0  0.1558
  H  H42  1  0.929500  0.098900  0.356300  1.0  0.1398
  H  H43  1  0.166000  0.282700  0.220200  1.0  0.0741
  H  H44  1  0.076400  0.382400  0.194500  1.0  0.0927
  H  H45  1  0.793500  0.296800  0.132200  1.0  0.1248
  H  H46  1  0.910600  0.199500  0.155400  1.0  0.1372
  H  H47  1  0.719600  0.986800  0.188100  1.0  0.0965
  H  H48  1  0.647800  0.025100  0.245500  1.0  0.0828
  H  H49  1  0.501700  0.132300  0.174600  1.0  0.1233
  H  H50  1  0.282900  0.085500  0.200900  1.0  0.129
  H  H51  1  0.469000  0.609800  0.177900  1.0  0.0813
  H  H52  1  0.522700  0.678900  0.129100  1.0  0.0989
  H  H53  1  0.229900  0.569900  0.096600  1.0  0.1558
  H  H54  1  0.070500  0.598900  0.143700  1.0  0.1396
  H  H55  1  0.834000  0.782700  0.279800  1.0  0.0723
  H  H56  1  0.923600  0.882400  0.305500  1.0  0.0925
  H  H57  1  0.206500  0.796800  0.367800  1.0  0.1278
  H  H58  1  0.089400  0.699500  0.344600  1.0  0.1325
  C  C59  1  0.491900  0.670100  0.681610  1.0  0.6018
  C  C60  1  0.191200  0.761000  0.726900  1.0  0.6195
  C  C61  1  0.300100  0.596700  0.758450  1.0  0.6309
  C  C62  1  0.584800  0.501300  0.709600  1.0  0.0792
  C  C63  1  0.415800  0.427900  0.679030  1.0  -0.3641
  C  C64  1  0.319000  0.466200  0.622200  1.0  0.7393
  C  C65  1  0.402600  0.838300  0.653800  1.0  0.0836
  C  C66  1  0.181800  0.876100  0.618800  1.0  -0.3823
  C  C67  1  0.049600  0.803200  0.580000  1.0  0.7444
  C  C68  1  0.973200  0.683200  0.797700  1.0  0.075
  C  C69  1  0.870600  0.725300  0.892700  1.0  0.7212
  C  C70  1  0.057500  0.732800  0.851700  1.0  -0.3678
  C  C71  1  0.508100  0.170100  0.818390  1.0  0.6021
  C  C72  1  0.808800  0.261000  0.773100  1.0  0.6193
  C  C73  1  0.699900  0.096700  0.741550  1.0  0.6308
  C  C74  1  0.415200  0.001300  0.790400  1.0  0.0759
  C  C75  1  0.584200  0.927900  0.820970  1.0  -0.363
  C  C76  1  0.681000  0.966200  0.877800  1.0  0.7397
  C  C77  1  0.597400  0.338300  0.846200  1.0  0.0762
  C  C78  1  0.818200  0.376100  0.881200  1.0  -0.3824
  C  C79  1  0.950400  0.303200  0.920000  1.0  0.7441
  C  C80  1  0.026800  0.183200  0.702300  1.0  0.0758
  C  C81  1  0.129400  0.225300  0.607300  1.0  0.7215
  C  C82  1  0.942500  0.232800  0.648300  1.0  -0.3685
  C  C83  1  0.508100  0.329900  0.318390  1.0  0.602
  C  C84  1  0.808800  0.239000  0.273100  1.0  0.6196
  C  C85  1  0.699900  0.403300  0.241550  1.0  0.6312
  C  C86  1  0.415200  0.498700  0.290400  1.0  0.0764
  C  C87  1  0.584200  0.572100  0.320970  1.0  -0.3621
  C  C88  1  0.681000  0.533800  0.377800  1.0  0.7397
  C  C89  1  0.597400  0.161700  0.346200  1.0  0.0726
  C  C90  1  0.818200  0.123900  0.381200  1.0  -0.3822
  C  C91  1  0.950400  0.196800  0.420000  1.0  0.7454
  C  C92  1  0.026800  0.316800  0.202300  1.0  0.0757
  C  C93  1  0.129400  0.274700  0.107300  1.0  0.722
  C  C94  1  0.942500  0.267200  0.148300  1.0  -0.3685
  C  C95  1  0.491900  0.829900  0.181610  1.0  0.6017
  C  C96  1  0.191200  0.739000  0.226900  1.0  0.6201
  C  C97  1  0.300100  0.903300  0.258450  1.0  0.6311
  C  C98  1  0.584800  0.998700  0.209600  1.0  0.0795
  C  C99  1  0.415800  0.072100  0.179030  1.0  -0.3628
  C  C100  1  0.319000  0.033800  0.122200  1.0  0.7394
  C  C101  1  0.402600  0.661700  0.153800  1.0  0.0824
  C  C102  1  0.181800  0.623900  0.118800  1.0  -0.3834
  C  C103  1  0.049600  0.696800  0.080000  1.0  0.7452
  C  C104  1  0.973200  0.816800  0.297700  1.0  0.0755
  C  C105  1  0.870600  0.774700  0.392700  1.0  0.7206
  C  C106  1  0.057500  0.767200  0.351700  1.0  -0.3686
  N  N107  1  0.360300  0.753300  0.688900  1.0  -0.3059
  N  N108  1  0.161500  0.679700  0.759050  1.0  -0.3173
  N  N109  1  0.460200  0.594200  0.718360  1.0  -0.3304
  N  N110  1  0.639700  0.253300  0.811100  1.0  -0.3056
  N  N111  1  0.838500  0.179700  0.740950  1.0  -0.3173
  N  N112  1  0.539800  0.094200  0.781640  1.0  -0.3303
  N  N113  1  0.639700  0.246700  0.311100  1.0  -0.3053
  N  N114  1  0.838500  0.320300  0.240950  1.0  -0.3172
  N  N115  1  0.539800  0.405800  0.281640  1.0  -0.3305
  N  N116  1  0.360300  0.746700  0.188900  1.0  -0.3054
  N  N117  1  0.161500  0.820300  0.259050  1.0  -0.3171
  N  N118  1  0.460200  0.905800  0.218360  1.0  -0.3305
  O  O119  1  0.284800  0.529900  0.790950  1.0  -0.4889
  O  O120  1  0.637600  0.664300  0.647420  1.0  -0.4681
  O  O121  1  0.079300  0.834500  0.732850  1.0  -0.4844
  O  O122  1  0.132600  0.720100  0.574810  1.0  -0.5746
  O  O123  1  0.854900  0.835300  0.554010  1.0  -0.6121
  O  O124  1  0.132000  0.519400  0.621050  1.0  -0.5628
  O  O125  1  0.830200  0.440300  0.516300  1.0  -0.5966
  O  O126  1  0.661600  0.628700  0.533930  1.0  -0.6933
  O  O127  1  0.941000  0.756200  0.942840  1.0  -0.6078
  O  O128  1  0.429900  0.446600  0.581190  1.0  -0.5692
  O  O129  1  0.669000  0.694200  0.879280  1.0  -0.5727
  O  O130  1  0.715200  0.029900  0.709050  1.0  -0.4895
  O  O131  1  0.362400  0.164300  0.852580  1.0  -0.4665
  O  O132  1  0.920700  0.334500  0.767150  1.0  -0.4838
  O  O133  1  0.867400  0.220100  0.925190  1.0  -0.5759
  O  O134  1  0.145100  0.335300  0.945990  1.0  -0.6142
  O  O135  1  0.868000  0.019400  0.878950  1.0  -0.561
  O  O136  1  0.169800  0.940300  0.983700  1.0  -0.5968
  O  O137  1  0.338400  0.128700  0.966070  1.0  -0.6921
  O  O138  1  0.059000  0.256200  0.557160  1.0  -0.6092
  O  O139  1  0.570100  0.946600  0.918810  1.0  -0.5694
  O  O140  1  0.331000  0.194200  0.620720  1.0  -0.5714
  O  O141  1  0.715200  0.470100  0.209050  1.0  -0.49
  O  O142  1  0.362400  0.335700  0.352580  1.0  -0.4665
  O  O143  1  0.920700  0.165500  0.267150  1.0  -0.4836
  O  O144  1  0.867400  0.279900  0.425190  1.0  -0.5752
  O  O145  1  0.145100  0.164700  0.445990  1.0  -0.6149
  O  O146  1  0.868000  0.480600  0.378950  1.0  -0.5619
  O  O147  1  0.169800  0.559700  0.483700  1.0  -0.5977
  O  O148  1  0.338400  0.371300  0.466070  1.0  -0.6924
  O  O149  1  0.059000  0.243800  0.057160  1.0  -0.6077
  O  O150  1  0.570100  0.553400  0.418810  1.0  -0.5694
  O  O151  1  0.331000  0.305800  0.120720  1.0  -0.5702
  O  O152  1  0.284800  0.970100  0.290950  1.0  -0.4902
  O  O153  1  0.637600  0.835700  0.147420  1.0  -0.468
  O  O154  1  0.079300  0.665500  0.232850  1.0  -0.4841
  O  O155  1  0.132600  0.779900  0.074810  1.0  -0.5751
  O  O156  1  0.854900  0.664700  0.054010  1.0  -0.6112
  O  O157  1  0.132000  0.980600  0.121050  1.0  -0.563
  O  O158  1  0.830200  0.059700  0.016300  1.0  -0.5973
  O  O159  1  0.661600  0.871300  0.033930  1.0  -0.6937
  O  O160  1  0.941000  0.743800  0.442840  1.0  -0.6089
  O  O161  1  0.429900  0.053400  0.081190  1.0  -0.5689
  O  O162  1  0.669000  0.805800  0.379280  1.0  -0.5721
