# generated using pymatgen
data_CoH10(C9O2)2
_symmetry_space_group_name_H-M   'P 1'
_cell_length_a   13.14300000
_cell_length_b   25.47200000
_cell_length_c   25.47200000
_cell_angle_alpha   120.00000000
_cell_angle_beta   90.00000000
_cell_angle_gamma   90.00000000
_symmetry_Int_Tables_number   1
_chemical_formula_structural   CoH10(C9O2)2
_chemical_formula_sum   'Co9 H90 C162 O36'
_cell_volume   7385.01244841
_cell_formula_units_Z   9
loop_
 _symmetry_equiv_pos_site_id
 _symmetry_equiv_pos_as_xyz
  1  'x, y, z'
loop_
 _atom_site_type_symbol
 _atom_site_label
 _atom_site_symmetry_multiplicity
 _atom_site_fract_x
 _atom_site_fract_y
 _atom_site_fract_z
 _atom_site_occupancy
 _atom_site_charge
  Co  Co1  1  0.808810  0.610900  0.887450  1.0  1.0633
  Co  Co2  1  0.142140  0.276550  0.389100  1.0  1.061
  Co  Co3  1  0.475480  0.112550  0.723450  1.0  1.0561
  Co  Co4  1  0.191190  0.723450  0.112550  1.0  1.0647
  Co  Co5  1  0.857860  0.887450  0.610900  1.0  1.0581
  Co  Co6  1  0.524520  0.389100  0.276550  1.0  1.0618
  Co  Co7  1  0.000000  0.684760  0.000000  1.0  1.0533
  Co  Co8  1  0.333333  0.315240  0.315240  1.0  1.0532
  Co  Co9  1  0.666667  0.000000  0.684760  1.0  1.051
  H  H10  1  0.590400  0.759800  0.015800  1.0  0.1036
  H  H11  1  0.530400  0.839400  0.109100  1.0  0.1194
  H  H12  1  0.761000  0.805600  0.193500  1.0  0.1096
  H  H13  1  0.821600  0.730700  0.101100  1.0  0.1156
  H  H14  1  0.797300  0.871500  0.439400  1.0  0.1053
  H  H15  1  0.756000  0.877700  0.354700  1.0  0.1189
  H  H16  1  0.490900  0.960600  0.435800  1.0  0.1207
  H  H17  1  0.539700  0.958000  0.521800  1.0  0.0988
  H  H18  1  0.289900  0.130100  0.370500  1.0  0.1223
  H  H19  1  0.370900  0.044600  0.356500  1.0  0.1064
  H  H20  1  0.543800  0.041200  0.223500  1.0  0.1103
  H  H21  1  0.456200  0.125300  0.233800  1.0  0.1121
  H  H22  1  0.656400  0.845100  0.271800  1.0  0.1107
  H  H23  1  0.522600  0.007100  0.374600  1.0  0.1043
  H  H24  1  0.541100  0.935000  0.192200  1.0  0.1069
  H  H25  1  0.923730  0.256000  0.240200  1.0  0.1013
  H  H26  1  0.863730  0.269700  0.160600  1.0  0.1191
  H  H27  1  0.094330  0.387900  0.194400  1.0  0.1081
  H  H28  1  0.154930  0.370400  0.269300  1.0  0.1153
  H  H29  1  0.130630  0.567900  0.128500  1.0  0.1052
  H  H30  1  0.089330  0.477000  0.122300  1.0  0.1205
  H  H31  1  0.824230  0.475200  0.039400  1.0  0.1205
  H  H32  1  0.873030  0.563800  0.042000  1.0  0.0993
  H  H33  1  0.623230  0.240400  0.869900  1.0  0.1219
  H  H34  1  0.704230  0.311900  0.955400  1.0  0.1054
  H  H35  1  0.877130  0.182300  0.958800  1.0  0.1091
  H  H36  1  0.789530  0.108500  0.874700  1.0  0.1148
  H  H37  1  0.989730  0.426700  0.154900  1.0  0.1108
  H  H38  1  0.855930  0.367500  0.992900  1.0  0.1071
  H  H39  1  0.874430  0.257200  0.065000  1.0  0.1059
  H  H40  1  0.257070  0.984200  0.744000  1.0  0.102
  H  H41  1  0.197070  0.890900  0.730300  1.0  0.1188
  H  H42  1  0.427670  0.806500  0.612100  1.0  0.1098
  H  H43  1  0.488270  0.898900  0.629600  1.0  0.1146
  H  H44  1  0.463970  0.560600  0.432100  1.0  0.1054
  H  H45  1  0.422670  0.645300  0.523000  1.0  0.1212
  H  H46  1  0.157570  0.564200  0.524800  1.0  0.1203
  H  H47  1  0.206370  0.478200  0.436200  1.0  0.0994
  H  H48  1  0.956570  0.629500  0.759600  1.0  0.122
  H  H49  1  0.037570  0.643500  0.688100  1.0  0.1055
  H  H50  1  0.210470  0.776500  0.817700  1.0  0.11
  H  H51  1  0.122870  0.766200  0.891500  1.0  0.114
  H  H52  1  0.323070  0.728200  0.573300  1.0  0.1116
  H  H53  1  0.189270  0.625400  0.632500  1.0  0.1037
  H  H54  1  0.207770  0.807800  0.742800  1.0  0.1051
  H  H55  1  0.409600  0.744000  0.984200  1.0  0.1012
  H  H56  1  0.469600  0.730300  0.890900  1.0  0.1196
  H  H57  1  0.239000  0.612100  0.806500  1.0  0.1074
  H  H58  1  0.178400  0.629600  0.898900  1.0  0.115
  H  H59  1  0.202700  0.432100  0.560600  1.0  0.1059
  H  H60  1  0.244000  0.523000  0.645300  1.0  0.1211
  H  H61  1  0.509100  0.524800  0.564200  1.0  0.121
  H  H62  1  0.460300  0.436200  0.478200  1.0  0.0992
  H  H63  1  0.710100  0.759600  0.629500  1.0  0.1215
  H  H64  1  0.629100  0.688100  0.643500  1.0  0.1055
  H  H65  1  0.456200  0.817700  0.776500  1.0  0.1101
  H  H66  1  0.543800  0.891500  0.766200  1.0  0.1142
  H  H67  1  0.343600  0.573300  0.728200  1.0  0.1106
  H  H68  1  0.477400  0.632500  0.625400  1.0  0.1059
  H  H69  1  0.458900  0.742800  0.807800  1.0  0.1053
  H  H70  1  0.076270  0.015800  0.759800  1.0  0.1017
  H  H71  1  0.136270  0.109100  0.839400  1.0  0.119
  H  H72  1  0.905670  0.193500  0.805600  1.0  0.1096
  H  H73  1  0.845070  0.101100  0.730700  1.0  0.1149
  H  H74  1  0.869370  0.439400  0.871500  1.0  0.1052
  H  H75  1  0.910670  0.354700  0.877700  1.0  0.1208
  H  H76  1  0.175770  0.435800  0.960600  1.0  0.1203
  H  H77  1  0.126970  0.521800  0.958000  1.0  0.0997
  H  H78  1  0.376770  0.370500  0.130100  1.0  0.1223
  H  H79  1  0.295770  0.356500  0.044600  1.0  0.1059
  H  H80  1  0.122870  0.223500  0.041200  1.0  0.1104
  H  H81  1  0.210470  0.233800  0.125300  1.0  0.1135
  H  H82  1  0.010270  0.271800  0.845100  1.0  0.1116
  H  H83  1  0.144070  0.374600  0.007100  1.0  0.1034
  H  H84  1  0.125570  0.192200  0.935000  1.0  0.105
  H  H85  1  0.742930  0.240200  0.256000  1.0  0.1034
  H  H86  1  0.802930  0.160600  0.269700  1.0  0.1192
  H  H87  1  0.572330  0.194400  0.387900  1.0  0.1096
  H  H88  1  0.511730  0.269300  0.370400  1.0  0.1154
  H  H89  1  0.536030  0.128500  0.567900  1.0  0.1054
  H  H90  1  0.577330  0.122300  0.477000  1.0  0.1197
  H  H91  1  0.842430  0.039400  0.475200  1.0  0.1211
  H  H92  1  0.793630  0.042000  0.563800  1.0  0.0983
  H  H93  1  0.043430  0.869900  0.240400  1.0  0.1219
  H  H94  1  0.962430  0.955400  0.311900  1.0  0.1054
  H  H95  1  0.789530  0.958800  0.182300  1.0  0.1102
  H  H96  1  0.877130  0.874700  0.108500  1.0  0.1136
  H  H97  1  0.676930  0.154900  0.426700  1.0  0.1112
  H  H98  1  0.810730  0.992900  0.367500  1.0  0.1043
  H  H99  1  0.792230  0.065000  0.257200  1.0  0.1074
  C  C100  1  0.752900  0.691200  0.990100  1.0  0.6552
  C  C101  1  0.711200  0.739500  0.049500  1.0  -0.1117
  C  C102  1  0.626300  0.770100  0.052100  1.0  -0.0598
  C  C103  1  0.589500  0.817500  0.108200  1.0  -0.1526
  C  C104  1  0.639300  0.832000  0.161500  1.0  0.0495
  C  C105  1  0.726500  0.797500  0.157400  1.0  -0.1231
  C  C106  1  0.762200  0.752700  0.102700  1.0  -0.0616
  C  C107  1  0.706900  0.915000  0.546600  1.0  0.7138
  C  C108  1  0.673900  0.915600  0.490200  1.0  -0.1694
  C  C109  1  0.735800  0.891000  0.439100  1.0  -0.0116
  C  C110  1  0.711100  0.893800  0.388400  1.0  -0.191
  C  C111  1  0.617900  0.920800  0.386400  1.0  0.0852
  C  C112  1  0.554700  0.943400  0.436400  1.0  -0.1349
  C  C113  1  0.583600  0.941300  0.487600  1.0  -0.0403
  C  C114  1  0.311500  0.194000  0.313900  1.0  0.7558
  C  C115  1  0.367100  0.136800  0.302800  1.0  -0.1038
  C  C116  1  0.340900  0.111700  0.340300  1.0  -0.0797
  C  C117  1  0.390000  0.061300  0.332000  1.0  -0.1376
  C  C118  1  0.466600  0.032900  0.289600  1.0  0.0714
  C  C119  1  0.491300  0.058900  0.253000  1.0  -0.1371
  C  C120  1  0.440100  0.109600  0.259700  1.0  -0.0567
  C  C121  1  0.605600  0.881600  0.219800  1.0  0.031
  C  C122  1  0.623100  0.879600  0.274700  1.0  -0.0958
  C  C123  1  0.593100  0.926000  0.332000  1.0  0.0339
  C  C124  1  0.543200  0.975100  0.335900  1.0  -0.1343
  C  C125  1  0.554600  0.932100  0.227300  1.0  -0.1186
  C  C126  1  0.521500  0.979200  0.283200  1.0  0.0118
  C  C127  1  0.086230  0.298900  0.308800  1.0  0.6569
  C  C128  1  0.044530  0.310000  0.260500  1.0  -0.1108
  C  C129  1  0.959630  0.282000  0.229900  1.0  -0.059
  C  C130  1  0.922830  0.290700  0.182500  1.0  -0.1522
  C  C131  1  0.972630  0.329500  0.168000  1.0  0.0505
  C  C132  1  0.059830  0.359900  0.202500  1.0  -0.1244
  C  C133  1  0.095530  0.350000  0.247300  1.0  -0.0599
  C  C134  1  0.040230  0.631600  0.085000  1.0  0.7087
  C  C135  1  0.007230  0.574600  0.084400  1.0  -0.1669
  C  C136  1  0.069130  0.548100  0.109000  1.0  -0.0103
  C  C137  1  0.044430  0.494600  0.106200  1.0  -0.1887
  C  C138  1  0.951230  0.465600  0.079200  1.0  0.0849
  C  C139  1  0.888030  0.493000  0.056600  1.0  -0.1363
  C  C140  1  0.916930  0.546300  0.058700  1.0  -0.04
  C  C141  1  0.644830  0.119900  0.806000  1.0  0.754
  C  C142  1  0.700430  0.166000  0.863200  1.0  -0.1051
  C  C143  1  0.674230  0.228600  0.888300  1.0  -0.0774
  C  C144  1  0.723330  0.270700  0.938700  1.0  -0.1389
  C  C145  1  0.799930  0.256700  0.967100  1.0  0.0721
  C  C146  1  0.824630  0.194100  0.941100  1.0  -0.1358
  C  C147  1  0.773430  0.150100  0.890400  1.0  -0.0612
  C  C148  1  0.938930  0.338200  0.118400  1.0  0.0311
  C  C149  1  0.956430  0.395100  0.120400  1.0  -0.0969
  C  C150  1  0.926430  0.406000  0.074000  1.0  0.0336
  C  C151  1  0.876530  0.360800  0.024900  1.0  -0.1343
  C  C152  1  0.887930  0.295200  0.067900  1.0  -0.1183
  C  C153  1  0.854830  0.304000  0.020800  1.0  0.0118
  C  C154  1  0.419570  0.009900  0.701100  1.0  0.6534
  C  C155  1  0.377870  0.950500  0.690000  1.0  -0.1129
  C  C156  1  0.292970  0.947900  0.718000  1.0  -0.0599
  C  C157  1  0.256170  0.891800  0.709300  1.0  -0.152
  C  C158  1  0.305970  0.838500  0.670500  1.0  0.0504
  C  C159  1  0.393170  0.842600  0.640100  1.0  -0.1226
  C  C160  1  0.428870  0.897300  0.650000  1.0  -0.0581
  C  C161  1  0.373570  0.453400  0.368400  1.0  0.7101
  C  C162  1  0.340570  0.509800  0.425400  1.0  -0.1625
  C  C163  1  0.402470  0.560900  0.451900  1.0  -0.012
  C  C164  1  0.377770  0.611600  0.505400  1.0  -0.1937
  C  C165  1  0.284570  0.613600  0.534400  1.0  0.0894
  C  C166  1  0.221370  0.563600  0.507000  1.0  -0.1359
  C  C167  1  0.250270  0.512400  0.453700  1.0  -0.0379
  C  C168  1  0.978170  0.686100  0.880100  1.0  0.754
  C  C169  1  0.033770  0.697200  0.834000  1.0  -0.1036
  C  C170  1  0.007570  0.659700  0.771400  1.0  -0.077
  C  C171  1  0.056670  0.668000  0.729300  1.0  -0.1347
  C  C172  1  0.133270  0.710400  0.743300  1.0  0.0697
  C  C173  1  0.157970  0.747000  0.805900  1.0  -0.1394
  C  C174  1  0.106770  0.740300  0.849900  1.0  -0.059
  C  C175  1  0.272270  0.780200  0.661800  1.0  0.031
  C  C176  1  0.289770  0.725300  0.604900  1.0  -0.0933
  C  C177  1  0.259770  0.668000  0.594000  1.0  0.0318
  C  C178  1  0.209870  0.664100  0.639200  1.0  -0.1349
  C  C179  1  0.221270  0.772700  0.704800  1.0  -0.1224
  C  C180  1  0.188170  0.716800  0.696000  1.0  0.0114
  C  C181  1  0.247100  0.701100  0.009900  1.0  0.6564
  C  C182  1  0.288800  0.690000  0.950500  1.0  -0.1131
  C  C183  1  0.373700  0.718000  0.947900  1.0  -0.0587
  C  C184  1  0.410500  0.709300  0.891800  1.0  -0.1499
  C  C185  1  0.360700  0.670500  0.838500  1.0  0.0496
  C  C186  1  0.273500  0.640100  0.842600  1.0  -0.1231
  C  C187  1  0.237800  0.650000  0.897300  1.0  -0.0616
  C  C188  1  0.293100  0.368400  0.453400  1.0  0.7075
  C  C189  1  0.326100  0.425400  0.509800  1.0  -0.1669
  C  C190  1  0.264200  0.451900  0.560900  1.0  -0.0108
  C  C191  1  0.288900  0.505400  0.611600  1.0  -0.189
  C  C192  1  0.382100  0.534400  0.613600  1.0  0.0861
  C  C193  1  0.445300  0.507000  0.563600  1.0  -0.1366
  C  C194  1  0.416400  0.453700  0.512400  1.0  -0.0393
  C  C195  1  0.688500  0.880100  0.686100  1.0  0.7534
  C  C196  1  0.632900  0.834000  0.697200  1.0  -0.1044
  C  C197  1  0.659100  0.771400  0.659700  1.0  -0.0771
  C  C198  1  0.610000  0.729300  0.668000  1.0  -0.1367
  C  C199  1  0.533400  0.743300  0.710400  1.0  0.0702
  C  C200  1  0.508700  0.805900  0.747000  1.0  -0.1358
  C  C201  1  0.559900  0.849900  0.740300  1.0  -0.0601
  C  C202  1  0.394400  0.661800  0.780200  1.0  0.0306
  C  C203  1  0.376900  0.604900  0.725300  1.0  -0.0952
  C  C204  1  0.406900  0.594000  0.668000  1.0  0.0335
  C  C205  1  0.456800  0.639200  0.664100  1.0  -0.135
  C  C206  1  0.445400  0.704800  0.772700  1.0  -0.1195
  C  C207  1  0.478500  0.696000  0.716800  1.0  0.0135
  C  C208  1  0.913770  0.990100  0.691200  1.0  0.6535
  C  C209  1  0.955470  0.049500  0.739500  1.0  -0.1133
  C  C210  1  0.040370  0.052100  0.770100  1.0  -0.0582
  C  C211  1  0.077170  0.108200  0.817500  1.0  -0.1503
  C  C212  1  0.027370  0.161500  0.832000  1.0  0.0498
  C  C213  1  0.940170  0.157400  0.797500  1.0  -0.1224
  C  C214  1  0.904470  0.102700  0.752700  1.0  -0.0592
  C  C215  1  0.959770  0.546600  0.915000  1.0  0.7105
  C  C216  1  0.992770  0.490200  0.915600  1.0  -0.1609
  C  C217  1  0.930870  0.439100  0.891000  1.0  -0.0106
  C  C218  1  0.955570  0.388400  0.893800  1.0  -0.1928
  C  C219  1  0.048770  0.386400  0.920800  1.0  0.0889
  C  C220  1  0.111970  0.436400  0.943400  1.0  -0.1359
  C  C221  1  0.083070  0.487600  0.941300  1.0  -0.0367
  C  C222  1  0.355170  0.313900  0.194000  1.0  0.7542
  C  C223  1  0.299570  0.302800  0.136800  1.0  -0.1045
  C  C224  1  0.325770  0.340300  0.111700  1.0  -0.0764
  C  C225  1  0.276670  0.332000  0.061300  1.0  -0.1344
  C  C226  1  0.200070  0.289600  0.032900  1.0  0.0686
  C  C227  1  0.175370  0.253000  0.058900  1.0  -0.1384
  C  C228  1  0.226570  0.259700  0.109600  1.0  -0.0592
  C  C229  1  0.061070  0.219800  0.881600  1.0  0.0312
  C  C230  1  0.043570  0.274700  0.879600  1.0  -0.093
  C  C231  1  0.073570  0.332000  0.926000  1.0  0.0311
  C  C232  1  0.123470  0.335900  0.975100  1.0  -0.1359
  C  C233  1  0.112070  0.227300  0.932100  1.0  -0.1204
  C  C234  1  0.145170  0.283200  0.979200  1.0  0.0132
  C  C235  1  0.580430  0.308800  0.298900  1.0  0.6545
  C  C236  1  0.622130  0.260500  0.310000  1.0  -0.114
  C  C237  1  0.707030  0.229900  0.282000  1.0  -0.0596
  C  C238  1  0.743830  0.182500  0.290700  1.0  -0.1502
  C  C239  1  0.694030  0.168000  0.329500  1.0  0.0482
  C  C240  1  0.606830  0.202500  0.359900  1.0  -0.1224
  C  C241  1  0.571130  0.247300  0.350000  1.0  -0.0616
  C  C242  1  0.626430  0.085000  0.631600  1.0  0.7117
  C  C243  1  0.659430  0.084400  0.574600  1.0  -0.1701
  C  C244  1  0.597530  0.109000  0.548100  1.0  -0.0096
  C  C245  1  0.622230  0.106200  0.494600  1.0  -0.1886
  C  C246  1  0.715430  0.079200  0.465600  1.0  0.0878
  C  C247  1  0.778630  0.056600  0.493000  1.0  -0.1372
  C  C248  1  0.749730  0.058700  0.546300  1.0  -0.0397
  C  C249  1  0.021830  0.806000  0.119900  1.0  0.7536
  C  C250  1  0.966230  0.863200  0.166000  1.0  -0.1036
  C  C251  1  0.992430  0.888300  0.228600  1.0  -0.0783
  C  C252  1  0.943330  0.938700  0.270700  1.0  -0.1363
  C  C253  1  0.866730  0.967100  0.256700  1.0  0.0706
  C  C254  1  0.842030  0.941100  0.194100  1.0  -0.1365
  C  C255  1  0.893230  0.890400  0.150100  1.0  -0.0576
  C  C256  1  0.727730  0.118400  0.338200  1.0  0.0305
  C  C257  1  0.710230  0.120400  0.395100  1.0  -0.0949
  C  C258  1  0.740230  0.074000  0.406000  1.0  0.0335
  C  C259  1  0.790130  0.024900  0.360800  1.0  -0.1351
  C  C260  1  0.778730  0.067900  0.295200  1.0  -0.1188
  C  C261  1  0.811830  0.020800  0.304000  1.0  0.0137
  O  O262  1  0.695900  0.666900  0.943100  1.0  -0.6009
  O  O263  1  0.842600  0.672920  0.985530  1.0  -0.6555
  O  O264  1  0.795400  0.892600  0.543320  1.0  -0.6172
  O  O265  1  0.649100  0.935820  0.590500  1.0  -0.6149
  O  O266  1  0.236000  0.207320  0.347250  1.0  -0.6462
  O  O267  1  0.349200  0.222920  0.290890  1.0  -0.6093
  O  O268  1  0.029230  0.276200  0.333100  1.0  -0.6013
  O  O269  1  0.175930  0.312610  0.327080  1.0  -0.6544
  O  O270  1  0.128730  0.650720  0.107400  1.0  -0.6148
  O  O271  1  0.982430  0.654680  0.064180  1.0  -0.6143
  O  O272  1  0.569330  0.139930  0.792680  1.0  -0.6486
  O  O273  1  0.682530  0.067970  0.777080  1.0  -0.61
  O  O274  1  0.362570  0.056900  0.723800  1.0  -0.5996
  O  O275  1  0.509270  0.014470  0.687390  1.0  -0.6559
  O  O276  1  0.462070  0.456680  0.349280  1.0  -0.6161
  O  O277  1  0.315770  0.409500  0.345320  1.0  -0.6144
  O  O278  1  0.902670  0.652750  0.860070  1.0  -0.6483
  O  O279  1  0.015870  0.709110  0.932030  1.0  -0.6095
  O  O280  1  0.304100  0.723800  0.056900  1.0  -0.6018
  O  O281  1  0.157400  0.687390  0.014470  1.0  -0.6532
  O  O282  1  0.204600  0.349280  0.456680  1.0  -0.614
  O  O283  1  0.350900  0.345320  0.409500  1.0  -0.6146
  O  O284  1  0.764000  0.860070  0.652750  1.0  -0.6458
  O  O285  1  0.650800  0.932030  0.709110  1.0  -0.6108
  O  O286  1  0.970770  0.943100  0.666900  1.0  -0.6006
  O  O287  1  0.824070  0.985530  0.672920  1.0  -0.6535
  O  O288  1  0.871270  0.543320  0.892600  1.0  -0.6141
  O  O289  1  0.017570  0.590500  0.935820  1.0  -0.6153
  O  O290  1  0.430670  0.347250  0.207320  1.0  -0.6445
  O  O291  1  0.317470  0.290890  0.222920  1.0  -0.6076
  O  O292  1  0.637430  0.333100  0.276200  1.0  -0.602
  O  O293  1  0.490730  0.327080  0.312610  1.0  -0.654
  O  O294  1  0.537930  0.107400  0.650720  1.0  -0.6174
  O  O295  1  0.684230  0.064180  0.654680  1.0  -0.6152
  O  O296  1  0.097330  0.792680  0.139930  1.0  -0.6433
  O  O297  1  0.984130  0.777080  0.067970  1.0  -0.6102
