# generated using pymatgen
data_Zn3H50C48(N9O10)2
_symmetry_space_group_name_H-M   'P 1'
_cell_length_a   12.61800000
_cell_length_b   12.92700000
_cell_length_c   13.01200000
_cell_angle_alpha   78.30000000
_cell_angle_beta   62.22000000
_cell_angle_gamma   62.07000000
_symmetry_Int_Tables_number   1
_chemical_formula_structural   Zn3H50C48(N9O10)2
_chemical_formula_sum   'Zn3 H50 C48 N18 O20'
_cell_volume   1658.74959701
_cell_formula_units_Z   1
loop_
 _symmetry_equiv_pos_site_id
 _symmetry_equiv_pos_as_xyz
  1  'x, y, z'
loop_
 _atom_site_type_symbol
 _atom_site_label
 _atom_site_symmetry_multiplicity
 _atom_site_fract_x
 _atom_site_fract_y
 _atom_site_fract_z
 _atom_site_occupancy
 _atom_site_charge
  Zn  Zn1  1  0.658230  0.141250  0.393870  1.0  0.9267
  Zn  Zn2  1  0.341770  0.858750  0.606130  1.0  0.9267
  Zn  Zn3  1  0.000000  0.000000  0.000000  1.0  0.961
  H  H4  1  0.112300  0.816700  0.879000  1.0  0.391
  H  H5  1  0.985000  0.166100  0.554400  1.0  0.0968
  H  H6  1  0.831000  0.943600  0.598300  1.0  0.1015
  H  H7  1  0.695000  0.117100  0.712600  1.0  0.1094
  H  H8  1  0.734200  0.222000  0.669800  1.0  0.119
  H  H9  1  0.953200  0.984900  0.777800  1.0  0.1095
  H  H10  1  0.616800  0.935700  0.586100  1.0  0.1092
  H  H11  1  0.357200  0.960700  0.858300  1.0  0.1132
  H  H12  1  0.506800  0.870900  0.796800  1.0  0.118
  H  H13  1  0.285800  0.079000  0.020300  1.0  0.1126
  H  H14  1  0.671800  0.881400  0.842000  1.0  0.1148
  H  H15  1  0.905500  0.773100  0.183100  1.0  0.1209
  H  H16  1  0.010700  0.782900  0.208000  1.0  0.1035
  H  H17  1  0.786300  0.751700  0.380800  1.0  0.0881
  H  H18  1  0.883900  0.769700  0.410000  1.0  0.0803
  H  H19  1  0.934300  0.373100  0.221000  1.0  0.1011
  H  H20  1  0.023000  0.265900  0.271200  1.0  0.0884
  H  H21  1  0.845000  0.324800  0.459700  1.0  0.1212
  H  H22  1  0.757000  0.420700  0.401400  1.0  0.112
  H  H23  1  0.252200  0.449600  0.427100  1.0  0.0904
  H  H24  1  0.275900  0.322700  0.409900  1.0  0.0862
  H  H25  1  0.388300  0.348900  0.203500  1.0  0.1185
  H  H26  1  0.385700  0.460000  0.237500  1.0  0.1259
  H  H27  1  0.416890  0.288650  0.620560  1.0  0.1077
  H  H28  1  0.290920  0.775440  0.955050  1.0  0.1206
  H  H29  1  0.887700  0.183300  0.121000  1.0  0.3904
  H  H30  1  0.015000  0.833900  0.445600  1.0  0.0965
  H  H31  1  0.169000  0.056400  0.401700  1.0  0.1004
  H  H32  1  0.305000  0.882900  0.287400  1.0  0.1108
  H  H33  1  0.265800  0.778000  0.330200  1.0  0.118
  H  H34  1  0.046800  0.015100  0.222200  1.0  0.109
  H  H35  1  0.383200  0.064300  0.413900  1.0  0.1096
  H  H36  1  0.642800  0.039300  0.141700  1.0  0.1163
  H  H37  1  0.493200  0.129100  0.203200  1.0  0.1172
  H  H38  1  0.714200  0.921000  0.979700  1.0  0.112
  H  H39  1  0.328200  0.118600  0.158000  1.0  0.1134
  H  H40  1  0.094500  0.226900  0.816900  1.0  0.1213
  H  H41  1  0.989300  0.217100  0.792000  1.0  0.1049
  H  H42  1  0.213700  0.248300  0.619200  1.0  0.0909
  H  H43  1  0.116100  0.230300  0.590000  1.0  0.0795
  H  H44  1  0.065700  0.626900  0.779000  1.0  0.1014
  H  H45  1  0.977000  0.734100  0.728800  1.0  0.0886
  H  H46  1  0.155000  0.675200  0.540300  1.0  0.1175
  H  H47  1  0.243000  0.579300  0.598600  1.0  0.1122
  H  H48  1  0.747800  0.550400  0.572900  1.0  0.0894
  H  H49  1  0.724100  0.677300  0.590100  1.0  0.0848
  H  H50  1  0.611700  0.651100  0.796500  1.0  0.1161
  H  H51  1  0.614300  0.540000  0.762500  1.0  0.125
  H  H52  1  0.583110  0.711350  0.379440  1.0  0.108
  H  H53  1  0.709080  0.224560  0.044950  1.0  0.1204
  C  C54  1  0.990800  0.098700  0.532600  1.0  -0.1019
  C  C55  1  0.886200  0.067300  0.594700  1.0  0.0442
  C  C56  1  0.899400  0.966700  0.558700  1.0  -0.1053
  C  C57  1  0.764400  0.141000  0.693300  1.0  -0.0827
  C  C58  1  0.750200  0.179500  0.959000  1.0  0.3311
  C  C59  1  0.883300  0.050400  0.823600  1.0  0.1442
  C  C60  1  0.447600  0.192400  0.644600  1.0  0.2584
  C  C61  1  0.556600  0.010000  0.619300  1.0  0.1476
  C  C62  1  0.447900  0.951100  0.825100  1.0  -0.0735
  C  C63  1  0.474700  0.976000  0.916700  1.0  0.0633
  C  C64  1  0.372700  0.046900  0.011800  1.0  -0.0995
  C  C65  1  0.602000  0.929400  0.905700  1.0  -0.1122
  C  C66  1  0.837200  0.932800  0.252400  1.0  0.7336
  C  C67  1  0.917300  0.801300  0.238900  1.0  -0.3831
  C  C68  1  0.878000  0.737600  0.352600  1.0  0.0541
  C  C69  1  0.922100  0.540800  0.312900  1.0  0.6124
  C  C70  1  0.073200  0.568500  0.358100  1.0  0.6141
  C  C71  1  0.108200  0.371300  0.332000  1.0  0.6218
  C  C72  1  0.952500  0.344900  0.288600  1.0  0.0707
  C  C73  1  0.830000  0.343300  0.390200  1.0  -0.3811
  C  C74  1  0.792000  0.255100  0.373600  1.0  0.695
  C  C75  1  0.264200  0.398300  0.373700  1.0  0.0676
  C  C76  1  0.387800  0.383500  0.263400  1.0  -0.3792
  C  C77  1  0.514700  0.307100  0.278100  1.0  0.7099
  C  C78  1  0.009200  0.901300  0.467400  1.0  -0.1104
  C  C79  1  0.113800  0.932700  0.405300  1.0  0.0444
  C  C80  1  0.100600  0.033300  0.441300  1.0  -0.1063
  C  C81  1  0.235600  0.859000  0.306700  1.0  -0.0835
  C  C82  1  0.249800  0.820500  0.041000  1.0  0.3295
  C  C83  1  0.116700  0.949600  0.176400  1.0  0.1453
  C  C84  1  0.552400  0.807600  0.355400  1.0  0.2551
  C  C85  1  0.443400  0.990000  0.380700  1.0  0.1477
  C  C86  1  0.552100  0.048900  0.174900  1.0  -0.0726
  C  C87  1  0.525300  0.024000  0.083300  1.0  0.0634
  C  C88  1  0.627300  0.953100  0.988200  1.0  -0.0925
  C  C89  1  0.398000  0.070600  0.094300  1.0  -0.1125
  C  C90  1  0.162800  0.067200  0.747600  1.0  0.7354
  C  C91  1  0.082700  0.198700  0.761100  1.0  -0.3824
  C  C92  1  0.122000  0.262400  0.647400  1.0  0.0541
  C  C93  1  0.077900  0.459200  0.687100  1.0  0.6155
  C  C94  1  0.926800  0.431500  0.641900  1.0  0.6138
  C  C95  1  0.891800  0.628700  0.668000  1.0  0.6238
  C  C96  1  0.047500  0.655100  0.711400  1.0  0.0695
  C  C97  1  0.170000  0.656700  0.609800  1.0  -0.3813
  C  C98  1  0.208000  0.744900  0.626400  1.0  0.6972
  C  C99  1  0.735800  0.601700  0.626300  1.0  0.0666
  C  C100  1  0.612200  0.616500  0.736600  1.0  -0.3785
  C  C101  1  0.485300  0.692900  0.721900  1.0  0.7101
  N  N102  1  0.962100  0.610600  0.340800  1.0  -0.3028
  N  N103  1  0.144500  0.447100  0.354000  1.0  -0.3303
  N  N104  1  0.996400  0.421200  0.313600  1.0  -0.3142
  N  N105  1  0.546300  0.108800  0.563900  1.0  -0.3994
  N  N106  1  0.397200  0.148200  0.746600  1.0  -0.3464
  N  N107  1  0.469300  0.031800  0.728200  1.0  0.163
  N  N108  1  0.863600  0.077900  0.926100  1.0  -0.3855
  N  N109  1  0.701000  0.213600  0.883400  1.0  -0.3378
  N  N110  1  0.785800  0.132400  0.797900  1.0  0.1588
  N  N111  1  0.037900  0.389400  0.659200  1.0  -0.3021
  N  N112  1  0.855500  0.552900  0.646000  1.0  -0.3305
  N  N113  1  0.003600  0.578800  0.686400  1.0  -0.3187
  N  N114  1  0.453700  0.891200  0.436100  1.0  -0.3991
  N  N115  1  0.602800  0.851800  0.253400  1.0  -0.3452
  N  N116  1  0.530700  0.968200  0.271800  1.0  0.162
  N  N117  1  0.136400  0.922100  0.073900  1.0  -0.3845
  N  N118  1  0.299000  0.786400  0.116600  1.0  -0.3403
  N  N119  1  0.214200  0.867600  0.202100  1.0  0.1601
  O  O120  1  0.681500  0.259900  0.451000  1.0  -0.5974
  O  O121  1  0.858000  0.184400  0.297000  1.0  -0.5667
  O  O122  1  0.513800  0.227100  0.347700  1.0  -0.5824
  O  O123  1  0.616700  0.318500  0.211400  1.0  -0.5263
  O  O124  1  0.848900  0.994500  0.165100  1.0  -0.6106
  O  O125  1  0.759200  0.973200  0.354100  1.0  -0.6055
  O  O126  1  0.824200  0.582900  0.294500  1.0  -0.5037
  O  O127  1  0.109900  0.632000  0.376100  1.0  -0.5168
  O  O128  1  0.172200  0.265900  0.331300  1.0  -0.5111
  O  O129  1  0.050300  0.832200  0.944000  1.0  -0.7007
  O  O130  1  0.318500  0.740100  0.549000  1.0  -0.5983
  O  O131  1  0.142000  0.815600  0.703000  1.0  -0.565
  O  O132  1  0.486200  0.772900  0.652300  1.0  -0.581
  O  O133  1  0.383300  0.681500  0.788600  1.0  -0.5282
  O  O134  1  0.151100  0.005500  0.834900  1.0  -0.6102
  O  O135  1  0.240800  0.026800  0.645900  1.0  -0.6053
  O  O136  1  0.175800  0.417100  0.705500  1.0  -0.504
  O  O137  1  0.890100  0.368000  0.623900  1.0  -0.5137
  O  O138  1  0.827800  0.734100  0.668700  1.0  -0.5119
  O  O139  1  0.949700  0.167800  0.056000  1.0  -0.6971
