# generated using pymatgen
data_Ni3Mo12P8H16C20(N2O25)2
_symmetry_space_group_name_H-M   'P 1'
_cell_length_a   27.74500000
_cell_length_b   16.15830000
_cell_length_c   22.81920000
_cell_angle_alpha   90.00000000
_cell_angle_beta   90.00000000
_cell_angle_gamma   90.00000000
_symmetry_Int_Tables_number   1
_chemical_formula_structural   Ni3Mo12P8H16C20(N2O25)2
_chemical_formula_sum   'Ni12 Mo48 P32 H64 C80 N16 O200'
_cell_volume   10230.12195484
_cell_formula_units_Z   4
loop_
 _symmetry_equiv_pos_site_id
 _symmetry_equiv_pos_as_xyz
  1  'x, y, z'
loop_
 _atom_site_type_symbol
 _atom_site_label
 _atom_site_symmetry_multiplicity
 _atom_site_fract_x
 _atom_site_fract_y
 _atom_site_fract_z
 _atom_site_occupancy
 _atom_site_charge
  Ni  Ni1  1  0.000000  0.000000  0.500000  1.0  0.6559
  Ni  Ni2  1  0.500000  0.500000  0.500000  1.0  0.6559
  Ni  Ni3  1  0.000000  0.500000  0.000000  1.0  0.6559
  Ni  Ni4  1  0.500000  0.000000  0.000000  1.0  0.6559
  Ni  Ni5  1  0.750000  0.750000  0.342020  1.0  0.6615
  Ni  Ni6  1  0.250000  0.250000  0.157980  1.0  0.6615
  Ni  Ni7  1  0.250000  0.250000  0.657980  1.0  0.6615
  Ni  Ni8  1  0.750000  0.750000  0.842020  1.0  0.6615
  Ni  Ni9  1  0.250000  0.750000  0.333840  1.0  0.6318
  Ni  Ni10  1  0.750000  0.250000  0.166160  1.0  0.6327
  Ni  Ni11  1  0.750000  0.250000  0.666160  1.0  0.6327
  Ni  Ni12  1  0.250000  0.750000  0.833840  1.0  0.6318
  Mo  Mo13  1  0.049520  0.798990  0.439200  1.0  1.242
  Mo  Mo14  1  0.933190  0.103530  0.373750  1.0  1.264
  Mo  Mo15  1  0.060180  0.112250  0.369510  1.0  1.2697
  Mo  Mo16  1  0.889310  0.967770  0.403650  1.0  1.2393
  Mo  Mo17  1  0.109930  0.981240  0.396770  1.0  1.2646
  Mo  Mo18  1  0.955760  0.792500  0.443440  1.0  1.2569
  Mo  Mo19  1  0.450480  0.701010  0.439200  1.0  1.2442
  Mo  Mo20  1  0.566810  0.396470  0.373750  1.0  1.2634
  Mo  Mo21  1  0.439820  0.387750  0.369510  1.0  1.2691
  Mo  Mo22  1  0.610690  0.532230  0.403650  1.0  1.2378
  Mo  Mo23  1  0.390070  0.518760  0.396770  1.0  1.2673
  Mo  Mo24  1  0.544240  0.707500  0.443440  1.0  1.2586
  Mo  Mo25  1  0.950480  0.298990  0.060800  1.0  1.2459
  Mo  Mo26  1  0.066810  0.603530  0.126250  1.0  1.2634
  Mo  Mo27  1  0.939820  0.612250  0.130490  1.0  1.2702
  Mo  Mo28  1  0.110690  0.467770  0.096350  1.0  1.2387
  Mo  Mo29  1  0.890070  0.481240  0.103230  1.0  1.2663
  Mo  Mo30  1  0.044240  0.292500  0.056560  1.0  1.2583
  Mo  Mo31  1  0.549520  0.201010  0.060800  1.0  1.2454
  Mo  Mo32  1  0.433190  0.896470  0.126250  1.0  1.2638
  Mo  Mo33  1  0.560180  0.887750  0.130490  1.0  1.2687
  Mo  Mo34  1  0.389310  0.032230  0.096350  1.0  1.2399
  Mo  Mo35  1  0.609930  0.018760  0.103230  1.0  1.2657
  Mo  Mo36  1  0.455760  0.207500  0.056560  1.0  1.2596
  Mo  Mo37  1  0.950480  0.201010  0.560800  1.0  1.2467
  Mo  Mo38  1  0.066810  0.896470  0.626250  1.0  1.2632
  Mo  Mo39  1  0.939820  0.887750  0.630490  1.0  1.2691
  Mo  Mo40  1  0.110690  0.032230  0.596350  1.0  1.2385
  Mo  Mo41  1  0.890070  0.018760  0.603230  1.0  1.2672
  Mo  Mo42  1  0.044240  0.207500  0.556560  1.0  1.2583
  Mo  Mo43  1  0.549520  0.298990  0.560800  1.0  1.2455
  Mo  Mo44  1  0.433190  0.603530  0.626250  1.0  1.2637
  Mo  Mo45  1  0.560180  0.612250  0.630490  1.0  1.2699
  Mo  Mo46  1  0.389310  0.467770  0.596350  1.0  1.2401
  Mo  Mo47  1  0.609930  0.481240  0.603230  1.0  1.2654
  Mo  Mo48  1  0.455760  0.292500  0.556560  1.0  1.2594
  Mo  Mo49  1  0.049520  0.701010  0.939200  1.0  1.2431
  Mo  Mo50  1  0.933190  0.396470  0.873750  1.0  1.2643
  Mo  Mo51  1  0.060180  0.387750  0.869510  1.0  1.2684
  Mo  Mo52  1  0.889310  0.532230  0.903650  1.0  1.2397
  Mo  Mo53  1  0.109930  0.518760  0.896770  1.0  1.2651
  Mo  Mo54  1  0.955760  0.707500  0.943440  1.0  1.2593
  Mo  Mo55  1  0.450480  0.798990  0.939200  1.0  1.2424
  Mo  Mo56  1  0.566810  0.103530  0.873750  1.0  1.2632
  Mo  Mo57  1  0.439820  0.112250  0.869510  1.0  1.2703
  Mo  Mo58  1  0.610690  0.967770  0.903650  1.0  1.2378
  Mo  Mo59  1  0.390070  0.981240  0.896770  1.0  1.2659
  Mo  Mo60  1  0.544240  0.792500  0.943440  1.0  1.2564
  P  P61  1  0.868660  0.780760  0.343210  1.0  1.7345
  P  P62  1  0.133510  0.796530  0.335140  1.0  1.7505
  P  P63  1  0.991450  0.185980  0.261030  1.0  1.6429
  P  P64  1  0.998000  0.932800  0.339560  1.0  1.789
  P  P65  1  0.631340  0.719240  0.343210  1.0  1.7354
  P  P66  1  0.366490  0.703470  0.335140  1.0  1.7521
  P  P67  1  0.508550  0.314020  0.261030  1.0  1.6427
  P  P68  1  0.502000  0.567200  0.339560  1.0  1.7892
  P  P69  1  0.131340  0.280760  0.156790  1.0  1.7358
  P  P70  1  0.866490  0.296530  0.164860  1.0  1.7526
  P  P71  1  0.008550  0.685980  0.238970  1.0  1.6424
  P  P72  1  0.002000  0.432800  0.160440  1.0  1.7896
  P  P73  1  0.368660  0.219240  0.156790  1.0  1.7356
  P  P74  1  0.633510  0.203470  0.164860  1.0  1.7513
  P  P75  1  0.491450  0.814020  0.238970  1.0  1.6429
  P  P76  1  0.498000  0.067200  0.160440  1.0  1.7896
  P  P77  1  0.131340  0.219240  0.656790  1.0  1.7361
  P  P78  1  0.866490  0.203470  0.664860  1.0  1.7526
  P  P79  1  0.008550  0.814020  0.738970  1.0  1.6428
  P  P80  1  0.002000  0.067200  0.660440  1.0  1.7897
  P  P81  1  0.368660  0.280760  0.656790  1.0  1.7355
  P  P82  1  0.633510  0.296530  0.664860  1.0  1.7512
  P  P83  1  0.491450  0.685980  0.738970  1.0  1.6425
  P  P84  1  0.498000  0.432800  0.660440  1.0  1.7896
  P  P85  1  0.868660  0.719240  0.843210  1.0  1.735
  P  P86  1  0.133510  0.703470  0.835140  1.0  1.7506
  P  P87  1  0.991450  0.314020  0.761030  1.0  1.6428
  P  P88  1  0.998000  0.567200  0.839560  1.0  1.7893
  P  P89  1  0.631340  0.780760  0.843210  1.0  1.7349
  P  P90  1  0.366490  0.796530  0.835140  1.0  1.7521
  P  P91  1  0.508550  0.185980  0.761030  1.0  1.6428
  P  P92  1  0.502000  0.932800  0.839560  1.0  1.789
  H  H93  1  0.796900  0.662000  0.238800  1.0  0.141
  H  H94  1  0.798700  0.659700  0.138700  1.0  0.1732
  H  H95  1  0.809200  0.685200  0.946800  1.0  0.129
  H  H96  1  0.810800  0.683000  0.047400  1.0  0.1697
  H  H97  1  0.192300  0.683000  0.230500  1.0  0.1408
  H  H98  1  0.191400  0.679100  0.130200  1.0  0.1713
  H  H99  1  0.186500  0.700000  0.938500  1.0  0.1273
  H  H100  1  0.185100  0.697800  0.039300  1.0  0.1757
  H  H101  1  0.703100  0.838000  0.238800  1.0  0.1411
  H  H102  1  0.701300  0.840300  0.138700  1.0  0.1733
  H  H103  1  0.690800  0.814800  0.946800  1.0  0.1288
  H  H104  1  0.689200  0.817000  0.047400  1.0  0.1704
  H  H105  1  0.307700  0.817000  0.230500  1.0  0.1411
  H  H106  1  0.308600  0.820900  0.130200  1.0  0.1711
  H  H107  1  0.313500  0.800000  0.938500  1.0  0.1276
  H  H108  1  0.314900  0.802200  0.039300  1.0  0.1757
  H  H109  1  0.203100  0.162000  0.261200  1.0  0.1402
  H  H110  1  0.201300  0.159700  0.361300  1.0  0.1733
  H  H111  1  0.190800  0.185200  0.553200  1.0  0.1287
  H  H112  1  0.189200  0.183000  0.452600  1.0  0.1703
  H  H113  1  0.807700  0.183000  0.269500  1.0  0.1408
  H  H114  1  0.808600  0.179100  0.369800  1.0  0.1715
  H  H115  1  0.813500  0.200000  0.561500  1.0  0.1277
  H  H116  1  0.814900  0.197800  0.460700  1.0  0.1758
  H  H117  1  0.296900  0.338000  0.261200  1.0  0.1412
  H  H118  1  0.298700  0.340300  0.361300  1.0  0.1727
  H  H119  1  0.309200  0.314800  0.553200  1.0  0.1288
  H  H120  1  0.310800  0.317000  0.452600  1.0  0.1699
  H  H121  1  0.692300  0.317000  0.269500  1.0  0.1414
  H  H122  1  0.691400  0.320900  0.369800  1.0  0.1715
  H  H123  1  0.686500  0.300000  0.561500  1.0  0.1274
  H  H124  1  0.685100  0.302200  0.460700  1.0  0.1761
  H  H125  1  0.203100  0.338000  0.761200  1.0  0.1409
  H  H126  1  0.201300  0.340300  0.861300  1.0  0.1729
  H  H127  1  0.190800  0.314800  0.053200  1.0  0.1286
  H  H128  1  0.189200  0.317000  0.952600  1.0  0.1705
  H  H129  1  0.807700  0.317000  0.769500  1.0  0.1415
  H  H130  1  0.808600  0.320900  0.869800  1.0  0.1713
  H  H131  1  0.813500  0.300000  0.061500  1.0  0.1277
  H  H132  1  0.814900  0.302200  0.960700  1.0  0.1761
  H  H133  1  0.296900  0.162000  0.761200  1.0  0.1405
  H  H134  1  0.298700  0.159700  0.861300  1.0  0.1732
  H  H135  1  0.309200  0.185200  0.053200  1.0  0.129
  H  H136  1  0.310800  0.183000  0.952600  1.0  0.1695
  H  H137  1  0.692300  0.183000  0.769500  1.0  0.141
  H  H138  1  0.691400  0.179100  0.869800  1.0  0.1716
  H  H139  1  0.686500  0.200000  0.061500  1.0  0.1274
  H  H140  1  0.685100  0.197800  0.960700  1.0  0.1757
  H  H141  1  0.796900  0.838000  0.738800  1.0  0.1412
  H  H142  1  0.798700  0.840300  0.638700  1.0  0.1728
  H  H143  1  0.809200  0.814800  0.446800  1.0  0.1289
  H  H144  1  0.810800  0.817000  0.547400  1.0  0.1698
  H  H145  1  0.192300  0.817000  0.730500  1.0  0.1408
  H  H146  1  0.191400  0.820900  0.630200  1.0  0.1715
  H  H147  1  0.186500  0.800000  0.438500  1.0  0.1275
  H  H148  1  0.185100  0.802200  0.539300  1.0  0.1757
  H  H149  1  0.703100  0.662000  0.738800  1.0  0.1408
  H  H150  1  0.701300  0.659700  0.638700  1.0  0.1737
  H  H151  1  0.690800  0.685200  0.446800  1.0  0.1288
  H  H152  1  0.689200  0.683000  0.547400  1.0  0.1706
  H  H153  1  0.307700  0.683000  0.730500  1.0  0.1407
  H  H154  1  0.308600  0.679100  0.630200  1.0  0.1711
  H  H155  1  0.313500  0.700000  0.438500  1.0  0.1274
  H  H156  1  0.314900  0.697800  0.539300  1.0  0.1757
  C  C157  1  0.777400  0.698800  0.218500  1.0  0.234
  C  C158  1  0.778600  0.696900  0.157900  1.0  -0.14
  C  C159  1  0.784700  0.711900  0.967200  1.0  0.2267
  C  C160  1  0.786000  0.710400  0.028000  1.0  -0.1277
  C  C161  1  0.216400  0.710700  0.210200  1.0  0.2387
  C  C162  1  0.215500  0.708600  0.149400  1.0  -0.1357
  C  C163  1  0.212900  0.720700  0.958900  1.0  0.2304
  C  C164  1  0.211700  0.719300  0.019900  1.0  -0.1238
  C  C165  1  0.722600  0.801200  0.218500  1.0  0.2333
  C  C166  1  0.721400  0.803100  0.157900  1.0  -0.1399
  C  C167  1  0.715300  0.788100  0.967200  1.0  0.2334
  C  C168  1  0.714000  0.789600  0.028000  1.0  -0.1274
  C  C169  1  0.283600  0.789300  0.210200  1.0  0.2384
  C  C170  1  0.284500  0.791400  0.149400  1.0  -0.1363
  C  C171  1  0.287100  0.779300  0.958900  1.0  0.2304
  C  C172  1  0.288300  0.780700  0.019900  1.0  -0.1246
  C  C173  1  0.222600  0.198800  0.281500  1.0  0.2349
  C  C174  1  0.221400  0.196900  0.342100  1.0  -0.1386
  C  C175  1  0.215300  0.211900  0.532800  1.0  0.228
  C  C176  1  0.214000  0.210400  0.472000  1.0  -0.1276
  C  C177  1  0.783600  0.210700  0.289800  1.0  0.2371
  C  C178  1  0.784500  0.208600  0.350600  1.0  -0.1357
  C  C179  1  0.787100  0.220700  0.541100  1.0  0.2307
  C  C180  1  0.788300  0.219300  0.480100  1.0  -0.1247
  C  C181  1  0.277400  0.301200  0.281500  1.0  0.2342
  C  C182  1  0.278600  0.303100  0.342100  1.0  -0.1412
  C  C183  1  0.284700  0.288100  0.532800  1.0  0.2332
  C  C184  1  0.286000  0.289600  0.472000  1.0  -0.1275
  C  C185  1  0.716400  0.289300  0.289800  1.0  0.2382
  C  C186  1  0.715500  0.291400  0.350600  1.0  -0.1362
  C  C187  1  0.712900  0.279300  0.541100  1.0  0.2299
  C  C188  1  0.711700  0.280700  0.480100  1.0  -0.124
  C  C189  1  0.222600  0.301200  0.781500  1.0  0.2341
  C  C190  1  0.221400  0.303100  0.842100  1.0  -0.1402
  C  C191  1  0.215300  0.288100  0.032800  1.0  0.2275
  C  C192  1  0.214000  0.289600  0.972000  1.0  -0.1272
  C  C193  1  0.783600  0.289300  0.789800  1.0  0.2383
  C  C194  1  0.784500  0.291400  0.850600  1.0  -0.1363
  C  C195  1  0.787100  0.279300  0.041100  1.0  0.2301
  C  C196  1  0.788300  0.280700  0.980100  1.0  -0.1248
  C  C197  1  0.277400  0.198800  0.781500  1.0  0.2344
  C  C198  1  0.278600  0.196900  0.842100  1.0  -0.1401
  C  C199  1  0.284700  0.211900  0.032800  1.0  0.2337
  C  C200  1  0.286000  0.210400  0.972000  1.0  -0.1279
  C  C201  1  0.716400  0.210700  0.789800  1.0  0.2378
  C  C202  1  0.715500  0.208600  0.850600  1.0  -0.1353
  C  C203  1  0.712900  0.220700  0.041100  1.0  0.2306
  C  C204  1  0.711700  0.219300  0.980100  1.0  -0.124
  C  C205  1  0.777400  0.801200  0.718500  1.0  0.2337
  C  C206  1  0.778600  0.803100  0.657900  1.0  -0.1409
  C  C207  1  0.784700  0.788100  0.467200  1.0  0.2269
  C  C208  1  0.786000  0.789600  0.528000  1.0  -0.1275
  C  C209  1  0.216400  0.789300  0.710200  1.0  0.238
  C  C210  1  0.215500  0.791400  0.649400  1.0  -0.1361
  C  C211  1  0.212900  0.779300  0.458900  1.0  0.2303
  C  C212  1  0.211700  0.780700  0.519900  1.0  -0.1241
  C  C213  1  0.722600  0.698800  0.718500  1.0  0.2346
  C  C214  1  0.721400  0.696900  0.657900  1.0  -0.1385
  C  C215  1  0.715300  0.711900  0.467200  1.0  0.2333
  C  C216  1  0.714000  0.710400  0.528000  1.0  -0.1274
  C  C217  1  0.283600  0.710700  0.710200  1.0  0.2382
  C  C218  1  0.284500  0.708600  0.649400  1.0  -0.1362
  C  C219  1  0.287100  0.720700  0.458900  1.0  0.2305
  C  C220  1  0.288300  0.719300  0.519900  1.0  -0.1244
  C  C221  1  0.750000  0.750000  0.125600  1.0  0.1259
  C  C222  1  0.750000  0.750000  0.060000  1.0  0.1476
  C  C223  1  0.250000  0.250000  0.374400  1.0  0.1261
  C  C224  1  0.250000  0.250000  0.440000  1.0  0.1478
  C  C225  1  0.250000  0.250000  0.874400  1.0  0.1261
  C  C226  1  0.250000  0.250000  0.940000  1.0  0.1479
  C  C227  1  0.750000  0.750000  0.625600  1.0  0.1259
  C  C228  1  0.750000  0.750000  0.560000  1.0  0.1476
  C  C229  1  0.250000  0.750000  0.117300  1.0  0.1359
  C  C230  1  0.250000  0.750000  0.051100  1.0  0.1173
  C  C231  1  0.750000  0.250000  0.382700  1.0  0.1353
  C  C232  1  0.750000  0.250000  0.448900  1.0  0.1175
  C  C233  1  0.750000  0.250000  0.882700  1.0  0.1353
  C  C234  1  0.750000  0.250000  0.948900  1.0  0.1175
  C  C235  1  0.250000  0.750000  0.617300  1.0  0.1359
  C  C236  1  0.250000  0.750000  0.551100  1.0  0.1173
  N  N237  1  0.750000  0.750000  0.249200  1.0  -0.2583
  N  N238  1  0.750000  0.750000  0.936300  1.0  -0.3045
  N  N239  1  0.250000  0.250000  0.250800  1.0  -0.2587
  N  N240  1  0.250000  0.250000  0.563700  1.0  -0.304
  N  N241  1  0.250000  0.250000  0.750800  1.0  -0.2586
  N  N242  1  0.250000  0.250000  0.063700  1.0  -0.304
  N  N243  1  0.750000  0.750000  0.749200  1.0  -0.2583
  N  N244  1  0.750000  0.750000  0.436300  1.0  -0.3045
  N  N245  1  0.250000  0.750000  0.240900  1.0  -0.2536
  N  N246  1  0.250000  0.750000  0.928400  1.0  -0.299
  N  N247  1  0.750000  0.250000  0.259100  1.0  -0.2546
  N  N248  1  0.750000  0.250000  0.571600  1.0  -0.2983
  N  N249  1  0.750000  0.250000  0.759100  1.0  -0.2546
  N  N250  1  0.750000  0.250000  0.071600  1.0  -0.2983
  N  N251  1  0.250000  0.750000  0.740900  1.0  -0.2536
  N  N252  1  0.250000  0.750000  0.428400  1.0  -0.299
  O  O253  1  0.823370  0.729900  0.340610  1.0  -0.7347
  O  O254  1  0.904360  0.745100  0.387770  1.0  -0.6887
  O  O255  1  0.857390  0.872800  0.355150  1.0  -0.752
  O  O256  1  0.894350  0.781600  0.281000  1.0  -0.5195
  O  O257  1  0.178090  0.744300  0.332030  1.0  -0.7913
  O  O258  1  0.097820  0.758100  0.378500  1.0  -0.7179
  O  O259  1  0.145460  0.887600  0.350830  1.0  -0.7429
  O  O260  1  0.109680  0.797800  0.272100  1.0  -0.4944
  O  O261  1  0.981720  0.277600  0.255000  1.0  -0.5855
  O  O262  1  0.039970  0.166700  0.290310  1.0  -0.7474
  O  O263  1  0.947930  0.147100  0.292280  1.0  -0.7608
  O  O264  1  0.993190  0.145100  0.198200  1.0  -0.4898
  O  O265  1  0.997280  0.027100  0.345870  1.0  -0.8092
  O  O266  1  0.044870  0.898100  0.365760  1.0  -0.7845
  O  O267  1  0.954550  0.894100  0.371890  1.0  -0.7974
  O  O268  1  0.994010  0.916100  0.272880  1.0  -0.5137
  O  O269  1  0.101620  0.887800  0.459550  1.0  -0.5907
  O  O270  1  0.001750  0.874200  0.476450  1.0  -0.764
  O  O271  1  0.002380  0.739600  0.392010  1.0  -0.6447
  O  O272  1  0.941090  0.031100  0.443990  1.0  -0.6807
  O  O273  1  0.995840  0.166800  0.400410  1.0  -0.563
  O  O274  1  0.896310  0.023000  0.328620  1.0  -0.6384
  O  O275  1  0.057460  0.038800  0.439560  1.0  -0.7353
  O  O276  1  0.097530  0.035300  0.322310  1.0  -0.6422
  O  O277  1  0.901500  0.875700  0.466590  1.0  -0.5819
  O  O278  1  0.676630  0.770100  0.340610  1.0  -0.7347
  O  O279  1  0.595640  0.754900  0.387770  1.0  -0.6904
  O  O280  1  0.642610  0.627200  0.355150  1.0  -0.7497
  O  O281  1  0.605650  0.718400  0.281000  1.0  -0.5187
  O  O282  1  0.321910  0.755700  0.332030  1.0  -0.793
  O  O283  1  0.402180  0.741900  0.378500  1.0  -0.7195
  O  O284  1  0.354540  0.612400  0.350830  1.0  -0.7436
  O  O285  1  0.390320  0.702200  0.272100  1.0  -0.4938
  O  O286  1  0.518280  0.222400  0.255000  1.0  -0.5864
  O  O287  1  0.460030  0.333333  0.290310  1.0  -0.746
  O  O288  1  0.552070  0.352900  0.292280  1.0  -0.7616
  O  O289  1  0.506810  0.354900  0.198200  1.0  -0.4916
  O  O290  1  0.502720  0.472900  0.345870  1.0  -0.8093
  O  O291  1  0.455130  0.601900  0.365760  1.0  -0.7843
  O  O292  1  0.545450  0.605900  0.371890  1.0  -0.798
  O  O293  1  0.505990  0.583900  0.272880  1.0  -0.5142
  O  O294  1  0.398380  0.612200  0.459550  1.0  -0.5907
  O  O295  1  0.498250  0.625800  0.476450  1.0  -0.764
  O  O296  1  0.497620  0.760400  0.392010  1.0  -0.638
  O  O297  1  0.558910  0.468900  0.443990  1.0  -0.6814
  O  O298  1  0.504160  0.333200  0.400410  1.0  -0.5725
  O  O299  1  0.603690  0.477000  0.328620  1.0  -0.6395
  O  O300  1  0.442540  0.461200  0.439560  1.0  -0.7356
  O  O301  1  0.402470  0.464700  0.322310  1.0  -0.6405
  O  O302  1  0.598500  0.624300  0.466590  1.0  -0.5812
  O  O303  1  0.176630  0.229900  0.159390  1.0  -0.7351
  O  O304  1  0.095640  0.245100  0.112230  1.0  -0.6896
  O  O305  1  0.142610  0.372800  0.144850  1.0  -0.7495
  O  O306  1  0.105650  0.281600  0.219000  1.0  -0.5178
  O  O307  1  0.821910  0.244300  0.167970  1.0  -0.7921
  O  O308  1  0.902180  0.258100  0.121500  1.0  -0.7177
  O  O309  1  0.854540  0.387600  0.149170  1.0  -0.7427
  O  O310  1  0.890320  0.297800  0.227900  1.0  -0.4924
  O  O311  1  0.018280  0.777600  0.245000  1.0  -0.5864
  O  O312  1  0.960030  0.666667  0.209690  1.0  -0.7464
  O  O313  1  0.052070  0.647100  0.207720  1.0  -0.7626
  O  O314  1  0.006810  0.645100  0.301800  1.0  -0.4893
  O  O315  1  0.002720  0.527100  0.154130  1.0  -0.8117
  O  O316  1  0.955130  0.398100  0.134240  1.0  -0.785
  O  O317  1  0.045450  0.394100  0.128110  1.0  -0.798
  O  O318  1  0.005990  0.416100  0.227120  1.0  -0.5085
  O  O319  1  0.898380  0.387800  0.040450  1.0  -0.5913
  O  O320  1  0.998250  0.374200  0.023550  1.0  -0.7636
  O  O321  1  0.997620  0.239600  0.107990  1.0  -0.6478
  O  O322  1  0.058910  0.531100  0.056010  1.0  -0.681
  O  O323  1  0.004160  0.666800  0.099590  1.0  -0.5647
  O  O324  1  0.103690  0.523000  0.171380  1.0  -0.6395
  O  O325  1  0.942540  0.538800  0.060440  1.0  -0.7356
  O  O326  1  0.902470  0.535300  0.177690  1.0  -0.6426
  O  O327  1  0.098500  0.375700  0.033410  1.0  -0.5831
  O  O328  1  0.323370  0.270100  0.159390  1.0  -0.7357
  O  O329  1  0.404360  0.254900  0.112230  1.0  -0.6889
  O  O330  1  0.357390  0.127200  0.144850  1.0  -0.7504
  O  O331  1  0.394350  0.218400  0.219000  1.0  -0.5175
  O  O332  1  0.678090  0.255700  0.167970  1.0  -0.7923
  O  O333  1  0.597820  0.241900  0.121500  1.0  -0.719
  O  O334  1  0.645460  0.112400  0.149170  1.0  -0.7432
  O  O335  1  0.609680  0.202200  0.227900  1.0  -0.4924
  O  O336  1  0.481720  0.722400  0.245000  1.0  -0.5859
  O  O337  1  0.539970  0.833300  0.209690  1.0  -0.7476
  O  O338  1  0.447930  0.852900  0.207720  1.0  -0.7602
  O  O339  1  0.493190  0.854900  0.301800  1.0  -0.4907
  O  O340  1  0.497280  0.972900  0.154130  1.0  -0.8112
  O  O341  1  0.544870  0.101900  0.134240  1.0  -0.7853
  O  O342  1  0.454550  0.105900  0.128110  1.0  -0.7976
  O  O343  1  0.494010  0.083900  0.227120  1.0  -0.5086
  O  O344  1  0.601620  0.112200  0.040450  1.0  -0.5914
  O  O345  1  0.501750  0.125800  0.023550  1.0  -0.7643
  O  O346  1  0.502380  0.260400  0.107990  1.0  -0.6414
  O  O347  1  0.441090  0.968900  0.056010  1.0  -0.6829
  O  O348  1  0.495840  0.833200  0.099590  1.0  -0.5706
  O  O349  1  0.396310  0.977000  0.171380  1.0  -0.637
  O  O350  1  0.557460  0.961200  0.060440  1.0  -0.7364
  O  O351  1  0.597530  0.964700  0.177690  1.0  -0.6416
  O  O352  1  0.401500  0.124300  0.033410  1.0  -0.5813
  O  O353  1  0.176630  0.270100  0.659390  1.0  -0.7348
  O  O354  1  0.095640  0.254900  0.612230  1.0  -0.6896
  O  O355  1  0.142610  0.127200  0.644850  1.0  -0.7491
  O  O356  1  0.105650  0.218400  0.719000  1.0  -0.5178
  O  O357  1  0.821910  0.255700  0.667970  1.0  -0.793
  O  O358  1  0.902180  0.241900  0.621500  1.0  -0.7191
  O  O359  1  0.854540  0.112400  0.649170  1.0  -0.7432
  O  O360  1  0.890320  0.202200  0.727900  1.0  -0.4923
  O  O361  1  0.018280  0.722400  0.745000  1.0  -0.5855
  O  O362  1  0.960030  0.833300  0.709690  1.0  -0.746
  O  O363  1  0.052070  0.852900  0.707720  1.0  -0.7619
  O  O364  1  0.006810  0.854900  0.801800  1.0  -0.4903
  O  O365  1  0.002720  0.972900  0.654130  1.0  -0.8112
  O  O366  1  0.955130  0.101900  0.634240  1.0  -0.7849
  O  O367  1  0.045450  0.105900  0.628110  1.0  -0.7982
  O  O368  1  0.005990  0.083900  0.727120  1.0  -0.5085
  O  O369  1  0.898380  0.112200  0.540450  1.0  -0.5911
  O  O370  1  0.998250  0.125800  0.523550  1.0  -0.7642
  O  O371  1  0.997620  0.260400  0.607990  1.0  -0.639
  O  O372  1  0.058910  0.968900  0.556010  1.0  -0.6819
  O  O373  1  0.004160  0.833200  0.599590  1.0  -0.5705
  O  O374  1  0.103690  0.977000  0.671380  1.0  -0.6391
  O  O375  1  0.942540  0.961200  0.560440  1.0  -0.7362
  O  O376  1  0.902470  0.964700  0.677690  1.0  -0.6417
  O  O377  1  0.098500  0.124300  0.533410  1.0  -0.5823
  O  O378  1  0.323370  0.229900  0.659390  1.0  -0.7352
  O  O379  1  0.404360  0.245100  0.612230  1.0  -0.6888
  O  O380  1  0.357390  0.372800  0.644850  1.0  -0.7511
  O  O381  1  0.394350  0.281600  0.719000  1.0  -0.5175
  O  O382  1  0.678090  0.244300  0.667970  1.0  -0.7916
  O  O383  1  0.597820  0.258100  0.621500  1.0  -0.7174
  O  O384  1  0.645460  0.387600  0.649170  1.0  -0.7424
  O  O385  1  0.609680  0.297800  0.727900  1.0  -0.4925
  O  O386  1  0.481720  0.777600  0.745000  1.0  -0.5867
  O  O387  1  0.539970  0.666667  0.709690  1.0  -0.7478
  O  O388  1  0.447930  0.647100  0.707720  1.0  -0.7606
  O  O389  1  0.493190  0.645100  0.801800  1.0  -0.49
  O  O390  1  0.497280  0.527100  0.654130  1.0  -0.8116
  O  O391  1  0.544870  0.398100  0.634240  1.0  -0.7852
  O  O392  1  0.454550  0.394100  0.628110  1.0  -0.7972
  O  O393  1  0.494010  0.416100  0.727120  1.0  -0.5085
  O  O394  1  0.601620  0.387800  0.540450  1.0  -0.5914
  O  O395  1  0.501750  0.374200  0.523550  1.0  -0.7639
  O  O396  1  0.502380  0.239600  0.607990  1.0  -0.6455
  O  O397  1  0.441090  0.531100  0.556010  1.0  -0.6819
  O  O398  1  0.495840  0.666800  0.599590  1.0  -0.5647
  O  O399  1  0.396310  0.523000  0.671380  1.0  -0.637
  O  O400  1  0.557460  0.538800  0.560440  1.0  -0.7359
  O  O401  1  0.597530  0.535300  0.677690  1.0  -0.6421
  O  O402  1  0.401500  0.375700  0.533410  1.0  -0.5821
  O  O403  1  0.823370  0.770100  0.840610  1.0  -0.7356
  O  O404  1  0.904360  0.754900  0.887770  1.0  -0.6901
  O  O405  1  0.857390  0.627200  0.855150  1.0  -0.752
  O  O406  1  0.894350  0.718400  0.781000  1.0  -0.5195
  O  O407  1  0.178090  0.755700  0.832030  1.0  -0.7924
  O  O408  1  0.097820  0.741900  0.878500  1.0  -0.7192
  O  O409  1  0.145460  0.612400  0.850830  1.0  -0.743
  O  O410  1  0.109680  0.702200  0.772100  1.0  -0.4941
  O  O411  1  0.981720  0.222400  0.755000  1.0  -0.5866
  O  O412  1  0.039970  0.333333  0.790310  1.0  -0.7476
  O  O413  1  0.947930  0.352900  0.792280  1.0  -0.7604
  O  O414  1  0.993190  0.354900  0.698200  1.0  -0.492
  O  O415  1  0.997280  0.472900  0.845870  1.0  -0.8093
  O  O416  1  0.044870  0.601900  0.865760  1.0  -0.7844
  O  O417  1  0.954550  0.605900  0.871890  1.0  -0.7976
  O  O418  1  0.994010  0.583900  0.772880  1.0  -0.5136
  O  O419  1  0.101620  0.612200  0.959550  1.0  -0.5907
  O  O420  1  0.001750  0.625800  0.976450  1.0  -0.7643
  O  O421  1  0.002380  0.760400  0.892010  1.0  -0.6405
  O  O422  1  0.941090  0.468900  0.943990  1.0  -0.6822
  O  O423  1  0.995840  0.333200  0.900410  1.0  -0.5725
  O  O424  1  0.896310  0.477000  0.828620  1.0  -0.6384
  O  O425  1  0.057460  0.461200  0.939560  1.0  -0.7359
  O  O426  1  0.097530  0.464700  0.822310  1.0  -0.6413
  O  O427  1  0.901500  0.624300  0.966590  1.0  -0.5809
  O  O428  1  0.676630  0.729900  0.840610  1.0  -0.7347
  O  O429  1  0.595640  0.745100  0.887770  1.0  -0.6898
  O  O430  1  0.642610  0.872800  0.855150  1.0  -0.7494
  O  O431  1  0.605650  0.781600  0.781000  1.0  -0.5187
  O  O432  1  0.321910  0.744300  0.832030  1.0  -0.7917
  O  O433  1  0.402180  0.758100  0.878500  1.0  -0.7182
  O  O434  1  0.354540  0.887600  0.850830  1.0  -0.7437
  O  O435  1  0.390320  0.797800  0.772100  1.0  -0.4944
  O  O436  1  0.518280  0.277600  0.755000  1.0  -0.5854
  O  O437  1  0.460030  0.166700  0.790310  1.0  -0.7459
  O  O438  1  0.552070  0.147100  0.792280  1.0  -0.7622
  O  O439  1  0.506810  0.145100  0.698200  1.0  -0.4893
  O  O440  1  0.502720  0.027100  0.845870  1.0  -0.8093
  O  O441  1  0.455130  0.898100  0.865760  1.0  -0.7845
  O  O442  1  0.545450  0.894100  0.871890  1.0  -0.7983
  O  O443  1  0.505990  0.916100  0.772880  1.0  -0.5144
  O  O444  1  0.398380  0.887800  0.959550  1.0  -0.5908
  O  O445  1  0.498250  0.874200  0.976450  1.0  -0.7635
  O  O446  1  0.497620  0.739600  0.892010  1.0  -0.647
  O  O447  1  0.558910  0.031100  0.943990  1.0  -0.68
  O  O448  1  0.504160  0.166800  0.900410  1.0  -0.563
  O  O449  1  0.603690  0.023000  0.828620  1.0  -0.6399
  O  O450  1  0.442540  0.038800  0.939560  1.0  -0.7348
  O  O451  1  0.402470  0.035300  0.822310  1.0  -0.6414
  O  O452  1  0.598500  0.875700  0.966590  1.0  -0.5822
