# generated using pymatgen
data_CoPO4
_symmetry_space_group_name_H-M   'P 1'
_cell_length_a   14.89520000
_cell_length_b   9.71330000
_cell_length_c   13.68780000
_cell_angle_alpha   90.00000000
_cell_angle_beta   90.00000000
_cell_angle_gamma   90.00000000
_symmetry_Int_Tables_number   1
_chemical_formula_structural   CoPO4
_chemical_formula_sum   'Co16 P16 O64'
_cell_volume   1980.37206753
_cell_formula_units_Z   16
loop_
 _symmetry_equiv_pos_site_id
 _symmetry_equiv_pos_as_xyz
  1  'x, y, z'
loop_
 _atom_site_type_symbol
 _atom_site_label
 _atom_site_symmetry_multiplicity
 _atom_site_fract_x
 _atom_site_fract_y
 _atom_site_fract_z
 _atom_site_occupancy
 _atom_site_charge
  Co  Co1  1  0.000000  0.049400  0.612470  1.0  1.0554
  Co  Co2  1  0.500000  0.549400  0.612470  1.0  1.0554
  Co  Co3  1  0.000000  0.950600  0.112470  1.0  1.056
  Co  Co4  1  0.500000  0.450600  0.112470  1.0  1.056
  Co  Co5  1  0.000000  0.049400  0.887530  1.0  1.0536
  Co  Co6  1  0.500000  0.549400  0.887530  1.0  1.0536
  Co  Co7  1  0.000000  0.950600  0.387530  1.0  1.0542
  Co  Co8  1  0.500000  0.450600  0.387530  1.0  1.0542
  Co  Co9  1  0.129050  0.214510  0.250000  1.0  0.9944
  Co  Co10  1  0.629050  0.714510  0.250000  1.0  0.9944
  Co  Co11  1  0.870950  0.785490  0.750000  1.0  0.9956
  Co  Co12  1  0.370950  0.285490  0.750000  1.0  0.9956
  Co  Co13  1  0.870950  0.214510  0.250000  1.0  0.9937
  Co  Co14  1  0.370950  0.714510  0.250000  1.0  0.9937
  Co  Co15  1  0.129050  0.785490  0.750000  1.0  0.9943
  Co  Co16  1  0.629050  0.285490  0.750000  1.0  0.9943
  P  P17  1  0.000000  0.274690  0.427560  1.0  1.7413
  P  P18  1  0.500000  0.774690  0.427560  1.0  1.7413
  P  P19  1  0.000000  0.725310  0.927560  1.0  1.7412
  P  P20  1  0.500000  0.225310  0.927560  1.0  1.7412
  P  P21  1  0.000000  0.274690  0.072440  1.0  1.741
  P  P22  1  0.500000  0.774690  0.072440  1.0  1.741
  P  P23  1  0.000000  0.725310  0.572440  1.0  1.7409
  P  P24  1  0.500000  0.225310  0.572440  1.0  1.7409
  P  P25  1  0.162760  0.112570  0.750000  1.0  1.7624
  P  P26  1  0.662760  0.612570  0.750000  1.0  1.7624
  P  P27  1  0.837240  0.887430  0.250000  1.0  1.7619
  P  P28  1  0.337240  0.387430  0.250000  1.0  1.7619
  P  P29  1  0.837240  0.112570  0.750000  1.0  1.7602
  P  P30  1  0.337240  0.612570  0.750000  1.0  1.7602
  P  P31  1  0.162760  0.887430  0.250000  1.0  1.762
  P  P32  1  0.662760  0.387430  0.250000  1.0  1.762
  O  O33  1  0.085410  0.304040  0.369390  1.0  -0.6773
  O  O34  1  0.108160  0.142010  0.656940  1.0  -0.6872
  O  O35  1  0.585410  0.804040  0.369390  1.0  -0.6773
  O  O36  1  0.608160  0.642010  0.656940  1.0  -0.6874
  O  O37  1  0.914590  0.695960  0.869390  1.0  -0.6779
  O  O38  1  0.891840  0.857990  0.156940  1.0  -0.6872
  O  O39  1  0.414590  0.195960  0.869390  1.0  -0.6779
  O  O40  1  0.391840  0.357990  0.156940  1.0  -0.6872
  O  O41  1  0.914590  0.304040  0.130610  1.0  -0.6775
  O  O42  1  0.891840  0.142010  0.843060  1.0  -0.6878
  O  O43  1  0.414590  0.804040  0.130610  1.0  -0.6775
  O  O44  1  0.391840  0.642010  0.843060  1.0  -0.688
  O  O45  1  0.085410  0.695960  0.630610  1.0  -0.6796
  O  O46  1  0.108160  0.857990  0.343060  1.0  -0.6881
  O  O47  1  0.585410  0.195960  0.630610  1.0  -0.6796
  O  O48  1  0.608160  0.357990  0.343060  1.0  -0.6881
  O  O49  1  0.914590  0.695960  0.630610  1.0  -0.6782
  O  O50  1  0.891840  0.857990  0.343060  1.0  -0.6884
  O  O51  1  0.414590  0.195960  0.630610  1.0  -0.6782
  O  O52  1  0.391840  0.357990  0.343060  1.0  -0.6882
  O  O53  1  0.085410  0.304040  0.130610  1.0  -0.6774
  O  O54  1  0.108160  0.142010  0.843060  1.0  -0.688
  O  O55  1  0.585410  0.804040  0.130610  1.0  -0.6774
  O  O56  1  0.608160  0.642010  0.843060  1.0  -0.688
  O  O57  1  0.085410  0.695960  0.869390  1.0  -0.6794
  O  O58  1  0.108160  0.857990  0.156940  1.0  -0.6869
  O  O59  1  0.585410  0.195960  0.869390  1.0  -0.6794
  O  O60  1  0.608160  0.357990  0.156940  1.0  -0.6871
  O  O61  1  0.914590  0.304040  0.369390  1.0  -0.6774
  O  O62  1  0.891840  0.142010  0.656940  1.0  -0.6871
  O  O63  1  0.414590  0.804040  0.369390  1.0  -0.6774
  O  O64  1  0.391840  0.642010  0.656940  1.0  -0.6871
  O  O65  1  0.000000  0.125700  0.465540  1.0  -0.823
  O  O66  1  0.000000  0.371300  0.518250  1.0  -0.5097
  O  O67  1  0.500000  0.625700  0.465540  1.0  -0.823
  O  O68  1  0.500000  0.871300  0.518250  1.0  -0.5097
  O  O69  1  0.000000  0.874300  0.965540  1.0  -0.8226
  O  O70  1  0.000000  0.628700  0.018250  1.0  -0.5099
  O  O71  1  0.500000  0.374300  0.965540  1.0  -0.8226
  O  O72  1  0.500000  0.128700  0.018250  1.0  -0.5099
  O  O73  1  0.000000  0.125700  0.034460  1.0  -0.8224
  O  O74  1  0.000000  0.371300  0.981750  1.0  -0.5069
  O  O75  1  0.500000  0.625700  0.034460  1.0  -0.8224
  O  O76  1  0.500000  0.871300  0.981750  1.0  -0.5069
  O  O77  1  0.000000  0.874300  0.534460  1.0  -0.8221
  O  O78  1  0.000000  0.628700  0.481750  1.0  -0.5078
  O  O79  1  0.500000  0.374300  0.534460  1.0  -0.8221
  O  O80  1  0.500000  0.128700  0.481750  1.0  -0.5078
  O  O81  1  0.193290  0.960900  0.750000  1.0  -0.684
  O  O82  1  0.245140  0.203900  0.750000  1.0  -0.8055
  O  O83  1  0.693290  0.460900  0.750000  1.0  -0.684
  O  O84  1  0.745140  0.703900  0.750000  1.0  -0.8055
  O  O85  1  0.806710  0.039100  0.250000  1.0  -0.6844
  O  O86  1  0.754860  0.796100  0.250000  1.0  -0.805
  O  O87  1  0.306710  0.539100  0.250000  1.0  -0.6844
  O  O88  1  0.254860  0.296100  0.250000  1.0  -0.805
  O  O89  1  0.806710  0.960900  0.750000  1.0  -0.6843
  O  O90  1  0.754860  0.203900  0.750000  1.0  -0.8054
  O  O91  1  0.306710  0.460900  0.750000  1.0  -0.6843
  O  O92  1  0.254860  0.703900  0.750000  1.0  -0.8054
  O  O93  1  0.193290  0.039100  0.250000  1.0  -0.6839
  O  O94  1  0.245140  0.796100  0.250000  1.0  -0.8056
  O  O95  1  0.693290  0.539100  0.250000  1.0  -0.6839
  O  O96  1  0.745140  0.296100  0.250000  1.0  -0.8056
