# generated using pymatgen
data_ZnH2C7NO4
_symmetry_space_group_name_H-M   'P 1'
_cell_length_a   7.02490000
_cell_length_b   7.02490000
_cell_length_c   19.93600000
_cell_angle_alpha   90.00000000
_cell_angle_beta   90.00000000
_cell_angle_gamma   90.00000000
_symmetry_Int_Tables_number   1
_chemical_formula_structural   ZnH2C7NO4
_chemical_formula_sum   'Zn4 H8 C28 N4 O16'
_cell_volume   983.82605012
_cell_formula_units_Z   4
loop_
 _symmetry_equiv_pos_site_id
 _symmetry_equiv_pos_as_xyz
  1  'x, y, z'
loop_
 _atom_site_type_symbol
 _atom_site_label
 _atom_site_symmetry_multiplicity
 _atom_site_fract_x
 _atom_site_fract_y
 _atom_site_fract_z
 _atom_site_occupancy
 _atom_site_charge
  Zn  Zn1  1  0.000000  0.000000  0.724030  1.0  0.9748
  Zn  Zn2  1  0.500000  0.500000  0.224030  1.0  0.9748
  Zn  Zn3  1  0.500000  0.500000  0.775970  1.0  0.9768
  Zn  Zn4  1  0.000000  0.000000  0.275970  1.0  0.9768
  H  H5  1  0.833000  0.233500  0.949300  1.0  0.1301
  H  H6  1  0.167000  0.766500  0.949300  1.0  0.1301
  H  H7  1  0.266500  0.333000  0.449300  1.0  0.1301
  H  H8  1  0.733500  0.667000  0.449300  1.0  0.1297
  H  H9  1  0.667000  0.733500  0.550700  1.0  0.1303
  H  H10  1  0.333000  0.266500  0.550700  1.0  0.1302
  H  H11  1  0.233500  0.833000  0.050700  1.0  0.1299
  H  H12  1  0.766500  0.167000  0.050700  1.0  0.1306
  C  C13  1  0.898700  0.137800  0.926900  1.0  -0.1238
  C  C14  1  0.897800  0.129500  0.857400  1.0  0.1293
  C  C15  1  0.781000  0.255300  0.811900  1.0  0.611
  C  C16  1  0.101300  0.862200  0.926900  1.0  -0.1197
  C  C17  1  0.102200  0.870500  0.857400  1.0  0.1288
  C  C18  1  0.219000  0.744700  0.811900  1.0  0.6116
  C  C19  1  0.362200  0.398700  0.426900  1.0  -0.1197
  C  C20  1  0.370500  0.397800  0.357400  1.0  0.1288
  C  C21  1  0.244700  0.281000  0.311900  1.0  0.6125
  C  C22  1  0.637800  0.601300  0.426900  1.0  -0.1201
  C  C23  1  0.629500  0.602200  0.357400  1.0  0.1291
  C  C24  1  0.755300  0.719000  0.311900  1.0  0.6119
  C  C25  1  0.601300  0.637800  0.573100  1.0  -0.1228
  C  C26  1  0.602200  0.629500  0.642600  1.0  0.1291
  C  C27  1  0.719000  0.755300  0.688100  1.0  0.6124
  C  C28  1  0.398700  0.362200  0.573100  1.0  -0.1219
  C  C29  1  0.397800  0.370500  0.642600  1.0  0.129
  C  C30  1  0.281000  0.244700  0.688100  1.0  0.6115
  C  C31  1  0.137800  0.898700  0.073100  1.0  -0.1203
  C  C32  1  0.129500  0.897800  0.142600  1.0  0.1293
  C  C33  1  0.255300  0.781000  0.188100  1.0  0.6125
  C  C34  1  0.862200  0.101300  0.073100  1.0  -0.1208
  C  C35  1  0.870500  0.102200  0.142600  1.0  0.129
  C  C36  1  0.744700  0.219000  0.188100  1.0  0.6125
  C  C37  1  0.000000  0.000000  0.962600  1.0  0.0715
  C  C38  1  0.500000  0.500000  0.462600  1.0  0.0715
  C  C39  1  0.500000  0.500000  0.537400  1.0  0.0714
  C  C40  1  0.000000  0.000000  0.037400  1.0  0.0714
  N  N41  1  0.000000  0.000000  0.824800  1.0  -0.3132
  N  N42  1  0.500000  0.500000  0.324800  1.0  -0.3132
  N  N43  1  0.500000  0.500000  0.675200  1.0  -0.312
  N  N44  1  0.000000  0.000000  0.175200  1.0  -0.312
  O  O45  1  0.663900  0.365400  0.839650  1.0  -0.5553
  O  O46  1  0.805800  0.235900  0.750450  1.0  -0.5611
  O  O47  1  0.336100  0.634600  0.839650  1.0  -0.5544
  O  O48  1  0.194200  0.764100  0.750450  1.0  -0.5616
  O  O49  1  0.134600  0.163900  0.339650  1.0  -0.5564
  O  O50  1  0.264100  0.305800  0.250450  1.0  -0.5612
  O  O51  1  0.865400  0.836100  0.339650  1.0  -0.5548
  O  O52  1  0.735900  0.694200  0.250450  1.0  -0.5606
  O  O53  1  0.836100  0.865400  0.660350  1.0  -0.5561
  O  O54  1  0.694200  0.735900  0.749550  1.0  -0.5619
  O  O55  1  0.163900  0.134600  0.660350  1.0  -0.5561
  O  O56  1  0.305800  0.264100  0.749550  1.0  -0.5626
  O  O57  1  0.365400  0.663900  0.160350  1.0  -0.5566
  O  O58  1  0.235900  0.805800  0.249550  1.0  -0.5619
  O  O59  1  0.634600  0.336100  0.160350  1.0  -0.5563
  O  O60  1  0.764100  0.194200  0.249550  1.0  -0.5621
