# generated using pymatgen
data_V16Co2H32C40N8ClO38
_symmetry_space_group_name_H-M   'P 1'
_cell_length_a   14.75400000
_cell_length_b   17.03800000
_cell_length_c   17.03800000
_cell_angle_alpha   90.00000000
_cell_angle_beta   90.00000000
_cell_angle_gamma   90.00000000
_symmetry_Int_Tables_number   1
_chemical_formula_structural   V16Co2H32C40N8ClO38
_chemical_formula_sum   'V32 Co4 H64 C80 N16 Cl2 O76'
_cell_volume   4282.98947278
_cell_formula_units_Z   2
loop_
 _symmetry_equiv_pos_site_id
 _symmetry_equiv_pos_as_xyz
  1  'x, y, z'
loop_
 _atom_site_type_symbol
 _atom_site_label
 _atom_site_symmetry_multiplicity
 _atom_site_fract_x
 _atom_site_fract_y
 _atom_site_fract_z
 _atom_site_occupancy
 _atom_site_charge
  V  V1  1  0.729440  0.935670  0.929000  1.0  2.1297
  V  V2  1  0.587200  0.816040  0.947630  1.0  2.1653
  V  V3  1  0.585500  0.031380  0.187840  1.0  2.2069
  V  V4  1  0.626870  0.878010  0.110450  1.0  2.0942
  V  V5  1  0.729440  0.064330  0.071000  1.0  2.1295
  V  V6  1  0.587200  0.183960  0.052370  1.0  2.1673
  V  V7  1  0.585500  0.968620  0.812160  1.0  2.2077
  V  V8  1  0.626870  0.121990  0.889550  1.0  2.0943
  V  V9  1  0.270560  0.929000  0.064330  1.0  2.1302
  V  V10  1  0.412800  0.947630  0.183960  1.0  2.1678
  V  V11  1  0.414500  0.187840  0.968620  1.0  2.207
  V  V12  1  0.373130  0.110450  0.121990  1.0  2.0922
  V  V13  1  0.270560  0.071000  0.935670  1.0  2.1303
  V  V14  1  0.412800  0.052370  0.816040  1.0  2.1678
  V  V15  1  0.414500  0.812160  0.031380  1.0  2.2056
  V  V16  1  0.373130  0.889550  0.878010  1.0  2.092
  V  V17  1  0.229440  0.435670  0.571000  1.0  2.1296
  V  V18  1  0.087200  0.316040  0.552370  1.0  2.1661
  V  V19  1  0.085500  0.531380  0.312160  1.0  2.2077
  V  V20  1  0.126870  0.378010  0.389550  1.0  2.0942
  V  V21  1  0.229440  0.564330  0.429000  1.0  2.1296
  V  V22  1  0.087200  0.683960  0.447630  1.0  2.1668
  V  V23  1  0.085500  0.468620  0.687840  1.0  2.2066
  V  V24  1  0.126870  0.621990  0.610450  1.0  2.0944
  V  V25  1  0.770560  0.429000  0.435670  1.0  2.1301
  V  V26  1  0.912800  0.447630  0.316040  1.0  2.1677
  V  V27  1  0.914500  0.687840  0.531380  1.0  2.2073
  V  V28  1  0.873130  0.610450  0.378010  1.0  2.092
  V  V29  1  0.770560  0.571000  0.564330  1.0  2.1303
  V  V30  1  0.912800  0.552370  0.683960  1.0  2.1679
  V  V31  1  0.914500  0.312160  0.468620  1.0  2.205
  V  V32  1  0.873130  0.389550  0.621990  1.0  2.0923
  Co  Co33  1  0.750000  0.745000  0.245000  1.0  0.6843
  Co  Co34  1  0.750000  0.255000  0.755000  1.0  0.6841
  Co  Co35  1  0.250000  0.245000  0.255000  1.0  0.6842
  Co  Co36  1  0.250000  0.755000  0.745000  1.0  0.6842
  H  H37  1  0.759100  0.919600  0.243400  1.0  0.0658
  H  H38  1  0.856400  0.026100  0.252500  1.0  0.1117
  H  H39  1  0.050000  0.876300  0.327600  1.0  0.131
  H  H40  1  0.942800  0.773400  0.308800  1.0  0.0727
  H  H41  1  0.052900  0.214300  0.318700  1.0  0.0786
  H  H42  1  0.948300  0.121400  0.317400  1.0  0.1044
  H  H43  1  0.145400  0.964000  0.267500  1.0  0.1151
  H  H44  1  0.243500  0.069900  0.256700  1.0  0.0772
  H  H45  1  0.759100  0.080400  0.756600  1.0  0.0647
  H  H46  1  0.856400  0.973900  0.747500  1.0  0.1109
  H  H47  1  0.050000  0.123700  0.672400  1.0  0.1311
  H  H48  1  0.942800  0.226600  0.691200  1.0  0.0725
  H  H49  1  0.052900  0.785700  0.681300  1.0  0.0791
  H  H50  1  0.948300  0.878600  0.682600  1.0  0.1044
  H  H51  1  0.145400  0.036000  0.732500  1.0  0.1148
  H  H52  1  0.243500  0.930100  0.743300  1.0  0.077
  H  H53  1  0.240900  0.243400  0.080400  1.0  0.066
  H  H54  1  0.143600  0.252500  0.973900  1.0  0.1114
  H  H55  1  0.950000  0.327600  0.123700  1.0  0.1301
  H  H56  1  0.057200  0.308800  0.226600  1.0  0.0745
  H  H57  1  0.947100  0.318700  0.785700  1.0  0.0795
  H  H58  1  0.051700  0.317400  0.878600  1.0  0.1029
  H  H59  1  0.854600  0.267500  0.036000  1.0  0.1149
  H  H60  1  0.756500  0.256700  0.930100  1.0  0.077
  H  H61  1  0.240900  0.756600  0.919600  1.0  0.0662
  H  H62  1  0.143600  0.747500  0.026100  1.0  0.1116
  H  H63  1  0.950000  0.672400  0.876300  1.0  0.1303
  H  H64  1  0.057200  0.691200  0.773400  1.0  0.0739
  H  H65  1  0.947100  0.681300  0.214300  1.0  0.0806
  H  H66  1  0.051700  0.682600  0.121400  1.0  0.1024
  H  H67  1  0.854600  0.732500  0.964000  1.0  0.1145
  H  H68  1  0.756500  0.743300  0.069900  1.0  0.0771
  H  H69  1  0.259100  0.419600  0.256600  1.0  0.0655
  H  H70  1  0.356400  0.526100  0.247500  1.0  0.1117
  H  H71  1  0.550000  0.376300  0.172400  1.0  0.1312
  H  H72  1  0.442800  0.273400  0.191200  1.0  0.0726
  H  H73  1  0.552900  0.714300  0.181300  1.0  0.0788
  H  H74  1  0.448300  0.621400  0.182600  1.0  0.1044
  H  H75  1  0.645400  0.464000  0.232500  1.0  0.1149
  H  H76  1  0.743500  0.569900  0.243300  1.0  0.0767
  H  H77  1  0.259100  0.580400  0.743400  1.0  0.0649
  H  H78  1  0.356400  0.473900  0.752500  1.0  0.1108
  H  H79  1  0.550000  0.623700  0.827600  1.0  0.131
  H  H80  1  0.442800  0.726600  0.808800  1.0  0.0725
  H  H81  1  0.552900  0.285700  0.818700  1.0  0.0794
  H  H82  1  0.448300  0.378600  0.817400  1.0  0.1044
  H  H83  1  0.645400  0.536000  0.767500  1.0  0.1148
  H  H84  1  0.743500  0.430100  0.756700  1.0  0.0773
  H  H85  1  0.740900  0.743400  0.419600  1.0  0.0662
  H  H86  1  0.643600  0.752500  0.526100  1.0  0.1115
  H  H87  1  0.450000  0.827600  0.376300  1.0  0.1304
  H  H88  1  0.557200  0.808800  0.273400  1.0  0.0742
  H  H89  1  0.447100  0.818700  0.714300  1.0  0.0801
  H  H90  1  0.551700  0.817400  0.621400  1.0  0.1024
  H  H91  1  0.354600  0.767500  0.464000  1.0  0.1147
  H  H92  1  0.256500  0.756700  0.569900  1.0  0.0775
  H  H93  1  0.740900  0.256600  0.580400  1.0  0.066
  H  H94  1  0.643600  0.247500  0.473900  1.0  0.1116
  H  H95  1  0.450000  0.172400  0.623700  1.0  0.1301
  H  H96  1  0.557200  0.191200  0.726600  1.0  0.0751
  H  H97  1  0.447100  0.181300  0.285700  1.0  0.0799
  H  H98  1  0.551700  0.182600  0.378600  1.0  0.1025
  H  H99  1  0.354600  0.232500  0.536000  1.0  0.1147
  H  H100  1  0.256500  0.243300  0.430100  1.0  0.077
  C  C101  1  0.818000  0.911200  0.261000  1.0  0.1822
  C  C102  1  0.876700  0.976000  0.265200  1.0  -0.1971
  C  C103  1  0.963400  0.963800  0.287900  1.0  0.0392
  C  C104  1  0.991900  0.886500  0.309100  1.0  -0.1568
  C  C105  1  0.925100  0.825100  0.300200  1.0  0.1541
  C  C106  1  0.070600  0.163600  0.305300  1.0  0.1645
  C  C107  1  0.008200  0.107900  0.306800  1.0  -0.1671
  C  C108  1  0.030000  0.028600  0.292900  1.0  0.0485
  C  C109  1  0.124200  0.014700  0.275500  1.0  -0.1842
  C  C110  1  0.183600  0.079100  0.270800  1.0  0.1711
  C  C111  1  0.818000  0.088800  0.739000  1.0  0.1826
  C  C112  1  0.876700  0.024000  0.734800  1.0  -0.1972
  C  C113  1  0.963400  0.036200  0.712100  1.0  0.0391
  C  C114  1  0.991900  0.113500  0.690900  1.0  -0.1575
  C  C115  1  0.925100  0.174900  0.699800  1.0  0.1538
  C  C116  1  0.070600  0.836400  0.694700  1.0  0.1641
  C  C117  1  0.008200  0.892100  0.693200  1.0  -0.1667
  C  C118  1  0.030000  0.971400  0.707100  1.0  0.0486
  C  C119  1  0.124200  0.985300  0.724500  1.0  -0.1854
  C  C120  1  0.183600  0.920900  0.729200  1.0  0.1716
  C  C121  1  0.182000  0.261000  0.088800  1.0  0.1845
  C  C122  1  0.123300  0.265200  0.024000  1.0  -0.1949
  C  C123  1  0.036600  0.287900  0.036200  1.0  0.0387
  C  C124  1  0.008100  0.309100  0.113500  1.0  -0.1617
  C  C125  1  0.074900  0.300200  0.174900  1.0  0.1576
  C  C126  1  0.929400  0.305300  0.836400  1.0  0.1637
  C  C127  1  0.991800  0.306800  0.892100  1.0  -0.1643
  C  C128  1  0.970000  0.292900  0.971400  1.0  0.0482
  C  C129  1  0.875800  0.275500  0.985300  1.0  -0.1862
  C  C130  1  0.816400  0.270800  0.920900  1.0  0.1707
  C  C131  1  0.182000  0.739000  0.911200  1.0  0.1849
  C  C132  1  0.123300  0.734800  0.976000  1.0  -0.1949
  C  C133  1  0.036600  0.712100  0.963800  1.0  0.0386
  C  C134  1  0.008100  0.690900  0.886500  1.0  -0.1622
  C  C135  1  0.074900  0.699800  0.825100  1.0  0.1563
  C  C136  1  0.929400  0.694700  0.163600  1.0  0.1646
  C  C137  1  0.991800  0.693200  0.107900  1.0  -0.1644
  C  C138  1  0.970000  0.707100  0.028600  1.0  0.0481
  C  C139  1  0.875800  0.724500  0.014700  1.0  -0.1863
  C  C140  1  0.816400  0.729200  0.079100  1.0  0.1696
  C  C141  1  0.318000  0.411200  0.239000  1.0  0.182
  C  C142  1  0.376700  0.476000  0.234800  1.0  -0.197
  C  C143  1  0.463400  0.463800  0.212100  1.0  0.0389
  C  C144  1  0.491900  0.386500  0.190900  1.0  -0.1571
  C  C145  1  0.425100  0.325100  0.199800  1.0  0.1542
  C  C146  1  0.570600  0.663600  0.194700  1.0  0.1645
  C  C147  1  0.508200  0.607900  0.193200  1.0  -0.1665
  C  C148  1  0.530000  0.528600  0.207100  1.0  0.0486
  C  C149  1  0.624200  0.514700  0.224500  1.0  -0.1842
  C  C150  1  0.683600  0.579100  0.229200  1.0  0.1712
  C  C151  1  0.318000  0.588800  0.761000  1.0  0.1826
  C  C152  1  0.376700  0.524000  0.765200  1.0  -0.1973
  C  C153  1  0.463400  0.536200  0.787900  1.0  0.0394
  C  C154  1  0.491900  0.613500  0.809100  1.0  -0.1573
  C  C155  1  0.425100  0.674900  0.800200  1.0  0.154
  C  C156  1  0.570600  0.336400  0.805300  1.0  0.1639
  C  C157  1  0.508200  0.392100  0.806800  1.0  -0.1673
  C  C158  1  0.530000  0.471400  0.792900  1.0  0.0486
  C  C159  1  0.624200  0.485300  0.775500  1.0  -0.1849
  C  C160  1  0.683600  0.420900  0.770800  1.0  0.1716
  C  C161  1  0.682000  0.761000  0.411200  1.0  0.1844
  C  C162  1  0.623300  0.765200  0.476000  1.0  -0.1954
  C  C163  1  0.536600  0.787900  0.463800  1.0  0.0389
  C  C164  1  0.508100  0.809100  0.386500  1.0  -0.1621
  C  C165  1  0.574900  0.800200  0.325100  1.0  0.1564
  C  C166  1  0.429400  0.805300  0.663600  1.0  0.1645
  C  C167  1  0.491800  0.806800  0.607900  1.0  -0.1648
  C  C168  1  0.470000  0.792900  0.528600  1.0  0.0483
  C  C169  1  0.375800  0.775500  0.514700  1.0  -0.1859
  C  C170  1  0.316400  0.770800  0.579100  1.0  0.1694
  C  C171  1  0.682000  0.239000  0.588800  1.0  0.1848
  C  C172  1  0.623300  0.234800  0.524000  1.0  -0.1954
  C  C173  1  0.536600  0.212100  0.536200  1.0  0.0387
  C  C174  1  0.508100  0.190900  0.613500  1.0  -0.1613
  C  C175  1  0.574900  0.199800  0.674900  1.0  0.1571
  C  C176  1  0.429400  0.194700  0.336400  1.0  0.1636
  C  C177  1  0.491800  0.193200  0.392100  1.0  -0.1641
  C  C178  1  0.470000  0.207100  0.471400  1.0  0.0478
  C  C179  1  0.375800  0.224500  0.485300  1.0  -0.1865
  C  C180  1  0.316400  0.229200  0.420900  1.0  0.1708
  N  N181  1  0.841400  0.838900  0.280800  1.0  -0.316
  N  N182  1  0.158400  0.151800  0.285500  1.0  -0.3195
  N  N183  1  0.841400  0.161100  0.719200  1.0  -0.316
  N  N184  1  0.158400  0.848200  0.714500  1.0  -0.32
  N  N185  1  0.158600  0.280800  0.161100  1.0  -0.3146
  N  N186  1  0.841600  0.285500  0.848200  1.0  -0.3191
  N  N187  1  0.158600  0.719200  0.838900  1.0  -0.3147
  N  N188  1  0.841600  0.714500  0.151800  1.0  -0.3193
  N  N189  1  0.341400  0.338900  0.219200  1.0  -0.3164
  N  N190  1  0.658400  0.651800  0.214500  1.0  -0.3202
  N  N191  1  0.341400  0.661100  0.780800  1.0  -0.3153
  N  N192  1  0.658400  0.348200  0.785500  1.0  -0.3193
  N  N193  1  0.658600  0.780800  0.338900  1.0  -0.3145
  N  N194  1  0.341600  0.785500  0.651800  1.0  -0.3186
  N  N195  1  0.658600  0.219200  0.661100  1.0  -0.315
  N  N196  1  0.341600  0.214500  0.348200  1.0  -0.3197
  Cl  Cl197  1  0.000000  0.500000  0.500000  1.0  -0.8632
  Cl  Cl198  1  0.500000  0.000000  0.000000  1.0  -0.8632
  O  O199  1  0.621000  0.880500  0.864400  1.0  -1.1235
  O  O200  1  0.619700  0.040000  0.276300  1.0  -0.6704
  O  O201  1  0.681600  0.871300  0.008400  1.0  -1.1025
  O  O202  1  0.678000  0.977800  0.127100  1.0  -1.2022
  O  O203  1  0.624000  0.730400  0.926100  1.0  -0.6347
  O  O204  1  0.538400  0.814000  0.058500  1.0  -1.1916
  O  O205  1  0.817100  0.900000  0.883900  1.0  -0.6766
  O  O206  1  0.538100  0.924300  0.175800  1.0  -1.1333
  O  O207  1  0.681900  0.818000  0.167800  1.0  -0.7729
  O  O208  1  0.621000  0.119500  0.135600  1.0  -1.1261
  O  O209  1  0.619700  0.960000  0.723700  1.0  -0.6699
  O  O210  1  0.681600  0.128700  0.991600  1.0  -1.1033
  O  O211  1  0.678000  0.022200  0.872900  1.0  -1.202
  O  O212  1  0.624000  0.269600  0.073900  1.0  -0.6354
  O  O213  1  0.538400  0.186000  0.941500  1.0  -1.1913
  O  O214  1  0.817100  0.100000  0.116100  1.0  -0.6768
  O  O215  1  0.538100  0.075700  0.824200  1.0  -1.1336
  O  O216  1  0.681900  0.182000  0.832200  1.0  -0.7727
  O  O217  1  0.379000  0.864400  0.119500  1.0  -1.124
  O  O218  1  0.380300  0.276300  0.960000  1.0  -0.6685
  O  O219  1  0.318400  0.008400  0.128700  1.0  -1.1033
  O  O220  1  0.322000  0.127100  0.022200  1.0  -1.2016
  O  O221  1  0.376000  0.926100  0.269600  1.0  -0.6404
  O  O222  1  0.461600  0.058500  0.186000  1.0  -1.1914
  O  O223  1  0.182900  0.883900  0.100000  1.0  -0.6788
  O  O224  1  0.461900  0.175800  0.075700  1.0  -1.1325
  O  O225  1  0.318100  0.167800  0.182000  1.0  -0.7734
  O  O226  1  0.379000  0.135600  0.880500  1.0  -1.1257
  O  O227  1  0.380300  0.723700  0.040000  1.0  -0.6672
  O  O228  1  0.318400  0.991600  0.871300  1.0  -1.1027
  O  O229  1  0.322000  0.872900  0.977800  1.0  -1.2023
  O  O230  1  0.376000  0.073900  0.730400  1.0  -0.6379
  O  O231  1  0.461600  0.941500  0.814000  1.0  -1.1905
  O  O232  1  0.182900  0.116100  0.900000  1.0  -0.6775
  O  O233  1  0.461900  0.824200  0.924300  1.0  -1.1324
  O  O234  1  0.318100  0.832200  0.818000  1.0  -0.7719
  O  O235  1  0.121000  0.380500  0.635600  1.0  -1.1238
  O  O236  1  0.119700  0.540000  0.223700  1.0  -0.6702
  O  O237  1  0.181600  0.371300  0.491600  1.0  -1.1033
  O  O238  1  0.178000  0.477800  0.372900  1.0  -1.2021
  O  O239  1  0.124000  0.230400  0.573900  1.0  -0.6351
  O  O240  1  0.038400  0.314000  0.441500  1.0  -1.1911
  O  O241  1  0.317100  0.400000  0.616100  1.0  -0.6769
  O  O242  1  0.038100  0.424300  0.324200  1.0  -1.1333
  O  O243  1  0.181900  0.318000  0.332200  1.0  -0.7728
  O  O244  1  0.121000  0.619500  0.364400  1.0  -1.126
  O  O245  1  0.119700  0.460000  0.776300  1.0  -0.6701
  O  O246  1  0.181600  0.628700  0.508400  1.0  -1.1026
  O  O247  1  0.178000  0.522200  0.627100  1.0  -1.2022
  O  O248  1  0.124000  0.769600  0.426100  1.0  -0.6346
  O  O249  1  0.038400  0.686000  0.558500  1.0  -1.1915
  O  O250  1  0.317100  0.600000  0.383900  1.0  -0.6763
  O  O251  1  0.038100  0.575700  0.675800  1.0  -1.1337
  O  O252  1  0.181900  0.682000  0.667800  1.0  -0.773
  O  O253  1  0.879000  0.364400  0.380500  1.0  -1.1234
  O  O254  1  0.880300  0.776300  0.540000  1.0  -0.6683
  O  O255  1  0.818400  0.508400  0.371300  1.0  -1.1031
  O  O256  1  0.822000  0.627100  0.477800  1.0  -1.2021
  O  O257  1  0.876000  0.426100  0.230400  1.0  -0.6383
  O  O258  1  0.961600  0.558500  0.314000  1.0  -1.1908
  O  O259  1  0.682900  0.383900  0.400000  1.0  -0.6781
  O  O260  1  0.961900  0.675800  0.424300  1.0  -1.1324
  O  O261  1  0.818100  0.667800  0.318000  1.0  -0.7723
  O  O262  1  0.879000  0.635600  0.619500  1.0  -1.1262
  O  O263  1  0.880300  0.223700  0.460000  1.0  -0.6675
  O  O264  1  0.818400  0.491600  0.628700  1.0  -1.103
  O  O265  1  0.822000  0.372900  0.522200  1.0  -1.2018
  O  O266  1  0.876000  0.573900  0.769600  1.0  -0.6403
  O  O267  1  0.961600  0.441500  0.686000  1.0  -1.1911
  O  O268  1  0.682900  0.616100  0.600000  1.0  -0.6784
  O  O269  1  0.961900  0.324200  0.575700  1.0  -1.1324
  O  O270  1  0.818100  0.332200  0.682000  1.0  -0.773
  O  O271  1  0.787600  0.000000  0.000000  1.0  -0.7795
  O  O272  1  0.212400  0.000000  0.000000  1.0  -0.7749
  O  O273  1  0.287600  0.500000  0.500000  1.0  -0.7795
  O  O274  1  0.712400  0.500000  0.500000  1.0  -0.7749
