# generated using pymatgen
data_V8ZnH16C20(N2O7)2
_symmetry_space_group_name_H-M   'P 1'
_cell_length_a   17.12400000
_cell_length_b   17.12400000
_cell_length_c   14.72400000
_cell_angle_alpha   90.00000000
_cell_angle_beta   90.00000000
_cell_angle_gamma   90.00000000
_symmetry_Int_Tables_number   1
_chemical_formula_structural   V8ZnH16C20(N2O7)2
_chemical_formula_sum   'V32 Zn4 H64 C80 N16 O56'
_cell_volume   4317.53878022
_cell_formula_units_Z   4
loop_
 _symmetry_equiv_pos_site_id
 _symmetry_equiv_pos_as_xyz
  1  'x, y, z'
loop_
 _atom_site_type_symbol
 _atom_site_label
 _atom_site_symmetry_multiplicity
 _atom_site_fract_x
 _atom_site_fract_y
 _atom_site_fract_z
 _atom_site_occupancy
 _atom_site_charge
  V  V1  1  0.064380  0.071890  0.770400  1.0  1.7891
  V  V2  1  0.969890  0.812460  0.914100  1.0  1.3261
  V  V3  1  0.183140  0.051490  0.911550  1.0  1.3431
  V  V4  1  0.122280  0.890450  0.873660  1.0  2.0982
  V  V5  1  0.935620  0.928110  0.770400  1.0  1.7716
  V  V6  1  0.030110  0.187540  0.914100  1.0  1.3368
  V  V7  1  0.816860  0.948510  0.911550  1.0  1.3429
  V  V8  1  0.877720  0.109550  0.873660  1.0  2.0971
  V  V9  1  0.071890  0.935620  0.229600  1.0  1.7682
  V  V10  1  0.812460  0.030110  0.085900  1.0  1.3447
  V  V11  1  0.051490  0.816860  0.088450  1.0  1.3209
  V  V12  1  0.890450  0.877720  0.126340  1.0  2.096
  V  V13  1  0.928110  0.064380  0.229600  1.0  1.7877
  V  V14  1  0.187540  0.969890  0.085900  1.0  1.3436
  V  V15  1  0.948510  0.183140  0.088450  1.0  1.3329
  V  V16  1  0.109550  0.122280  0.126340  1.0  2.0975
  V  V17  1  0.564380  0.428110  0.270400  1.0  1.7668
  V  V18  1  0.469890  0.687540  0.414100  1.0  1.336
  V  V19  1  0.683140  0.448510  0.411550  1.0  1.3431
  V  V20  1  0.622280  0.609550  0.373660  1.0  2.0983
  V  V21  1  0.435620  0.571890  0.270400  1.0  1.7938
  V  V22  1  0.530110  0.312460  0.414100  1.0  1.3261
  V  V23  1  0.316860  0.551490  0.411550  1.0  1.343
  V  V24  1  0.377720  0.390450  0.373660  1.0  2.097
  V  V25  1  0.571890  0.564380  0.729600  1.0  1.7854
  V  V26  1  0.312460  0.469890  0.585900  1.0  1.3454
  V  V27  1  0.551490  0.683140  0.588450  1.0  1.3335
  V  V28  1  0.390450  0.622280  0.626340  1.0  2.0962
  V  V29  1  0.428110  0.435620  0.729600  1.0  1.7708
  V  V30  1  0.687540  0.530110  0.585900  1.0  1.3432
  V  V31  1  0.448510  0.316860  0.588450  1.0  1.3209
  V  V32  1  0.609550  0.377720  0.626340  1.0  2.0973
  Zn  Zn33  1  0.255710  0.755710  0.750000  1.0  0.7366
  Zn  Zn34  1  0.744290  0.244290  0.750000  1.0  0.7372
  Zn  Zn35  1  0.755710  0.744290  0.250000  1.0  0.7367
  Zn  Zn36  1  0.244290  0.255710  0.250000  1.0  0.737
  H  H37  1  0.178900  0.722600  0.941600  1.0  0.0525
  H  H38  1  0.257200  0.578500  0.757900  1.0  0.0538
  H  H39  1  0.183200  0.287800  0.053000  1.0  0.0478
  H  H40  1  0.237500  0.434700  0.243300  1.0  0.0581
  H  H41  1  0.233000  0.537500  0.143900  1.0  0.1108
  H  H42  1  0.247300  0.475000  0.855800  1.0  0.1104
  H  H43  1  0.181700  0.384900  0.946200  1.0  0.1086
  H  H44  1  0.171100  0.624400  0.046000  1.0  0.0988
  H  H45  1  0.821100  0.277400  0.941600  1.0  0.0518
  H  H46  1  0.742800  0.421500  0.757900  1.0  0.0536
  H  H47  1  0.816800  0.712200  0.053000  1.0  0.0475
  H  H48  1  0.762500  0.565300  0.243300  1.0  0.0584
  H  H49  1  0.767000  0.462500  0.143900  1.0  0.1106
  H  H50  1  0.752700  0.525000  0.855800  1.0  0.1103
  H  H51  1  0.818300  0.615100  0.946200  1.0  0.1081
  H  H52  1  0.828900  0.375600  0.046000  1.0  0.0984
  H  H53  1  0.722600  0.821100  0.058400  1.0  0.0552
  H  H54  1  0.578500  0.742800  0.242100  1.0  0.0538
  H  H55  1  0.287800  0.816800  0.947000  1.0  0.0481
  H  H56  1  0.434700  0.762500  0.756700  1.0  0.0584
  H  H57  1  0.537500  0.767000  0.856100  1.0  0.1114
  H  H58  1  0.475000  0.752700  0.144200  1.0  0.1103
  H  H59  1  0.384900  0.818300  0.053800  1.0  0.1078
  H  H60  1  0.624400  0.828900  0.954000  1.0  0.0986
  H  H61  1  0.277400  0.178900  0.058400  1.0  0.0547
  H  H62  1  0.421500  0.257200  0.242100  1.0  0.0537
  H  H63  1  0.712200  0.183200  0.947000  1.0  0.0488
  H  H64  1  0.565300  0.237500  0.756700  1.0  0.0595
  H  H65  1  0.462500  0.233000  0.856100  1.0  0.1116
  H  H66  1  0.525000  0.247300  0.144200  1.0  0.1105
  H  H67  1  0.615100  0.181700  0.053800  1.0  0.108
  H  H68  1  0.375600  0.171100  0.954000  1.0  0.0986
  H  H69  1  0.678900  0.777400  0.441600  1.0  0.0522
  H  H70  1  0.757200  0.921500  0.257900  1.0  0.0534
  H  H71  1  0.683200  0.212200  0.553000  1.0  0.0476
  H  H72  1  0.737500  0.065300  0.743300  1.0  0.0586
  H  H73  1  0.733000  0.962500  0.643900  1.0  0.1107
  H  H74  1  0.747300  0.025000  0.355800  1.0  0.1103
  H  H75  1  0.681700  0.115100  0.446200  1.0  0.1084
  H  H76  1  0.671100  0.875600  0.546000  1.0  0.0988
  H  H77  1  0.321100  0.222600  0.441600  1.0  0.0516
  H  H78  1  0.242800  0.078500  0.257900  1.0  0.0537
  H  H79  1  0.316800  0.787800  0.553000  1.0  0.0481
  H  H80  1  0.262500  0.934700  0.743300  1.0  0.0581
  H  H81  1  0.267000  0.037500  0.643900  1.0  0.111
  H  H82  1  0.252700  0.975000  0.355800  1.0  0.1104
  H  H83  1  0.318300  0.884900  0.446200  1.0  0.1081
  H  H84  1  0.328900  0.124400  0.546000  1.0  0.0984
  H  H85  1  0.222600  0.678900  0.558400  1.0  0.0552
  H  H86  1  0.078500  0.757200  0.742100  1.0  0.0541
  H  H87  1  0.787800  0.683200  0.447000  1.0  0.048
  H  H88  1  0.934700  0.737500  0.256700  1.0  0.0586
  H  H89  1  0.037500  0.733000  0.356100  1.0  0.1114
  H  H90  1  0.975000  0.747300  0.644200  1.0  0.1101
  H  H91  1  0.884900  0.681700  0.553800  1.0  0.1079
  H  H92  1  0.124400  0.671100  0.454000  1.0  0.0986
  H  H93  1  0.777400  0.321100  0.558400  1.0  0.055
  H  H94  1  0.921500  0.242800  0.742100  1.0  0.0535
  H  H95  1  0.212200  0.316800  0.447000  1.0  0.0487
  H  H96  1  0.065300  0.262500  0.256700  1.0  0.0592
  H  H97  1  0.962500  0.267000  0.356100  1.0  0.1114
  H  H98  1  0.025000  0.252700  0.644200  1.0  0.1106
  H  H99  1  0.115100  0.318300  0.553800  1.0  0.108
  H  H100  1  0.875600  0.328900  0.454000  1.0  0.0986
  C  C101  1  0.194700  0.672600  0.925000  1.0  0.1556
  C  C102  1  0.240200  0.587700  0.817000  1.0  0.1512
  C  C103  1  0.195000  0.338500  0.071000  1.0  0.1574
  C  C104  1  0.226100  0.424700  0.182600  1.0  0.1594
  C  C105  1  0.224100  0.486900  0.123300  1.0  -0.2276
  C  C106  1  0.234700  0.525000  0.875400  1.0  -0.221
  C  C107  1  0.193100  0.396700  0.006500  1.0  -0.2459
  C  C108  1  0.208300  0.472800  0.032300  1.0  0.0708
  C  C109  1  0.209900  0.537900  0.964600  1.0  0.07
  C  C110  1  0.189000  0.613600  0.987700  1.0  -0.2132
  C  C111  1  0.805300  0.327400  0.925000  1.0  0.1561
  C  C112  1  0.759800  0.412300  0.817000  1.0  0.15
  C  C113  1  0.805000  0.661500  0.071000  1.0  0.158
  C  C114  1  0.773900  0.575300  0.182600  1.0  0.1581
  C  C115  1  0.775900  0.513100  0.123300  1.0  -0.2271
  C  C116  1  0.765300  0.475000  0.875400  1.0  -0.2223
  C  C117  1  0.806900  0.603300  0.006500  1.0  -0.2477
  C  C118  1  0.791700  0.527200  0.032300  1.0  0.0698
  C  C119  1  0.790100  0.462100  0.964600  1.0  0.0688
  C  C120  1  0.811000  0.386400  0.987700  1.0  -0.2126
  C  C121  1  0.672600  0.805300  0.075000  1.0  0.1568
  C  C122  1  0.587700  0.759800  0.183000  1.0  0.1531
  C  C123  1  0.338500  0.805000  0.929000  1.0  0.1579
  C  C124  1  0.424700  0.773900  0.817400  1.0  0.1617
  C  C125  1  0.486900  0.775900  0.876700  1.0  -0.2262
  C  C126  1  0.525000  0.765300  0.124600  1.0  -0.2231
  C  C127  1  0.396700  0.806900  0.993500  1.0  -0.2446
  C  C128  1  0.472800  0.791700  0.967700  1.0  0.0703
  C  C129  1  0.537900  0.790100  0.035400  1.0  0.0696
  C  C130  1  0.613600  0.811000  0.012300  1.0  -0.2125
  C  C131  1  0.327400  0.194700  0.075000  1.0  0.1563
  C  C132  1  0.412300  0.240200  0.183000  1.0  0.1528
  C  C133  1  0.661500  0.195000  0.929000  1.0  0.1599
  C  C134  1  0.575300  0.226100  0.817400  1.0  0.1622
  C  C135  1  0.513100  0.224100  0.876700  1.0  -0.226
  C  C136  1  0.475000  0.234700  0.124600  1.0  -0.2218
  C  C137  1  0.603300  0.193100  0.993500  1.0  -0.2431
  C  C138  1  0.527200  0.208300  0.967700  1.0  0.069
  C  C139  1  0.462100  0.209900  0.035400  1.0  0.0688
  C  C140  1  0.386400  0.189000  0.012300  1.0  -0.2135
  C  C141  1  0.694700  0.827400  0.425000  1.0  0.1564
  C  C142  1  0.740200  0.912300  0.317000  1.0  0.1512
  C  C143  1  0.695000  0.161500  0.571000  1.0  0.157
  C  C144  1  0.726100  0.075300  0.682600  1.0  0.1594
  C  C145  1  0.724100  0.013100  0.623300  1.0  -0.2272
  C  C146  1  0.734700  0.975000  0.375400  1.0  -0.2218
  C  C147  1  0.693100  0.103300  0.506500  1.0  -0.2469
  C  C148  1  0.708300  0.027200  0.532300  1.0  0.0702
  C  C149  1  0.709900  0.962100  0.464600  1.0  0.0697
  C  C150  1  0.689000  0.886400  0.487700  1.0  -0.2133
  C  C151  1  0.305300  0.172600  0.425000  1.0  0.1556
  C  C152  1  0.259800  0.087700  0.317000  1.0  0.1501
  C  C153  1  0.305000  0.838500  0.571000  1.0  0.1578
  C  C154  1  0.273900  0.924700  0.682600  1.0  0.1578
  C  C155  1  0.275900  0.986900  0.623300  1.0  -0.2271
  C  C156  1  0.265300  0.025000  0.375400  1.0  -0.2219
  C  C157  1  0.306900  0.896700  0.506500  1.0  -0.2466
  C  C158  1  0.291700  0.972800  0.532300  1.0  0.0701
  C  C159  1  0.290100  0.037900  0.464600  1.0  0.0693
  C  C160  1  0.311000  0.113600  0.487700  1.0  -0.2127
  C  C161  1  0.172600  0.694700  0.575000  1.0  0.1564
  C  C162  1  0.087700  0.740200  0.683000  1.0  0.1534
  C  C163  1  0.838500  0.695000  0.429000  1.0  0.1586
  C  C164  1  0.924700  0.726100  0.317400  1.0  0.1613
  C  C165  1  0.986900  0.724100  0.376700  1.0  -0.2266
  C  C166  1  0.025000  0.734700  0.624600  1.0  -0.2235
  C  C167  1  0.896700  0.693100  0.493500  1.0  -0.2447
  C  C168  1  0.972800  0.708300  0.467700  1.0  0.07
  C  C169  1  0.037900  0.709900  0.535400  1.0  0.0696
  C  C170  1  0.113600  0.689000  0.512300  1.0  -0.2132
  C  C171  1  0.827400  0.305300  0.575000  1.0  0.1563
  C  C172  1  0.912300  0.259800  0.683000  1.0  0.1525
  C  C173  1  0.161500  0.305000  0.429000  1.0  0.1596
  C  C174  1  0.075300  0.273900  0.317400  1.0  0.1625
  C  C175  1  0.013100  0.275900  0.376700  1.0  -0.2254
  C  C176  1  0.975000  0.265300  0.624600  1.0  -0.2212
  C  C177  1  0.103300  0.306900  0.493500  1.0  -0.243
  C  C178  1  0.027200  0.291700  0.467700  1.0  0.0696
  C  C179  1  0.962100  0.290100  0.535400  1.0  0.0686
  C  C180  1  0.886400  0.311000  0.512300  1.0  -0.2129
  N  N181  1  0.222200  0.660900  0.840800  1.0  -0.3647
  N  N182  1  0.212700  0.350900  0.157700  1.0  -0.3366
  N  N183  1  0.777800  0.339100  0.840800  1.0  -0.3647
  N  N184  1  0.787300  0.649100  0.157700  1.0  -0.3367
  N  N185  1  0.660900  0.777800  0.159200  1.0  -0.3595
  N  N186  1  0.350900  0.787300  0.842300  1.0  -0.333
  N  N187  1  0.339100  0.222200  0.159200  1.0  -0.3609
  N  N188  1  0.649100  0.212700  0.842300  1.0  -0.3336
  N  N189  1  0.722200  0.839100  0.340800  1.0  -0.3652
  N  N190  1  0.712700  0.149100  0.657700  1.0  -0.3374
  N  N191  1  0.277800  0.160900  0.340800  1.0  -0.3643
  N  N192  1  0.287300  0.850900  0.657700  1.0  -0.3363
  N  N193  1  0.160900  0.722200  0.659200  1.0  -0.3597
  N  N194  1  0.850900  0.712700  0.342300  1.0  -0.3331
  N  N195  1  0.839100  0.277800  0.659200  1.0  -0.3609
  N  N196  1  0.149100  0.287300  0.342300  1.0  -0.3336
  O  O197  1  0.119100  0.135200  0.878400  1.0  -0.994
  O  O198  1  0.182110  0.833710  0.818600  1.0  -0.8141
  O  O199  1  0.128100  0.993700  0.820500  1.0  -1.0951
  O  O200  1  0.075500  0.823450  0.963600  1.0  -1.0662
  O  O201  1  0.020300  0.873000  0.820400  1.0  -1.0562
  O  O202  1  0.186300  0.944600  0.961900  1.0  -1.0587
  O  O203  1  0.880900  0.864800  0.878400  1.0  -0.9941
  O  O204  1  0.817890  0.166290  0.818600  1.0  -0.8112
  O  O205  1  0.871900  0.006300  0.820500  1.0  -1.0944
  O  O206  1  0.924500  0.176550  0.963600  1.0  -1.0659
  O  O207  1  0.979700  0.127000  0.820400  1.0  -1.056
  O  O208  1  0.813700  0.055400  0.961900  1.0  -1.0603
  O  O209  1  0.135200  0.880900  0.121600  1.0  -0.9905
  O  O210  1  0.833710  0.817890  0.181400  1.0  -0.8125
  O  O211  1  0.993700  0.871900  0.179500  1.0  -1.0963
  O  O212  1  0.823450  0.924500  0.036400  1.0  -1.0658
  O  O213  1  0.873000  0.979700  0.179600  1.0  -1.0556
  O  O214  1  0.944600  0.813700  0.038100  1.0  -1.0582
  O  O215  1  0.864800  0.119100  0.121600  1.0  -0.9951
  O  O216  1  0.166290  0.182110  0.181400  1.0  -0.8125
  O  O217  1  0.006300  0.128100  0.179500  1.0  -1.0954
  O  O218  1  0.176550  0.075500  0.036400  1.0  -1.0664
  O  O219  1  0.127000  0.020300  0.179600  1.0  -1.0558
  O  O220  1  0.055400  0.186300  0.038100  1.0  -1.0618
  O  O221  1  0.619100  0.364800  0.378400  1.0  -0.9916
  O  O222  1  0.682110  0.666290  0.318600  1.0  -0.8136
  O  O223  1  0.628100  0.506300  0.320500  1.0  -1.0948
  O  O224  1  0.575500  0.676550  0.463600  1.0  -1.0666
  O  O225  1  0.520300  0.627000  0.320400  1.0  -1.0559
  O  O226  1  0.686300  0.555400  0.461900  1.0  -1.0588
  O  O227  1  0.380900  0.635200  0.378400  1.0  -0.9966
  O  O228  1  0.317890  0.333710  0.318600  1.0  -0.8116
  O  O229  1  0.371900  0.493700  0.320500  1.0  -1.0945
  O  O230  1  0.424500  0.323450  0.463600  1.0  -1.0657
  O  O231  1  0.479700  0.373000  0.320400  1.0  -1.0563
  O  O232  1  0.313700  0.444600  0.461900  1.0  -1.0598
  O  O233  1  0.635200  0.619100  0.621600  1.0  -0.9929
  O  O234  1  0.333710  0.682110  0.681400  1.0  -0.8122
  O  O235  1  0.493700  0.628100  0.679500  1.0  -1.0955
  O  O236  1  0.323450  0.575500  0.536400  1.0  -1.0658
  O  O237  1  0.373000  0.520300  0.679600  1.0  -1.0557
  O  O238  1  0.444600  0.686300  0.538100  1.0  -1.0599
  O  O239  1  0.364800  0.380900  0.621600  1.0  -0.992
  O  O240  1  0.666290  0.317890  0.681400  1.0  -0.8126
  O  O241  1  0.506300  0.371900  0.679500  1.0  -1.0959
  O  O242  1  0.676550  0.424500  0.536400  1.0  -1.0666
  O  O243  1  0.627000  0.479700  0.679600  1.0  -1.056
  O  O244  1  0.555400  0.313700  0.538100  1.0  -1.0598
  O  O245  1  0.000000  0.000000  0.715800  1.0  -0.6193
  O  O246  1  0.000000  0.000000  0.797800  1.0  -0.6561
  O  O247  1  0.000000  0.000000  0.284200  1.0  -0.6194
  O  O248  1  0.000000  0.000000  0.202200  1.0  -0.6578
  O  O249  1  0.500000  0.500000  0.215800  1.0  -0.6193
  O  O250  1  0.500000  0.500000  0.297800  1.0  -0.6561
  O  O251  1  0.500000  0.500000  0.784200  1.0  -0.6194
  O  O252  1  0.500000  0.500000  0.702200  1.0  -0.6578
