# generated using pymatgen
data_KCuPH10C6(NO3)2
_symmetry_space_group_name_H-M   'P 1'
_cell_length_a   16.69390000
_cell_length_b   16.69390000
_cell_length_c   16.69390000
_cell_angle_alpha   117.06050000
_cell_angle_beta   117.06050000
_cell_angle_gamma   117.06050000
_symmetry_Int_Tables_number   1
_chemical_formula_structural   KCuPH10C6(NO3)2
_chemical_formula_sum   'K6 Cu6 P6 H60 C36 N12 O36'
_cell_volume   2032.21386200
_cell_formula_units_Z   6
loop_
 _symmetry_equiv_pos_site_id
 _symmetry_equiv_pos_as_xyz
  1  'x, y, z'
loop_
 _atom_site_type_symbol
 _atom_site_label
 _atom_site_symmetry_multiplicity
 _atom_site_fract_x
 _atom_site_fract_y
 _atom_site_fract_z
 _atom_site_occupancy
 _atom_site_charge
  K  K1  1  0.383540  0.071680  0.630080  1.0  0.9225
  K  K2  1  0.630080  0.383540  0.071680  1.0  0.9268
  K  K3  1  0.071680  0.630080  0.383540  1.0  0.9272
  K  K4  1  0.616460  0.928320  0.369920  1.0  0.9228
  K  K5  1  0.369920  0.616460  0.928320  1.0  0.9259
  K  K6  1  0.928320  0.369920  0.616460  1.0  0.9278
  Cu  Cu7  1  0.012160  0.039590  0.412130  1.0  0.8106
  Cu  Cu8  1  0.412130  0.012160  0.039590  1.0  0.8162
  Cu  Cu9  1  0.039590  0.412130  0.012160  1.0  0.8172
  Cu  Cu10  1  0.987840  0.960410  0.587870  1.0  0.8125
  Cu  Cu11  1  0.587870  0.987840  0.960410  1.0  0.8167
  Cu  Cu12  1  0.960410  0.587870  0.987840  1.0  0.8161
  P  P13  1  0.018220  0.840220  0.216460  1.0  1.3201
  P  P14  1  0.216460  0.018220  0.840220  1.0  1.3212
  P  P15  1  0.840220  0.216460  0.018220  1.0  1.3207
  P  P16  1  0.981780  0.159780  0.783540  1.0  1.3203
  P  P17  1  0.783540  0.981780  0.159780  1.0  1.3223
  P  P18  1  0.159780  0.783540  0.981780  1.0  1.3217
  H  H19  1  0.239500  0.099700  0.379200  1.0  0.1475
  H  H20  1  0.081700  0.027100  0.265800  1.0  0.1242
  H  H21  1  0.276100  0.301500  0.512500  1.0  0.1022
  H  H22  1  0.415900  0.371600  0.657200  1.0  0.0956
  H  H23  1  0.784200  0.730800  0.052000  1.0  0.1264
  H  H24  1  0.751500  0.618000  0.038500  1.0  0.1603
  H  H25  1  0.631900  0.614700  0.101100  1.0  0.0852
  H  H26  1  0.632400  0.681700  0.058800  1.0  0.0891
  H  H27  1  0.246300  0.140200  0.532600  1.0  0.2765
  H  H28  1  0.882400  0.790800  0.278100  1.0  0.266
  H  H29  1  0.379200  0.239500  0.099700  1.0  0.1469
  H  H30  1  0.265800  0.081700  0.027100  1.0  0.1243
  H  H31  1  0.512500  0.276100  0.301500  1.0  0.1028
  H  H32  1  0.657200  0.415900  0.371600  1.0  0.093
  H  H33  1  0.052000  0.784200  0.730800  1.0  0.13
  H  H34  1  0.038500  0.751500  0.618000  1.0  0.1611
  H  H35  1  0.101100  0.631900  0.614700  1.0  0.0874
  H  H36  1  0.058800  0.632400  0.681700  1.0  0.088
  H  H37  1  0.532600  0.246300  0.140200  1.0  0.2746
  H  H38  1  0.278100  0.882400  0.790800  1.0  0.2668
  H  H39  1  0.099700  0.379200  0.239500  1.0  0.146
  H  H40  1  0.027100  0.265800  0.081700  1.0  0.1237
  H  H41  1  0.301500  0.512500  0.276100  1.0  0.1059
  H  H42  1  0.371600  0.657200  0.415900  1.0  0.0947
  H  H43  1  0.730800  0.052000  0.784200  1.0  0.1303
  H  H44  1  0.618000  0.038500  0.751500  1.0  0.1633
  H  H45  1  0.614700  0.101100  0.631900  1.0  0.0828
  H  H46  1  0.681700  0.058800  0.632400  1.0  0.0879
  H  H47  1  0.140200  0.532600  0.246300  1.0  0.2771
  H  H48  1  0.790800  0.278100  0.882400  1.0  0.2679
  H  H49  1  0.760500  0.900300  0.620800  1.0  0.1459
  H  H50  1  0.918300  0.972900  0.734200  1.0  0.1242
  H  H51  1  0.723900  0.698500  0.487500  1.0  0.103
  H  H52  1  0.584100  0.628400  0.342800  1.0  0.0963
  H  H53  1  0.215800  0.269200  0.948000  1.0  0.1287
  H  H54  1  0.248500  0.382000  0.961500  1.0  0.1606
  H  H55  1  0.368100  0.385300  0.898900  1.0  0.0853
  H  H56  1  0.367600  0.318300  0.941200  1.0  0.0892
  H  H57  1  0.753700  0.859800  0.467400  1.0  0.2777
  H  H58  1  0.117600  0.209200  0.721900  1.0  0.2676
  H  H59  1  0.620800  0.760500  0.900300  1.0  0.146
  H  H60  1  0.734200  0.918300  0.972900  1.0  0.1253
  H  H61  1  0.487500  0.723900  0.698500  1.0  0.1024
  H  H62  1  0.342800  0.584100  0.628400  1.0  0.0925
  H  H63  1  0.948000  0.215800  0.269200  1.0  0.1289
  H  H64  1  0.961500  0.248500  0.382000  1.0  0.1593
  H  H65  1  0.898900  0.368100  0.385300  1.0  0.0863
  H  H66  1  0.941200  0.367600  0.318300  1.0  0.0898
  H  H67  1  0.467400  0.753700  0.859800  1.0  0.2751
  H  H68  1  0.721900  0.117600  0.209200  1.0  0.2661
  H  H69  1  0.900300  0.620800  0.760500  1.0  0.1456
  H  H70  1  0.972900  0.734200  0.918300  1.0  0.123
  H  H71  1  0.698500  0.487500  0.723900  1.0  0.1073
  H  H72  1  0.628400  0.342800  0.584100  1.0  0.0941
  H  H73  1  0.269200  0.948000  0.215800  1.0  0.129
  H  H74  1  0.382000  0.961500  0.248500  1.0  0.1622
  H  H75  1  0.385300  0.898900  0.368100  1.0  0.087
  H  H76  1  0.318300  0.941200  0.367600  1.0  0.0895
  H  H77  1  0.859800  0.467400  0.753700  1.0  0.2766
  H  H78  1  0.209200  0.721900  0.117600  1.0  0.267
  C  C79  1  0.142700  0.039700  0.335600  1.0  -0.3912
  C  C80  1  0.305100  0.302000  0.578100  1.0  -0.1659
  C  C81  1  0.296200  0.369200  0.666800  1.0  0.7244
  C  C82  1  0.829000  0.730700  0.114400  1.0  -0.3641
  C  C83  1  0.695400  0.713400  0.147400  1.0  -0.1109
  C  C84  1  0.727100  0.818000  0.265800  1.0  0.7238
  C  C85  1  0.335600  0.142700  0.039700  1.0  -0.3941
  C  C86  1  0.578100  0.305100  0.302000  1.0  -0.1712
  C  C87  1  0.666800  0.296200  0.369200  1.0  0.7265
  C  C88  1  0.114400  0.829000  0.730700  1.0  -0.3674
  C  C89  1  0.147400  0.695400  0.713400  1.0  -0.1094
  C  C90  1  0.265800  0.727100  0.818000  1.0  0.7265
  C  C91  1  0.039700  0.335600  0.142700  1.0  -0.3838
  C  C92  1  0.302000  0.578100  0.305100  1.0  -0.1684
  C  C93  1  0.369200  0.666800  0.296200  1.0  0.7263
  C  C94  1  0.730700  0.114400  0.829000  1.0  -0.3637
  C  C95  1  0.713400  0.147400  0.695400  1.0  -0.1108
  C  C96  1  0.818000  0.265800  0.727100  1.0  0.7321
  C  C97  1  0.857300  0.960300  0.664400  1.0  -0.3888
  C  C98  1  0.694900  0.698000  0.421900  1.0  -0.1696
  C  C99  1  0.703800  0.630800  0.333200  1.0  0.7231
  C  C100  1  0.171000  0.269300  0.885600  1.0  -0.3627
  C  C101  1  0.304600  0.286600  0.852600  1.0  -0.1102
  C  C102  1  0.272900  0.182000  0.734200  1.0  0.7226
  C  C103  1  0.664400  0.857300  0.960300  1.0  -0.3966
  C  C104  1  0.421900  0.694900  0.698000  1.0  -0.1708
  C  C105  1  0.333200  0.703800  0.630800  1.0  0.7253
  C  C106  1  0.885600  0.171000  0.269300  1.0  -0.3631
  C  C107  1  0.852600  0.304600  0.286600  1.0  -0.1077
  C  C108  1  0.734200  0.272900  0.182000  1.0  0.7259
  C  C109  1  0.960300  0.664400  0.857300  1.0  -0.3838
  C  C110  1  0.698000  0.421900  0.694900  1.0  -0.1684
  C  C111  1  0.630800  0.333200  0.703800  1.0  0.7274
  C  C112  1  0.269300  0.885600  0.171000  1.0  -0.3616
  C  C113  1  0.286600  0.852600  0.304600  1.0  -0.111
  C  C114  1  0.182000  0.734200  0.272900  1.0  0.7297
  N  N115  1  0.191000  0.132000  0.470700  1.0  -0.3463
  N  N116  1  0.849600  0.802300  0.229500  1.0  -0.3687
  N  N117  1  0.470700  0.191000  0.132000  1.0  -0.3464
  N  N118  1  0.229500  0.849600  0.802300  1.0  -0.3733
  N  N119  1  0.132000  0.470700  0.191000  1.0  -0.3514
  N  N120  1  0.802300  0.229500  0.849600  1.0  -0.3684
  N  N121  1  0.809000  0.868000  0.529300  1.0  -0.3456
  N  N122  1  0.150400  0.197700  0.770500  1.0  -0.3679
  N  N123  1  0.529300  0.809000  0.868000  1.0  -0.3472
  N  N124  1  0.770500  0.150400  0.197700  1.0  -0.3714
  N  N125  1  0.868000  0.529300  0.809000  1.0  -0.3512
  N  N126  1  0.197700  0.770500  0.150400  1.0  -0.3694
  O  O127  1  0.099800  0.865300  0.336000  1.0  -0.8921
  O  O128  1  0.986000  0.759000  0.091400  1.0  -0.8335
  O  O129  1  0.175700  0.266500  0.614000  1.0  -0.634
  O  O130  1  0.401500  0.515400  0.780400  1.0  -0.6323
  O  O131  1  0.871900  0.970200  0.402000  1.0  -0.5836
  O  O132  1  0.611000  0.751400  0.222300  1.0  -0.665
  O  O133  1  0.336000  0.099800  0.865300  1.0  -0.8898
  O  O134  1  0.091400  0.986000  0.759000  1.0  -0.8274
  O  O135  1  0.614000  0.175700  0.266500  1.0  -0.6367
  O  O136  1  0.780400  0.401500  0.515400  1.0  -0.6303
  O  O137  1  0.402000  0.871900  0.970200  1.0  -0.5818
  O  O138  1  0.222300  0.611000  0.751400  1.0  -0.67
  O  O139  1  0.865300  0.336000  0.099800  1.0  -0.8849
  O  O140  1  0.759000  0.091400  0.986000  1.0  -0.8288
  O  O141  1  0.266500  0.614000  0.175700  1.0  -0.6382
  O  O142  1  0.515400  0.780400  0.401500  1.0  -0.6329
  O  O143  1  0.970200  0.402000  0.871900  1.0  -0.5828
  O  O144  1  0.751400  0.222300  0.611000  1.0  -0.675
  O  O145  1  0.900200  0.134700  0.664000  1.0  -0.8914
  O  O146  1  0.014000  0.241000  0.908600  1.0  -0.8316
  O  O147  1  0.824300  0.733500  0.386000  1.0  -0.6338
  O  O148  1  0.598500  0.484600  0.219600  1.0  -0.6322
  O  O149  1  0.128100  0.029800  0.598000  1.0  -0.5824
  O  O150  1  0.389000  0.248600  0.777700  1.0  -0.6637
  O  O151  1  0.664000  0.900200  0.134700  1.0  -0.8876
  O  O152  1  0.908600  0.014000  0.241000  1.0  -0.8274
  O  O153  1  0.386000  0.824300  0.733500  1.0  -0.6378
  O  O154  1  0.219600  0.598500  0.484600  1.0  -0.6306
  O  O155  1  0.598000  0.128100  0.029800  1.0  -0.5845
  O  O156  1  0.777700  0.389000  0.248600  1.0  -0.6705
  O  O157  1  0.134700  0.664000  0.900200  1.0  -0.8877
  O  O158  1  0.241000  0.908600  0.014000  1.0  -0.8292
  O  O159  1  0.733500  0.386000  0.824300  1.0  -0.6379
  O  O160  1  0.484600  0.219600  0.598500  1.0  -0.6327
  O  O161  1  0.029800  0.598000  0.128100  1.0  -0.5829
  O  O162  1  0.248600  0.777700  0.389000  1.0  -0.6755
