# generated using pymatgen
data_CdH18(C10N3)2
_symmetry_space_group_name_H-M   'P 1'
_cell_length_a   17.26800000
_cell_length_b   15.46500000
_cell_length_c   17.92900000
_cell_angle_alpha   90.00000000
_cell_angle_beta   90.00000000
_cell_angle_gamma   90.00000000
_symmetry_Int_Tables_number   1
_chemical_formula_structural   CdH18(C10N3)2
_chemical_formula_sum   'Cd8 H144 C160 N48'
_cell_volume   4787.93263698
_cell_formula_units_Z   8
loop_
 _symmetry_equiv_pos_site_id
 _symmetry_equiv_pos_as_xyz
  1  'x, y, z'
loop_
 _atom_site_type_symbol
 _atom_site_label
 _atom_site_symmetry_multiplicity
 _atom_site_fract_x
 _atom_site_fract_y
 _atom_site_fract_z
 _atom_site_occupancy
 _atom_site_charge
  Cd  Cd1  1  0.682980  0.984330  0.044440  1.0  0.6418
  Cd  Cd2  1  0.182980  0.515670  0.955570  1.0  0.6407
  Cd  Cd3  1  0.182980  0.984330  0.455570  1.0  0.6407
  Cd  Cd4  1  0.682980  0.515670  0.544440  1.0  0.6419
  Cd  Cd5  1  0.817020  0.015670  0.544440  1.0  0.6432
  Cd  Cd6  1  0.317020  0.484330  0.455570  1.0  0.6428
  Cd  Cd7  1  0.317020  0.015670  0.955570  1.0  0.643
  Cd  Cd8  1  0.817020  0.484330  0.044440  1.0  0.6431
  H  H9  1  0.808800  0.976400  0.904300  1.0  0.057
  H  H10  1  0.845600  0.047700  0.798500  1.0  0.1068
  H  H11  1  0.709100  0.246200  0.862600  1.0  0.1028
  H  H12  1  0.676100  0.166900  0.965300  1.0  0.045
  H  H13  1  0.630400  0.395300  0.686900  1.0  0.0617
  H  H14  1  0.668300  0.283600  0.761500  1.0  0.0957
  H  H15  1  0.873100  0.285600  0.654000  1.0  0.1045
  H  H16  1  0.827600  0.395200  0.581100  1.0  0.0652
  H  H17  1  0.791000  0.953500  0.184200  1.0  0.0531
  H  H18  1  0.903400  0.893700  0.225500  1.0  0.1164
  H  H19  1  0.924000  0.774900  0.025800  1.0  0.1019
  H  H20  1  0.812100  0.841500  0.990700  1.0  0.0505
  H  H21  1  0.130900  0.707600  0.960900  1.0  0.0511
  H  H22  1  0.054800  0.805100  0.022600  1.0  0.1151
  H  H23  1  0.063700  0.650200  0.201500  1.0  0.1149
  H  H24  1  0.140800  0.557600  0.134400  1.0  0.0549
  H  H25  1  0.844400  0.174100  0.731700  1.0  0.2718
  H  H26  1  0.006500  0.800100  0.203800  1.0  0.2611
  H  H27  1  0.308800  0.523600  0.095700  1.0  0.0569
  H  H28  1  0.345600  0.452300  0.201500  1.0  0.1068
  H  H29  1  0.209100  0.253800  0.137400  1.0  0.1031
  H  H30  1  0.176100  0.333100  0.034700  1.0  0.0459
  H  H31  1  0.130400  0.104700  0.313100  1.0  0.0624
  H  H32  1  0.168300  0.216400  0.238500  1.0  0.0962
  H  H33  1  0.373100  0.214400  0.346000  1.0  0.1047
  H  H34  1  0.327600  0.104800  0.418900  1.0  0.0652
  H  H35  1  0.291000  0.546500  0.815800  1.0  0.0525
  H  H36  1  0.403400  0.606300  0.774500  1.0  0.1166
  H  H37  1  0.424000  0.725100  0.974200  1.0  0.1011
  H  H38  1  0.312100  0.658500  0.009300  1.0  0.0493
  H  H39  1  0.630900  0.792400  0.039100  1.0  0.0512
  H  H40  1  0.554800  0.694900  0.977400  1.0  0.1149
  H  H41  1  0.563700  0.849800  0.798500  1.0  0.1147
  H  H42  1  0.640800  0.942400  0.865600  1.0  0.0559
  H  H43  1  0.344400  0.325900  0.268300  1.0  0.2715
  H  H44  1  0.506500  0.699900  0.796200  1.0  0.2636
  H  H45  1  0.308800  0.976400  0.595700  1.0  0.0573
  H  H46  1  0.345600  0.047700  0.701500  1.0  0.1068
  H  H47  1  0.209100  0.246200  0.637400  1.0  0.1031
  H  H48  1  0.176100  0.166900  0.534700  1.0  0.0455
  H  H49  1  0.130400  0.395300  0.813100  1.0  0.0616
  H  H50  1  0.168300  0.283600  0.738500  1.0  0.0966
  H  H51  1  0.373100  0.285600  0.846000  1.0  0.105
  H  H52  1  0.327600  0.395200  0.918900  1.0  0.0648
  H  H53  1  0.291000  0.953500  0.315800  1.0  0.0534
  H  H54  1  0.403400  0.893700  0.274500  1.0  0.117
  H  H55  1  0.424000  0.774900  0.474200  1.0  0.1017
  H  H56  1  0.312100  0.841500  0.509300  1.0  0.0494
  H  H57  1  0.630900  0.707600  0.539100  1.0  0.0514
  H  H58  1  0.554800  0.805100  0.477400  1.0  0.1144
  H  H59  1  0.563700  0.650200  0.298500  1.0  0.1151
  H  H60  1  0.640800  0.557600  0.365600  1.0  0.0551
  H  H61  1  0.344400  0.174100  0.768300  1.0  0.2719
  H  H62  1  0.506500  0.800100  0.296200  1.0  0.2629
  H  H63  1  0.808800  0.523600  0.404300  1.0  0.0567
  H  H64  1  0.845600  0.452300  0.298500  1.0  0.1073
  H  H65  1  0.709100  0.253800  0.362600  1.0  0.1031
  H  H66  1  0.676100  0.333100  0.465300  1.0  0.0452
  H  H67  1  0.630400  0.104700  0.186900  1.0  0.0626
  H  H68  1  0.668300  0.216400  0.261500  1.0  0.0957
  H  H69  1  0.873100  0.214400  0.154000  1.0  0.1042
  H  H70  1  0.827600  0.104800  0.081100  1.0  0.0653
  H  H71  1  0.791000  0.546500  0.684200  1.0  0.0534
  H  H72  1  0.903400  0.606300  0.725500  1.0  0.1159
  H  H73  1  0.924000  0.725100  0.525800  1.0  0.1018
  H  H74  1  0.812100  0.658500  0.490700  1.0  0.0502
  H  H75  1  0.130900  0.792400  0.460900  1.0  0.0511
  H  H76  1  0.054800  0.694900  0.522600  1.0  0.1151
  H  H77  1  0.063700  0.849800  0.701500  1.0  0.1147
  H  H78  1  0.140800  0.942400  0.634400  1.0  0.056
  H  H79  1  0.844400  0.325900  0.231700  1.0  0.2718
  H  H80  1  0.006500  0.699900  0.703800  1.0  0.2619
  H  H81  1  0.691200  0.023600  0.404300  1.0  0.0573
  H  H82  1  0.654400  0.952300  0.298500  1.0  0.1075
  H  H83  1  0.790900  0.753800  0.362600  1.0  0.1031
  H  H84  1  0.823900  0.833100  0.465300  1.0  0.0457
  H  H85  1  0.869600  0.604700  0.186900  1.0  0.0623
  H  H86  1  0.831700  0.716400  0.261500  1.0  0.0954
  H  H87  1  0.626900  0.714400  0.154000  1.0  0.1033
  H  H88  1  0.672400  0.604800  0.081100  1.0  0.0653
  H  H89  1  0.709000  0.046500  0.684200  1.0  0.0532
  H  H90  1  0.596600  0.106300  0.725500  1.0  0.1166
  H  H91  1  0.576000  0.225100  0.525800  1.0  0.1019
  H  H92  1  0.687900  0.158500  0.490700  1.0  0.0499
  H  H93  1  0.369100  0.292400  0.460900  1.0  0.0519
  H  H94  1  0.445200  0.194900  0.522600  1.0  0.1151
  H  H95  1  0.436300  0.349800  0.701500  1.0  0.1147
  H  H96  1  0.359200  0.442400  0.634400  1.0  0.0555
  H  H97  1  0.655600  0.825900  0.231700  1.0  0.2717
  H  H98  1  0.493500  0.199900  0.703800  1.0  0.2634
  H  H99  1  0.191200  0.476400  0.595700  1.0  0.0568
  H  H100  1  0.154400  0.547700  0.701500  1.0  0.1073
  H  H101  1  0.290900  0.746200  0.637400  1.0  0.1027
  H  H102  1  0.323900  0.666900  0.534700  1.0  0.0461
  H  H103  1  0.369600  0.895300  0.813100  1.0  0.0627
  H  H104  1  0.331700  0.783600  0.738500  1.0  0.0962
  H  H105  1  0.126900  0.785600  0.846000  1.0  0.1037
  H  H106  1  0.172400  0.895200  0.918900  1.0  0.0649
  H  H107  1  0.209000  0.453500  0.315800  1.0  0.0528
  H  H108  1  0.096600  0.393700  0.274500  1.0  0.1169
  H  H109  1  0.076000  0.274900  0.474200  1.0  0.1017
  H  H110  1  0.187900  0.341500  0.509300  1.0  0.0495
  H  H111  1  0.869100  0.207600  0.539100  1.0  0.0516
  H  H112  1  0.945200  0.305100  0.477400  1.0  0.1144
  H  H113  1  0.936300  0.150200  0.298500  1.0  0.1147
  H  H114  1  0.859200  0.057600  0.365600  1.0  0.0546
  H  H115  1  0.155600  0.674100  0.768300  1.0  0.2707
  H  H116  1  0.993500  0.300100  0.296200  1.0  0.2645
  H  H117  1  0.191200  0.023600  0.095700  1.0  0.0573
  H  H118  1  0.154400  0.952300  0.201500  1.0  0.1071
  H  H119  1  0.290900  0.753800  0.137400  1.0  0.1031
  H  H120  1  0.323900  0.833100  0.034700  1.0  0.0464
  H  H121  1  0.369600  0.604700  0.313100  1.0  0.0624
  H  H122  1  0.331700  0.716400  0.238500  1.0  0.0957
  H  H123  1  0.126900  0.714400  0.346000  1.0  0.1038
  H  H124  1  0.172400  0.604800  0.418900  1.0  0.0654
  H  H125  1  0.209000  0.046500  0.815800  1.0  0.0526
  H  H126  1  0.096600  0.106300  0.774500  1.0  0.1169
  H  H127  1  0.076000  0.225100  0.974200  1.0  0.1011
  H  H128  1  0.187900  0.158500  0.009300  1.0  0.0492
  H  H129  1  0.869100  0.292400  0.039100  1.0  0.0513
  H  H130  1  0.945200  0.194900  0.977400  1.0  0.1149
  H  H131  1  0.936300  0.349800  0.798500  1.0  0.1144
  H  H132  1  0.859200  0.442400  0.865600  1.0  0.0556
  H  H133  1  0.155600  0.825900  0.268300  1.0  0.2709
  H  H134  1  0.993500  0.199900  0.796200  1.0  0.2653
  H  H135  1  0.691200  0.476400  0.904300  1.0  0.0566
  H  H136  1  0.654400  0.547700  0.798500  1.0  0.1072
  H  H137  1  0.790900  0.746200  0.862600  1.0  0.1024
  H  H138  1  0.823900  0.666900  0.965300  1.0  0.0457
  H  H139  1  0.869600  0.895300  0.686900  1.0  0.0625
  H  H140  1  0.831700  0.783600  0.761500  1.0  0.0953
  H  H141  1  0.626900  0.785600  0.654000  1.0  0.1033
  H  H142  1  0.672400  0.895200  0.581100  1.0  0.0653
  H  H143  1  0.709000  0.453500  0.184200  1.0  0.0532
  H  H144  1  0.596600  0.393700  0.225500  1.0  0.1165
  H  H145  1  0.576000  0.274900  0.025800  1.0  0.1019
  H  H146  1  0.687900  0.341500  0.990700  1.0  0.0503
  H  H147  1  0.369100  0.207600  0.960900  1.0  0.052
  H  H148  1  0.445200  0.305100  0.022600  1.0  0.115
  H  H149  1  0.436300  0.150200  0.201500  1.0  0.1145
  H  H150  1  0.359200  0.057600  0.134400  1.0  0.0542
  H  H151  1  0.655600  0.674100  0.731700  1.0  0.2718
  H  H152  1  0.493500  0.300100  0.203800  1.0  0.2626
  C  C153  1  0.787800  0.030700  0.895000  1.0  0.1498
  C  C154  1  0.810600  0.073300  0.831300  1.0  -0.3014
  C  C155  1  0.780400  0.156100  0.816400  1.0  0.2509
  C  C156  1  0.729500  0.191100  0.869100  1.0  -0.3109
  C  C157  1  0.710100  0.142600  0.930900  1.0  0.1618
  C  C158  1  0.679400  0.371900  0.679700  1.0  0.1553
  C  C159  1  0.701600  0.304800  0.725100  1.0  -0.3057
  C  C160  1  0.775500  0.269000  0.715430  1.0  0.224
  C  C161  1  0.823000  0.306000  0.660900  1.0  -0.2941
  C  C162  1  0.795300  0.372300  0.617700  1.0  0.146
  C  C163  1  0.818800  0.918100  0.151940  1.0  0.148
  C  C164  1  0.886200  0.882000  0.177400  1.0  -0.2966
  C  C165  1  0.929400  0.827100  0.130500  1.0  0.1948
  C  C166  1  0.898700  0.811700  0.058800  1.0  -0.2817
  C  C167  1  0.831000  0.851900  0.038400  1.0  0.1547
  C  C168  1  0.116600  0.695400  0.009800  1.0  0.1702
  C  C169  1  0.070100  0.754300  0.046200  1.0  -0.3168
  C  C170  1  0.046600  0.736500  0.118500  1.0  0.2445
  C  C171  1  0.075600  0.662600  0.152100  1.0  -0.2736
  C  C172  1  0.122400  0.607300  0.111300  1.0  0.1761
  C  C173  1  0.287800  0.469300  0.105000  1.0  0.1504
  C  C174  1  0.310600  0.426700  0.168700  1.0  -0.3016
  C  C175  1  0.280400  0.343900  0.183600  1.0  0.2509
  C  C176  1  0.229500  0.308900  0.130900  1.0  -0.3107
  C  C177  1  0.210100  0.357400  0.069100  1.0  0.1614
  C  C178  1  0.179400  0.128100  0.320300  1.0  0.1564
  C  C179  1  0.201600  0.195200  0.274900  1.0  -0.3052
  C  C180  1  0.275500  0.231000  0.284570  1.0  0.2242
  C  C181  1  0.323000  0.194000  0.339100  1.0  -0.2933
  C  C182  1  0.295300  0.127700  0.382300  1.0  0.1468
  C  C183  1  0.318800  0.581900  0.848060  1.0  0.1478
  C  C184  1  0.386200  0.618000  0.822600  1.0  -0.2992
  C  C185  1  0.429400  0.672900  0.869500  1.0  0.1951
  C  C186  1  0.398700  0.688300  0.941200  1.0  -0.2802
  C  C187  1  0.331000  0.648100  0.961600  1.0  0.1544
  C  C188  1  0.616600  0.804600  0.990200  1.0  0.1706
  C  C189  1  0.570100  0.745700  0.953800  1.0  -0.318
  C  C190  1  0.546600  0.763500  0.881500  1.0  0.2441
  C  C191  1  0.575600  0.837400  0.847900  1.0  -0.2725
  C  C192  1  0.622400  0.892700  0.888700  1.0  0.1785
  C  C193  1  0.287800  0.030700  0.605000  1.0  0.1503
  C  C194  1  0.310600  0.073300  0.668700  1.0  -0.3012
  C  C195  1  0.280400  0.156100  0.683600  1.0  0.2509
  C  C196  1  0.229500  0.191100  0.630900  1.0  -0.311
  C  C197  1  0.210100  0.142600  0.569100  1.0  0.1615
  C  C198  1  0.179400  0.371900  0.820300  1.0  0.156
  C  C199  1  0.201600  0.304800  0.774900  1.0  -0.3055
  C  C200  1  0.275500  0.269000  0.784570  1.0  0.2237
  C  C201  1  0.323000  0.306000  0.839100  1.0  -0.2939
  C  C202  1  0.295300  0.372300  0.882300  1.0  0.1461
  C  C203  1  0.318800  0.918100  0.348060  1.0  0.1477
  C  C204  1  0.386200  0.882000  0.322600  1.0  -0.2988
  C  C205  1  0.429400  0.827100  0.369500  1.0  0.1949
  C  C206  1  0.398700  0.811700  0.441200  1.0  -0.2806
  C  C207  1  0.331000  0.851900  0.461600  1.0  0.1543
  C  C208  1  0.616600  0.695400  0.490200  1.0  0.1706
  C  C209  1  0.570100  0.754300  0.453800  1.0  -0.3178
  C  C210  1  0.546600  0.736500  0.381500  1.0  0.2445
  C  C211  1  0.575600  0.662600  0.347900  1.0  -0.272
  C  C212  1  0.622400  0.607300  0.388700  1.0  0.1755
  C  C213  1  0.787800  0.469300  0.395000  1.0  0.1499
  C  C214  1  0.810600  0.426700  0.331300  1.0  -0.3015
  C  C215  1  0.780400  0.343900  0.316400  1.0  0.2509
  C  C216  1  0.729500  0.308900  0.369100  1.0  -0.3108
  C  C217  1  0.710100  0.357400  0.430900  1.0  0.1614
  C  C218  1  0.679400  0.128100  0.179700  1.0  0.1564
  C  C219  1  0.701600  0.195200  0.225100  1.0  -0.3053
  C  C220  1  0.775500  0.231000  0.215430  1.0  0.2244
  C  C221  1  0.823000  0.194000  0.160900  1.0  -0.2937
  C  C222  1  0.795300  0.127700  0.117700  1.0  0.1455
  C  C223  1  0.818800  0.581900  0.651940  1.0  0.1484
  C  C224  1  0.886200  0.618000  0.677400  1.0  -0.2973
  C  C225  1  0.929400  0.672900  0.630500  1.0  0.1949
  C  C226  1  0.898700  0.688300  0.558800  1.0  -0.2821
  C  C227  1  0.831000  0.648100  0.538400  1.0  0.1546
  C  C228  1  0.116600  0.804600  0.509800  1.0  0.1702
  C  C229  1  0.070100  0.745700  0.546200  1.0  -0.3169
  C  C230  1  0.046600  0.763500  0.618500  1.0  0.2441
  C  C231  1  0.075600  0.837400  0.652100  1.0  -0.2733
  C  C232  1  0.122400  0.892700  0.611300  1.0  0.1783
  C  C233  1  0.712200  0.969300  0.395000  1.0  0.1495
  C  C234  1  0.689400  0.926700  0.331300  1.0  -0.3038
  C  C235  1  0.719600  0.843900  0.316400  1.0  0.251
  C  C236  1  0.770500  0.808900  0.369100  1.0  -0.309
  C  C237  1  0.789900  0.857400  0.430900  1.0  0.1616
  C  C238  1  0.820600  0.628100  0.179700  1.0  0.1561
  C  C239  1  0.798400  0.695200  0.225100  1.0  -0.3042
  C  C240  1  0.724500  0.731000  0.215430  1.0  0.2246
  C  C241  1  0.677000  0.694000  0.160900  1.0  -0.2939
  C  C242  1  0.704700  0.627700  0.117700  1.0  0.1454
  C  C243  1  0.681200  0.081900  0.651940  1.0  0.1487
  C  C244  1  0.613800  0.118000  0.677400  1.0  -0.2982
  C  C245  1  0.570600  0.172900  0.630500  1.0  0.1951
  C  C246  1  0.601300  0.188300  0.558800  1.0  -0.283
  C  C247  1  0.669000  0.148100  0.538400  1.0  0.155
  C  C248  1  0.383400  0.304600  0.509800  1.0  0.1706
  C  C249  1  0.429900  0.245700  0.546200  1.0  -0.3154
  C  C250  1  0.453400  0.263500  0.618500  1.0  0.244
  C  C251  1  0.424400  0.337400  0.652100  1.0  -0.271
  C  C252  1  0.377600  0.392700  0.611300  1.0  0.1775
  C  C253  1  0.212200  0.530700  0.605000  1.0  0.1504
  C  C254  1  0.189400  0.573300  0.668700  1.0  -0.3029
  C  C255  1  0.219600  0.656100  0.683600  1.0  0.251
  C  C256  1  0.270500  0.691100  0.630900  1.0  -0.3091
  C  C257  1  0.289900  0.642600  0.569100  1.0  0.1619
  C  C258  1  0.320600  0.871900  0.820300  1.0  0.156
  C  C259  1  0.298400  0.804800  0.774900  1.0  -0.3039
  C  C260  1  0.224500  0.769000  0.784570  1.0  0.224
  C  C261  1  0.177000  0.806000  0.839100  1.0  -0.2938
  C  C262  1  0.204700  0.872300  0.882300  1.0  0.1459
  C  C263  1  0.181200  0.418100  0.348060  1.0  0.1487
  C  C264  1  0.113800  0.382000  0.322600  1.0  -0.3011
  C  C265  1  0.070600  0.327100  0.369500  1.0  0.1952
  C  C266  1  0.101300  0.311700  0.441200  1.0  -0.283
  C  C267  1  0.169000  0.351900  0.461600  1.0  0.155
  C  C268  1  0.883400  0.195400  0.490200  1.0  0.171
  C  C269  1  0.929900  0.254300  0.453800  1.0  -0.3159
  C  C270  1  0.953400  0.236500  0.381500  1.0  0.2443
  C  C271  1  0.924400  0.162600  0.347900  1.0  -0.2692
  C  C272  1  0.877600  0.107300  0.388700  1.0  0.1755
  C  C273  1  0.212200  0.969300  0.105000  1.0  0.1502
  C  C274  1  0.189400  0.926700  0.168700  1.0  -0.3038
  C  C275  1  0.219600  0.843900  0.183600  1.0  0.2511
  C  C276  1  0.270500  0.808900  0.130900  1.0  -0.3089
  C  C277  1  0.289900  0.857400  0.069100  1.0  0.1619
  C  C278  1  0.320600  0.628100  0.320300  1.0  0.156
  C  C279  1  0.298400  0.695200  0.274900  1.0  -0.3039
  C  C280  1  0.224500  0.731000  0.284570  1.0  0.2243
  C  C281  1  0.177000  0.694000  0.339100  1.0  -0.2936
  C  C282  1  0.204700  0.627700  0.382300  1.0  0.1464
  C  C283  1  0.181200  0.081900  0.848060  1.0  0.1484
  C  C284  1  0.113800  0.118000  0.822600  1.0  -0.3013
  C  C285  1  0.070600  0.172900  0.869500  1.0  0.1954
  C  C286  1  0.101300  0.188300  0.941200  1.0  -0.2825
  C  C287  1  0.169000  0.148100  0.961600  1.0  0.1549
  C  C288  1  0.883400  0.304600  0.990200  1.0  0.1714
  C  C289  1  0.929900  0.245700  0.953800  1.0  -0.3157
  C  C290  1  0.953400  0.263500  0.881500  1.0  0.2439
  C  C291  1  0.924400  0.337400  0.847900  1.0  -0.2696
  C  C292  1  0.877600  0.392700  0.888700  1.0  0.1774
  C  C293  1  0.712200  0.530700  0.895000  1.0  0.1498
  C  C294  1  0.689400  0.573300  0.831300  1.0  -0.3032
  C  C295  1  0.719600  0.656100  0.816400  1.0  0.251
  C  C296  1  0.770500  0.691100  0.869100  1.0  -0.3092
  C  C297  1  0.789900  0.642600  0.930900  1.0  0.1618
  C  C298  1  0.820600  0.871900  0.679700  1.0  0.1555
  C  C299  1  0.798400  0.804800  0.725100  1.0  -0.3044
  C  C300  1  0.724500  0.769000  0.715430  1.0  0.2243
  C  C301  1  0.677000  0.806000  0.660900  1.0  -0.2942
  C  C302  1  0.704700  0.872300  0.617700  1.0  0.1459
  C  C303  1  0.681200  0.418100  0.151940  1.0  0.1488
  C  C304  1  0.613800  0.382000  0.177400  1.0  -0.2982
  C  C305  1  0.570600  0.327100  0.130500  1.0  0.195
  C  C306  1  0.601300  0.311700  0.058800  1.0  -0.2829
  C  C307  1  0.669000  0.351900  0.038400  1.0  0.1553
  C  C308  1  0.383400  0.195400  0.009800  1.0  0.1703
  C  C309  1  0.429900  0.254300  0.046200  1.0  -0.3159
  C  C310  1  0.453400  0.236500  0.118500  1.0  0.2444
  C  C311  1  0.424400  0.162600  0.152100  1.0  -0.2721
  C  C312  1  0.377600  0.107300  0.111300  1.0  0.1765
  N  N313  1  0.737070  0.062730  0.944820  1.0  -0.3778
  N  N314  1  0.804430  0.197000  0.752400  1.0  -0.3939
  N  N315  1  0.723680  0.406100  0.625520  1.0  -0.3769
  N  N316  1  0.790290  0.905370  0.082540  1.0  -0.3746
  N  N317  1  0.995410  0.789800  0.157860  1.0  -0.3867
  N  N318  1  0.142490  0.622000  0.040080  1.0  -0.3635
  N  N319  1  0.237070  0.437270  0.055180  1.0  -0.3788
  N  N320  1  0.304430  0.303000  0.247600  1.0  -0.394
  N  N321  1  0.223680  0.093900  0.374480  1.0  -0.3768
  N  N322  1  0.290290  0.594630  0.917460  1.0  -0.3747
  N  N323  1  0.495410  0.710200  0.842140  1.0  -0.3863
  N  N324  1  0.642490  0.878000  0.959920  1.0  -0.3615
  N  N325  1  0.237070  0.062730  0.555180  1.0  -0.3798
  N  N326  1  0.304430  0.197000  0.747600  1.0  -0.3937
  N  N327  1  0.223680  0.406100  0.874480  1.0  -0.3774
  N  N328  1  0.290290  0.905370  0.417460  1.0  -0.3748
  N  N329  1  0.495410  0.789800  0.342140  1.0  -0.3876
  N  N330  1  0.642490  0.622000  0.459920  1.0  -0.3614
  N  N331  1  0.737070  0.437270  0.444820  1.0  -0.3779
  N  N332  1  0.804430  0.303000  0.252400  1.0  -0.3942
  N  N333  1  0.723680  0.093900  0.125520  1.0  -0.3777
  N  N334  1  0.790290  0.594630  0.582540  1.0  -0.376
  N  N335  1  0.995410  0.710200  0.657860  1.0  -0.3863
  N  N336  1  0.142490  0.878000  0.540080  1.0  -0.3622
  N  N337  1  0.762930  0.937270  0.444820  1.0  -0.3769
  N  N338  1  0.695570  0.803000  0.252400  1.0  -0.3934
  N  N339  1  0.776320  0.593900  0.125520  1.0  -0.3763
  N  N340  1  0.709710  0.094630  0.582540  1.0  -0.3756
  N  N341  1  0.504590  0.210200  0.657860  1.0  -0.3871
  N  N342  1  0.357510  0.378000  0.540080  1.0  -0.3615
  N  N343  1  0.262930  0.562730  0.555180  1.0  -0.3784
  N  N344  1  0.195570  0.697000  0.747600  1.0  -0.3931
  N  N345  1  0.276320  0.906100  0.874480  1.0  -0.3773
  N  N346  1  0.209710  0.405370  0.417460  1.0  -0.3761
  N  N347  1  0.004590  0.289800  0.342140  1.0  -0.3881
  N  N348  1  0.857510  0.122000  0.459920  1.0  -0.3629
  N  N349  1  0.262930  0.937270  0.055180  1.0  -0.3774
  N  N350  1  0.195570  0.803000  0.247600  1.0  -0.3934
  N  N351  1  0.276320  0.593900  0.374480  1.0  -0.3759
  N  N352  1  0.209710  0.094630  0.917460  1.0  -0.3748
  N  N353  1  0.004590  0.210200  0.842140  1.0  -0.3869
  N  N354  1  0.857510  0.378000  0.959920  1.0  -0.3608
  N  N355  1  0.762930  0.562730  0.944820  1.0  -0.3767
  N  N356  1  0.695570  0.697000  0.752400  1.0  -0.3931
  N  N357  1  0.776320  0.906100  0.625520  1.0  -0.3765
  N  N358  1  0.709710  0.405370  0.082540  1.0  -0.3758
  N  N359  1  0.504590  0.289800  0.157860  1.0  -0.3871
  N  N360  1  0.357510  0.122000  0.040080  1.0  -0.365
