# generated using pymatgen
data_CdH18(C10N3)2
_symmetry_space_group_name_H-M   'P 1'
_cell_length_a   24.05690000
_cell_length_b   16.08400000
_cell_length_c   16.56790000
_cell_angle_alpha   90.00000000
_cell_angle_beta   132.76200000
_cell_angle_gamma   90.00000000
_symmetry_Int_Tables_number   1
_chemical_formula_structural   CdH18(C10N3)2
_chemical_formula_sum   'Cd8 H144 C160 N48'
_cell_volume   4706.56362663
_cell_formula_units_Z   8
loop_
 _symmetry_equiv_pos_site_id
 _symmetry_equiv_pos_as_xyz
  1  'x, y, z'
loop_
 _atom_site_type_symbol
 _atom_site_label
 _atom_site_symmetry_multiplicity
 _atom_site_fract_x
 _atom_site_fract_y
 _atom_site_fract_z
 _atom_site_occupancy
 _atom_site_charge
  Cd  Cd1  1  0.002750  0.990650  0.497440  1.0  0.737
  Cd  Cd2  1  0.086130  0.500760  0.080560  1.0  0.7256
  Cd  Cd3  1  0.502750  0.509350  0.997440  1.0  0.7371
  Cd  Cd4  1  0.586130  0.999240  0.580560  1.0  0.7255
  Cd  Cd5  1  0.502750  0.490650  0.497440  1.0  0.737
  Cd  Cd6  1  0.586130  0.000760  0.080560  1.0  0.7256
  Cd  Cd7  1  0.002750  0.009350  0.997440  1.0  0.7371
  Cd  Cd8  1  0.086130  0.499240  0.580560  1.0  0.7255
  H  H9  1  0.057600  0.846600  0.428700  1.0  0.0458
  H  H10  1  0.017300  0.762600  0.285500  1.0  0.0941
  H  H11  1  0.822800  0.895600  0.087500  1.0  0.1015
  H  H12  1  0.868300  0.971500  0.240800  1.0  0.0461
  H  H13  1  0.088000  0.689100  0.145100  1.0  0.0496
  H  H14  1  0.024400  0.786100  0.156900  1.0  0.1018
  H  H15  1  0.841300  0.632300  0.969200  1.0  0.113
  H  H16  1  0.911100  0.542400  0.960400  1.0  0.0495
  H  H17  1  0.997100  0.137900  0.363700  1.0  0.0533
  H  H18  1  0.928300  0.253300  0.254800  1.0  0.1056
  H  H19  1  0.772700  0.197800  0.272700  1.0  0.1136
  H  H20  1  0.843200  0.084900  0.375400  1.0  0.0615
  H  H21  1  0.619500  0.483900  0.962100  1.0  0.0498
  H  H22  1  0.726600  0.413400  0.028000  1.0  0.102
  H  H23  1  0.727100  0.302200  0.249300  1.0  0.1103
  H  H24  1  0.619600  0.376800  0.170900  1.0  0.0536
  H  H25  1  0.226200  0.526700  0.096200  1.0  0.0504
  H  H26  1  0.270200  0.607000  0.033100  1.0  0.12
  H  H27  1  0.083400  0.750800  0.875200  1.0  0.0939
  H  H28  1  0.043600  0.664900  0.937600  1.0  0.063
  H  H29  1  0.178300  0.943600  0.709900  1.0  0.0466
  H  H30  1  0.250100  0.862600  0.864800  1.0  0.1189
  H  H31  1  0.060800  0.727700  0.724600  1.0  0.1027
  H  H32  1  0.997400  0.812200  0.573200  1.0  0.0508
  H  H33  1  0.222900  0.380000  0.269000  1.0  0.0542
  H  H34  1  0.294300  0.266000  0.300800  1.0  0.1132
  H  H35  1  0.184200  0.272800  0.977400  1.0  0.0961
  H  H36  1  0.115500  0.381900  0.956500  1.0  0.0554
  H  H37  1  0.502600  0.172200  0.501500  1.0  0.0591
  H  H38  1  0.397900  0.245200  0.355200  1.0  0.0965
  H  H39  1  0.339600  0.046100  0.162800  1.0  0.092
  H  H40  1  0.443800  0.978100  0.312300  1.0  0.0497
  H  H41  1  0.836500  0.775000  0.021000  1.0  0.1907
  H  H42  1  0.826000  0.332400  0.164000  1.0  0.2538
  H  H43  1  0.256200  0.734600  0.947800  1.0  0.1985
  H  H44  1  0.267000  0.166500  0.087500  1.0  0.217
  H  H45  1  0.557600  0.653400  0.928700  1.0  0.046
  H  H46  1  0.517300  0.737400  0.785500  1.0  0.0941
  H  H47  1  0.322800  0.604400  0.587500  1.0  0.1011
  H  H48  1  0.368300  0.528500  0.740800  1.0  0.0465
  H  H49  1  0.588000  0.810900  0.645100  1.0  0.0494
  H  H50  1  0.524400  0.713900  0.656900  1.0  0.1021
  H  H51  1  0.341300  0.867700  0.469200  1.0  0.1125
  H  H52  1  0.411100  0.957600  0.460400  1.0  0.0495
  H  H53  1  0.497100  0.362100  0.863700  1.0  0.0531
  H  H54  1  0.428300  0.246700  0.754800  1.0  0.1058
  H  H55  1  0.272700  0.302200  0.772700  1.0  0.1132
  H  H56  1  0.343200  0.415100  0.875400  1.0  0.0608
  H  H57  1  0.119500  0.016100  0.462100  1.0  0.0492
  H  H58  1  0.226600  0.086600  0.528000  1.0  0.1018
  H  H59  1  0.227100  0.197800  0.749300  1.0  0.1104
  H  H60  1  0.119600  0.123200  0.670900  1.0  0.0537
  H  H61  1  0.726200  0.973300  0.596200  1.0  0.0501
  H  H62  1  0.770200  0.893000  0.533100  1.0  0.1202
  H  H63  1  0.583400  0.749200  0.375200  1.0  0.0935
  H  H64  1  0.543600  0.835100  0.437600  1.0  0.0628
  H  H65  1  0.678300  0.556400  0.209900  1.0  0.0464
  H  H66  1  0.750100  0.637400  0.364800  1.0  0.119
  H  H67  1  0.560800  0.772300  0.224600  1.0  0.1025
  H  H68  1  0.497400  0.687800  0.073200  1.0  0.0509
  H  H69  1  0.722900  0.120000  0.769000  1.0  0.0539
  H  H70  1  0.794300  0.234000  0.800800  1.0  0.1131
  H  H71  1  0.684200  0.227200  0.477400  1.0  0.0961
  H  H72  1  0.615500  0.118100  0.456500  1.0  0.0553
  H  H73  1  0.002600  0.327800  0.001500  1.0  0.0591
  H  H74  1  0.897900  0.254800  0.855200  1.0  0.0967
  H  H75  1  0.839600  0.453900  0.662800  1.0  0.0923
  H  H76  1  0.943800  0.521900  0.812300  1.0  0.0495
  H  H77  1  0.336500  0.725000  0.521000  1.0  0.1903
  H  H78  1  0.326000  0.167600  0.664000  1.0  0.253
  H  H79  1  0.756200  0.765400  0.447800  1.0  0.1987
  H  H80  1  0.767000  0.333500  0.587500  1.0  0.2174
  H  H81  1  0.557600  0.346600  0.428700  1.0  0.0458
  H  H82  1  0.517300  0.262600  0.285500  1.0  0.0941
  H  H83  1  0.322800  0.395600  0.087500  1.0  0.1024
  H  H84  1  0.368300  0.471500  0.240800  1.0  0.0461
  H  H85  1  0.588000  0.189100  0.145100  1.0  0.0496
  H  H86  1  0.524400  0.286100  0.156900  1.0  0.1031
  H  H87  1  0.341300  0.132300  0.969200  1.0  0.113
  H  H88  1  0.411100  0.042400  0.960400  1.0  0.0495
  H  H89  1  0.497100  0.637900  0.363700  1.0  0.0533
  H  H90  1  0.428300  0.753300  0.254800  1.0  0.1056
  H  H91  1  0.272700  0.697800  0.272700  1.0  0.1136
  H  H92  1  0.343200  0.584900  0.375400  1.0  0.0615
  H  H93  1  0.119500  0.983900  0.962100  1.0  0.0498
  H  H94  1  0.226600  0.913400  0.028000  1.0  0.102
  H  H95  1  0.227100  0.802200  0.249300  1.0  0.1103
  H  H96  1  0.119600  0.876800  0.170900  1.0  0.0525
  H  H97  1  0.726200  0.026700  0.096200  1.0  0.0519
  H  H98  1  0.770200  0.107000  0.033100  1.0  0.12
  H  H99  1  0.583400  0.250800  0.875200  1.0  0.0939
  H  H100  1  0.543600  0.164900  0.937600  1.0  0.063
  H  H101  1  0.678300  0.443600  0.709900  1.0  0.0466
  H  H102  1  0.750100  0.362600  0.864800  1.0  0.1189
  H  H103  1  0.560800  0.227700  0.724600  1.0  0.1027
  H  H104  1  0.497400  0.312200  0.573200  1.0  0.0496
  H  H105  1  0.722900  0.880000  0.269000  1.0  0.0542
  H  H106  1  0.794300  0.766000  0.300800  1.0  0.1132
  H  H107  1  0.684200  0.772800  0.977400  1.0  0.0961
  H  H108  1  0.615500  0.881900  0.956500  1.0  0.0554
  H  H109  1  0.002600  0.672200  0.501500  1.0  0.0591
  H  H110  1  0.897900  0.745200  0.355200  1.0  0.0965
  H  H111  1  0.839600  0.546100  0.162800  1.0  0.092
  H  H112  1  0.943800  0.478100  0.312300  1.0  0.0498
  H  H113  1  0.336500  0.275000  0.021000  1.0  0.1912
  H  H114  1  0.326000  0.832400  0.164000  1.0  0.2538
  H  H115  1  0.756200  0.234600  0.947800  1.0  0.1979
  H  H116  1  0.767000  0.666500  0.087500  1.0  0.2175
  H  H117  1  0.057600  0.153400  0.928700  1.0  0.046
  H  H118  1  0.017300  0.237400  0.785500  1.0  0.0941
  H  H119  1  0.822800  0.104400  0.587500  1.0  0.1019
  H  H120  1  0.868300  0.028500  0.740800  1.0  0.0465
  H  H121  1  0.088000  0.310900  0.645100  1.0  0.0494
  H  H122  1  0.024400  0.213900  0.656900  1.0  0.1034
  H  H123  1  0.841300  0.367700  0.469200  1.0  0.1125
  H  H124  1  0.911100  0.457600  0.460400  1.0  0.0495
  H  H125  1  0.997100  0.862100  0.863700  1.0  0.0531
  H  H126  1  0.928300  0.746700  0.754800  1.0  0.1058
  H  H127  1  0.772700  0.802200  0.772700  1.0  0.1132
  H  H128  1  0.843200  0.915100  0.875400  1.0  0.0608
  H  H129  1  0.619500  0.516100  0.462100  1.0  0.0492
  H  H130  1  0.726600  0.586600  0.528000  1.0  0.1018
  H  H131  1  0.727100  0.697800  0.749300  1.0  0.1104
  H  H132  1  0.619600  0.623200  0.670900  1.0  0.0526
  H  H133  1  0.226200  0.473300  0.596200  1.0  0.0516
  H  H134  1  0.270200  0.393000  0.533100  1.0  0.1202
  H  H135  1  0.083400  0.249200  0.375200  1.0  0.0935
  H  H136  1  0.043600  0.335100  0.437600  1.0  0.0628
  H  H137  1  0.178300  0.056400  0.209900  1.0  0.0464
  H  H138  1  0.250100  0.137400  0.364800  1.0  0.119
  H  H139  1  0.060800  0.272300  0.224600  1.0  0.1025
  H  H140  1  0.997400  0.187800  0.073200  1.0  0.0498
  H  H141  1  0.222900  0.620000  0.769000  1.0  0.0539
  H  H142  1  0.294300  0.734000  0.800800  1.0  0.1131
  H  H143  1  0.184200  0.727200  0.477400  1.0  0.0961
  H  H144  1  0.115500  0.618100  0.456500  1.0  0.0554
  H  H145  1  0.502600  0.827800  0.001500  1.0  0.0591
  H  H146  1  0.397900  0.754800  0.855200  1.0  0.0967
  H  H147  1  0.339600  0.953900  0.662800  1.0  0.0923
  H  H148  1  0.443800  0.021900  0.812300  1.0  0.0495
  H  H149  1  0.836500  0.225000  0.521000  1.0  0.1908
  H  H150  1  0.826000  0.667600  0.664000  1.0  0.253
  H  H151  1  0.256200  0.265400  0.447800  1.0  0.198
  H  H152  1  0.267000  0.833500  0.587500  1.0  0.218
  C  C153  1  0.008700  0.856100  0.358300  1.0  0.1497
  C  C154  1  0.985600  0.805900  0.273600  1.0  -0.259
  C  C155  1  0.914600  0.819700  0.169500  1.0  0.2119
  C  C156  1  0.871100  0.883300  0.157400  1.0  -0.2909
  C  C157  1  0.899300  0.929000  0.249200  1.0  0.1528
  C  C158  1  0.036900  0.677800  0.108900  1.0  0.1404
  C  C159  1  0.000300  0.735500  0.118400  1.0  -0.3054
  C  C160  1  0.925800  0.718200  0.069600  1.0  0.2236
  C  C161  1  0.892600  0.645000  0.007400  1.0  -0.2484
  C  C162  1  0.934600  0.592000  0.002100  1.0  0.1409
  C  C163  1  0.950800  0.150400  0.344700  1.0  0.1404
  C  C164  1  0.910100  0.219600  0.279900  1.0  -0.2725
  C  C165  1  0.842600  0.239300  0.251800  1.0  0.1969
  C  C166  1  0.818500  0.186900  0.289900  1.0  -0.2577
  C  C167  1  0.861400  0.120200  0.351700  1.0  0.1423
  C  C168  1  0.641400  0.445500  0.020500  1.0  0.134
  C  C169  1  0.705600  0.404000  0.059400  1.0  -0.3113
  C  C170  1  0.739600  0.347400  0.146800  1.0  0.2503
  C  C171  1  0.706200  0.338400  0.189200  1.0  -0.2962
  C  C172  1  0.641700  0.384000  0.140900  1.0  0.1566
  C  C173  1  0.196100  0.572000  0.048700  1.0  0.1512
  C  C174  1  0.223500  0.620000  0.012600  1.0  -0.2652
  C  C175  1  0.180100  0.688200  0.944900  1.0  0.2365
  C  C176  1  0.113300  0.704000  0.919300  1.0  -0.2667
  C  C177  1  0.090100  0.652600  0.957300  1.0  0.1523
  C  C178  1  0.154100  0.899200  0.713600  1.0  0.1546
  C  C179  1  0.197700  0.851400  0.806700  1.0  -0.2966
  C  C180  1  0.163800  0.786600  0.814700  1.0  0.2076
  C  C181  1  0.086500  0.772100  0.724000  1.0  -0.271
  C  C182  1  0.049300  0.823600  0.634700  1.0  0.1482
  C  C183  1  0.214300  0.357100  0.208500  1.0  0.1508
  C  C184  1  0.258200  0.289300  0.229300  1.0  -0.2904
  C  C185  1  0.247700  0.257200  0.143400  1.0  0.2273
  C  C186  1  0.192700  0.293600  0.038800  1.0  -0.263
  C  C187  1  0.152600  0.358200  0.027600  1.0  0.1284
  C  C188  1  0.468400  0.145900  0.431700  1.0  0.1435
  C  C189  1  0.405300  0.189500  0.345100  1.0  -0.299
  C  C190  1  0.352900  0.151800  0.243400  1.0  0.2242
  C  C191  1  0.371400  0.072400  0.232700  1.0  -0.28
  C  C192  1  0.434500  0.033000  0.321900  1.0  0.1317
  C  C193  1  0.508700  0.643900  0.858300  1.0  0.1497
  C  C194  1  0.485600  0.694100  0.773600  1.0  -0.2587
  C  C195  1  0.414600  0.680300  0.669500  1.0  0.2119
  C  C196  1  0.371100  0.616700  0.657400  1.0  -0.2911
  C  C197  1  0.399300  0.571000  0.749200  1.0  0.1541
  C  C198  1  0.536900  0.822200  0.608900  1.0  0.1409
  C  C199  1  0.500300  0.764500  0.618400  1.0  -0.3049
  C  C200  1  0.425800  0.781800  0.569600  1.0  0.2233
  C  C201  1  0.392600  0.855000  0.507400  1.0  -0.2475
  C  C202  1  0.434600  0.908000  0.502100  1.0  0.1413
  C  C203  1  0.450800  0.349600  0.844700  1.0  0.141
  C  C204  1  0.410100  0.280400  0.779900  1.0  -0.2726
  C  C205  1  0.342600  0.260700  0.751800  1.0  0.1968
  C  C206  1  0.318500  0.313100  0.789900  1.0  -0.2578
  C  C207  1  0.361400  0.379800  0.851700  1.0  0.1407
  C  C208  1  0.141400  0.054500  0.520500  1.0  0.1335
  C  C209  1  0.205600  0.096000  0.559400  1.0  -0.3105
  C  C210  1  0.239600  0.152600  0.646800  1.0  0.2499
  C  C211  1  0.206200  0.161600  0.689200  1.0  -0.296
  C  C212  1  0.141700  0.116000  0.640900  1.0  0.1564
  C  C213  1  0.696100  0.928000  0.548700  1.0  0.1515
  C  C214  1  0.723500  0.880000  0.512600  1.0  -0.2634
  C  C215  1  0.680100  0.811800  0.444900  1.0  0.2367
  C  C216  1  0.613300  0.796000  0.419300  1.0  -0.2662
  C  C217  1  0.590100  0.847400  0.457300  1.0  0.1523
  C  C218  1  0.654100  0.600800  0.213600  1.0  0.1538
  C  C219  1  0.697700  0.648600  0.306700  1.0  -0.2965
  C  C220  1  0.663800  0.713400  0.314700  1.0  0.2076
  C  C221  1  0.586500  0.727900  0.224000  1.0  -0.2702
  C  C222  1  0.549300  0.676400  0.134700  1.0  0.1482
  C  C223  1  0.714300  0.142900  0.708500  1.0  0.1509
  C  C224  1  0.758200  0.210700  0.729300  1.0  -0.2906
  C  C225  1  0.747700  0.242800  0.643400  1.0  0.2275
  C  C226  1  0.692700  0.206400  0.538800  1.0  -0.2635
  C  C227  1  0.652600  0.141800  0.527600  1.0  0.1284
  C  C228  1  0.968400  0.354100  0.931700  1.0  0.1432
  C  C229  1  0.905300  0.310500  0.845100  1.0  -0.2996
  C  C230  1  0.852900  0.348200  0.743400  1.0  0.2237
  C  C231  1  0.871400  0.427600  0.732700  1.0  -0.2803
  C  C232  1  0.934500  0.467000  0.821900  1.0  0.1328
  C  C233  1  0.508700  0.356100  0.358300  1.0  0.1497
  C  C234  1  0.485600  0.305900  0.273600  1.0  -0.259
  C  C235  1  0.414600  0.319700  0.169500  1.0  0.2119
  C  C236  1  0.371100  0.383300  0.157400  1.0  -0.2909
  C  C237  1  0.399300  0.429000  0.249200  1.0  0.1528
  C  C238  1  0.536900  0.177800  0.108900  1.0  0.1404
  C  C239  1  0.500300  0.235500  0.118400  1.0  -0.3054
  C  C240  1  0.425800  0.218200  0.069600  1.0  0.2236
  C  C241  1  0.392600  0.145000  0.007400  1.0  -0.2484
  C  C242  1  0.434600  0.092000  0.002100  1.0  0.1409
  C  C243  1  0.450800  0.650400  0.344700  1.0  0.1404
  C  C244  1  0.410100  0.719600  0.279900  1.0  -0.2725
  C  C245  1  0.342600  0.739300  0.251800  1.0  0.1969
  C  C246  1  0.318500  0.686900  0.289900  1.0  -0.2577
  C  C247  1  0.361400  0.620200  0.351700  1.0  0.1423
  C  C248  1  0.141400  0.945500  0.020500  1.0  0.134
  C  C249  1  0.205600  0.904000  0.059400  1.0  -0.3113
  C  C250  1  0.239600  0.847400  0.146800  1.0  0.2503
  C  C251  1  0.206200  0.838400  0.189200  1.0  -0.2962
  C  C252  1  0.141700  0.884000  0.140900  1.0  0.1566
  C  C253  1  0.696100  0.072000  0.048700  1.0  0.1512
  C  C254  1  0.723500  0.120000  0.012600  1.0  -0.2652
  C  C255  1  0.680100  0.188200  0.944900  1.0  0.2365
  C  C256  1  0.613300  0.204000  0.919300  1.0  -0.2667
  C  C257  1  0.590100  0.152600  0.957300  1.0  0.1523
  C  C258  1  0.654100  0.399200  0.713600  1.0  0.1546
  C  C259  1  0.697700  0.351400  0.806700  1.0  -0.2966
  C  C260  1  0.663800  0.286600  0.814700  1.0  0.2076
  C  C261  1  0.586500  0.272100  0.724000  1.0  -0.271
  C  C262  1  0.549300  0.323600  0.634700  1.0  0.149
  C  C263  1  0.714300  0.857100  0.208500  1.0  0.1508
  C  C264  1  0.758200  0.789300  0.229300  1.0  -0.2904
  C  C265  1  0.747700  0.757200  0.143400  1.0  0.2273
  C  C266  1  0.692700  0.793600  0.038800  1.0  -0.263
  C  C267  1  0.652600  0.858200  0.027600  1.0  0.1284
  C  C268  1  0.968400  0.645900  0.431700  1.0  0.1435
  C  C269  1  0.905300  0.689500  0.345100  1.0  -0.299
  C  C270  1  0.852900  0.651800  0.243400  1.0  0.2242
  C  C271  1  0.871400  0.572400  0.232700  1.0  -0.28
  C  C272  1  0.934500  0.533000  0.321900  1.0  0.1317
  C  C273  1  0.008700  0.143900  0.858300  1.0  0.1497
  C  C274  1  0.985600  0.194100  0.773600  1.0  -0.2587
  C  C275  1  0.914600  0.180300  0.669500  1.0  0.2119
  C  C276  1  0.871100  0.116700  0.657400  1.0  -0.2911
  C  C277  1  0.899300  0.071000  0.749200  1.0  0.1541
  C  C278  1  0.036900  0.322200  0.608900  1.0  0.1409
  C  C279  1  0.000300  0.264500  0.618400  1.0  -0.3049
  C  C280  1  0.925800  0.281800  0.569600  1.0  0.2233
  C  C281  1  0.892600  0.355000  0.507400  1.0  -0.2475
  C  C282  1  0.934600  0.408000  0.502100  1.0  0.1413
  C  C283  1  0.950800  0.849600  0.844700  1.0  0.141
  C  C284  1  0.910100  0.780400  0.779900  1.0  -0.2726
  C  C285  1  0.842600  0.760700  0.751800  1.0  0.1968
  C  C286  1  0.818500  0.813100  0.789900  1.0  -0.2578
  C  C287  1  0.861400  0.879800  0.851700  1.0  0.1407
  C  C288  1  0.641400  0.554500  0.520500  1.0  0.1335
  C  C289  1  0.705600  0.596000  0.559400  1.0  -0.3105
  C  C290  1  0.739600  0.652600  0.646800  1.0  0.2499
  C  C291  1  0.706200  0.661600  0.689200  1.0  -0.296
  C  C292  1  0.641700  0.616000  0.640900  1.0  0.1564
  C  C293  1  0.196100  0.428000  0.548700  1.0  0.1515
  C  C294  1  0.223500  0.380000  0.512600  1.0  -0.2634
  C  C295  1  0.180100  0.311800  0.444900  1.0  0.2367
  C  C296  1  0.113300  0.296000  0.419300  1.0  -0.2662
  C  C297  1  0.090100  0.347400  0.457300  1.0  0.1523
  C  C298  1  0.154100  0.100800  0.213600  1.0  0.1538
  C  C299  1  0.197700  0.148600  0.306700  1.0  -0.2965
  C  C300  1  0.163800  0.213400  0.314700  1.0  0.2076
  C  C301  1  0.086500  0.227900  0.224000  1.0  -0.2702
  C  C302  1  0.049300  0.176400  0.134700  1.0  0.149
  C  C303  1  0.214300  0.642900  0.708500  1.0  0.1509
  C  C304  1  0.258200  0.710700  0.729300  1.0  -0.2906
  C  C305  1  0.247700  0.742800  0.643400  1.0  0.2275
  C  C306  1  0.192700  0.706400  0.538800  1.0  -0.2635
  C  C307  1  0.152600  0.641800  0.527600  1.0  0.1284
  C  C308  1  0.468400  0.854100  0.931700  1.0  0.1432
  C  C309  1  0.405300  0.810500  0.845100  1.0  -0.2996
  C  C310  1  0.352900  0.848200  0.743400  1.0  0.2237
  C  C311  1  0.371400  0.927600  0.732700  1.0  -0.2803
  C  C312  1  0.434500  0.967000  0.821900  1.0  0.1328
  N  N313  1  0.006600  0.605700  0.052100  1.0  -0.3703
  N  N314  1  0.885500  0.771200  0.078400  1.0  -0.3691
  N  N315  1  0.967500  0.916800  0.349000  1.0  -0.3794
  N  N316  1  0.927500  0.099800  0.382200  1.0  -0.3744
  N  N317  1  0.804600  0.308900  0.185200  1.0  -0.347
  N  N318  1  0.607400  0.435900  0.058600  1.0  -0.3783
  N  N319  1  0.129400  0.585200  0.021100  1.0  -0.3785
  N  N320  1  0.207100  0.736000  0.908400  1.0  -0.3853
  N  N321  1  0.080300  0.888200  0.627600  1.0  -0.3605
  N  N322  1  0.161300  0.392300  0.111000  1.0  -0.3752
  N  N323  1  0.287000  0.189000  0.150600  1.0  -0.3724
  N  N324  1  0.484500  0.066500  0.422700  1.0  -0.3686
  N  N325  1  0.506600  0.894300  0.552100  1.0  -0.3699
  N  N326  1  0.385500  0.728800  0.578400  1.0  -0.3689
  N  N327  1  0.467500  0.583200  0.849000  1.0  -0.3783
  N  N328  1  0.427500  0.400200  0.882200  1.0  -0.3749
  N  N329  1  0.304600  0.191100  0.685200  1.0  -0.3463
  N  N330  1  0.107400  0.064100  0.558600  1.0  -0.3793
  N  N331  1  0.629400  0.914800  0.521100  1.0  -0.378
  N  N332  1  0.707100  0.764000  0.408400  1.0  -0.3855
  N  N333  1  0.580300  0.611800  0.127600  1.0  -0.3627
  N  N334  1  0.661300  0.107700  0.611000  1.0  -0.3763
  N  N335  1  0.787000  0.311000  0.650600  1.0  -0.3724
  N  N336  1  0.984500  0.433500  0.922700  1.0  -0.3693
  N  N337  1  0.506600  0.105700  0.052100  1.0  -0.3703
  N  N338  1  0.385500  0.271200  0.078400  1.0  -0.3691
  N  N339  1  0.467500  0.416800  0.349000  1.0  -0.3794
  N  N340  1  0.427500  0.599800  0.382200  1.0  -0.3744
  N  N341  1  0.304600  0.808900  0.185200  1.0  -0.347
  N  N342  1  0.107400  0.935900  0.058600  1.0  -0.3783
  N  N343  1  0.629400  0.085200  0.021100  1.0  -0.3785
  N  N344  1  0.707100  0.236000  0.908400  1.0  -0.3853
  N  N345  1  0.580300  0.388200  0.627600  1.0  -0.3605
  N  N346  1  0.661300  0.892300  0.111000  1.0  -0.3752
  N  N347  1  0.787000  0.689000  0.150600  1.0  -0.3724
  N  N348  1  0.984500  0.566500  0.422700  1.0  -0.3686
  N  N349  1  0.006600  0.394300  0.552100  1.0  -0.3699
  N  N350  1  0.885500  0.228800  0.578400  1.0  -0.3689
  N  N351  1  0.967500  0.083200  0.849000  1.0  -0.3783
  N  N352  1  0.927500  0.900200  0.882200  1.0  -0.3749
  N  N353  1  0.804600  0.691100  0.685200  1.0  -0.3463
  N  N354  1  0.607400  0.564100  0.558600  1.0  -0.3793
  N  N355  1  0.129400  0.414800  0.521100  1.0  -0.378
  N  N356  1  0.207100  0.264000  0.408400  1.0  -0.3855
  N  N357  1  0.080300  0.111800  0.127600  1.0  -0.3627
  N  N358  1  0.161300  0.607700  0.611000  1.0  -0.3763
  N  N359  1  0.287000  0.811000  0.650600  1.0  -0.3724
  N  N360  1  0.484500  0.933500  0.922700  1.0  -0.3693
