# generated using pymatgen
data_CuH10C16(NO)4
_symmetry_space_group_name_H-M   'P 1'
_cell_length_a   35.08580000
_cell_length_b   35.08580000
_cell_length_c   35.08580000
_cell_angle_alpha   60.00000000
_cell_angle_beta   60.00000000
_cell_angle_gamma   60.00000000
_symmetry_Int_Tables_number   1
_chemical_formula_structural   CuH10C16(NO)4
_chemical_formula_sum   'Cu12 H120 C192 N48 O48'
_cell_volume   30540.71163860
_cell_formula_units_Z   12
loop_
 _symmetry_equiv_pos_site_id
 _symmetry_equiv_pos_as_xyz
  1  'x, y, z'
loop_
 _atom_site_type_symbol
 _atom_site_label
 _atom_site_symmetry_multiplicity
 _atom_site_fract_x
 _atom_site_fract_y
 _atom_site_fract_z
 _atom_site_occupancy
 _atom_site_charge
  Cu  Cu1  1  0.509930  0.036370  0.490070  1.0  0.9068
  Cu  Cu2  1  0.036370  0.509930  0.963630  1.0  0.9066
  Cu  Cu3  1  0.490070  0.963630  0.509930  1.0  0.9082
  Cu  Cu4  1  0.963630  0.490070  0.036370  1.0  0.906
  Cu  Cu5  1  0.509930  0.490070  0.963630  1.0  0.9053
  Cu  Cu6  1  0.036370  0.963630  0.490070  1.0  0.907
  Cu  Cu7  1  0.490070  0.509930  0.036370  1.0  0.9068
  Cu  Cu8  1  0.963630  0.036370  0.509930  1.0  0.9069
  Cu  Cu9  1  0.509930  0.963630  0.036370  1.0  0.9069
  Cu  Cu10  1  0.036370  0.490070  0.509930  1.0  0.9071
  Cu  Cu11  1  0.490070  0.036370  0.963630  1.0  0.9072
  Cu  Cu12  1  0.963630  0.509930  0.490070  1.0  0.9079
  H  H13  1  0.510300  0.062300  0.227300  1.0  0.2993
  H  H14  1  0.526700  0.117300  0.270700  1.0  0.1359
  H  H15  1  0.531500  0.090900  0.341900  1.0  0.1433
  H  H16  1  0.495600  0.986000  0.378400  1.0  0.1233
  H  H17  1  0.491800  0.009600  0.306400  1.0  0.1679
  H  H18  1  0.062300  0.510300  0.200100  1.0  0.3002
  H  H19  1  0.117300  0.526700  0.085300  1.0  0.1346
  H  H20  1  0.090900  0.531500  0.035700  1.0  0.1426
  H  H21  1  0.986000  0.495600  0.140000  1.0  0.1227
  H  H22  1  0.009600  0.491800  0.192200  1.0  0.1693
  H  H23  1  0.227300  0.200100  0.510300  1.0  0.2968
  H  H24  1  0.270700  0.085300  0.526700  1.0  0.1345
  H  H25  1  0.341900  0.035700  0.531500  1.0  0.1437
  H  H26  1  0.378400  0.140000  0.495600  1.0  0.1246
  H  H27  1  0.306400  0.192200  0.491800  1.0  0.1709
  H  H28  1  0.200100  0.227300  0.062300  1.0  0.2979
  H  H29  1  0.085300  0.270700  0.117300  1.0  0.1335
  H  H30  1  0.035700  0.341900  0.090900  1.0  0.1425
  H  H31  1  0.140000  0.378400  0.986000  1.0  0.1253
  H  H32  1  0.192200  0.306400  0.009600  1.0  0.1691
  H  H33  1  0.510300  0.227300  0.200100  1.0  0.2975
  H  H34  1  0.526700  0.270700  0.085300  1.0  0.1353
  H  H35  1  0.531500  0.341900  0.035700  1.0  0.1429
  H  H36  1  0.495600  0.378400  0.140000  1.0  0.1246
  H  H37  1  0.491800  0.306400  0.192200  1.0  0.1688
  H  H38  1  0.062300  0.200100  0.227300  1.0  0.2969
  H  H39  1  0.117300  0.085300  0.270700  1.0  0.134
  H  H40  1  0.090900  0.035700  0.341900  1.0  0.1441
  H  H41  1  0.986000  0.140000  0.378400  1.0  0.1243
  H  H42  1  0.009600  0.192200  0.306400  1.0  0.1696
  H  H43  1  0.227300  0.510300  0.062300  1.0  0.2974
  H  H44  1  0.270700  0.526700  0.117300  1.0  0.137
  H  H45  1  0.341900  0.531500  0.090900  1.0  0.1421
  H  H46  1  0.378400  0.495600  0.986000  1.0  0.1248
  H  H47  1  0.306400  0.491800  0.009600  1.0  0.1677
  H  H48  1  0.200100  0.062300  0.510300  1.0  0.2998
  H  H49  1  0.085300  0.117300  0.526700  1.0  0.1334
  H  H50  1  0.035700  0.090900  0.531500  1.0  0.143
  H  H51  1  0.140000  0.986000  0.495600  1.0  0.1226
  H  H52  1  0.192200  0.009600  0.491800  1.0  0.1697
  H  H53  1  0.510300  0.200100  0.062300  1.0  0.2969
  H  H54  1  0.526700  0.085300  0.117300  1.0  0.1361
  H  H55  1  0.531500  0.035700  0.090900  1.0  0.1436
  H  H56  1  0.495600  0.140000  0.986000  1.0  0.1242
  H  H57  1  0.491800  0.192200  0.009600  1.0  0.1704
  H  H58  1  0.062300  0.227300  0.510300  1.0  0.299
  H  H59  1  0.117300  0.270700  0.526700  1.0  0.1365
  H  H60  1  0.090900  0.341900  0.531500  1.0  0.1426
  H  H61  1  0.986000  0.378400  0.495600  1.0  0.125
  H  H62  1  0.009600  0.306400  0.491800  1.0  0.1678
  H  H63  1  0.227300  0.062300  0.200100  1.0  0.2991
  H  H64  1  0.270700  0.117300  0.085300  1.0  0.1352
  H  H65  1  0.341900  0.090900  0.035700  1.0  0.1434
  H  H66  1  0.378400  0.986000  0.140000  1.0  0.1241
  H  H67  1  0.306400  0.009600  0.192200  1.0  0.1683
  H  H68  1  0.200100  0.510300  0.227300  1.0  0.3006
  H  H69  1  0.085300  0.526700  0.270700  1.0  0.1346
  H  H70  1  0.035700  0.531500  0.341900  1.0  0.1419
  H  H71  1  0.140000  0.495600  0.378400  1.0  0.1238
  H  H72  1  0.192200  0.491800  0.306400  1.0  0.1692
  H  H73  1  0.489700  0.937700  0.772700  1.0  0.2996
  H  H74  1  0.473300  0.882700  0.729300  1.0  0.1356
  H  H75  1  0.468500  0.909100  0.658100  1.0  0.1431
  H  H76  1  0.504400  0.014000  0.621600  1.0  0.1246
  H  H77  1  0.508200  0.990400  0.693600  1.0  0.168
  H  H78  1  0.937700  0.489700  0.799900  1.0  0.2993
  H  H79  1  0.882700  0.473300  0.914700  1.0  0.1337
  H  H80  1  0.909100  0.468500  0.964300  1.0  0.1428
  H  H81  1  0.014000  0.504400  0.860000  1.0  0.1237
  H  H82  1  0.990400  0.508200  0.807800  1.0  0.1691
  H  H83  1  0.772700  0.799900  0.489700  1.0  0.3
  H  H84  1  0.729300  0.914700  0.473300  1.0  0.1345
  H  H85  1  0.658100  0.964300  0.468500  1.0  0.1428
  H  H86  1  0.621600  0.860000  0.504400  1.0  0.1246
  H  H87  1  0.693600  0.807800  0.508200  1.0  0.1705
  H  H88  1  0.799900  0.772700  0.937700  1.0  0.2994
  H  H89  1  0.914700  0.729300  0.882700  1.0  0.1348
  H  H90  1  0.964300  0.658100  0.909100  1.0  0.1421
  H  H91  1  0.860000  0.621600  0.014000  1.0  0.1242
  H  H92  1  0.807800  0.693600  0.990400  1.0  0.1697
  H  H93  1  0.489700  0.772700  0.799900  1.0  0.2969
  H  H94  1  0.473300  0.729300  0.914700  1.0  0.1353
  H  H95  1  0.468500  0.658100  0.964300  1.0  0.1419
  H  H96  1  0.504400  0.621600  0.860000  1.0  0.1245
  H  H97  1  0.508200  0.693600  0.807800  1.0  0.1692
  H  H98  1  0.937700  0.799900  0.772700  1.0  0.3009
  H  H99  1  0.882700  0.914700  0.729300  1.0  0.1339
  H  H100  1  0.909100  0.964300  0.658100  1.0  0.1431
  H  H101  1  0.014000  0.860000  0.621600  1.0  0.1238
  H  H102  1  0.990400  0.807800  0.693600  1.0  0.1694
  H  H103  1  0.772700  0.489700  0.937700  1.0  0.2983
  H  H104  1  0.729300  0.473300  0.882700  1.0  0.1371
  H  H105  1  0.658100  0.468500  0.909100  1.0  0.1429
  H  H106  1  0.621600  0.504400  0.014000  1.0  0.1246
  H  H107  1  0.693600  0.508200  0.990400  1.0  0.1678
  H  H108  1  0.799900  0.937700  0.489700  1.0  0.2993
  H  H109  1  0.914700  0.882700  0.473300  1.0  0.1335
  H  H110  1  0.964300  0.909100  0.468500  1.0  0.1426
  H  H111  1  0.860000  0.014000  0.504400  1.0  0.1233
  H  H112  1  0.807800  0.990400  0.508200  1.0  0.1706
  H  H113  1  0.489700  0.799900  0.937700  1.0  0.3011
  H  H114  1  0.473300  0.914700  0.882700  1.0  0.1349
  H  H115  1  0.468500  0.964300  0.909100  1.0  0.1425
  H  H116  1  0.504400  0.860000  0.014000  1.0  0.1237
  H  H117  1  0.508200  0.807800  0.990400  1.0  0.1705
  H  H118  1  0.937700  0.772700  0.489700  1.0  0.2993
  H  H119  1  0.882700  0.729300  0.473300  1.0  0.1356
  H  H120  1  0.909100  0.658100  0.468500  1.0  0.1425
  H  H121  1  0.014000  0.621600  0.504400  1.0  0.1251
  H  H122  1  0.990400  0.693600  0.508200  1.0  0.1681
  H  H123  1  0.772700  0.937700  0.799900  1.0  0.2978
  H  H124  1  0.729300  0.882700  0.914700  1.0  0.1358
  H  H125  1  0.658100  0.909100  0.964300  1.0  0.1432
  H  H126  1  0.621600  0.014000  0.860000  1.0  0.1249
  H  H127  1  0.693600  0.990400  0.807800  1.0  0.1682
  H  H128  1  0.799900  0.489700  0.772700  1.0  0.2987
  H  H129  1  0.914700  0.473300  0.729300  1.0  0.1352
  H  H130  1  0.964300  0.468500  0.658100  1.0  0.1419
  H  H131  1  0.860000  0.504400  0.621600  1.0  0.1242
  H  H132  1  0.807800  0.508200  0.693600  1.0  0.17
  C  C133  1  0.506800  0.124600  0.196400  1.0  0.0961
  C  C134  1  0.508800  0.067200  0.279800  1.0  0.2994
  C  C135  1  0.520000  0.089800  0.292600  1.0  -0.1152
  C  C136  1  0.522100  0.074500  0.335500  1.0  -0.099
  C  C137  1  0.510700  0.035100  0.371100  1.0  -0.0197
  C  C138  1  0.501500  0.013900  0.356500  1.0  0.0014
  C  C139  1  0.499400  0.027400  0.313000  1.0  -0.1789
  C  C140  1  0.511900  0.024300  0.416700  1.0  0.4742
  C  C141  1  0.124600  0.506800  0.172200  1.0  0.0957
  C  C142  1  0.067200  0.508800  0.144200  1.0  0.2988
  C  C143  1  0.089800  0.520000  0.097600  1.0  -0.1141
  C  C144  1  0.074500  0.522100  0.067900  1.0  -0.0975
  C  C145  1  0.035100  0.510700  0.083100  1.0  -0.0194
  C  C146  1  0.013900  0.501500  0.128100  1.0  0.0066
  C  C147  1  0.027400  0.499400  0.160200  1.0  -0.1754
  C  C148  1  0.024300  0.511900  0.047100  1.0  0.4736
  C  C149  1  0.196400  0.172200  0.506800  1.0  0.0956
  C  C150  1  0.279800  0.144200  0.508800  1.0  0.3014
  C  C151  1  0.292600  0.097600  0.520000  1.0  -0.1157
  C  C152  1  0.335500  0.067900  0.522100  1.0  -0.0965
  C  C153  1  0.371100  0.083100  0.510700  1.0  -0.0169
  C  C154  1  0.356500  0.128100  0.501500  1.0  0.0014
  C  C155  1  0.313000  0.160200  0.499400  1.0  -0.1777
  C  C156  1  0.416700  0.047100  0.511900  1.0  0.4748
  C  C157  1  0.172200  0.196400  0.124600  1.0  0.096
  C  C158  1  0.144200  0.279800  0.067200  1.0  0.3006
  C  C159  1  0.097600  0.292600  0.089800  1.0  -0.115
  C  C160  1  0.067900  0.335500  0.074500  1.0  -0.0946
  C  C161  1  0.083100  0.371100  0.035100  1.0  -0.0188
  C  C162  1  0.128100  0.356500  0.013900  1.0  0.0037
  C  C163  1  0.160200  0.313000  0.027400  1.0  -0.1739
  C  C164  1  0.047100  0.416700  0.024300  1.0  0.4738
  C  C165  1  0.506800  0.196400  0.172200  1.0  0.1069
  C  C166  1  0.508800  0.279800  0.144200  1.0  0.3008
  C  C167  1  0.520000  0.292600  0.097600  1.0  -0.1156
  C  C168  1  0.522100  0.335500  0.067900  1.0  -0.098
  C  C169  1  0.510700  0.371100  0.083100  1.0  -0.0197
  C  C170  1  0.501500  0.356500  0.128100  1.0  0.0012
  C  C171  1  0.499400  0.313000  0.160200  1.0  -0.1746
  C  C172  1  0.511900  0.416700  0.047100  1.0  0.4756
  C  C173  1  0.124600  0.172200  0.196400  1.0  0.1082
  C  C174  1  0.067200  0.144200  0.279800  1.0  0.3007
  C  C175  1  0.089800  0.097600  0.292600  1.0  -0.1155
  C  C176  1  0.074500  0.067900  0.335500  1.0  -0.0972
  C  C177  1  0.035100  0.083100  0.371100  1.0  -0.0195
  C  C178  1  0.013900  0.128100  0.356500  1.0  0.0025
  C  C179  1  0.027400  0.160200  0.313000  1.0  -0.1781
  C  C180  1  0.024300  0.047100  0.416700  1.0  0.4757
  C  C181  1  0.196400  0.506800  0.124600  1.0  0.1074
  C  C182  1  0.279800  0.508800  0.067200  1.0  0.3006
  C  C183  1  0.292600  0.520000  0.089800  1.0  -0.115
  C  C184  1  0.335500  0.522100  0.074500  1.0  -0.0966
  C  C185  1  0.371100  0.510700  0.035100  1.0  -0.0175
  C  C186  1  0.356500  0.501500  0.013900  1.0  0.0002
  C  C187  1  0.313000  0.499400  0.027400  1.0  -0.1738
  C  C188  1  0.416700  0.511900  0.024300  1.0  0.4756
  C  C189  1  0.172200  0.124600  0.506800  1.0  0.1074
  C  C190  1  0.144200  0.067200  0.508800  1.0  0.3
  C  C191  1  0.097600  0.089800  0.520000  1.0  -0.1154
  C  C192  1  0.067900  0.074500  0.522100  1.0  -0.0957
  C  C193  1  0.083100  0.035100  0.510700  1.0  -0.0224
  C  C194  1  0.128100  0.013900  0.501500  1.0  0.0007
  C  C195  1  0.160200  0.027400  0.499400  1.0  -0.1789
  C  C196  1  0.047100  0.024300  0.511900  1.0  0.4733
  C  C197  1  0.506800  0.172200  0.124600  1.0  0.0975
  C  C198  1  0.508800  0.144200  0.067200  1.0  0.3012
  C  C199  1  0.520000  0.097600  0.089800  1.0  -0.1127
  C  C200  1  0.522100  0.067900  0.074500  1.0  -0.0974
  C  C201  1  0.510700  0.083100  0.035100  1.0  -0.0201
  C  C202  1  0.501500  0.128100  0.013900  1.0  0.0007
  C  C203  1  0.499400  0.160200  0.027400  1.0  -0.177
  C  C204  1  0.511900  0.047100  0.024300  1.0  0.4754
  C  C205  1  0.124600  0.196400  0.506800  1.0  0.0971
  C  C206  1  0.067200  0.279800  0.508800  1.0  0.3
  C  C207  1  0.089800  0.292600  0.520000  1.0  -0.1156
  C  C208  1  0.074500  0.335500  0.522100  1.0  -0.0972
  C  C209  1  0.035100  0.371100  0.510700  1.0  -0.0192
  C  C210  1  0.013900  0.356500  0.501500  1.0  0.003
  C  C211  1  0.027400  0.313000  0.499400  1.0  -0.1756
  C  C212  1  0.024300  0.416700  0.511900  1.0  0.4739
  C  C213  1  0.196400  0.124600  0.172200  1.0  0.0978
  C  C214  1  0.279800  0.067200  0.144200  1.0  0.2994
  C  C215  1  0.292600  0.089800  0.097600  1.0  -0.1158
  C  C216  1  0.335500  0.074500  0.067900  1.0  -0.0991
  C  C217  1  0.371100  0.035100  0.083100  1.0  -0.0167
  C  C218  1  0.356500  0.013900  0.128100  1.0  0.0007
  C  C219  1  0.313000  0.027400  0.160200  1.0  -0.1789
  C  C220  1  0.416700  0.024300  0.047100  1.0  0.4748
  C  C221  1  0.172200  0.506800  0.196400  1.0  0.097
  C  C222  1  0.144200  0.508800  0.279800  1.0  0.3
  C  C223  1  0.097600  0.520000  0.292600  1.0  -0.1157
  C  C224  1  0.067900  0.522100  0.335500  1.0  -0.0931
  C  C225  1  0.083100  0.510700  0.371100  1.0  -0.0227
  C  C226  1  0.128100  0.501500  0.356500  1.0  0.004
  C  C227  1  0.160200  0.499400  0.313000  1.0  -0.1749
  C  C228  1  0.047100  0.511900  0.416700  1.0  0.4736
  C  C229  1  0.493200  0.875400  0.803600  1.0  0.0962
  C  C230  1  0.491200  0.932800  0.720200  1.0  0.299
  C  C231  1  0.480000  0.910200  0.707400  1.0  -0.1158
  C  C232  1  0.477900  0.925500  0.664500  1.0  -0.0972
  C  C233  1  0.489300  0.964900  0.628900  1.0  -0.0195
  C  C234  1  0.498500  0.986100  0.643500  1.0  0.0022
  C  C235  1  0.500600  0.972600  0.687000  1.0  -0.1796
  C  C236  1  0.488100  0.975700  0.583300  1.0  0.4746
  C  C237  1  0.875400  0.493200  0.827800  1.0  0.0952
  C  C238  1  0.932800  0.491200  0.855800  1.0  0.3006
  C  C239  1  0.910200  0.480000  0.902400  1.0  -0.1155
  C  C240  1  0.925500  0.477900  0.932100  1.0  -0.0955
  C  C241  1  0.964900  0.489300  0.916900  1.0  -0.0192
  C  C242  1  0.986100  0.498500  0.871900  1.0  0.0064
  C  C243  1  0.972600  0.500600  0.839800  1.0  -0.1762
  C  C244  1  0.975700  0.488100  0.952900  1.0  0.4742
  C  C245  1  0.803600  0.827800  0.493200  1.0  0.0965
  C  C246  1  0.720200  0.855800  0.491200  1.0  0.2995
  C  C247  1  0.707400  0.902400  0.480000  1.0  -0.1161
  C  C248  1  0.664500  0.932100  0.477900  1.0  -0.0974
  C  C249  1  0.628900  0.916900  0.489300  1.0  -0.0192
  C  C250  1  0.643500  0.871900  0.498500  1.0  0.0015
  C  C251  1  0.687000  0.839800  0.500600  1.0  -0.1762
  C  C252  1  0.583300  0.952900  0.488100  1.0  0.4746
  C  C253  1  0.827800  0.803600  0.875400  1.0  0.0958
  C  C254  1  0.855800  0.720200  0.932800  1.0  0.3005
  C  C255  1  0.902400  0.707400  0.910200  1.0  -0.1154
  C  C256  1  0.932100  0.664500  0.925500  1.0  -0.0954
  C  C257  1  0.916900  0.628900  0.964900  1.0  -0.0182
  C  C258  1  0.871900  0.643500  0.986100  1.0  0.0015
  C  C259  1  0.839800  0.687000  0.972600  1.0  -0.1733
  C  C260  1  0.952900  0.583300  0.975700  1.0  0.4742
  C  C261  1  0.493200  0.803600  0.827800  1.0  0.1071
  C  C262  1  0.491200  0.720200  0.855800  1.0  0.3009
  C  C263  1  0.480000  0.707400  0.902400  1.0  -0.1151
  C  C264  1  0.477900  0.664500  0.932100  1.0  -0.0972
  C  C265  1  0.489300  0.628900  0.916900  1.0  -0.02
  C  C266  1  0.498500  0.643500  0.871900  1.0  1e-04
  C  C267  1  0.500600  0.687000  0.839800  1.0  -0.1747
  C  C268  1  0.488100  0.583300  0.952900  1.0  0.4752
  C  C269  1  0.875400  0.827800  0.803600  1.0  0.1081
  C  C270  1  0.932800  0.855800  0.720200  1.0  0.3002
  C  C271  1  0.910200  0.902400  0.707400  1.0  -0.1174
  C  C272  1  0.925500  0.932100  0.664500  1.0  -0.0977
  C  C273  1  0.964900  0.916900  0.628900  1.0  -0.0196
  C  C274  1  0.986100  0.871900  0.643500  1.0  0.0015
  C  C275  1  0.972600  0.839800  0.687000  1.0  -0.1776
  C  C276  1  0.975700  0.952900  0.583300  1.0  0.4754
  C  C277  1  0.803600  0.493200  0.875400  1.0  0.1067
  C  C278  1  0.720200  0.491200  0.932800  1.0  0.3006
  C  C279  1  0.707400  0.480000  0.910200  1.0  -0.1148
  C  C280  1  0.664500  0.477900  0.925500  1.0  -0.0972
  C  C281  1  0.628900  0.489300  0.964900  1.0  -0.0196
  C  C282  1  0.643500  0.498500  0.986100  1.0  0.002
  C  C283  1  0.687000  0.500600  0.972600  1.0  -0.1741
  C  C284  1  0.583300  0.488100  0.975700  1.0  0.4757
  C  C285  1  0.827800  0.875400  0.493200  1.0  0.1085
  C  C286  1  0.855800  0.932800  0.491200  1.0  0.2997
  C  C287  1  0.902400  0.910200  0.480000  1.0  -0.1147
  C  C288  1  0.932100  0.925500  0.477900  1.0  -0.0956
  C  C289  1  0.916900  0.964900  0.489300  1.0  -0.0188
  C  C290  1  0.871900  0.986100  0.498500  1.0  0.0014
  C  C291  1  0.839800  0.972600  0.500600  1.0  -0.178
  C  C292  1  0.952900  0.975700  0.488100  1.0  0.4741
  C  C293  1  0.493200  0.827800  0.875400  1.0  0.0974
  C  C294  1  0.491200  0.855800  0.932800  1.0  0.2998
  C  C295  1  0.480000  0.902400  0.910200  1.0  -0.1143
  C  C296  1  0.477900  0.932100  0.925500  1.0  -0.0979
  C  C297  1  0.489300  0.916900  0.964900  1.0  -0.0196
  C  C298  1  0.498500  0.871900  0.986100  1.0  0.0015
  C  C299  1  0.500600  0.839800  0.972600  1.0  -0.1768
  C  C300  1  0.488100  0.952900  0.975700  1.0  0.4755
  C  C301  1  0.875400  0.803600  0.493200  1.0  0.0964
  C  C302  1  0.932800  0.720200  0.491200  1.0  0.3014
  C  C303  1  0.910200  0.707400  0.480000  1.0  -0.1168
  C  C304  1  0.925500  0.664500  0.477900  1.0  -0.0972
  C  C305  1  0.964900  0.628900  0.489300  1.0  -0.0194
  C  C306  1  0.986100  0.643500  0.498500  1.0  0.0028
  C  C307  1  0.972600  0.687000  0.500600  1.0  -0.1766
  C  C308  1  0.975700  0.583300  0.488100  1.0  0.4728
  C  C309  1  0.803600  0.875400  0.827800  1.0  0.0982
  C  C310  1  0.720200  0.932800  0.855800  1.0  0.2999
  C  C311  1  0.707400  0.910200  0.902400  1.0  -0.1134
  C  C312  1  0.664500  0.925500  0.932100  1.0  -0.0965
  C  C313  1  0.628900  0.964900  0.916900  1.0  -0.0205
  C  C314  1  0.643500  0.986100  0.871900  1.0  -0.0
  C  C315  1  0.687000  0.972600  0.839800  1.0  -0.1806
  C  C316  1  0.583300  0.975700  0.952900  1.0  0.4745
  C  C317  1  0.827800  0.493200  0.803600  1.0  0.097
  C  C318  1  0.855800  0.491200  0.720200  1.0  0.2999
  C  C319  1  0.902400  0.480000  0.707400  1.0  -0.1137
  C  C320  1  0.932100  0.477900  0.664500  1.0  -0.0963
  C  C321  1  0.916900  0.489300  0.628900  1.0  -0.018
  C  C322  1  0.871900  0.498500  0.643500  1.0  0.0018
  C  C323  1  0.839800  0.500600  0.687000  1.0  -0.1747
  C  C324  1  0.952900  0.488100  0.583300  1.0  0.4747
  N  N325  1  0.508200  0.157200  0.208600  1.0  -0.3635
  N  N326  1  0.508800  0.084200  0.233600  1.0  -0.3787
  N  N327  1  0.157200  0.508200  0.126000  1.0  -0.3665
  N  N328  1  0.084200  0.508800  0.173400  1.0  -0.3824
  N  N329  1  0.208600  0.126000  0.508200  1.0  -0.3648
  N  N330  1  0.233600  0.173400  0.508800  1.0  -0.3767
  N  N331  1  0.126000  0.208600  0.157200  1.0  -0.3649
  N  N332  1  0.173400  0.233600  0.084200  1.0  -0.3788
  N  N333  1  0.508200  0.208600  0.126000  1.0  -0.3627
  N  N334  1  0.508800  0.233600  0.173400  1.0  -0.3765
  N  N335  1  0.157200  0.126000  0.208600  1.0  -0.3643
  N  N336  1  0.084200  0.173400  0.233600  1.0  -0.3788
  N  N337  1  0.208600  0.508200  0.157200  1.0  -0.3625
  N  N338  1  0.233600  0.508800  0.084200  1.0  -0.3773
  N  N339  1  0.126000  0.157200  0.508200  1.0  -0.3649
  N  N340  1  0.173400  0.084200  0.508800  1.0  -0.3807
  N  N341  1  0.508200  0.126000  0.157200  1.0  -0.3646
  N  N342  1  0.508800  0.173400  0.084200  1.0  -0.3776
  N  N343  1  0.157200  0.208600  0.508200  1.0  -0.364
  N  N344  1  0.084200  0.233600  0.508800  1.0  -0.3836
  N  N345  1  0.208600  0.157200  0.126000  1.0  -0.3644
  N  N346  1  0.233600  0.084200  0.173400  1.0  -0.3809
  N  N347  1  0.126000  0.508200  0.208600  1.0  -0.3652
  N  N348  1  0.173400  0.508800  0.233600  1.0  -0.3809
  N  N349  1  0.491800  0.842800  0.791400  1.0  -0.3645
  N  N350  1  0.491200  0.915800  0.766400  1.0  -0.3785
  N  N351  1  0.842800  0.491800  0.874000  1.0  -0.3646
  N  N352  1  0.915800  0.491200  0.826600  1.0  -0.3787
  N  N353  1  0.791400  0.874000  0.491800  1.0  -0.367
  N  N354  1  0.766400  0.826600  0.491200  1.0  -0.3777
  N  N355  1  0.874000  0.791400  0.842800  1.0  -0.3624
  N  N356  1  0.826600  0.766400  0.915800  1.0  -0.3841
  N  N357  1  0.491800  0.791400  0.874000  1.0  -0.361
  N  N358  1  0.491200  0.766400  0.826600  1.0  -0.3771
  N  N359  1  0.842800  0.874000  0.791400  1.0  -0.365
  N  N360  1  0.915800  0.826600  0.766400  1.0  -0.3793
  N  N361  1  0.791400  0.491800  0.842800  1.0  -0.3648
  N  N362  1  0.766400  0.491200  0.915800  1.0  -0.3775
  N  N363  1  0.874000  0.842800  0.491800  1.0  -0.3648
  N  N364  1  0.826600  0.915800  0.491200  1.0  -0.384
  N  N365  1  0.491800  0.874000  0.842800  1.0  -0.3647
  N  N366  1  0.491200  0.826600  0.915800  1.0  -0.3793
  N  N367  1  0.842800  0.791400  0.491800  1.0  -0.3644
  N  N368  1  0.915800  0.766400  0.491200  1.0  -0.3798
  N  N369  1  0.791400  0.842800  0.874000  1.0  -0.3635
  N  N370  1  0.766400  0.915800  0.826600  1.0  -0.38
  N  N371  1  0.874000  0.491800  0.791400  1.0  -0.3648
  N  N372  1  0.826600  0.491200  0.766400  1.0  -0.3847
  O  O373  1  0.523550  0.045610  0.424230  1.0  -0.4869
  O  O374  1  0.495830  0.984350  0.449190  1.0  -0.5623
  O  O375  1  0.045610  0.523550  0.006610  1.0  -0.4858
  O  O376  1  0.984350  0.495830  0.070630  1.0  -0.5597
  O  O377  1  0.424230  0.006610  0.523550  1.0  -0.4859
  O  O378  1  0.449190  0.070630  0.495830  1.0  -0.5642
  O  O379  1  0.006610  0.424230  0.045610  1.0  -0.4861
  O  O380  1  0.070630  0.449190  0.984350  1.0  -0.56
  O  O381  1  0.523550  0.424230  0.006610  1.0  -0.4867
  O  O382  1  0.495830  0.449190  0.070630  1.0  -0.5608
  O  O383  1  0.045610  0.006610  0.424230  1.0  -0.4864
  O  O384  1  0.984350  0.070630  0.449190  1.0  -0.5649
  O  O385  1  0.424230  0.523550  0.045610  1.0  -0.4883
  O  O386  1  0.449190  0.495830  0.984350  1.0  -0.56
  O  O387  1  0.006610  0.045610  0.523550  1.0  -0.486
  O  O388  1  0.070630  0.984350  0.495830  1.0  -0.5631
  O  O389  1  0.523550  0.006610  0.045610  1.0  -0.4856
  O  O390  1  0.495830  0.070630  0.984350  1.0  -0.5651
  O  O391  1  0.045610  0.424230  0.523550  1.0  -0.4875
  O  O392  1  0.984350  0.449190  0.495830  1.0  -0.5629
  O  O393  1  0.424230  0.045610  0.006610  1.0  -0.4874
  O  O394  1  0.449190  0.984350  0.070630  1.0  -0.5646
  O  O395  1  0.006610  0.523550  0.424230  1.0  -0.4861
  O  O396  1  0.070630  0.495830  0.449190  1.0  -0.5627
  O  O397  1  0.476450  0.954390  0.575770  1.0  -0.4873
  O  O398  1  0.504170  0.015650  0.550810  1.0  -0.5622
  O  O399  1  0.954390  0.476450  0.993390  1.0  -0.4867
  O  O400  1  0.015650  0.504170  0.929370  1.0  -0.5598
  O  O401  1  0.575770  0.993390  0.476450  1.0  -0.4865
  O  O402  1  0.550810  0.929370  0.504170  1.0  -0.5608
  O  O403  1  0.993390  0.575770  0.954390  1.0  -0.4861
  O  O404  1  0.929370  0.550810  0.015650  1.0  -0.559
  O  O405  1  0.476450  0.575770  0.993390  1.0  -0.4866
  O  O406  1  0.504170  0.550810  0.929370  1.0  -0.5574
  O  O407  1  0.954390  0.993390  0.575770  1.0  -0.4858
  O  O408  1  0.015650  0.929370  0.550810  1.0  -0.5613
  O  O409  1  0.575770  0.476450  0.954390  1.0  -0.4887
  O  O410  1  0.550810  0.504170  0.015650  1.0  -0.5597
  O  O411  1  0.993390  0.954390  0.476450  1.0  -0.4873
  O  O412  1  0.929370  0.015650  0.504170  1.0  -0.565
  O  O413  1  0.476450  0.993390  0.954390  1.0  -0.4863
  O  O414  1  0.504170  0.929370  0.015650  1.0  -0.5631
  O  O415  1  0.954390  0.575770  0.476450  1.0  -0.4863
  O  O416  1  0.015650  0.550810  0.504170  1.0  -0.5617
  O  O417  1  0.575770  0.954390  0.993390  1.0  -0.4892
  O  O418  1  0.550810  0.015650  0.929370  1.0  -0.5643
  O  O419  1  0.993390  0.476450  0.575770  1.0  -0.4863
  O  O420  1  0.929370  0.504170  0.550810  1.0  -0.5607
