# generated using pymatgen
data_NbZn3P4(O8F)2
_symmetry_space_group_name_H-M   'P 1'
_cell_length_a   9.19280000
_cell_length_b   14.20900000
_cell_length_c   32.29710000
_cell_angle_alpha   90.00000000
_cell_angle_beta   90.00000000
_cell_angle_gamma   90.00000000
_symmetry_Int_Tables_number   1
_chemical_formula_structural   NbZn3P4(O8F)2
_chemical_formula_sum   'Nb8 Zn24 P32 O128 F16'
_cell_volume   4218.66319552
_cell_formula_units_Z   8
loop_
 _symmetry_equiv_pos_site_id
 _symmetry_equiv_pos_as_xyz
  1  'x, y, z'
loop_
 _atom_site_type_symbol
 _atom_site_label
 _atom_site_symmetry_multiplicity
 _atom_site_fract_x
 _atom_site_fract_y
 _atom_site_fract_z
 _atom_site_occupancy
 _atom_site_charge
  Nb  Nb1  1  0.125000  0.125000  0.625000  1.0  1.3519
  Nb  Nb2  1  0.625000  0.625000  0.625000  1.0  1.3519
  Nb  Nb3  1  0.625000  0.125000  0.125000  1.0  1.3519
  Nb  Nb4  1  0.125000  0.625000  0.125000  1.0  1.3519
  Nb  Nb5  1  0.875000  0.875000  0.375000  1.0  1.3519
  Nb  Nb6  1  0.375000  0.375000  0.375000  1.0  1.3519
  Nb  Nb7  1  0.375000  0.875000  0.875000  1.0  1.3519
  Nb  Nb8  1  0.875000  0.375000  0.875000  1.0  1.3519
  Zn  Zn9  1  0.625000  0.125000  0.491330  1.0  1.2088
  Zn  Zn10  1  0.625000  0.625000  0.991330  1.0  1.2088
  Zn  Zn11  1  0.125000  0.625000  0.491330  1.0  1.2088
  Zn  Zn12  1  0.125000  0.125000  0.991330  1.0  1.2088
  Zn  Zn13  1  0.125000  0.125000  0.258670  1.0  1.2087
  Zn  Zn14  1  0.125000  0.625000  0.758670  1.0  1.2087
  Zn  Zn15  1  0.625000  0.625000  0.258670  1.0  1.2087
  Zn  Zn16  1  0.625000  0.125000  0.758670  1.0  1.2087
  Zn  Zn17  1  0.375000  0.875000  0.508670  1.0  1.2087
  Zn  Zn18  1  0.375000  0.375000  0.008670  1.0  1.2087
  Zn  Zn19  1  0.875000  0.375000  0.508670  1.0  1.2087
  Zn  Zn20  1  0.875000  0.875000  0.008670  1.0  1.2087
  Zn  Zn21  1  0.875000  0.875000  0.741330  1.0  1.2088
  Zn  Zn22  1  0.875000  0.375000  0.241330  1.0  1.2088
  Zn  Zn23  1  0.375000  0.375000  0.741330  1.0  1.2088
  Zn  Zn24  1  0.375000  0.875000  0.241330  1.0  1.2088
  Zn  Zn25  1  0.625000  0.125000  0.625000  1.0  1.2123
  Zn  Zn26  1  0.125000  0.625000  0.625000  1.0  1.2123
  Zn  Zn27  1  0.125000  0.125000  0.125000  1.0  1.2123
  Zn  Zn28  1  0.625000  0.625000  0.125000  1.0  1.2123
  Zn  Zn29  1  0.375000  0.875000  0.375000  1.0  1.2123
  Zn  Zn30  1  0.875000  0.375000  0.375000  1.0  1.2123
  Zn  Zn31  1  0.875000  0.875000  0.875000  1.0  1.2123
  Zn  Zn32  1  0.375000  0.375000  0.875000  1.0  1.2123
  P  P33  1  0.394000  0.065600  0.559780  1.0  1.818
  P  P34  1  0.394000  0.565600  0.059780  1.0  1.818
  P  P35  1  0.894000  0.065600  0.059780  1.0  1.818
  P  P36  1  0.894000  0.565600  0.559780  1.0  1.818
  P  P37  1  0.356000  0.684400  0.559780  1.0  1.8185
  P  P38  1  0.356000  0.184400  0.059780  1.0  1.8185
  P  P39  1  0.856000  0.684400  0.059780  1.0  1.8185
  P  P40  1  0.856000  0.184400  0.559780  1.0  1.8185
  P  P41  1  0.356000  0.065600  0.190220  1.0  1.8181
  P  P42  1  0.356000  0.565600  0.690220  1.0  1.8181
  P  P43  1  0.856000  0.065600  0.690220  1.0  1.8181
  P  P44  1  0.856000  0.565600  0.190220  1.0  1.8181
  P  P45  1  0.394000  0.684400  0.190220  1.0  1.8177
  P  P46  1  0.394000  0.184400  0.690220  1.0  1.8177
  P  P47  1  0.894000  0.684400  0.690220  1.0  1.8177
  P  P48  1  0.894000  0.184400  0.190220  1.0  1.8177
  P  P49  1  0.606000  0.934400  0.440220  1.0  1.8183
  P  P50  1  0.606000  0.434400  0.940220  1.0  1.8183
  P  P51  1  0.106000  0.934400  0.940220  1.0  1.8183
  P  P52  1  0.106000  0.434400  0.440220  1.0  1.8183
  P  P53  1  0.644000  0.315600  0.440220  1.0  1.8175
  P  P54  1  0.644000  0.815600  0.940220  1.0  1.8175
  P  P55  1  0.144000  0.315600  0.940220  1.0  1.8175
  P  P56  1  0.144000  0.815600  0.440220  1.0  1.8175
  P  P57  1  0.644000  0.934400  0.809780  1.0  1.818
  P  P58  1  0.644000  0.434400  0.309780  1.0  1.818
  P  P59  1  0.144000  0.934400  0.309780  1.0  1.818
  P  P60  1  0.144000  0.434400  0.809780  1.0  1.818
  P  P61  1  0.606000  0.315600  0.809780  1.0  1.8186
  P  P62  1  0.606000  0.815600  0.309780  1.0  1.8186
  P  P63  1  0.106000  0.315600  0.309780  1.0  1.8186
  P  P64  1  0.106000  0.815600  0.809780  1.0  1.8186
  O  O65  1  0.278400  0.129500  0.581900  1.0  -0.7448
  O  O66  1  0.513500  0.038900  0.590700  1.0  -0.6932
  O  O67  1  0.447500  0.125600  0.523600  1.0  -0.7188
  O  O68  1  0.319000  0.977700  0.544800  1.0  -0.6976
  O  O69  1  0.278400  0.629500  0.081900  1.0  -0.7448
  O  O70  1  0.513500  0.538900  0.090700  1.0  -0.6932
  O  O71  1  0.447500  0.625600  0.023600  1.0  -0.7188
  O  O72  1  0.319000  0.477700  0.044800  1.0  -0.6976
  O  O73  1  0.778400  0.129500  0.081900  1.0  -0.7448
  O  O74  1  0.013500  0.038900  0.090700  1.0  -0.6932
  O  O75  1  0.947500  0.125600  0.023600  1.0  -0.7188
  O  O76  1  0.819000  0.977700  0.044800  1.0  -0.6976
  O  O77  1  0.778400  0.629500  0.581900  1.0  -0.7448
  O  O78  1  0.013500  0.538900  0.590700  1.0  -0.6932
  O  O79  1  0.947500  0.625600  0.523600  1.0  -0.7188
  O  O80  1  0.819000  0.477700  0.544800  1.0  -0.6976
  O  O81  1  0.471600  0.620500  0.581900  1.0  -0.7449
  O  O82  1  0.236500  0.711100  0.590700  1.0  -0.694
  O  O83  1  0.302500  0.624400  0.523600  1.0  -0.7188
  O  O84  1  0.431000  0.772300  0.544800  1.0  -0.6986
  O  O85  1  0.471600  0.120500  0.081900  1.0  -0.7449
  O  O86  1  0.236500  0.211100  0.090700  1.0  -0.694
  O  O87  1  0.302500  0.124400  0.023600  1.0  -0.7188
  O  O88  1  0.431000  0.272300  0.044800  1.0  -0.6986
  O  O89  1  0.971600  0.620500  0.081900  1.0  -0.7449
  O  O90  1  0.736500  0.711100  0.090700  1.0  -0.694
  O  O91  1  0.802500  0.624400  0.023600  1.0  -0.7188
  O  O92  1  0.931000  0.772300  0.044800  1.0  -0.6986
  O  O93  1  0.971600  0.120500  0.581900  1.0  -0.7449
  O  O94  1  0.736500  0.211100  0.590700  1.0  -0.694
  O  O95  1  0.802500  0.124400  0.523600  1.0  -0.7188
  O  O96  1  0.931000  0.272300  0.544800  1.0  -0.6986
  O  O97  1  0.471600  0.129500  0.168100  1.0  -0.7454
  O  O98  1  0.236500  0.038900  0.159300  1.0  -0.6942
  O  O99  1  0.302500  0.125600  0.226400  1.0  -0.7198
  O  O100  1  0.431000  0.977700  0.205200  1.0  -0.6986
  O  O101  1  0.471600  0.629500  0.668100  1.0  -0.7454
  O  O102  1  0.236500  0.538900  0.659300  1.0  -0.6942
  O  O103  1  0.302500  0.625600  0.726400  1.0  -0.7198
  O  O104  1  0.431000  0.477700  0.705200  1.0  -0.6986
  O  O105  1  0.971600  0.129500  0.668100  1.0  -0.7454
  O  O106  1  0.736500  0.038900  0.659300  1.0  -0.6942
  O  O107  1  0.802500  0.125600  0.726400  1.0  -0.7198
  O  O108  1  0.931000  0.977700  0.705200  1.0  -0.6986
  O  O109  1  0.971600  0.629500  0.168100  1.0  -0.7454
  O  O110  1  0.736500  0.538900  0.159300  1.0  -0.6942
  O  O111  1  0.802500  0.625600  0.226400  1.0  -0.7198
  O  O112  1  0.931000  0.477700  0.205200  1.0  -0.6986
  O  O113  1  0.278400  0.620500  0.168100  1.0  -0.745
  O  O114  1  0.513500  0.711100  0.159300  1.0  -0.6938
  O  O115  1  0.447500  0.624400  0.226400  1.0  -0.7208
  O  O116  1  0.319000  0.772300  0.205200  1.0  -0.6995
  O  O117  1  0.278400  0.120500  0.668100  1.0  -0.745
  O  O118  1  0.513500  0.211100  0.659300  1.0  -0.6938
  O  O119  1  0.447500  0.124400  0.726400  1.0  -0.7208
  O  O120  1  0.319000  0.272300  0.705200  1.0  -0.6995
  O  O121  1  0.778400  0.620500  0.668100  1.0  -0.745
  O  O122  1  0.013500  0.711100  0.659300  1.0  -0.6938
  O  O123  1  0.947500  0.624400  0.726400  1.0  -0.7208
  O  O124  1  0.819000  0.772300  0.705200  1.0  -0.6995
  O  O125  1  0.778400  0.120500  0.168100  1.0  -0.745
  O  O126  1  0.013500  0.211100  0.159300  1.0  -0.6938
  O  O127  1  0.947500  0.124400  0.226400  1.0  -0.7208
  O  O128  1  0.819000  0.272300  0.205200  1.0  -0.6995
  O  O129  1  0.721600  0.870500  0.418100  1.0  -0.7451
  O  O130  1  0.486500  0.961100  0.409300  1.0  -0.6942
  O  O131  1  0.552500  0.874400  0.476400  1.0  -0.7203
  O  O132  1  0.681000  0.022300  0.455200  1.0  -0.6994
  O  O133  1  0.721600  0.370500  0.918100  1.0  -0.7451
  O  O134  1  0.486500  0.461100  0.909300  1.0  -0.6942
  O  O135  1  0.552500  0.374400  0.976400  1.0  -0.7203
  O  O136  1  0.681000  0.522300  0.955200  1.0  -0.6994
  O  O137  1  0.221600  0.870500  0.918100  1.0  -0.7451
  O  O138  1  0.986500  0.961100  0.909300  1.0  -0.6942
  O  O139  1  0.052500  0.874400  0.976400  1.0  -0.7203
  O  O140  1  0.181000  0.022300  0.955200  1.0  -0.6994
  O  O141  1  0.221600  0.370500  0.418100  1.0  -0.7451
  O  O142  1  0.986500  0.461100  0.409300  1.0  -0.6942
  O  O143  1  0.052500  0.374400  0.476400  1.0  -0.7203
  O  O144  1  0.181000  0.522300  0.455200  1.0  -0.6994
  O  O145  1  0.528400  0.379500  0.418100  1.0  -0.7452
  O  O146  1  0.763500  0.288900  0.409300  1.0  -0.6942
  O  O147  1  0.697500  0.375600  0.476400  1.0  -0.7209
  O  O148  1  0.569000  0.227700  0.455200  1.0  -0.6985
  O  O149  1  0.528400  0.879500  0.918100  1.0  -0.7452
  O  O150  1  0.763500  0.788900  0.909300  1.0  -0.6942
  O  O151  1  0.697500  0.875600  0.976400  1.0  -0.7209
  O  O152  1  0.569000  0.727700  0.955200  1.0  -0.6985
  O  O153  1  0.028400  0.379500  0.918100  1.0  -0.7452
  O  O154  1  0.263500  0.288900  0.909300  1.0  -0.6942
  O  O155  1  0.197500  0.375600  0.976400  1.0  -0.7209
  O  O156  1  0.069000  0.227700  0.955200  1.0  -0.6985
  O  O157  1  0.028400  0.879500  0.418100  1.0  -0.7452
  O  O158  1  0.263500  0.788900  0.409300  1.0  -0.6942
  O  O159  1  0.197500  0.875600  0.476400  1.0  -0.7209
  O  O160  1  0.069000  0.727700  0.455200  1.0  -0.6985
  O  O161  1  0.528400  0.870500  0.831900  1.0  -0.745
  O  O162  1  0.763500  0.961100  0.840700  1.0  -0.6933
  O  O163  1  0.697500  0.874400  0.773600  1.0  -0.7194
  O  O164  1  0.569000  0.022300  0.794800  1.0  -0.6988
  O  O165  1  0.528400  0.370500  0.331900  1.0  -0.745
  O  O166  1  0.763500  0.461100  0.340700  1.0  -0.6933
  O  O167  1  0.697500  0.374400  0.273600  1.0  -0.7194
  O  O168  1  0.569000  0.522300  0.294800  1.0  -0.6988
  O  O169  1  0.028400  0.870500  0.331900  1.0  -0.745
  O  O170  1  0.263500  0.961100  0.340700  1.0  -0.6933
  O  O171  1  0.197500  0.874400  0.273600  1.0  -0.7194
  O  O172  1  0.069000  0.022300  0.294800  1.0  -0.6988
  O  O173  1  0.028400  0.370500  0.831900  1.0  -0.745
  O  O174  1  0.263500  0.461100  0.840700  1.0  -0.6933
  O  O175  1  0.197500  0.374400  0.773600  1.0  -0.7194
  O  O176  1  0.069000  0.522300  0.794800  1.0  -0.6988
  O  O177  1  0.721600  0.379500  0.831900  1.0  -0.7446
  O  O178  1  0.486500  0.288900  0.840700  1.0  -0.694
  O  O179  1  0.552500  0.375600  0.773600  1.0  -0.718
  O  O180  1  0.681000  0.227700  0.794800  1.0  -0.6976
  O  O181  1  0.721600  0.879500  0.331900  1.0  -0.7446
  O  O182  1  0.486500  0.788900  0.340700  1.0  -0.694
  O  O183  1  0.552500  0.875600  0.273600  1.0  -0.718
  O  O184  1  0.681000  0.727700  0.294800  1.0  -0.6976
  O  O185  1  0.221600  0.379500  0.331900  1.0  -0.7446
  O  O186  1  0.986500  0.288900  0.340700  1.0  -0.694
  O  O187  1  0.052500  0.375600  0.273600  1.0  -0.718
  O  O188  1  0.181000  0.227700  0.294800  1.0  -0.6976
  O  O189  1  0.221600  0.879500  0.831900  1.0  -0.7446
  O  O190  1  0.986500  0.788900  0.840700  1.0  -0.694
  O  O191  1  0.052500  0.875600  0.773600  1.0  -0.718
  O  O192  1  0.181000  0.727700  0.794800  1.0  -0.6976
  F  F193  1  0.125000  0.989600  0.625000  1.0  -0.4138
  F  F194  1  0.125000  0.489600  0.125000  1.0  -0.4138
  F  F195  1  0.625000  0.760400  0.625000  1.0  -0.412
  F  F196  1  0.625000  0.260400  0.125000  1.0  -0.412
  F  F197  1  0.625000  0.989600  0.125000  1.0  -0.4138
  F  F198  1  0.625000  0.489600  0.625000  1.0  -0.4138
  F  F199  1  0.125000  0.760400  0.125000  1.0  -0.412
  F  F200  1  0.125000  0.260400  0.625000  1.0  -0.412
  F  F201  1  0.875000  0.010400  0.375000  1.0  -0.412
  F  F202  1  0.875000  0.510400  0.875000  1.0  -0.412
  F  F203  1  0.375000  0.239600  0.375000  1.0  -0.4138
  F  F204  1  0.375000  0.739600  0.875000  1.0  -0.4138
  F  F205  1  0.375000  0.010400  0.875000  1.0  -0.412
  F  F206  1  0.375000  0.510400  0.375000  1.0  -0.412
  F  F207  1  0.875000  0.239600  0.875000  1.0  -0.4138
  F  F208  1  0.875000  0.739600  0.375000  1.0  -0.4138
