# generated using pymatgen
data_Zn4(PO4)3
_symmetry_space_group_name_H-M   'P 1'
_cell_length_a   5.25150000
_cell_length_b   15.19730000
_cell_length_c   17.57010000
_cell_angle_alpha   90.00000000
_cell_angle_beta   91.45900000
_cell_angle_gamma   90.00000000
_symmetry_Int_Tables_number   1
_chemical_formula_structural   Zn4(PO4)3
_chemical_formula_sum   'Zn16 P12 O48'
_cell_volume   1401.79084419
_cell_formula_units_Z   4
loop_
 _symmetry_equiv_pos_site_id
 _symmetry_equiv_pos_as_xyz
  1  'x, y, z'
loop_
 _atom_site_type_symbol
 _atom_site_label
 _atom_site_symmetry_multiplicity
 _atom_site_fract_x
 _atom_site_fract_y
 _atom_site_fract_z
 _atom_site_occupancy
 _atom_site_charge
  Zn  Zn1  1  0.197700  0.403500  0.459000  1.0  1.1424
  Zn  Zn2  1  0.106500  0.255800  0.186400  1.0  1.0091
  Zn  Zn3  1  0.293500  0.100700  0.488200  1.0  1.138
  Zn  Zn4  1  0.790100  0.231800  0.448800  1.0  1.097
  Zn  Zn5  1  0.302300  0.903500  0.041000  1.0  1.142
  Zn  Zn6  1  0.393500  0.755800  0.313600  1.0  1.0134
  Zn  Zn7  1  0.206500  0.600700  0.011800  1.0  1.1385
  Zn  Zn8  1  0.709900  0.731800  0.051200  1.0  1.099
  Zn  Zn9  1  0.802300  0.596500  0.541000  1.0  1.142
  Zn  Zn10  1  0.893500  0.744200  0.813600  1.0  1.0133
  Zn  Zn11  1  0.706500  0.899300  0.511800  1.0  1.1387
  Zn  Zn12  1  0.209900  0.768200  0.551200  1.0  1.0991
  Zn  Zn13  1  0.697700  0.096500  0.959000  1.0  1.1426
  Zn  Zn14  1  0.606500  0.244200  0.686400  1.0  1.009
  Zn  Zn15  1  0.793500  0.399300  0.988200  1.0  1.1385
  Zn  Zn16  1  0.290100  0.268200  0.948800  1.0  1.0971
  P  P17  1  0.278200  0.240700  0.358500  1.0  1.777
  P  P18  1  0.282000  0.613800  0.441800  1.0  1.8538
  P  P19  1  0.277400  0.409000  0.084300  1.0  1.8409
  P  P20  1  0.221800  0.740700  0.141500  1.0  1.7774
  P  P21  1  0.218000  0.113800  0.058200  1.0  1.8523
  P  P22  1  0.222600  0.909000  0.415700  1.0  1.8391
  P  P23  1  0.721800  0.759300  0.641500  1.0  1.7775
  P  P24  1  0.718000  0.386200  0.558200  1.0  1.8519
  P  P25  1  0.722600  0.591000  0.915700  1.0  1.8395
  P  P26  1  0.778200  0.259300  0.858500  1.0  1.777
  P  P27  1  0.782000  0.886200  0.941800  1.0  1.8534
  P  P28  1  0.777400  0.091000  0.584300  1.0  1.8413
  O  O29  1  0.234000  0.338300  0.364900  1.0  -0.7417
  O  O30  1  0.177900  0.523000  0.424600  1.0  -0.8249
  O  O31  1  0.565900  0.618300  0.457700  1.0  -0.8395
  O  O32  1  0.139800  0.649300  0.512200  1.0  -0.9625
  O  O33  1  0.168900  0.204100  0.283900  1.0  -0.7359
  O  O34  1  0.214600  0.374400  0.163300  1.0  -0.7494
  O  O35  1  0.211500  0.672100  0.373700  1.0  -0.7537
  O  O36  1  0.180200  0.502400  0.078100  1.0  -0.8225
  O  O37  1  0.134600  0.353400  0.022100  1.0  -0.9163
  O  O38  1  0.564200  0.400400  0.072600  1.0  -0.8128
  O  O39  1  0.135500  0.194700  0.425400  1.0  -0.9279
  O  O40  1  0.557500  0.213700  0.366200  1.0  -0.7723
  O  O41  1  0.266000  0.838300  0.135100  1.0  -0.7411
  O  O42  1  0.322100  0.023000  0.075400  1.0  -0.8249
  O  O43  1  0.934100  0.118300  0.042300  1.0  -0.8398
  O  O44  1  0.360200  0.149300  0.987800  1.0  -0.9631
  O  O45  1  0.331100  0.704100  0.216100  1.0  -0.7359
  O  O46  1  0.285400  0.874400  0.336700  1.0  -0.7512
  O  O47  1  0.288500  0.172100  0.126300  1.0  -0.7559
  O  O48  1  0.319800  0.002400  0.421900  1.0  -0.8228
  O  O49  1  0.365400  0.853400  0.477900  1.0  -0.9174
  O  O50  1  0.935800  0.900400  0.427400  1.0  -0.8136
  O  O51  1  0.364500  0.694700  0.074600  1.0  -0.9278
  O  O52  1  0.942500  0.713700  0.133800  1.0  -0.7706
  O  O53  1  0.766000  0.661700  0.635100  1.0  -0.7417
  O  O54  1  0.822100  0.477000  0.575400  1.0  -0.8241
  O  O55  1  0.434100  0.381700  0.542300  1.0  -0.8394
  O  O56  1  0.860200  0.350700  0.487800  1.0  -0.9632
  O  O57  1  0.831100  0.795900  0.716100  1.0  -0.7349
  O  O58  1  0.785400  0.625600  0.836700  1.0  -0.7512
  O  O59  1  0.788500  0.327900  0.626300  1.0  -0.7568
  O  O60  1  0.819800  0.497600  0.921900  1.0  -0.8218
  O  O61  1  0.865400  0.646600  0.977900  1.0  -0.9176
  O  O62  1  0.435800  0.599600  0.927400  1.0  -0.8135
  O  O63  1  0.864500  0.805300  0.574600  1.0  -0.9283
  O  O64  1  0.442500  0.786300  0.633800  1.0  -0.7697
  O  O65  1  0.734000  0.161700  0.864900  1.0  -0.7412
  O  O66  1  0.677900  0.977000  0.924600  1.0  -0.8241
  O  O67  1  0.065900  0.881700  0.957700  1.0  -0.8391
  O  O68  1  0.639800  0.850700  0.012200  1.0  -0.9625
  O  O69  1  0.668900  0.295900  0.783900  1.0  -0.735
  O  O70  1  0.714600  0.125600  0.663300  1.0  -0.7498
  O  O71  1  0.711500  0.827900  0.873700  1.0  -0.7539
  O  O72  1  0.680200  0.997600  0.578100  1.0  -0.8215
  O  O73  1  0.634600  0.146600  0.522100  1.0  -0.9163
  O  O74  1  0.064200  0.099600  0.572600  1.0  -0.8126
  O  O75  1  0.635500  0.305300  0.925400  1.0  -0.9282
  O  O76  1  0.057500  0.286300  0.866200  1.0  -0.7712
