# generated using pymatgen
data_ZnH6(C2O)5
_symmetry_space_group_name_H-M   'P 1'
_cell_length_a   13.07570000
_cell_length_b   14.11570000
_cell_length_c   16.66310000
_cell_angle_alpha   66.60200000
_cell_angle_beta   87.13800000
_cell_angle_gamma   89.75700000
_symmetry_Int_Tables_number   1
_chemical_formula_structural   ZnH6(C2O)5
_chemical_formula_sum   'Zn8 H48 C80 O40'
_cell_volume   2818.71698550
_cell_formula_units_Z   8
loop_
 _symmetry_equiv_pos_site_id
 _symmetry_equiv_pos_as_xyz
  1  'x, y, z'
loop_
 _atom_site_type_symbol
 _atom_site_label
 _atom_site_symmetry_multiplicity
 _atom_site_fract_x
 _atom_site_fract_y
 _atom_site_fract_z
 _atom_site_occupancy
 _atom_site_charge
  Zn  Zn1  1  0.235220  0.833700  0.417930  1.0  1.0419
  Zn  Zn2  1  0.902830  0.461070  0.281740  1.0  1.0393
  Zn  Zn3  1  0.747080  0.589920  0.128950  1.0  1.0037
  Zn  Zn4  1  0.408180  0.959170  0.257230  1.0  1.0245
  Zn  Zn5  1  0.764780  0.166300  0.582070  1.0  1.0429
  Zn  Zn6  1  0.097170  0.538930  0.718260  1.0  1.0452
  Zn  Zn7  1  0.252920  0.410080  0.871050  1.0  1.0134
  Zn  Zn8  1  0.591820  0.040830  0.742770  1.0  1.0241
  H  H9  1  0.087200  0.731100  0.245500  1.0  0.1164
  H  H10  1  0.986900  0.817500  0.000300  1.0  0.1295
  H  H11  1  0.221900  0.974600  0.044600  1.0  0.1257
  H  H12  1  0.170500  0.097000  0.914700  1.0  0.0836
  H  H13  1  0.250500  0.023800  0.891100  1.0  0.0839
  H  H14  1  0.088900  0.118700  0.776400  1.0  0.0931
  H  H15  1  0.171100  0.227800  0.262900  1.0  0.1227
  H  H16  1  0.120900  0.276600  0.486300  1.0  0.1226
  H  H17  1  0.310300  0.049100  0.483100  1.0  0.1263
  H  H18  1  0.227500  0.257800  0.607500  1.0  0.0861
  H  H19  1  0.124700  0.188400  0.627400  1.0  0.0691
  H  H20  1  0.297200  0.114100  0.736100  1.0  0.1047
  H  H21  1  0.579300  0.683000  0.302600  1.0  0.1161
  H  H22  1  0.725300  0.473300  0.506500  1.0  0.1226
  H  H23  1  0.490800  0.637400  0.552200  1.0  0.1363
  H  H24  1  0.697700  0.376900  0.651700  1.0  0.0855
  H  H25  1  0.769000  0.475500  0.636800  1.0  0.0837
  H  H26  1  0.647000  0.367800  0.797400  1.0  0.0924
  H  H27  1  0.828500  0.481500  0.760500  1.0  0.0888
  H  H28  1  0.766700  0.472800  0.907000  1.0  0.0767
  H  H29  1  0.855600  0.393000  0.909800  1.0  0.0806
  H  H30  1  0.805000  0.401100  0.046900  1.0  0.1179
  H  H31  1  0.681100  0.188300  0.275600  1.0  0.1195
  H  H32  1  0.617000  0.174500  0.045200  1.0  0.1255
  H  H33  1  0.912800  0.268900  0.754500  1.0  0.1161
  H  H34  1  0.013100  0.182500  0.999700  1.0  0.1291
  H  H35  1  0.778100  0.025400  0.955400  1.0  0.1264
  H  H36  1  0.829500  0.903000  0.085300  1.0  0.0799
  H  H37  1  0.749500  0.976200  0.108900  1.0  0.0843
  H  H38  1  0.911100  0.881300  0.223600  1.0  0.0921
  H  H39  1  0.828900  0.772200  0.737100  1.0  0.123
  H  H40  1  0.879100  0.723400  0.513700  1.0  0.1214
  H  H41  1  0.689700  0.950900  0.516900  1.0  0.1272
  H  H42  1  0.772500  0.742200  0.392500  1.0  0.0865
  H  H43  1  0.875300  0.811600  0.372600  1.0  0.0677
  H  H44  1  0.702800  0.885900  0.263900  1.0  0.1058
  H  H45  1  0.420700  0.317000  0.697400  1.0  0.1154
  H  H46  1  0.274700  0.526700  0.493500  1.0  0.1222
  H  H47  1  0.509200  0.362600  0.447800  1.0  0.1361
  H  H48  1  0.302300  0.623100  0.348300  1.0  0.084
  H  H49  1  0.231000  0.524500  0.363200  1.0  0.083
  H  H50  1  0.353000  0.632200  0.202600  1.0  0.0937
  H  H51  1  0.171500  0.518500  0.239500  1.0  0.0886
  H  H52  1  0.233300  0.527200  0.093000  1.0  0.0776
  H  H53  1  0.144400  0.607000  0.090200  1.0  0.0761
  H  H54  1  0.195000  0.598900  0.953100  1.0  0.1182
  H  H55  1  0.318900  0.811700  0.724400  1.0  0.1201
  H  H56  1  0.383000  0.825500  0.954800  1.0  0.1245
  C  C57  1  0.231600  0.874300  0.217000  1.0  0.7003
  C  C58  1  0.951200  0.671600  0.160000  1.0  0.7166
  C  C59  1  0.162200  0.856400  0.154200  1.0  -0.1059
  C  C60  1  0.091500  0.775900  0.185200  1.0  -0.0574
  C  C61  1  0.026200  0.761100  0.127200  1.0  -0.1244
  C  C62  1  0.032400  0.826800  0.039400  1.0  -0.1449
  C  C63  1  0.105600  0.906800  0.008300  1.0  0.2535
  C  C64  1  0.171200  0.921100  0.065600  1.0  -0.1512
  C  C65  1  0.179500  0.049400  0.884500  1.0  0.1165
  C  C66  1  0.158200  0.102900  0.790300  1.0  -0.1361
  C  C67  1  0.300500  0.075000  0.316000  1.0  0.6823
  C  C68  1  0.054900  0.341400  0.324300  1.0  0.6254
  C  C69  1  0.247700  0.130000  0.366700  1.0  -0.1036
  C  C70  1  0.182200  0.209600  0.323000  1.0  -0.0139
  C  C71  1  0.132800  0.262500  0.368600  1.0  -0.1112
  C  C72  1  0.152900  0.239200  0.455900  1.0  -0.1917
  C  C73  1  0.220800  0.160000  0.498000  1.0  0.2673
  C  C74  1  0.266400  0.104500  0.453700  1.0  -0.1421
  C  C75  1  0.200100  0.186100  0.631400  1.0  0.1226
  C  C76  1  0.227600  0.130400  0.724100  1.0  -0.1504
  C  C77  1  0.446300  0.755700  0.388800  1.0  0.7059
  C  C78  1  0.725800  0.544300  0.331900  1.0  0.7129
  C  C79  1  0.524100  0.672700  0.423000  1.0  -0.13
  C  C80  1  0.586700  0.648200  0.363800  1.0  -0.0423
  C  C81  1  0.659900  0.572400  0.395400  1.0  -0.1063
  C  C82  1  0.673800  0.523600  0.485200  1.0  -0.1629
  C  C83  1  0.611600  0.549600  0.542800  1.0  0.2634
  C  C84  1  0.535200  0.622400  0.512000  1.0  -0.1501
  C  C85  1  0.704000  0.439100  0.664800  1.0  0.1261
  C  C86  1  0.702300  0.409200  0.761700  1.0  -0.175
  C  C87  1  0.775600  0.438700  0.798700  1.0  -0.1168
  C  C88  1  0.784300  0.412300  0.893500  1.0  0.1105
  C  C89  1  0.711500  0.294700  0.031500  1.0  0.2817
  C  C90  1  0.762200  0.342100  0.077400  1.0  -0.205
  C  C91  1  0.750000  0.302700  0.168400  1.0  -0.1068
  C  C92  1  0.688200  0.215600  0.213500  1.0  -0.0218
  C  C93  1  0.637200  0.168900  0.167300  1.0  -0.1194
  C  C94  1  0.650200  0.207800  0.076600  1.0  -0.1372
  C  C95  1  0.800500  0.353800  0.218800  1.0  0.6758
  C  C96  1  0.562200  0.081700  0.213900  1.0  0.6294
  C  C97  1  0.768400  0.125700  0.783000  1.0  0.7006
  C  C98  1  0.048800  0.328400  0.840000  1.0  0.7159
  C  C99  1  0.837800  0.143600  0.845800  1.0  -0.106
  C  C100  1  0.908500  0.224100  0.814800  1.0  -0.0561
  C  C101  1  0.973800  0.238900  0.872800  1.0  -0.1233
  C  C102  1  0.967600  0.173200  0.960600  1.0  -0.1467
  C  C103  1  0.894400  0.093200  0.991700  1.0  0.2531
  C  C104  1  0.828800  0.078900  0.934400  1.0  -0.1521
  C  C105  1  0.820500  0.950600  0.115500  1.0  0.1178
  C  C106  1  0.841800  0.897100  0.209700  1.0  -0.1352
  C  C107  1  0.699500  0.925000  0.684000  1.0  0.6822
  C  C108  1  0.945100  0.658600  0.675700  1.0  0.6263
  C  C109  1  0.752300  0.870000  0.633300  1.0  -0.1023
  C  C110  1  0.817800  0.790400  0.677000  1.0  -0.0139
  C  C111  1  0.867200  0.737500  0.631400  1.0  -0.1112
  C  C112  1  0.847100  0.760800  0.544100  1.0  -0.1898
  C  C113  1  0.779200  0.840000  0.502000  1.0  0.2673
  C  C114  1  0.733600  0.895500  0.546300  1.0  -0.1452
  C  C115  1  0.799900  0.813900  0.368600  1.0  0.1224
  C  C116  1  0.772400  0.869600  0.275900  1.0  -0.1503
  C  C117  1  0.553700  0.244300  0.611200  1.0  0.7049
  C  C118  1  0.274200  0.455700  0.668100  1.0  0.7126
  C  C119  1  0.475900  0.327300  0.577000  1.0  -0.1301
  C  C120  1  0.413300  0.351800  0.636200  1.0  -0.0422
  C  C121  1  0.340100  0.427600  0.604600  1.0  -0.1092
  C  C122  1  0.326200  0.476400  0.514800  1.0  -0.1678
  C  C123  1  0.388400  0.450400  0.457200  1.0  0.2633
  C  C124  1  0.464800  0.377600  0.488000  1.0  -0.1505
  C  C125  1  0.296000  0.560900  0.335200  1.0  0.1284
  C  C126  1  0.297700  0.590800  0.238300  1.0  -0.1684
  C  C127  1  0.224400  0.561300  0.201300  1.0  -0.1167
  C  C128  1  0.215700  0.587700  0.106500  1.0  0.1086
  C  C129  1  0.288500  0.705300  0.968500  1.0  0.2807
  C  C130  1  0.237800  0.657900  0.922600  1.0  -0.207
  C  C131  1  0.250000  0.697300  0.831600  1.0  -0.1086
  C  C132  1  0.311800  0.784400  0.786500  1.0  -0.0181
  C  C133  1  0.362800  0.831100  0.832700  1.0  -0.1245
  C  C134  1  0.349800  0.792200  0.923400  1.0  -0.1373
  C  C135  1  0.199500  0.646200  0.781200  1.0  0.6763
  C  C136  1  0.437800  0.918300  0.786100  1.0  0.6284
  O  O137  1  0.301100  0.942400  0.182910  1.0  -0.5679
  O  O138  1  0.215000  0.822300  0.297300  1.0  -0.6467
  O  O139  1  0.968000  0.599900  0.232590  1.0  -0.5869
  O  O140  1  0.879100  0.674000  0.112590  1.0  -0.6262
  O  O141  1  0.107700  0.965200  0.920120  1.0  -0.2772
  O  O142  1  0.324800  0.979540  0.356260  1.0  -0.6602
  O  O143  1  0.323200  0.122900  0.237000  1.0  -0.5507
  O  O144  1  0.999600  0.376000  0.372010  1.0  -0.5955
  O  O145  1  0.043200  0.370600  0.244380  1.0  -0.5825
  O  O146  1  0.244700  0.129900  0.583300  1.0  -0.2651
  O  O147  1  0.464800  0.820900  0.310920  1.0  -0.5898
  O  O148  1  0.370300  0.754600  0.437710  1.0  -0.6161
  O  O149  1  0.798400  0.483000  0.362860  1.0  -0.58
  O  O150  1  0.705000  0.581500  0.253360  1.0  -0.6451
  O  O151  1  0.618200  0.506100  0.632360  1.0  -0.283
  O  O152  1  0.716200  0.328000  0.942390  1.0  -0.2675
  O  O153  1  0.833190  0.448550  0.178130  1.0  -0.6464
  O  O154  1  0.812300  0.307200  0.298490  1.0  -0.5673
  O  O155  1  0.516500  0.043500  0.168400  1.0  -0.5842
  O  O156  1  0.543100  0.051900  0.294300  1.0  -0.5637
  O  O157  1  0.698900  0.057600  0.817090  1.0  -0.5692
  O  O158  1  0.785000  0.177700  0.702700  1.0  -0.6439
  O  O159  1  0.032000  0.400100  0.767410  1.0  -0.5864
  O  O160  1  0.120900  0.326000  0.887410  1.0  -0.6269
  O  O161  1  0.892300  0.034800  0.079880  1.0  -0.2776
  O  O162  1  0.675200  0.020460  0.643740  1.0  -0.6593
  O  O163  1  0.676800  0.877100  0.763000  1.0  -0.5603
  O  O164  1  0.000400  0.624000  0.627990  1.0  -0.597
  O  O165  1  0.956800  0.629400  0.755620  1.0  -0.5853
  O  O166  1  0.755300  0.870100  0.416700  1.0  -0.2659
  O  O167  1  0.535200  0.179100  0.689080  1.0  -0.5887
  O  O168  1  0.629700  0.245400  0.562290  1.0  -0.6162
  O  O169  1  0.201600  0.517000  0.637140  1.0  -0.5796
  O  O170  1  0.295000  0.418500  0.746640  1.0  -0.6457
  O  O171  1  0.381800  0.493900  0.367640  1.0  -0.2826
  O  O172  1  0.283800  0.672000  0.057610  1.0  -0.2667
  O  O173  1  0.166810  0.551450  0.821870  1.0  -0.6458
  O  O174  1  0.187700  0.692800  0.701510  1.0  -0.56
  O  O175  1  0.483500  0.956500  0.831600  1.0  -0.5833
  O  O176  1  0.456900  0.948100  0.705700  1.0  -0.5615
