# generated using pymatgen
data_Zn4P5(HO5)4
_symmetry_space_group_name_H-M   'P 1'
_cell_length_a   8.21300000
_cell_length_b   10.02570000
_cell_length_c   15.51330000
_cell_angle_alpha   80.84200000
_cell_angle_beta   75.67100000
_cell_angle_gamma   89.02000000
_symmetry_Int_Tables_number   1
_chemical_formula_structural   Zn4P5(HO5)4
_chemical_formula_sum   'Zn8 P10 H8 O40'
_cell_volume   1221.53551354
_cell_formula_units_Z   2
loop_
 _symmetry_equiv_pos_site_id
 _symmetry_equiv_pos_as_xyz
  1  'x, y, z'
loop_
 _atom_site_type_symbol
 _atom_site_label
 _atom_site_symmetry_multiplicity
 _atom_site_fract_x
 _atom_site_fract_y
 _atom_site_fract_z
 _atom_site_occupancy
 _atom_site_charge
  Zn  Zn1  1  0.159240  0.261090  0.221700  1.0  1.1824
  Zn  Zn2  1  0.758120  0.495980  0.023300  1.0  1.1482
  Zn  Zn3  1  0.865090  0.856920  0.480610  1.0  1.1027
  Zn  Zn4  1  0.712930  0.484020  0.539380  1.0  1.0851
  Zn  Zn5  1  0.840760  0.738910  0.778300  1.0  1.1824
  Zn  Zn6  1  0.241880  0.504020  0.976700  1.0  1.1457
  Zn  Zn7  1  0.134910  0.143080  0.519390  1.0  1.1033
  Zn  Zn8  1  0.287070  0.515980  0.460620  1.0  1.0863
  P  P9  1  0.974160  0.265980  0.061470  1.0  1.7546
  P  P10  1  0.377850  0.510830  0.138850  1.0  1.7945
  P  P11  1  0.195410  0.990950  0.356470  1.0  1.7678
  P  P12  1  0.004590  0.399840  0.390110  1.0  1.8052
  P  P13  1  0.519750  0.734380  0.483210  1.0  1.7298
  P  P14  1  0.025840  0.734020  0.938530  1.0  1.758
  P  P15  1  0.622150  0.489170  0.861150  1.0  1.7924
  P  P16  1  0.804590  0.009050  0.643530  1.0  1.7694
  P  P17  1  0.995410  0.600160  0.609890  1.0  1.8065
  P  P18  1  0.480250  0.265620  0.516790  1.0  1.7298
  H  H19  1  0.816100  0.158200  0.019300  1.0  0.493
  H  H20  1  0.362400  0.887400  0.499300  1.0  0.4108
  H  H21  1  0.285800  0.540600  0.265600  1.0  0.4024
  H  H22  1  0.326800  0.821100  0.362000  1.0  0.4104
  H  H23  1  0.183900  0.841800  0.980700  1.0  0.4925
  H  H24  1  0.637600  0.112600  0.500700  1.0  0.4123
  H  H25  1  0.714200  0.459400  0.734400  1.0  0.4033
  H  H26  1  0.673200  0.178900  0.638000  1.0  0.4107
  O  O27  1  0.820000  0.343100  0.103900  1.0  -0.703
  O  O28  1  0.086600  0.355800  0.980950  1.0  -0.7369
  O  O29  1  0.008100  0.963300  0.373580  1.0  -0.7417
  O  O30  1  0.545300  0.566700  0.077980  1.0  -0.7509
  O  O31  1  0.234100  0.549600  0.093940  1.0  -0.7614
  O  O32  1  0.547000  0.625900  0.557650  1.0  -0.7713
  O  O33  1  0.377500  0.359000  0.168260  1.0  -0.728
  O  O34  1  0.686100  0.803600  0.426790  1.0  -0.7695
  O  O35  1  0.845700  0.480000  0.420430  1.0  -0.7691
  O  O36  1  0.064300  0.204000  0.131350  1.0  -0.8035
  O  O37  1  0.258000  0.108400  0.280770  1.0  -0.7796
  O  O38  1  0.161300  0.494600  0.373470  1.0  -0.8363
  O  O39  1  0.429000  0.683200  0.419190  1.0  -0.8388
  O  O40  1  0.015300  0.276200  0.458640  1.0  -0.8813
  O  O41  1  0.244800  0.012200  0.442340  1.0  -0.8355
  O  O42  1  0.001100  0.364200  0.297000  1.0  -0.7414
  O  O43  1  0.912800  0.145500  0.023900  1.0  -0.621
  O  O44  1  0.406300  0.838500  0.534360  1.0  -0.69
  O  O45  1  0.352200  0.584700  0.222520  1.0  -0.6664
  O  O46  1  0.295100  0.867100  0.320890  1.0  -0.6653
  O  O47  1  0.180000  0.656900  0.896100  1.0  -0.7031
  O  O48  1  0.913400  0.644200  0.019050  1.0  -0.7352
  O  O49  1  0.991900  0.036700  0.626420  1.0  -0.7399
  O  O50  1  0.454700  0.433300  0.922020  1.0  -0.751
  O  O51  1  0.765900  0.450400  0.906060  1.0  -0.7623
  O  O52  1  0.453000  0.374100  0.442350  1.0  -0.7689
  O  O53  1  0.622500  0.641000  0.831740  1.0  -0.7292
  O  O54  1  0.313900  0.196400  0.573210  1.0  -0.7667
  O  O55  1  0.154300  0.520000  0.579570  1.0  -0.7701
  O  O56  1  0.935700  0.796000  0.868650  1.0  -0.8054
  O  O57  1  0.742000  0.891600  0.719230  1.0  -0.7799
  O  O58  1  0.838700  0.505400  0.626530  1.0  -0.836
  O  O59  1  0.571000  0.316800  0.580810  1.0  -0.8379
  O  O60  1  0.984700  0.723800  0.541360  1.0  -0.8806
  O  O61  1  0.755200  0.987800  0.557660  1.0  -0.8353
  O  O62  1  0.998900  0.635800  0.703000  1.0  -0.7402
  O  O63  1  0.087200  0.854500  0.976100  1.0  -0.6226
  O  O64  1  0.593700  0.161500  0.465640  1.0  -0.6914
  O  O65  1  0.647800  0.415300  0.777480  1.0  -0.6673
  O  O66  1  0.704900  0.132900  0.679110  1.0  -0.6655
