# generated using pymatgen
data_V3P2(HO5)2
_symmetry_space_group_name_H-M   'P 1'
_cell_length_a   10.46400000
_cell_length_b   17.14200000
_cell_length_c   8.44810000
_cell_angle_alpha   90.00000000
_cell_angle_beta   90.00000000
_cell_angle_gamma   90.00000000
_symmetry_Int_Tables_number   1
_chemical_formula_structural   V3P2(HO5)2
_chemical_formula_sum   'V12 P8 H8 O40'
_cell_volume   1515.36854321
_cell_formula_units_Z   4
loop_
 _symmetry_equiv_pos_site_id
 _symmetry_equiv_pos_as_xyz
  1  'x, y, z'
loop_
 _atom_site_type_symbol
 _atom_site_label
 _atom_site_symmetry_multiplicity
 _atom_site_fract_x
 _atom_site_fract_y
 _atom_site_fract_z
 _atom_site_occupancy
 _atom_site_charge
  V  V1  1  0.858910  0.438380  0.220450  1.0  1.2656
  V  V2  1  0.641090  0.561620  0.720450  1.0  1.2672
  V  V3  1  0.141090  0.938380  0.779550  1.0  1.266
  V  V4  1  0.358910  0.061620  0.279550  1.0  1.2664
  V  V5  1  0.141090  0.561620  0.779550  1.0  1.267
  V  V6  1  0.358910  0.438380  0.279550  1.0  1.2654
  V  V7  1  0.858910  0.061620  0.220450  1.0  1.2666
  V  V8  1  0.641090  0.938380  0.720450  1.0  1.2662
  V  V9  1  0.716620  0.250000  0.328630  1.0  1.3367
  V  V10  1  0.783380  0.750000  0.828630  1.0  1.3364
  V  V11  1  0.283380  0.750000  0.671370  1.0  1.3361
  V  V12  1  0.216620  0.250000  0.171370  1.0  1.3366
  P  P13  1  0.628720  0.412840  0.474380  1.0  1.7085
  P  P14  1  0.871280  0.587160  0.974380  1.0  1.7088
  P  P15  1  0.371280  0.912840  0.525620  1.0  1.7082
  P  P16  1  0.128720  0.087160  0.025620  1.0  1.708
  P  P17  1  0.371280  0.587160  0.525620  1.0  1.7083
  P  P18  1  0.128720  0.412840  0.025620  1.0  1.708
  P  P19  1  0.628720  0.087160  0.474380  1.0  1.7085
  P  P20  1  0.871280  0.912840  0.974380  1.0  1.7087
  H  H21  1  0.901000  0.310000  0.219000  1.0  0.403
  H  H22  1  0.599000  0.690000  0.719000  1.0  0.4013
  H  H23  1  0.099000  0.810000  0.781000  1.0  0.4025
  H  H24  1  0.401000  0.190000  0.281000  1.0  0.4049
  H  H25  1  0.099000  0.690000  0.781000  1.0  0.4031
  H  H26  1  0.401000  0.310000  0.281000  1.0  0.4047
  H  H27  1  0.901000  0.190000  0.219000  1.0  0.4033
  H  H28  1  0.599000  0.810000  0.719000  1.0  0.4007
  O  O29  1  0.842360  0.326030  0.254300  1.0  -0.8945
  O  O30  1  0.662780  0.452930  0.632590  1.0  -0.7879
  O  O31  1  0.482600  0.413880  0.451570  1.0  -0.8248
  O  O32  1  0.674820  0.327840  0.490530  1.0  -0.7415
  O  O33  1  0.694610  0.455210  0.335790  1.0  -0.7957
  O  O34  1  0.657640  0.673970  0.754300  1.0  -0.8937
  O  O35  1  0.837220  0.547070  0.132590  1.0  -0.7885
  O  O36  1  0.017400  0.586120  0.951570  1.0  -0.824
  O  O37  1  0.825180  0.672160  0.990530  1.0  -0.7426
  O  O38  1  0.805390  0.544790  0.835790  1.0  -0.7957
  O  O39  1  0.157640  0.826030  0.745700  1.0  -0.8958
  O  O40  1  0.337220  0.952930  0.367410  1.0  -0.788
  O  O41  1  0.517400  0.913880  0.548430  1.0  -0.8238
  O  O42  1  0.325180  0.827840  0.509470  1.0  -0.7423
  O  O43  1  0.305390  0.955210  0.664210  1.0  -0.7966
  O  O44  1  0.342360  0.173970  0.245700  1.0  -0.8963
  O  O45  1  0.162780  0.047070  0.867410  1.0  -0.7879
  O  O46  1  0.982600  0.086120  0.048430  1.0  -0.8238
  O  O47  1  0.174820  0.172160  0.009470  1.0  -0.7431
  O  O48  1  0.194610  0.044790  0.164210  1.0  -0.7954
  O  O49  1  0.157640  0.673970  0.745700  1.0  -0.8958
  O  O50  1  0.337220  0.547070  0.367410  1.0  -0.7881
  O  O51  1  0.517400  0.586120  0.548430  1.0  -0.8231
  O  O52  1  0.325180  0.672160  0.509470  1.0  -0.7433
  O  O53  1  0.305390  0.544790  0.664210  1.0  -0.7959
  O  O54  1  0.342360  0.326030  0.245700  1.0  -0.8968
  O  O55  1  0.162780  0.452930  0.867410  1.0  -0.7878
  O  O56  1  0.982600  0.413880  0.048430  1.0  -0.824
  O  O57  1  0.174820  0.327840  0.009470  1.0  -0.742
  O  O58  1  0.194610  0.455210  0.164210  1.0  -0.796
  O  O59  1  0.842360  0.173970  0.254300  1.0  -0.8967
  O  O60  1  0.662780  0.047070  0.632590  1.0  -0.7876
  O  O61  1  0.482600  0.086120  0.451570  1.0  -0.8241
  O  O62  1  0.674820  0.172160  0.490530  1.0  -0.7418
  O  O63  1  0.694610  0.044790  0.335790  1.0  -0.7951
  O  O64  1  0.657640  0.826030  0.754300  1.0  -0.8959
  O  O65  1  0.837220  0.952930  0.132590  1.0  -0.7888
  O  O66  1  0.017400  0.913880  0.951570  1.0  -0.8237
  O  O67  1  0.825180  0.827840  0.990530  1.0  -0.7419
  O  O68  1  0.805390  0.955210  0.835790  1.0  -0.7964
