# generated using pymatgen
data_BaCuH12C10(NO4)2
_symmetry_space_group_name_H-M   'P 1'
_cell_length_a   8.81800000
_cell_length_b   10.20000000
_cell_length_c   19.73700000
_cell_angle_alpha   90.00000000
_cell_angle_beta   102.40000000
_cell_angle_gamma   90.00000000
_symmetry_Int_Tables_number   1
_chemical_formula_structural   BaCuH12C10(NO4)2
_chemical_formula_sum   'Ba4 Cu4 H48 C40 N8 O32'
_cell_volume   1733.80506902
_cell_formula_units_Z   4
loop_
 _symmetry_equiv_pos_site_id
 _symmetry_equiv_pos_as_xyz
  1  'x, y, z'
loop_
 _atom_site_type_symbol
 _atom_site_label
 _atom_site_symmetry_multiplicity
 _atom_site_fract_x
 _atom_site_fract_y
 _atom_site_fract_z
 _atom_site_occupancy
 _atom_site_charge
  Ba  Ba1  1  0.656580  0.810350  0.967740  1.0  1.6744
  Ba  Ba2  1  0.343420  0.310350  0.532260  1.0  1.674
  Ba  Ba3  1  0.343420  0.189650  0.032260  1.0  1.6739
  Ba  Ba4  1  0.656580  0.689650  0.467740  1.0  1.6743
  Cu  Cu5  1  0.763770  0.066180  0.796230  1.0  0.8372
  Cu  Cu6  1  0.236230  0.566180  0.703770  1.0  0.8389
  Cu  Cu7  1  0.236230  0.933820  0.203770  1.0  0.8388
  Cu  Cu8  1  0.763770  0.433820  0.296230  1.0  0.837
  H  H9  1  0.737400  0.320200  0.688300  1.0  0.0942
  H  H10  1  0.865100  0.416700  0.742500  1.0  0.0769
  H  H11  1  0.615300  0.419400  0.774700  1.0  0.0903
  H  H12  1  0.754400  0.357400  0.836800  1.0  0.0977
  H  H13  1  0.901400  0.175500  0.658700  1.0  0.1233
  H  H14  1  0.058100  0.127500  0.694900  1.0  0.1148
  H  H15  1  0.141400  0.239500  0.822800  1.0  0.1217
  H  H16  1  0.055500  0.367100  0.827100  1.0  0.1212
  H  H17  1  0.629700  0.260400  0.892400  1.0  0.139
  H  H18  1  0.447400  0.272000  0.849400  1.0  0.1235
  H  H19  1  0.425900  0.276100  0.709600  1.0  0.1337
  H  H20  1  0.396400  0.148600  0.747600  1.0  0.1225
  H  H21  1  0.262600  0.820200  0.811700  1.0  0.0943
  H  H22  1  0.134900  0.916700  0.757500  1.0  0.0769
  H  H23  1  0.384700  0.919400  0.725300  1.0  0.0895
  H  H24  1  0.245600  0.857400  0.663200  1.0  0.0986
  H  H25  1  0.098600  0.675500  0.841300  1.0  0.1233
  H  H26  1  0.941900  0.627500  0.805100  1.0  0.116
  H  H27  1  0.858600  0.739500  0.677200  1.0  0.125
  H  H28  1  0.944500  0.867100  0.672900  1.0  0.1217
  H  H29  1  0.370300  0.760400  0.607600  1.0  0.1393
  H  H30  1  0.552600  0.772000  0.650600  1.0  0.1228
  H  H31  1  0.574100  0.776100  0.790400  1.0  0.1334
  H  H32  1  0.603600  0.648600  0.752400  1.0  0.1216
  H  H33  1  0.262600  0.679800  0.311700  1.0  0.0945
  H  H34  1  0.134900  0.583300  0.257500  1.0  0.0766
  H  H35  1  0.384700  0.580600  0.225300  1.0  0.0905
  H  H36  1  0.245600  0.642600  0.163200  1.0  0.098
  H  H37  1  0.098600  0.824500  0.341300  1.0  0.123
  H  H38  1  0.941900  0.872500  0.305100  1.0  0.1153
  H  H39  1  0.858600  0.760500  0.177200  1.0  0.1253
  H  H40  1  0.944500  0.632900  0.172900  1.0  0.1211
  H  H41  1  0.370300  0.739600  0.107600  1.0  0.1385
  H  H42  1  0.552600  0.728000  0.150600  1.0  0.1228
  H  H43  1  0.574100  0.723900  0.290400  1.0  0.134
  H  H44  1  0.603600  0.851400  0.252400  1.0  0.1212
  H  H45  1  0.737400  0.179800  0.188300  1.0  0.0939
  H  H46  1  0.865100  0.083300  0.242500  1.0  0.0764
  H  H47  1  0.615300  0.080600  0.274700  1.0  0.0907
  H  H48  1  0.754400  0.142600  0.336800  1.0  0.0982
  H  H49  1  0.901400  0.324500  0.158700  1.0  0.1242
  H  H50  1  0.058100  0.372500  0.194900  1.0  0.1148
  H  H51  1  0.141400  0.260500  0.322800  1.0  0.1211
  H  H52  1  0.055500  0.132900  0.327100  1.0  0.1216
  H  H53  1  0.629700  0.239600  0.392400  1.0  0.1392
  H  H54  1  0.447400  0.228000  0.349400  1.0  0.1242
  H  H55  1  0.425900  0.223900  0.209600  1.0  0.1331
  H  H56  1  0.396400  0.351400  0.247600  1.0  0.122
  C  C57  1  0.796060  0.337070  0.737470  1.0  -0.0565
  C  C58  1  0.690660  0.344040  0.788340  1.0  -0.0671
  C  C59  1  0.078710  0.314300  0.671190  1.0  0.6919
  C  C60  1  0.987960  0.204430  0.698420  1.0  -0.2414
  C  C61  1  0.031960  0.270350  0.820670  1.0  -0.2635
  C  C62  1  0.999620  0.215240  0.887600  1.0  0.713
  C  C63  1  0.544720  0.217200  0.857110  1.0  -0.2837
  C  C64  1  0.514540  0.078620  0.880440  1.0  0.7482
  C  C65  1  0.483120  0.196010  0.731530  1.0  -0.2961
  C  C66  1  0.530190  0.103360  0.679370  1.0  0.6879
  C  C67  1  0.203940  0.837070  0.762530  1.0  -0.0578
  C  C68  1  0.309340  0.844040  0.711660  1.0  -0.0666
  C  C69  1  0.921290  0.814300  0.828810  1.0  0.6926
  C  C70  1  0.012040  0.704430  0.801580  1.0  -0.2395
  C  C71  1  0.968040  0.770350  0.679330  1.0  -0.2658
  C  C72  1  0.000380  0.715240  0.612400  1.0  0.713
  C  C73  1  0.455280  0.717200  0.642890  1.0  -0.2871
  C  C74  1  0.485460  0.578620  0.619560  1.0  0.7491
  C  C75  1  0.516880  0.696010  0.768470  1.0  -0.2958
  C  C76  1  0.469810  0.603360  0.820630  1.0  0.6845
  C  C77  1  0.203940  0.662930  0.262530  1.0  -0.0581
  C  C78  1  0.309340  0.655960  0.211660  1.0  -0.0691
  C  C79  1  0.921290  0.685700  0.328810  1.0  0.6928
  C  C80  1  0.012040  0.795570  0.301580  1.0  -0.238
  C  C81  1  0.968040  0.729650  0.179330  1.0  -0.2647
  C  C82  1  0.000380  0.784760  0.112400  1.0  0.7136
  C  C83  1  0.455280  0.782800  0.142890  1.0  -0.2884
  C  C84  1  0.485460  0.921380  0.119560  1.0  0.7493
  C  C85  1  0.516880  0.803990  0.268470  1.0  -0.296
  C  C86  1  0.469810  0.896640  0.320630  1.0  0.6882
  C  C87  1  0.796060  0.162930  0.237470  1.0  -0.0568
  C  C88  1  0.690660  0.155960  0.288340  1.0  -0.0685
  C  C89  1  0.078710  0.185700  0.171190  1.0  0.6914
  C  C90  1  0.987960  0.295570  0.198420  1.0  -0.2407
  C  C91  1  0.031960  0.229650  0.320670  1.0  -0.2643
  C  C92  1  0.999620  0.284760  0.387600  1.0  0.7125
  C  C93  1  0.544720  0.282800  0.357110  1.0  -0.2863
  C  C94  1  0.514540  0.421380  0.380440  1.0  0.7485
  C  C95  1  0.483120  0.303990  0.231530  1.0  -0.2958
  C  C96  1  0.530190  0.396640  0.179370  1.0  0.6841
  N  N97  1  0.918320  0.237000  0.757410  1.0  -0.1542
  N  N98  1  0.609520  0.218140  0.793840  1.0  -0.0505
  N  N99  1  0.081680  0.737000  0.742590  1.0  -0.1534
  N  N100  1  0.390480  0.718140  0.706160  1.0  -0.0515
  N  N101  1  0.081680  0.763000  0.242590  1.0  -0.1508
  N  N102  1  0.390480  0.781860  0.206160  1.0  -0.0526
  N  N103  1  0.918320  0.263000  0.257410  1.0  -0.1493
  N  N104  1  0.609520  0.281860  0.293840  1.0  -0.0505
  O  O105  1  0.117890  0.295010  0.614860  1.0  -0.699
  O  O106  1  0.108830  0.414700  0.709010  1.0  -0.5741
  O  O107  1  0.079850  0.255870  0.942550  1.0  -0.699
  O  O108  1  0.893890  0.129070  0.884730  1.0  -0.602
  O  O109  1  0.434770  0.067620  0.924120  1.0  -0.75
  O  O110  1  0.579100  0.985470  0.856010  1.0  -0.7113
  O  O111  1  0.446620  0.099610  0.620630  1.0  -0.6891
  O  O112  1  0.647360  0.030240  0.700710  1.0  -0.5749
  O  O113  1  0.882110  0.795010  0.885140  1.0  -0.7011
  O  O114  1  0.891170  0.914700  0.790990  1.0  -0.574
  O  O115  1  0.920150  0.755870  0.557450  1.0  -0.6958
  O  O116  1  0.106110  0.629070  0.615270  1.0  -0.6006
  O  O117  1  0.565230  0.567620  0.575880  1.0  -0.7446
  O  O118  1  0.420900  0.485470  0.643990  1.0  -0.7104
  O  O119  1  0.553380  0.599610  0.879370  1.0  -0.6903
  O  O120  1  0.352640  0.530240  0.799290  1.0  -0.5759
  O  O121  1  0.882110  0.704990  0.385140  1.0  -0.698
  O  O122  1  0.891170  0.585300  0.290990  1.0  -0.5745
  O  O123  1  0.920150  0.744130  0.057450  1.0  -0.699
  O  O124  1  0.106110  0.870930  0.115270  1.0  -0.6011
  O  O125  1  0.565230  0.932380  0.075880  1.0  -0.7429
  O  O126  1  0.420900  0.014530  0.143990  1.0  -0.7107
  O  O127  1  0.553380  0.900390  0.379370  1.0  -0.6905
  O  O128  1  0.352640  0.969760  0.299290  1.0  -0.5757
  O  O129  1  0.117890  0.204990  0.114860  1.0  -0.7019
  O  O130  1  0.108830  0.085300  0.209010  1.0  -0.5743
  O  O131  1  0.079850  0.244130  0.442550  1.0  -0.7011
  O  O132  1  0.893890  0.370930  0.384730  1.0  -0.6022
  O  O133  1  0.434770  0.432380  0.424120  1.0  -0.7504
  O  O134  1  0.579100  0.514530  0.356010  1.0  -0.7117
  O  O135  1  0.446620  0.400390  0.120630  1.0  -0.689
  O  O136  1  0.647360  0.469760  0.200710  1.0  -0.5749
