# generated using pymatgen
data_CoHgC4(SN)4
_symmetry_space_group_name_H-M   'P 1'
_cell_length_a   9.16300000
_cell_length_b   14.05700000
_cell_length_c   16.27600000
_cell_angle_alpha   90.00000000
_cell_angle_beta   92.88000000
_cell_angle_gamma   90.00000000
_symmetry_Int_Tables_number   1
_chemical_formula_structural   CoHgC4(SN)4
_chemical_formula_sum   'Co4 Hg4 C16 S16 N16'
_cell_volume   2093.77077260
_cell_formula_units_Z   4
loop_
 _symmetry_equiv_pos_site_id
 _symmetry_equiv_pos_as_xyz
  1  'x, y, z'
loop_
 _atom_site_type_symbol
 _atom_site_label
 _atom_site_symmetry_multiplicity
 _atom_site_fract_x
 _atom_site_fract_y
 _atom_site_fract_z
 _atom_site_occupancy
 _atom_site_charge
  Co  Co1  1  0.518670  0.650110  0.753400  1.0  0.9693
  Co  Co2  1  0.981330  0.150110  0.746600  1.0  0.9689
  Co  Co3  1  0.481330  0.349890  0.246600  1.0  0.9686
  Co  Co4  1  0.018670  0.849890  0.253400  1.0  0.9699
  Hg  Hg5  1  0.015290  0.796390  0.581610  1.0  0.4115
  Hg  Hg6  1  0.484710  0.296390  0.918390  1.0  0.4115
  Hg  Hg7  1  0.984710  0.203610  0.418390  1.0  0.4116
  Hg  Hg8  1  0.515290  0.703610  0.081610  1.0  0.4115
  C  C9  1  0.843000  0.741500  0.741200  1.0  0.3769
  C  C10  1  0.874100  0.997500  0.608200  1.0  0.3729
  C  C11  1  0.361700  0.782700  0.612400  1.0  0.3768
  C  C12  1  0.946300  0.714000  0.404800  1.0  0.3761
  C  C13  1  0.657000  0.241500  0.758800  1.0  0.377
  C  C14  1  0.625900  0.497500  0.891800  1.0  0.3725
  C  C15  1  0.138300  0.282700  0.887600  1.0  0.377
  C  C16  1  0.553700  0.214000  0.095200  1.0  0.376
  C  C17  1  0.157000  0.258500  0.258800  1.0  0.3773
  C  C18  1  0.125900  0.002500  0.391800  1.0  0.3719
  C  C19  1  0.638300  0.217300  0.387600  1.0  0.3772
  C  C20  1  0.053700  0.286000  0.595200  1.0  0.3763
  C  C21  1  0.343000  0.758500  0.241200  1.0  0.3764
  C  C22  1  0.374100  0.502500  0.108200  1.0  0.3723
  C  C23  1  0.861700  0.717300  0.112400  1.0  0.3766
  C  C24  1  0.446300  0.786000  0.904800  1.0  0.3766
  S  S25  1  0.015900  0.771020  0.733430  1.0  -0.2459
  S  S26  1  0.822120  0.916880  0.540690  1.0  -0.1979
  S  S27  1  0.268090  0.842930  0.540940  1.0  -0.2181
  S  S28  1  0.934380  0.652830  0.493550  1.0  -0.2589
  S  S29  1  0.484100  0.271020  0.766570  1.0  -0.2467
  S  S30  1  0.677880  0.416880  0.959310  1.0  -0.1977
  S  S31  1  0.231910  0.342930  0.959060  1.0  -0.2189
  S  S32  1  0.565620  0.152830  0.006450  1.0  -0.2575
  S  S33  1  0.984100  0.228980  0.266570  1.0  -0.2463
  S  S34  1  0.177880  0.083120  0.459310  1.0  -0.1981
  S  S35  1  0.731910  0.157070  0.459060  1.0  -0.219
  S  S36  1  0.065620  0.347170  0.506450  1.0  -0.2572
  S  S37  1  0.515900  0.728980  0.233430  1.0  -0.2458
  S  S38  1  0.322120  0.583120  0.040690  1.0  -0.1979
  S  S39  1  0.768090  0.657070  0.040940  1.0  -0.2183
  S  S40  1  0.434380  0.847170  0.993550  1.0  -0.2587
  N  N41  1  0.726900  0.716000  0.746100  1.0  -0.4616
  N  N42  1  0.907300  0.054300  0.654900  1.0  -0.5187
  N  N43  1  0.422300  0.737700  0.661000  1.0  -0.5081
  N  N44  1  0.957500  0.755100  0.347400  1.0  -0.4727
  N  N45  1  0.773100  0.216000  0.753900  1.0  -0.4622
  N  N46  1  0.592700  0.554300  0.845100  1.0  -0.5192
  N  N47  1  0.077700  0.237700  0.839000  1.0  -0.5088
  N  N48  1  0.542500  0.255100  0.152600  1.0  -0.4722
  N  N49  1  0.273100  0.284000  0.253900  1.0  -0.4624
  N  N50  1  0.092700  0.945700  0.345100  1.0  -0.5176
  N  N51  1  0.577700  0.262300  0.339000  1.0  -0.5106
  N  N52  1  0.042500  0.244900  0.652600  1.0  -0.4731
  N  N53  1  0.226900  0.784000  0.246100  1.0  -0.4618
  N  N54  1  0.407300  0.445700  0.154900  1.0  -0.5178
  N  N55  1  0.922300  0.762300  0.161000  1.0  -0.51
  N  N56  1  0.457500  0.744900  0.847400  1.0  -0.4728
