# generated using pymatgen
data_MnH2(CO2)2
_symmetry_space_group_name_H-M   'P 1'
_cell_length_a   10.16500000
_cell_length_b   11.62400000
_cell_length_c   14.73800000
_cell_angle_alpha   91.40200000
_cell_angle_beta   90.00000000
_cell_angle_gamma   90.00000000
_symmetry_Int_Tables_number   1
_chemical_formula_structural   MnH2(CO2)2
_chemical_formula_sum   'Mn12 H24 C24 O48'
_cell_volume   1740.89069899
_cell_formula_units_Z   12
loop_
 _symmetry_equiv_pos_site_id
 _symmetry_equiv_pos_as_xyz
  1  'x, y, z'
loop_
 _atom_site_type_symbol
 _atom_site_label
 _atom_site_symmetry_multiplicity
 _atom_site_fract_x
 _atom_site_fract_y
 _atom_site_fract_z
 _atom_site_occupancy
 _atom_site_charge
  Mn  Mn1  1  0.914510  0.743940  0.868280  1.0  1.1594
  Mn  Mn2  1  0.099250  0.761550  0.683590  1.0  1.1508
  Mn  Mn3  1  0.414510  0.756060  0.631720  1.0  1.1595
  Mn  Mn4  1  0.599250  0.738450  0.816410  1.0  1.1504
  Mn  Mn5  1  0.085490  0.256060  0.131720  1.0  1.1594
  Mn  Mn6  1  0.900750  0.238450  0.316410  1.0  1.1501
  Mn  Mn7  1  0.585490  0.243940  0.368280  1.0  1.1593
  Mn  Mn8  1  0.400750  0.261550  0.183590  1.0  1.1504
  Mn  Mn9  1  0.000000  0.000000  0.000000  1.0  1.1544
  Mn  Mn10  1  0.500000  0.500000  0.500000  1.0  1.1544
  Mn  Mn11  1  0.000000  0.500000  0.000000  1.0  1.1651
  Mn  Mn12  1  0.500000  0.000000  0.500000  1.0  1.1651
  H  H13  1  0.022400  0.023900  0.732500  1.0  0.0109
  H  H14  1  0.617500  0.943700  0.962000  1.0  0.0046
  H  H15  1  0.747900  0.636600  0.633500  1.0  -0.0065
  H  H16  1  0.702300  0.507700  0.994200  1.0  0.0064
  H  H17  1  0.178500  0.519800  0.762100  1.0  -0.0015
  H  H18  1  0.160200  0.800300  0.069800  1.0  0.0154
  H  H19  1  0.522400  0.476100  0.767500  1.0  0.0109
  H  H20  1  0.117500  0.556300  0.538000  1.0  0.0043
  H  H21  1  0.247900  0.863400  0.866500  1.0  -0.0069
  H  H22  1  0.202300  0.992300  0.505800  1.0  0.0068
  H  H23  1  0.678500  0.980200  0.737900  1.0  -0.002
  H  H24  1  0.660200  0.699700  0.430200  1.0  0.0147
  H  H25  1  0.977600  0.976100  0.267500  1.0  0.011
  H  H26  1  0.382500  0.056300  0.038000  1.0  0.0044
  H  H27  1  0.252100  0.363400  0.366500  1.0  -0.0059
  H  H28  1  0.297700  0.492300  0.005800  1.0  0.007
  H  H29  1  0.821500  0.480200  0.237900  1.0  -0.0019
  H  H30  1  0.839800  0.199700  0.930200  1.0  0.014
  H  H31  1  0.477600  0.523900  0.232500  1.0  0.0109
  H  H32  1  0.882500  0.443700  0.462000  1.0  0.0047
  H  H33  1  0.752100  0.136600  0.133500  1.0  -0.0058
  H  H34  1  0.797700  0.007700  0.494200  1.0  0.0067
  H  H35  1  0.321500  0.019800  0.262100  1.0  -0.0006
  H  H36  1  0.339800  0.300300  0.569800  1.0  0.0147
  C  C37  1  0.005600  0.983090  0.786340  1.0  0.6769
  C  C38  1  0.707970  0.925940  0.953340  1.0  0.6774
  C  C39  1  0.816680  0.669390  0.669280  1.0  0.6946
  C  C40  1  0.717620  0.568080  0.953200  1.0  0.6891
  C  C41  1  0.120140  0.546380  0.808470  1.0  0.6833
  C  C42  1  0.105030  0.757440  0.029400  1.0  0.6992
  C  C43  1  0.505600  0.516910  0.713660  1.0  0.6776
  C  C44  1  0.207970  0.574060  0.546660  1.0  0.6773
  C  C45  1  0.316680  0.830610  0.830720  1.0  0.6943
  C  C46  1  0.217620  0.931920  0.546800  1.0  0.6892
  C  C47  1  0.620140  0.953620  0.691530  1.0  0.6837
  C  C48  1  0.605030  0.742560  0.470600  1.0  0.6995
  C  C49  1  0.994400  0.016910  0.213660  1.0  0.6775
  C  C50  1  0.292030  0.074060  0.046660  1.0  0.6774
  C  C51  1  0.183320  0.330610  0.330720  1.0  0.6945
  C  C52  1  0.282380  0.431920  0.046800  1.0  0.6892
  C  C53  1  0.879860  0.453620  0.191530  1.0  0.6828
  C  C54  1  0.894970  0.242560  0.970600  1.0  0.6997
  C  C55  1  0.494400  0.483090  0.286340  1.0  0.6776
  C  C56  1  0.792030  0.425940  0.453340  1.0  0.6775
  C  C57  1  0.683320  0.169390  0.169280  1.0  0.6946
  C  C58  1  0.782380  0.068080  0.453200  1.0  0.6893
  C  C59  1  0.379860  0.046380  0.308470  1.0  0.6828
  C  C60  1  0.394970  0.257440  0.529400  1.0  0.6988
  O  O61  1  0.998230  0.873830  0.779080  1.0  -0.6774
  O  O62  1  0.736000  0.846840  0.894420  1.0  -0.6784
  O  O63  1  0.791330  0.691080  0.752640  1.0  -0.6648
  O  O64  1  0.836730  0.600530  0.942750  1.0  -0.6695
  O  O65  1  0.074440  0.647880  0.801310  1.0  -0.675
  O  O66  1  0.028260  0.814300  0.978090  1.0  -0.6839
  O  O67  1  0.992720  0.040330  0.857310  1.0  -0.5935
  O  O68  1  0.788380  0.981270  0.999910  1.0  -0.582
  O  O69  1  0.619920  0.608710  0.914290  1.0  -0.6027
  O  O70  1  0.095710  0.479110  0.870110  1.0  -0.5867
  O  O71  1  0.113170  0.651890  0.030670  1.0  -0.6001
  O  O72  1  0.923250  0.687180  0.630190  1.0  -0.6032
  O  O73  1  0.498230  0.626170  0.720920  1.0  -0.6774
  O  O74  1  0.236000  0.653160  0.605580  1.0  -0.678
  O  O75  1  0.291330  0.808920  0.747360  1.0  -0.6654
  O  O76  1  0.336730  0.899470  0.557250  1.0  -0.6701
  O  O77  1  0.574440  0.852120  0.698690  1.0  -0.6754
  O  O78  1  0.528260  0.685700  0.521910  1.0  -0.6834
  O  O79  1  0.492720  0.459670  0.642690  1.0  -0.593
  O  O80  1  0.288380  0.518730  0.500090  1.0  -0.5831
  O  O81  1  0.119920  0.891290  0.585710  1.0  -0.603
  O  O82  1  0.595710  0.020890  0.629890  1.0  -0.5872
  O  O83  1  0.613170  0.848110  0.469330  1.0  -0.6003
  O  O84  1  0.423250  0.812820  0.869810  1.0  -0.6032
  O  O85  1  0.001770  0.126170  0.220920  1.0  -0.6774
  O  O86  1  0.264000  0.153160  0.105580  1.0  -0.6779
  O  O87  1  0.208670  0.308920  0.247360  1.0  -0.6661
  O  O88  1  0.163270  0.399470  0.057250  1.0  -0.6703
  O  O89  1  0.925560  0.352120  0.198690  1.0  -0.6751
  O  O90  1  0.971740  0.185700  0.021910  1.0  -0.6834
  O  O91  1  0.007280  0.959670  0.142690  1.0  -0.5934
  O  O92  1  0.211620  0.018730  0.000090  1.0  -0.5831
  O  O93  1  0.380080  0.391290  0.085710  1.0  -0.6038
  O  O94  1  0.904290  0.520890  0.129890  1.0  -0.5878
  O  O95  1  0.886830  0.348110  0.969330  1.0  -0.5999
  O  O96  1  0.076750  0.312820  0.369810  1.0  -0.604
  O  O97  1  0.501770  0.373830  0.279080  1.0  -0.6775
  O  O98  1  0.764000  0.346840  0.394420  1.0  -0.6777
  O  O99  1  0.708670  0.191080  0.252640  1.0  -0.6652
  O  O100  1  0.663270  0.100530  0.442750  1.0  -0.6695
  O  O101  1  0.425560  0.147880  0.301310  1.0  -0.6747
  O  O102  1  0.471740  0.314300  0.478090  1.0  -0.6839
  O  O103  1  0.507280  0.540330  0.357310  1.0  -0.5943
  O  O104  1  0.711620  0.481270  0.499910  1.0  -0.5824
  O  O105  1  0.880080  0.108710  0.414290  1.0  -0.6035
  O  O106  1  0.404290  0.979110  0.370110  1.0  -0.5872
  O  O107  1  0.386830  0.151890  0.530670  1.0  -0.5998
  O  O108  1  0.576750  0.187180  0.130190  1.0  -0.6036
