# generated using pymatgen
data_MgH2(CO2)2
_symmetry_space_group_name_H-M   'P 1'
_cell_length_a   9.85300000
_cell_length_b   11.31500000
_cell_length_c   14.40000000
_cell_angle_alpha   91.32000000
_cell_angle_beta   90.00000000
_cell_angle_gamma   90.00000000
_symmetry_Int_Tables_number   1
_chemical_formula_structural   MgH2(CO2)2
_chemical_formula_sum   'Mg12 H24 C24 O48'
_cell_volume   1604.98237923
_cell_formula_units_Z   12
loop_
 _symmetry_equiv_pos_site_id
 _symmetry_equiv_pos_as_xyz
  1  'x, y, z'
loop_
 _atom_site_type_symbol
 _atom_site_label
 _atom_site_symmetry_multiplicity
 _atom_site_fract_x
 _atom_site_fract_y
 _atom_site_fract_z
 _atom_site_occupancy
 _atom_site_charge
  Mg  Mg1  1  0.918070  0.744510  0.865080  1.0  1.5167
  Mg  Mg2  1  0.107880  0.761240  0.688450  1.0  1.4961
  Mg  Mg3  1  0.418070  0.755490  0.634920  1.0  1.5168
  Mg  Mg4  1  0.607880  0.738760  0.811550  1.0  1.4966
  Mg  Mg5  1  0.081930  0.255490  0.134920  1.0  1.5167
  Mg  Mg6  1  0.892120  0.238760  0.311550  1.0  1.4966
  Mg  Mg7  1  0.581930  0.244510  0.365080  1.0  1.5167
  Mg  Mg8  1  0.392120  0.261240  0.188450  1.0  1.4962
  Mg  Mg9  1  0.000000  0.000000  0.000000  1.0  1.4894
  Mg  Mg10  1  0.500000  0.500000  0.500000  1.0  1.4894
  Mg  Mg11  1  0.000000  0.500000  0.000000  1.0  1.5016
  Mg  Mg12  1  0.500000  0.000000  0.500000  1.0  1.5016
  H  H13  1  0.033200  0.025200  0.733300  1.0  0.0101
  H  H14  1  0.617400  0.943100  0.957600  1.0  0.0005
  H  H15  1  0.756000  0.636300  0.630000  1.0  -0.0053
  H  H16  1  0.704500  0.509300  0.991400  1.0  -0.0008
  H  H17  1  0.186800  0.518600  0.765000  1.0  -0.0007
  H  H18  1  0.158500  0.801700  0.070200  1.0  0.0113
  H  H19  1  0.533200  0.474800  0.766700  1.0  0.0102
  H  H20  1  0.117400  0.556900  0.542400  1.0  0.0004
  H  H21  1  0.256000  0.863700  0.870000  1.0  -0.005
  H  H22  1  0.204500  0.990700  0.508600  1.0  -0.0006
  H  H23  1  0.686800  0.981400  0.735000  1.0  -0.0002
  H  H24  1  0.658500  0.698300  0.429800  1.0  0.0109
  H  H25  1  0.966800  0.974800  0.266700  1.0  0.0099
  H  H26  1  0.382600  0.056900  0.042400  1.0  0.0011
  H  H27  1  0.244000  0.363700  0.370000  1.0  -0.0046
  H  H28  1  0.295500  0.490700  0.008600  1.0  -0.0004
  H  H29  1  0.813200  0.481400  0.235000  1.0  -0.0007
  H  H30  1  0.841500  0.198300  0.929800  1.0  0.01
  H  H31  1  0.466800  0.525200  0.233300  1.0  0.01
  H  H32  1  0.882600  0.443100  0.457600  1.0  0.0012
  H  H33  1  0.744000  0.136300  0.130000  1.0  -0.0045
  H  H34  1  0.795500  0.009300  0.491400  1.0  -0.0005
  H  H35  1  0.313200  0.018600  0.265000  1.0  -0.0005
  H  H36  1  0.341500  0.301700  0.570200  1.0  0.0103
  C  C37  1  0.013140  0.982080  0.787440  1.0  0.7399
  C  C38  1  0.710830  0.925240  0.949280  1.0  0.7336
  C  C39  1  0.825510  0.669310  0.668260  1.0  0.7437
  C  C40  1  0.722050  0.570650  0.949140  1.0  0.745
  C  C41  1  0.125750  0.546750  0.811540  1.0  0.7239
  C  C42  1  0.101680  0.758000  0.028570  1.0  0.7533
  C  C43  1  0.513140  0.517920  0.712560  1.0  0.742
  C  C44  1  0.210830  0.574760  0.550720  1.0  0.734
  C  C45  1  0.325510  0.830690  0.831740  1.0  0.7436
  C  C46  1  0.222050  0.929350  0.550860  1.0  0.7428
  C  C47  1  0.625750  0.953250  0.688460  1.0  0.7235
  C  C48  1  0.601680  0.742000  0.471430  1.0  0.7507
  C  C49  1  0.986860  0.017920  0.212560  1.0  0.7412
  C  C50  1  0.289170  0.074760  0.050720  1.0  0.734
  C  C51  1  0.174490  0.330690  0.331740  1.0  0.744
  C  C52  1  0.277950  0.429350  0.050860  1.0  0.7426
  C  C53  1  0.874250  0.453250  0.188460  1.0  0.7224
  C  C54  1  0.898320  0.242000  0.971430  1.0  0.7512
  C  C55  1  0.486860  0.482080  0.287440  1.0  0.7407
  C  C56  1  0.789170  0.425240  0.449280  1.0  0.7345
  C  C57  1  0.674490  0.169310  0.168260  1.0  0.7438
  C  C58  1  0.777950  0.070650  0.449140  1.0  0.7446
  C  C59  1  0.374250  0.046750  0.311540  1.0  0.7232
  C  C60  1  0.398320  0.258000  0.528570  1.0  0.7531
  O  O61  1  0.002190  0.870000  0.778250  1.0  -0.8189
  O  O62  1  0.740920  0.843740  0.889510  1.0  -0.831
  O  O63  1  0.796240  0.690680  0.753300  1.0  -0.818
  O  O64  1  0.845780  0.602030  0.939250  1.0  -0.817
  O  O65  1  0.078180  0.650680  0.802240  1.0  -0.8174
  O  O66  1  0.024580  0.816980  0.974710  1.0  -0.8332
  O  O67  1  0.999750  0.038980  0.861070  1.0  -0.6721
  O  O68  1  0.792940  0.982620  0.997000  1.0  -0.6656
  O  O69  1  0.622840  0.612930  0.908640  1.0  -0.6786
  O  O70  1  0.099850  0.479170  0.875440  1.0  -0.6575
  O  O71  1  0.108020  0.649010  0.030680  1.0  -0.6758
  O  O72  1  0.937490  0.688030  0.631160  1.0  -0.6771
  O  O73  1  0.502190  0.630000  0.721750  1.0  -0.8175
  O  O74  1  0.240920  0.656260  0.610490  1.0  -0.8306
  O  O75  1  0.296240  0.809320  0.746700  1.0  -0.8184
  O  O76  1  0.345780  0.897970  0.560750  1.0  -0.8164
  O  O77  1  0.578180  0.849320  0.697760  1.0  -0.8171
  O  O78  1  0.524580  0.683020  0.525290  1.0  -0.8333
  O  O79  1  0.499750  0.461020  0.638930  1.0  -0.6729
  O  O80  1  0.292940  0.517380  0.503000  1.0  -0.6662
  O  O81  1  0.122840  0.887070  0.591360  1.0  -0.6795
  O  O82  1  0.599850  0.020830  0.624560  1.0  -0.6573
  O  O83  1  0.608020  0.850990  0.469320  1.0  -0.6753
  O  O84  1  0.437490  0.811970  0.868840  1.0  -0.6763
  O  O85  1  0.997810  0.130000  0.221750  1.0  -0.8178
  O  O86  1  0.259080  0.156260  0.110490  1.0  -0.8289
  O  O87  1  0.203760  0.309320  0.246700  1.0  -0.8187
  O  O88  1  0.154220  0.397970  0.060750  1.0  -0.8163
  O  O89  1  0.921820  0.349320  0.197760  1.0  -0.8176
  O  O90  1  0.975420  0.183020  0.025290  1.0  -0.8326
  O  O91  1  0.000250  0.961020  0.138930  1.0  -0.6732
  O  O92  1  0.207060  0.017380  0.003000  1.0  -0.6662
  O  O93  1  0.377160  0.387070  0.091360  1.0  -0.6788
  O  O94  1  0.900150  0.520830  0.124560  1.0  -0.6577
  O  O95  1  0.891980  0.350990  0.969320  1.0  -0.675
  O  O96  1  0.062510  0.311970  0.368840  1.0  -0.679
  O  O97  1  0.497810  0.370000  0.278250  1.0  -0.8194
  O  O98  1  0.759080  0.343740  0.389510  1.0  -0.8301
  O  O99  1  0.703760  0.190680  0.253300  1.0  -0.8183
  O  O100  1  0.654220  0.102030  0.439250  1.0  -0.8166
  O  O101  1  0.421820  0.150680  0.302240  1.0  -0.8178
  O  O102  1  0.475420  0.316980  0.474710  1.0  -0.8325
  O  O103  1  0.500250  0.538980  0.361070  1.0  -0.6727
  O  O104  1  0.707060  0.482620  0.497000  1.0  -0.6659
  O  O105  1  0.877160  0.112930  0.408640  1.0  -0.6776
  O  O106  1  0.400150  0.979170  0.375440  1.0  -0.6575
  O  O107  1  0.391980  0.149010  0.530680  1.0  -0.6757
  O  O108  1  0.562510  0.188030  0.131160  1.0  -0.6792
