# generated using pymatgen
data_In2P3(CO8)2
_symmetry_space_group_name_H-M   'P 1'
_cell_length_a   6.50520000
_cell_length_b   17.50050000
_cell_length_c   8.18110000
_cell_angle_alpha   90.00000000
_cell_angle_beta   107.65600000
_cell_angle_gamma   90.00000000
_symmetry_Int_Tables_number   1
_chemical_formula_structural   In2P3(CO8)2
_chemical_formula_sum   'In4 P6 C4 O32'
_cell_volume   887.49867671
_cell_formula_units_Z   2
loop_
 _symmetry_equiv_pos_site_id
 _symmetry_equiv_pos_as_xyz
  1  'x, y, z'
loop_
 _atom_site_type_symbol
 _atom_site_label
 _atom_site_symmetry_multiplicity
 _atom_site_fract_x
 _atom_site_fract_y
 _atom_site_fract_z
 _atom_site_occupancy
 _atom_site_charge
  In  In1  1  0.255630  0.002500  0.779510  1.0  1.6777
  In  In2  1  0.880920  0.141470  0.125990  1.0  1.6348
  In  In3  1  0.744370  0.502500  0.220490  1.0  1.6788
  In  In4  1  0.119080  0.641470  0.874010  1.0  1.6365
  P  P5  1  0.736100  0.047400  0.757000  1.0  1.8302
  P  P6  1  0.394000  0.091300  0.158200  1.0  1.8677
  P  P7  1  0.070500  0.836740  0.870700  1.0  1.6304
  P  P8  1  0.263900  0.547400  0.243000  1.0  1.8291
  P  P9  1  0.606000  0.591300  0.841800  1.0  1.8677
  P  P10  1  0.929500  0.336740  0.129300  1.0  1.6434
  C  C11  1  0.102800  0.113300  0.495200  1.0  0.6609
  C  C12  1  0.032200  0.033400  0.412100  1.0  0.6675
  C  C13  1  0.897200  0.613300  0.504800  1.0  0.6618
  C  C14  1  0.967800  0.533400  0.587900  1.0  0.6682
  O  O15  1  0.551800  0.988300  0.727300  1.0  -0.6962
  O  O16  1  0.953200  0.006600  0.832400  1.0  -0.7646
  O  O17  1  0.708100  0.112700  0.871700  1.0  -0.7268
  O  O18  1  0.729300  0.082400  0.581400  1.0  -0.592
  O  O19  1  0.406600  0.028200  0.032200  1.0  -0.7269
  O  O20  1  0.419100  0.052600  0.333100  1.0  -0.5477
  O  O21  1  0.186800  0.136700  0.092800  1.0  -0.744
  O  O22  1  0.577800  0.149300  0.176300  1.0  -0.6969
  O  O23  1  0.238300  0.880900  0.815100  1.0  -0.6809
  O  O24  1  0.861400  0.829700  0.722500  1.0  -0.5149
  O  O25  1  0.017200  0.880700  0.021200  1.0  -0.4691
  O  O26  1  0.161800  0.759800  0.947000  1.0  -0.7222
  O  O27  1  0.211500  0.114500  0.650900  1.0  -0.5414
  O  O28  1  0.045100  0.170200  0.401400  1.0  -0.4977
  O  O29  1  0.081800  0.975500  0.508300  1.0  -0.5352
  O  O30  1  0.926900  0.030700  0.256200  1.0  -0.5221
  O  O31  1  0.448200  0.488300  0.272700  1.0  -0.6973
  O  O32  1  0.046800  0.506600  0.167600  1.0  -0.7654
  O  O33  1  0.291900  0.612700  0.128300  1.0  -0.7258
  O  O34  1  0.270700  0.582400  0.418600  1.0  -0.5923
  O  O35  1  0.593400  0.528200  0.967800  1.0  -0.7264
  O  O36  1  0.580900  0.552600  0.666900  1.0  -0.5474
  O  O37  1  0.813200  0.636700  0.907200  1.0  -0.7439
  O  O38  1  0.422200  0.649300  0.823700  1.0  -0.6975
  O  O39  1  0.761700  0.380900  0.184900  1.0  -0.6791
  O  O40  1  0.138600  0.329700  0.277500  1.0  -0.5161
  O  O41  1  0.982800  0.380700  0.978800  1.0  -0.468
  O  O42  1  0.838200  0.259800  0.053000  1.0  -0.7211
  O  O43  1  0.788500  0.614500  0.349100  1.0  -0.5408
  O  O44  1  0.954900  0.670200  0.598600  1.0  -0.4983
  O  O45  1  0.918200  0.475500  0.491700  1.0  -0.5344
  O  O46  1  0.073100  0.530700  0.743800  1.0  -0.5223
