# generated using pymatgen
data_Zn2H9C19N7O6
_symmetry_space_group_name_H-M   'P 1'
_cell_length_a   10.81400000
_cell_length_b   10.81400000
_cell_length_c   25.41000000
_cell_angle_alpha   90.00000000
_cell_angle_beta   90.00000000
_cell_angle_gamma   90.00000000
_symmetry_Int_Tables_number   1
_chemical_formula_structural   Zn2H9C19N7O6
_chemical_formula_sum   'Zn8 H36 C76 N28 O24'
_cell_volume   2971.51136436
_cell_formula_units_Z   4
loop_
 _symmetry_equiv_pos_site_id
 _symmetry_equiv_pos_as_xyz
  1  'x, y, z'
loop_
 _atom_site_type_symbol
 _atom_site_label
 _atom_site_symmetry_multiplicity
 _atom_site_fract_x
 _atom_site_fract_y
 _atom_site_fract_z
 _atom_site_occupancy
 _atom_site_charge
  Zn  Zn1  1  0.456590  0.459060  0.920750  1.0  0.8025
  Zn  Zn2  1  0.543410  0.540940  0.420750  1.0  0.8023
  Zn  Zn3  1  0.040940  0.956590  0.170750  1.0  0.8002
  Zn  Zn4  1  0.959060  0.043410  0.670750  1.0  0.8016
  Zn  Zn5  1  0.043410  0.959060  0.329250  1.0  0.8021
  Zn  Zn6  1  0.956590  0.040940  0.829250  1.0  0.8019
  Zn  Zn7  1  0.459060  0.456590  0.079250  1.0  0.8011
  Zn  Zn8  1  0.540940  0.543410  0.579250  1.0  0.7998
  H  H9  1  0.332000  0.316000  0.791700  1.0  0.1051
  H  H10  1  0.161400  0.200300  0.769700  1.0  0.1064
  H  H11  1  0.093400  0.144700  0.918300  1.0  0.1009
  H  H12  1  0.695800  0.736900  0.922100  1.0  0.1082
  H  H13  1  0.668000  0.684000  0.291700  1.0  0.105
  H  H14  1  0.838600  0.799700  0.269700  1.0  0.1061
  H  H15  1  0.906600  0.855300  0.418300  1.0  0.1
  H  H16  1  0.304200  0.263100  0.422100  1.0  0.1083
  H  H17  1  0.184000  0.832000  0.041700  1.0  0.1047
  H  H18  1  0.299700  0.661400  0.019700  1.0  0.1055
  H  H19  1  0.355300  0.593400  0.168300  1.0  0.1006
  H  H20  1  0.763100  0.195800  0.172100  1.0  0.1082
  H  H21  1  0.816000  0.168000  0.541700  1.0  0.1055
  H  H22  1  0.700300  0.338600  0.519700  1.0  0.1052
  H  H23  1  0.644700  0.406600  0.668300  1.0  0.1001
  H  H24  1  0.236900  0.804200  0.672100  1.0  0.1078
  H  H25  1  0.168000  0.816000  0.458300  1.0  0.105
  H  H26  1  0.338600  0.700300  0.480300  1.0  0.1066
  H  H27  1  0.406600  0.644700  0.331700  1.0  0.1004
  H  H28  1  0.804200  0.236900  0.327900  1.0  0.1082
  H  H29  1  0.832000  0.184000  0.958300  1.0  0.1052
  H  H30  1  0.661400  0.299700  0.980300  1.0  0.1063
  H  H31  1  0.593400  0.355300  0.831700  1.0  0.1
  H  H32  1  0.195800  0.763100  0.827900  1.0  0.1082
  H  H33  1  0.316000  0.332000  0.208300  1.0  0.1051
  H  H34  1  0.200300  0.161400  0.230300  1.0  0.1052
  H  H35  1  0.144700  0.093400  0.081700  1.0  0.1003
  H  H36  1  0.736900  0.695800  0.077900  1.0  0.108
  H  H37  1  0.684000  0.668000  0.708300  1.0  0.1051
  H  H38  1  0.799700  0.838600  0.730300  1.0  0.1059
  H  H39  1  0.855300  0.906600  0.581700  1.0  0.1
  H  H40  1  0.263100  0.304200  0.577900  1.0  0.1078
  H  H41  1  0.944000  0.944000  0.000000  1.0  0.0994
  H  H42  1  0.056000  0.056000  0.500000  1.0  0.0992
  H  H43  1  0.556000  0.444000  0.250000  1.0  0.0991
  H  H44  1  0.444000  0.556000  0.750000  1.0  0.0996
  C  C45  1  0.282900  0.283400  0.818370  1.0  0.1073
  C  C46  1  0.181200  0.211200  0.805010  1.0  0.0791
  C  C47  1  0.140900  0.179400  0.891600  1.0  0.119
  C  C48  1  0.241600  0.253400  0.904660  1.0  0.1201
  C  C49  1  0.271800  0.277600  0.959340  1.0  0.3159
  C  C50  1  0.735200  0.758600  0.953310  1.0  0.0194
  C  C51  1  0.827300  0.848000  0.952930  1.0  -0.1541
  C  C52  1  0.866400  0.907800  0.902320  1.0  0.6616
  C  C53  1  0.717100  0.716600  0.318370  1.0  0.1066
  C  C54  1  0.818800  0.788800  0.305010  1.0  0.0802
  C  C55  1  0.859100  0.820600  0.391600  1.0  0.1178
  C  C56  1  0.758400  0.746600  0.404660  1.0  0.1208
  C  C57  1  0.728200  0.722400  0.459340  1.0  0.3159
  C  C58  1  0.264800  0.241400  0.453310  1.0  0.0194
  C  C59  1  0.172700  0.152000  0.452930  1.0  -0.1548
  C  C60  1  0.133600  0.092200  0.402320  1.0  0.6631
  C  C61  1  0.216600  0.782900  0.068370  1.0  0.1066
  C  C62  1  0.288800  0.681200  0.055010  1.0  0.0805
  C  C63  1  0.320600  0.640900  0.141600  1.0  0.1199
  C  C64  1  0.246600  0.741600  0.154660  1.0  0.1217
  C  C65  1  0.222400  0.771800  0.209340  1.0  0.316
  C  C66  1  0.741400  0.235200  0.203310  1.0  0.0198
  C  C67  1  0.652000  0.327300  0.202930  1.0  -0.156
  C  C68  1  0.592200  0.366400  0.152320  1.0  0.6639
  C  C69  1  0.783400  0.217100  0.568370  1.0  0.107
  C  C70  1  0.711200  0.318800  0.555010  1.0  0.0813
  C  C71  1  0.679400  0.359100  0.641600  1.0  0.1202
  C  C72  1  0.753400  0.258400  0.654660  1.0  0.1215
  C  C73  1  0.777600  0.228200  0.709340  1.0  0.3155
  C  C74  1  0.258600  0.764800  0.703310  1.0  0.0205
  C  C75  1  0.348000  0.672700  0.702930  1.0  -0.156
  C  C76  1  0.407800  0.633600  0.652320  1.0  0.6627
  C  C77  1  0.217100  0.783400  0.431630  1.0  0.1058
  C  C78  1  0.318800  0.711200  0.444990  1.0  0.0788
  C  C79  1  0.359100  0.679400  0.358400  1.0  0.1177
  C  C80  1  0.258400  0.753400  0.345340  1.0  0.1197
  C  C81  1  0.228200  0.777600  0.290660  1.0  0.316
  C  C82  1  0.764800  0.258600  0.296690  1.0  0.0196
  C  C83  1  0.672700  0.348000  0.297070  1.0  -0.1564
  C  C84  1  0.633600  0.407800  0.347680  1.0  0.6639
  C  C85  1  0.782900  0.216600  0.931630  1.0  0.1072
  C  C86  1  0.681200  0.288800  0.944990  1.0  0.0778
  C  C87  1  0.640900  0.320600  0.858400  1.0  0.119
  C  C88  1  0.741600  0.246600  0.845340  1.0  0.1206
  C  C89  1  0.771800  0.222400  0.790660  1.0  0.3151
  C  C90  1  0.235200  0.741400  0.796690  1.0  0.018
  C  C91  1  0.327300  0.652000  0.797070  1.0  -0.1555
  C  C92  1  0.366400  0.592200  0.847680  1.0  0.6625
  C  C93  1  0.283400  0.282900  0.181630  1.0  0.1061
  C  C94  1  0.211200  0.181200  0.194990  1.0  0.0796
  C  C95  1  0.179400  0.140900  0.108400  1.0  0.1198
  C  C96  1  0.253400  0.241600  0.095340  1.0  0.1212
  C  C97  1  0.277600  0.271800  0.040660  1.0  0.3157
  C  C98  1  0.758600  0.735200  0.046690  1.0  0.0191
  C  C99  1  0.848000  0.827300  0.047070  1.0  -0.1578
  C  C100  1  0.907800  0.866400  0.097680  1.0  0.6639
  C  C101  1  0.716600  0.717100  0.681630  1.0  0.1061
  C  C102  1  0.788800  0.818800  0.694990  1.0  0.0793
  C  C103  1  0.820600  0.859100  0.608400  1.0  0.12
  C  C104  1  0.746600  0.758400  0.595340  1.0  0.1213
  C  C105  1  0.722400  0.728200  0.540660  1.0  0.3152
  C  C106  1  0.241400  0.264800  0.546690  1.0  0.0199
  C  C107  1  0.152000  0.172700  0.547070  1.0  -0.1576
  C  C108  1  0.092200  0.133600  0.597680  1.0  0.6649
  C  C109  1  0.603800  0.603800  0.000000  1.0  0.6903
  C  C110  1  0.701700  0.701700  0.000000  1.0  -0.1818
  C  C111  1  0.883200  0.883200  0.000000  1.0  0.013
  C  C112  1  0.396200  0.396200  0.500000  1.0  0.6899
  C  C113  1  0.298300  0.298300  0.500000  1.0  -0.1809
  C  C114  1  0.116800  0.116800  0.500000  1.0  0.0112
  C  C115  1  0.896200  0.103800  0.250000  1.0  0.6892
  C  C116  1  0.798300  0.201700  0.250000  1.0  -0.1813
  C  C117  1  0.616800  0.383200  0.250000  1.0  0.0117
  C  C118  1  0.103800  0.896200  0.750000  1.0  0.6908
  C  C119  1  0.201700  0.798300  0.750000  1.0  -0.1813
  C  C120  1  0.383200  0.616800  0.750000  1.0  0.0126
  N  N121  1  0.111400  0.157400  0.841720  1.0  -0.2541
  N  N122  1  0.311900  0.306900  0.868210  1.0  -0.287
  N  N123  1  0.357300  0.360400  0.973370  1.0  -0.2408
  N  N124  1  0.888600  0.842600  0.341720  1.0  -0.2524
  N  N125  1  0.688100  0.693100  0.368210  1.0  -0.2885
  N  N126  1  0.642700  0.639600  0.473370  1.0  -0.2429
  N  N127  1  0.342600  0.611400  0.091720  1.0  -0.2531
  N  N128  1  0.193100  0.811900  0.118210  1.0  -0.29
  N  N129  1  0.139600  0.857300  0.223370  1.0  -0.2425
  N  N130  1  0.657400  0.388600  0.591720  1.0  -0.2551
  N  N131  1  0.806900  0.188100  0.618210  1.0  -0.2882
  N  N132  1  0.860400  0.142700  0.723370  1.0  -0.241
  N  N133  1  0.388600  0.657400  0.408280  1.0  -0.2529
  N  N134  1  0.188100  0.806900  0.381790  1.0  -0.2871
  N  N135  1  0.142700  0.860400  0.276630  1.0  -0.2434
  N  N136  1  0.611400  0.342600  0.908280  1.0  -0.2532
  N  N137  1  0.811900  0.193100  0.881790  1.0  -0.2865
  N  N138  1  0.857300  0.139600  0.776630  1.0  -0.2418
  N  N139  1  0.157400  0.111400  0.158280  1.0  -0.2539
  N  N140  1  0.306900  0.311900  0.131790  1.0  -0.2883
  N  N141  1  0.360400  0.357300  0.026630  1.0  -0.2416
  N  N142  1  0.842600  0.888600  0.658280  1.0  -0.2549
  N  N143  1  0.693100  0.688100  0.631790  1.0  -0.2884
  N  N144  1  0.639600  0.642700  0.526630  1.0  -0.2435
  N  N145  1  0.219610  0.219610  0.000000  1.0  -0.4716
  N  N146  1  0.780390  0.780390  0.500000  1.0  -0.4729
  N  N147  1  0.280390  0.719610  0.250000  1.0  -0.4722
  N  N148  1  0.719610  0.280390  0.750000  1.0  -0.4714
  O  O149  1  0.537200  0.594750  0.959880  1.0  -0.5842
  O  O150  1  0.800700  0.902800  0.862210  1.0  -0.5998
  O  O151  1  0.966400  0.967000  0.902090  1.0  -0.5931
  O  O152  1  0.462800  0.405250  0.459880  1.0  -0.5857
  O  O153  1  0.199300  0.097200  0.362210  1.0  -0.5991
  O  O154  1  0.033600  0.033000  0.402090  1.0  -0.5922
  O  O155  1  0.905250  0.037200  0.209880  1.0  -0.5882
  O  O156  1  0.597200  0.300700  0.112210  1.0  -0.5995
  O  O157  1  0.533000  0.466400  0.152090  1.0  -0.5938
  O  O158  1  0.094750  0.962800  0.709880  1.0  -0.5882
  O  O159  1  0.402800  0.699300  0.612210  1.0  -0.5998
  O  O160  1  0.467000  0.533600  0.652090  1.0  -0.5921
  O  O161  1  0.962800  0.094750  0.290120  1.0  -0.5845
  O  O162  1  0.699300  0.402800  0.387790  1.0  -0.6011
  O  O163  1  0.533600  0.467000  0.347910  1.0  -0.5924
  O  O164  1  0.037200  0.905250  0.790120  1.0  -0.5846
  O  O165  1  0.300700  0.597200  0.887790  1.0  -0.6016
  O  O166  1  0.466400  0.533000  0.847910  1.0  -0.5929
  O  O167  1  0.594750  0.537200  0.040120  1.0  -0.5882
  O  O168  1  0.902800  0.800700  0.137790  1.0  -0.6012
  O  O169  1  0.967000  0.966400  0.097910  1.0  -0.5932
  O  O170  1  0.405250  0.462800  0.540120  1.0  -0.5873
  O  O171  1  0.097200  0.199300  0.637790  1.0  -0.6012
  O  O172  1  0.033000  0.033600  0.597910  1.0  -0.5929
