# generated using pymatgen
data_Cd2H9C19N7O6
_symmetry_space_group_name_H-M   'P 1'
_cell_length_a   12.72130000
_cell_length_b   12.72130000
_cell_length_c   20.70900000
_cell_angle_alpha   84.16000000
_cell_angle_beta   84.16000000
_cell_angle_gamma   70.86960000
_symmetry_Int_Tables_number   1
_chemical_formula_structural   Cd2H9C19N7O6
_chemical_formula_sum   'Cd8 H36 C76 N28 O24'
_cell_volume   3141.50226635
_cell_formula_units_Z   4
loop_
 _symmetry_equiv_pos_site_id
 _symmetry_equiv_pos_as_xyz
  1  'x, y, z'
loop_
 _atom_site_type_symbol
 _atom_site_label
 _atom_site_symmetry_multiplicity
 _atom_site_fract_x
 _atom_site_fract_y
 _atom_site_fract_z
 _atom_site_occupancy
 _atom_site_charge
  Cd  Cd1  1  0.066190  0.069010  0.179210  1.0  0.9581
  Cd  Cd2  1  0.546200  0.546180  0.101180  1.0  0.8649
  Cd  Cd3  1  0.930990  0.933810  0.320790  1.0  0.9598
  Cd  Cd4  1  0.453820  0.453800  0.398820  1.0  0.8636
  Cd  Cd5  1  0.933810  0.930990  0.820790  1.0  0.9586
  Cd  Cd6  1  0.453800  0.453820  0.898820  1.0  0.8641
  Cd  Cd7  1  0.069010  0.066190  0.679210  1.0  0.9582
  Cd  Cd8  1  0.546180  0.546200  0.601180  1.0  0.8644
  H  H9  1  0.863100  0.154900  0.103600  1.0  0.0953
  H  H10  1  0.731800  0.447000  0.230300  1.0  0.0947
  H  H11  1  0.887100  0.304300  0.255600  1.0  0.1138
  H  H12  1  0.241800  0.220000  0.311000  1.0  0.1097
  H  H13  1  0.822000  0.111800  0.911200  1.0  0.086
  H  H14  1  0.077500  0.054100  0.436400  1.0  0.1023
  H  H15  1  0.258700  0.222100  0.503000  1.0  0.1098
  H  H16  1  0.702200  0.115200  0.745600  1.0  0.1042
  H  H17  1  0.555100  0.268100  0.770900  1.0  0.1025
  H  H18  1  0.845100  0.136900  0.396400  1.0  0.0955
  H  H19  1  0.553000  0.268200  0.269700  1.0  0.0948
  H  H20  1  0.695700  0.112900  0.244400  1.0  0.115
  H  H21  1  0.780000  0.758200  0.189000  1.0  0.1098
  H  H22  1  0.888200  0.178000  0.588800  1.0  0.0856
  H  H23  1  0.945900  0.922500  0.063600  1.0  0.1018
  H  H24  1  0.777900  0.741300  0.997000  1.0  0.111
  H  H25  1  0.884800  0.297800  0.754400  1.0  0.1049
  H  H26  1  0.731900  0.444900  0.729100  1.0  0.1027
  H  H27  1  0.136900  0.845100  0.896400  1.0  0.0955
  H  H28  1  0.268200  0.553000  0.769700  1.0  0.0945
  H  H29  1  0.112900  0.695700  0.744400  1.0  0.1141
  H  H30  1  0.758200  0.780000  0.689000  1.0  0.1097
  H  H31  1  0.178000  0.888200  0.088800  1.0  0.0856
  H  H32  1  0.922500  0.945900  0.563600  1.0  0.1027
  H  H33  1  0.741300  0.777900  0.497000  1.0  0.111
  H  H34  1  0.297800  0.884800  0.254400  1.0  0.103
  H  H35  1  0.444900  0.731900  0.229100  1.0  0.1022
  H  H36  1  0.154900  0.863100  0.603600  1.0  0.0947
  H  H37  1  0.447000  0.731800  0.730300  1.0  0.095
  H  H38  1  0.304300  0.887100  0.755600  1.0  0.1136
  H  H39  1  0.220000  0.241800  0.811000  1.0  0.1097
  H  H40  1  0.111800  0.822000  0.411200  1.0  0.0841
  H  H41  1  0.054100  0.077500  0.936400  1.0  0.1028
  H  H42  1  0.222100  0.258700  0.003000  1.0  0.1099
  H  H43  1  0.115200  0.702200  0.245600  1.0  0.1031
  H  H44  1  0.268100  0.555100  0.270900  1.0  0.1022
  C  C45  1  0.838600  0.215400  0.129300  1.0  0.1231
  C  C46  1  0.758700  0.388500  0.203200  1.0  0.1131
  C  C47  1  0.851500  0.302500  0.218900  1.0  0.0777
  C  C48  1  0.746000  0.305600  0.112600  1.0  0.1335
  C  C49  1  0.695500  0.311700  0.052800  1.0  0.2953
  C  C50  1  0.222600  0.198000  0.353500  1.0  0.0309
  C  C51  1  0.110400  0.097800  0.306800  1.0  0.6824
  C  C52  1  0.153300  0.130300  0.365300  1.0  -0.1915
  C  C53  1  0.766900  0.141300  0.881900  1.0  0.1388
  C  C54  1  0.677100  0.232500  0.898000  1.0  0.1357
  C  C55  1  0.667700  0.280100  0.960700  1.0  0.2847
  C  C56  1  0.332100  0.308900  0.393700  1.0  0.6772
  C  C57  1  0.162800  0.132800  0.480800  1.0  -0.1613
  C  C58  1  0.123500  0.098300  0.428600  1.0  0.0263
  C  C59  1  0.232300  0.199500  0.468400  1.0  0.0311
  C  C60  1  0.262200  0.231800  0.404900  1.0  -0.1686
  C  C61  1  0.697400  0.144200  0.785600  1.0  0.0828
  C  C62  1  0.608700  0.236700  0.800800  1.0  0.0988
  C  C63  1  0.128500  0.103300  0.550400  1.0  0.6339
  C  C64  1  0.784600  0.161400  0.370700  1.0  0.1213
  C  C65  1  0.611500  0.241300  0.296800  1.0  0.1127
  C  C66  1  0.697500  0.148500  0.281100  1.0  0.0772
  C  C67  1  0.694400  0.254000  0.387400  1.0  0.1317
  C  C68  1  0.688300  0.304500  0.447200  1.0  0.2951
  C  C69  1  0.802000  0.777400  0.146500  1.0  0.0301
  C  C70  1  0.902200  0.889600  0.193200  1.0  0.6827
  C  C71  1  0.869700  0.846700  0.134700  1.0  -0.1912
  C  C72  1  0.858700  0.233100  0.618100  1.0  0.1392
  C  C73  1  0.767500  0.322900  0.602000  1.0  0.1349
  C  C74  1  0.719900  0.332300  0.539300  1.0  0.2844
  C  C75  1  0.691100  0.667900  0.106300  1.0  0.6764
  C  C76  1  0.867200  0.837200  0.019200  1.0  -0.16
  C  C77  1  0.901700  0.876500  0.071400  1.0  0.0251
  C  C78  1  0.800500  0.767700  0.031600  1.0  0.0309
  C  C79  1  0.768200  0.737800  0.095100  1.0  -0.1686
  C  C80  1  0.855800  0.302600  0.714400  1.0  0.081
  C  C81  1  0.763300  0.391300  0.699200  1.0  0.0963
  C  C82  1  0.896700  0.871500  0.949600  1.0  0.6348
  C  C83  1  0.161400  0.784600  0.870700  1.0  0.1234
  C  C84  1  0.241300  0.611500  0.796800  1.0  0.1133
  C  C85  1  0.148500  0.697500  0.781100  1.0  0.0765
  C  C86  1  0.254000  0.694400  0.887400  1.0  0.1319
  C  C87  1  0.304500  0.688300  0.947200  1.0  0.2942
  C  C88  1  0.777400  0.802000  0.646500  1.0  0.03
  C  C89  1  0.889600  0.902200  0.693200  1.0  0.6823
  C  C90  1  0.846700  0.869700  0.634700  1.0  -0.192
  C  C91  1  0.233100  0.858700  0.118100  1.0  0.1386
  C  C92  1  0.322900  0.767500  0.102000  1.0  0.1354
  C  C93  1  0.332300  0.719900  0.039300  1.0  0.2844
  C  C94  1  0.667900  0.691100  0.606300  1.0  0.6764
  C  C95  1  0.837200  0.867200  0.519200  1.0  -0.1605
  C  C96  1  0.876500  0.901700  0.571400  1.0  0.0262
  C  C97  1  0.767700  0.800500  0.531600  1.0  0.0314
  C  C98  1  0.737800  0.768200  0.595100  1.0  -0.1686
  C  C99  1  0.302600  0.855800  0.214400  1.0  0.0836
  C  C100  1  0.391300  0.763300  0.199200  1.0  0.099
  C  C101  1  0.871500  0.896700  0.449600  1.0  0.6345
  C  C102  1  0.215400  0.838600  0.629300  1.0  0.1212
  C  C103  1  0.388500  0.758700  0.703200  1.0  0.1135
  C  C104  1  0.302500  0.851500  0.718900  1.0  0.0787
  C  C105  1  0.305600  0.746000  0.612600  1.0  0.1316
  C  C106  1  0.311700  0.695500  0.552800  1.0  0.2951
  C  C107  1  0.198000  0.222600  0.853500  1.0  0.0307
  C  C108  1  0.097800  0.110400  0.806800  1.0  0.6828
  C  C109  1  0.130300  0.153300  0.865300  1.0  -0.1909
  C  C110  1  0.141300  0.766900  0.381900  1.0  0.1398
  C  C111  1  0.232500  0.677100  0.398000  1.0  0.1341
  C  C112  1  0.280100  0.667700  0.460700  1.0  0.285
  C  C113  1  0.308900  0.332100  0.893700  1.0  0.6772
  C  C114  1  0.132800  0.162800  0.980800  1.0  -0.1603
  C  C115  1  0.098300  0.123500  0.928600  1.0  0.0262
  C  C116  1  0.199500  0.232300  0.968400  1.0  0.0309
  C  C117  1  0.231800  0.262200  0.904900  1.0  -0.1677
  C  C118  1  0.144200  0.697400  0.285600  1.0  0.0807
  C  C119  1  0.236700  0.608700  0.300800  1.0  0.0976
  C  C120  1  0.103300  0.128500  0.050400  1.0  0.6338
  N  N121  1  0.892900  0.214100  0.181400  1.0  -0.2942
  N  N122  1  0.704700  0.392300  0.150600  1.0  -0.3215
  N  N123  1  0.606000  0.395600  0.035200  1.0  -0.2516
  N  N124  1  0.737800  0.235200  0.008300  1.0  -0.4377
  N  N125  1  0.588800  0.376600  0.974500  1.0  -0.2454
  N  N126  1  0.778100  0.094100  0.827000  1.0  -0.2789
  N  N127  1  0.597300  0.282500  0.857500  1.0  -0.3027
  N  N128  1  0.785900  0.107100  0.318600  1.0  -0.2919
  N  N129  1  0.607700  0.295300  0.349400  1.0  -0.3226
  N  N130  1  0.604400  0.394000  0.464800  1.0  -0.2519
  N  N131  1  0.764800  0.262200  0.491700  1.0  -0.4375
  N  N132  1  0.623400  0.411200  0.525500  1.0  -0.245
  N  N133  1  0.905900  0.221900  0.673000  1.0  -0.2806
  N  N134  1  0.717500  0.402700  0.642500  1.0  -0.3007
  N  N135  1  0.107100  0.785900  0.818600  1.0  -0.2941
  N  N136  1  0.295300  0.607700  0.849400  1.0  -0.3227
  N  N137  1  0.394000  0.604400  0.964800  1.0  -0.2519
  N  N138  1  0.262200  0.764800  0.991700  1.0  -0.4392
  N  N139  1  0.411200  0.623400  0.025500  1.0  -0.2459
  N  N140  1  0.221900  0.905900  0.173000  1.0  -0.2904
  N  N141  1  0.402700  0.717500  0.142500  1.0  -0.2997
  N  N142  1  0.214100  0.892900  0.681400  1.0  -0.2956
  N  N143  1  0.392300  0.704700  0.650600  1.0  -0.3197
  N  N144  1  0.395600  0.606000  0.535200  1.0  -0.2519
  N  N145  1  0.235200  0.737800  0.508300  1.0  -0.4378
  N  N146  1  0.376600  0.588800  0.474500  1.0  -0.2449
  N  N147  1  0.094100  0.778100  0.327000  1.0  -0.2825
  N  N148  1  0.282500  0.597300  0.357500  1.0  -0.3004
  O  O149  1  0.136400  0.139400  0.252500  1.0  -0.5837
  O  O150  1  0.053300  0.035500  0.314100  1.0  -0.6589
  O  O151  1  0.062100  0.049700  0.563300  1.0  -0.5731
  O  O152  1  0.352800  0.344400  0.336600  1.0  -0.6298
  O  O153  1  0.366600  0.334200  0.442800  1.0  -0.5783
  O  O154  1  0.170200  0.136000  0.595200  1.0  -0.6275
  O  O155  1  0.860600  0.863600  0.247500  1.0  -0.5833
  O  O156  1  0.964500  0.946700  0.185900  1.0  -0.6551
  O  O157  1  0.950300  0.937900  0.936700  1.0  -0.5735
  O  O158  1  0.655600  0.647200  0.163400  1.0  -0.6285
  O  O159  1  0.665800  0.633400  0.057200  1.0  -0.5781
  O  O160  1  0.864000  0.829800  0.904800  1.0  -0.6241
  O  O161  1  0.863600  0.860600  0.747500  1.0  -0.5825
  O  O162  1  0.946700  0.964500  0.685900  1.0  -0.6564
  O  O163  1  0.937900  0.950300  0.436700  1.0  -0.5735
  O  O164  1  0.647200  0.655600  0.663400  1.0  -0.6298
  O  O165  1  0.633400  0.665800  0.557200  1.0  -0.5772
  O  O166  1  0.829800  0.864000  0.404800  1.0  -0.622
  O  O167  1  0.139400  0.136400  0.752500  1.0  -0.5832
  O  O168  1  0.035500  0.053300  0.814100  1.0  -0.656
  O  O169  1  0.049700  0.062100  0.063300  1.0  -0.5729
  O  O170  1  0.344400  0.352800  0.836600  1.0  -0.628
  O  O171  1  0.334200  0.366600  0.942800  1.0  -0.5796
  O  O172  1  0.136000  0.170200  0.095200  1.0  -0.6284
