# generated using pymatgen
data_K2CoH4Ru2(C2O7)2
_symmetry_space_group_name_H-M   'P 1'
_cell_length_a   18.40800000
_cell_length_b   9.39230000
_cell_length_c   10.07000000
_cell_angle_alpha   90.00000000
_cell_angle_beta   90.00000000
_cell_angle_gamma   90.00000000
_symmetry_Int_Tables_number   1
_chemical_formula_structural   K2CoH4Ru2(C2O7)2
_chemical_formula_sum   'K8 Co4 H16 Ru8 C16 O56'
_cell_volume   1741.03712609
_cell_formula_units_Z   4
loop_
 _symmetry_equiv_pos_site_id
 _symmetry_equiv_pos_as_xyz
  1  'x, y, z'
loop_
 _atom_site_type_symbol
 _atom_site_label
 _atom_site_symmetry_multiplicity
 _atom_site_fract_x
 _atom_site_fract_y
 _atom_site_fract_z
 _atom_site_occupancy
 _atom_site_charge
  K  K1  1  0.430600  0.503600  0.552100  1.0  0.9213
  K  K2  1  0.069400  0.996400  0.552100  1.0  0.9207
  K  K3  1  0.569400  0.003600  0.947900  1.0  0.9216
  K  K4  1  0.930600  0.496400  0.947900  1.0  0.9211
  K  K5  1  0.569400  0.496400  0.447900  1.0  0.921
  K  K6  1  0.930600  0.003600  0.447900  1.0  0.9219
  K  K7  1  0.430600  0.996400  0.052100  1.0  0.921
  K  K8  1  0.069400  0.503600  0.052100  1.0  0.9209
  Co  Co9  1  0.750000  0.250000  0.684580  1.0  0.8833
  Co  Co10  1  0.250000  0.750000  0.815420  1.0  0.8832
  Co  Co11  1  0.250000  0.750000  0.315420  1.0  0.8832
  Co  Co12  1  0.750000  0.250000  0.184580  1.0  0.8833
  H  H13  1  0.698700  0.162000  0.899300  1.0  0.3953
  H  H14  1  0.670000  0.074900  0.800900  1.0  0.4131
  H  H15  1  0.801300  0.338000  0.899300  1.0  0.3954
  H  H16  1  0.830000  0.425100  0.800900  1.0  0.4117
  H  H17  1  0.301300  0.662000  0.600700  1.0  0.3953
  H  H18  1  0.330000  0.574900  0.699100  1.0  0.4133
  H  H19  1  0.198700  0.838000  0.600700  1.0  0.396
  H  H20  1  0.170000  0.925100  0.699100  1.0  0.4124
  H  H21  1  0.301300  0.838000  0.100700  1.0  0.3959
  H  H22  1  0.330000  0.925100  0.199100  1.0  0.4118
  H  H23  1  0.198700  0.662000  0.100700  1.0  0.395
  H  H24  1  0.170000  0.574900  0.199100  1.0  0.4129
  H  H25  1  0.698700  0.338000  0.399300  1.0  0.3952
  H  H26  1  0.670000  0.425100  0.300900  1.0  0.4129
  H  H27  1  0.801300  0.162000  0.399300  1.0  0.395
  H  H28  1  0.830000  0.074900  0.300900  1.0  0.4126
  Ru  Ru29  1  0.485270  0.059140  0.593960  1.0  0.9152
  Ru  Ru30  1  0.014730  0.440860  0.593960  1.0  0.9121
  Ru  Ru31  1  0.514730  0.559140  0.906040  1.0  0.9114
  Ru  Ru32  1  0.985270  0.940860  0.906040  1.0  0.9148
  Ru  Ru33  1  0.514730  0.940860  0.406040  1.0  0.9115
  Ru  Ru34  1  0.985270  0.559140  0.406040  1.0  0.9153
  Ru  Ru35  1  0.485270  0.440860  0.093960  1.0  0.9154
  Ru  Ru36  1  0.014730  0.059140  0.093960  1.0  0.9114
  C  C37  1  0.527900  0.767700  0.644100  1.0  0.8585
  C  C38  1  0.638400  0.081300  0.528900  1.0  0.7651
  C  C39  1  0.972100  0.732300  0.644100  1.0  0.8586
  C  C40  1  0.861600  0.418700  0.528900  1.0  0.7652
  C  C41  1  0.472100  0.267700  0.855900  1.0  0.8578
  C  C42  1  0.361600  0.581300  0.971100  1.0  0.765
  C  C43  1  0.027900  0.232300  0.855900  1.0  0.8568
  C  C44  1  0.138400  0.918700  0.971100  1.0  0.7652
  C  C45  1  0.472100  0.232300  0.355900  1.0  0.8581
  C  C46  1  0.361600  0.918700  0.471100  1.0  0.7651
  C  C47  1  0.027900  0.267700  0.355900  1.0  0.8576
  C  C48  1  0.138400  0.581300  0.471100  1.0  0.7651
  C  C49  1  0.527900  0.732300  0.144100  1.0  0.857
  C  C50  1  0.638400  0.418700  0.028900  1.0  0.7654
  C  C51  1  0.972100  0.767700  0.144100  1.0  0.8582
  C  C52  1  0.861600  0.081300  0.028900  1.0  0.765
  O  O53  1  0.620000  0.001700  0.427700  1.0  -0.6282
  O  O54  1  0.534900  0.765400  0.515500  1.0  -0.7023
  O  O55  1  0.545100  0.658200  0.708500  1.0  -0.7008
  O  O56  1  0.504900  0.880200  0.703800  1.0  -0.6965
  O  O57  1  0.703700  0.119400  0.539700  1.0  -0.6279
  O  O58  1  0.590300  0.118700  0.615700  1.0  -0.6068
  O  O59  1  0.708500  0.114100  0.829900  1.0  -0.7434
  O  O60  1  0.880000  0.498300  0.427700  1.0  -0.628
  O  O61  1  0.965100  0.734600  0.515500  1.0  -0.7028
  O  O62  1  0.954900  0.841800  0.708500  1.0  -0.7018
  O  O63  1  0.995100  0.619800  0.703800  1.0  -0.6967
  O  O64  1  0.796300  0.380600  0.539700  1.0  -0.6286
  O  O65  1  0.909700  0.381300  0.615700  1.0  -0.6062
  O  O66  1  0.791500  0.385900  0.829900  1.0  -0.7456
  O  O67  1  0.380000  0.501700  0.072300  1.0  -0.628
  O  O68  1  0.465100  0.265400  0.984500  1.0  -0.7017
  O  O69  1  0.454900  0.158200  0.791500  1.0  -0.7018
  O  O70  1  0.495100  0.380200  0.796200  1.0  -0.6966
  O  O71  1  0.296300  0.619400  0.960300  1.0  -0.6278
  O  O72  1  0.409700  0.618700  0.884300  1.0  -0.607
  O  O73  1  0.291500  0.614100  0.670100  1.0  -0.7469
  O  O74  1  0.120000  0.998300  0.072300  1.0  -0.6267
  O  O75  1  0.034900  0.234600  0.984500  1.0  -0.703
  O  O76  1  0.045100  0.341800  0.791500  1.0  -0.6999
  O  O77  1  0.004900  0.119800  0.796200  1.0  -0.697
  O  O78  1  0.203700  0.880600  0.960300  1.0  -0.6279
  O  O79  1  0.090300  0.881300  0.884300  1.0  -0.6078
  O  O80  1  0.208500  0.885900  0.670100  1.0  -0.744
  O  O81  1  0.380000  0.998300  0.572300  1.0  -0.6284
  O  O82  1  0.465100  0.234600  0.484500  1.0  -0.7035
  O  O83  1  0.454900  0.341800  0.291500  1.0  -0.7015
  O  O84  1  0.495100  0.119800  0.296200  1.0  -0.6972
  O  O85  1  0.296300  0.880600  0.460300  1.0  -0.6257
  O  O86  1  0.409700  0.881300  0.384300  1.0  -0.6076
  O  O87  1  0.291500  0.885900  0.170100  1.0  -0.7462
  O  O88  1  0.120000  0.501700  0.572300  1.0  -0.6277
  O  O89  1  0.034900  0.265400  0.484500  1.0  -0.7026
  O  O90  1  0.045100  0.158200  0.291500  1.0  -0.7001
  O  O91  1  0.004900  0.380200  0.296200  1.0  -0.6963
  O  O92  1  0.203700  0.619400  0.460300  1.0  -0.6254
  O  O93  1  0.090300  0.618700  0.384300  1.0  -0.6073
  O  O94  1  0.208500  0.614100  0.170100  1.0  -0.7434
  O  O95  1  0.620000  0.498300  0.927700  1.0  -0.6263
  O  O96  1  0.534900  0.734600  0.015500  1.0  -0.7032
  O  O97  1  0.545100  0.841800  0.208500  1.0  -0.7006
  O  O98  1  0.504900  0.619800  0.203800  1.0  -0.6964
  O  O99  1  0.703700  0.380600  0.039700  1.0  -0.6257
  O  O100  1  0.590300  0.381300  0.115700  1.0  -0.6072
  O  O101  1  0.708500  0.385900  0.329900  1.0  -0.7438
  O  O102  1  0.880000  0.001700  0.927700  1.0  -0.6283
  O  O103  1  0.965100  0.765400  0.015500  1.0  -0.7029
  O  O104  1  0.954900  0.658200  0.208500  1.0  -0.7021
  O  O105  1  0.995100  0.880200  0.203800  1.0  -0.6968
  O  O106  1  0.796300  0.119400  0.039700  1.0  -0.6263
  O  O107  1  0.909700  0.118700  0.115700  1.0  -0.607
  O  O108  1  0.791500  0.114100  0.329900  1.0  -0.7461
