# generated using pymatgen
data_SmH10C17O9
_symmetry_space_group_name_H-M   'P 1'
_cell_length_a   14.60260000
_cell_length_b   16.63010000
_cell_length_c   16.66170000
_cell_angle_alpha   90.00000000
_cell_angle_beta   90.00000000
_cell_angle_gamma   90.00000000
_symmetry_Int_Tables_number   1
_chemical_formula_structural   SmH10C17O9
_chemical_formula_sum   'Sm8 H80 C136 O72'
_cell_volume   4046.17218560
_cell_formula_units_Z   8
loop_
 _symmetry_equiv_pos_site_id
 _symmetry_equiv_pos_as_xyz
  1  'x, y, z'
loop_
 _atom_site_type_symbol
 _atom_site_label
 _atom_site_symmetry_multiplicity
 _atom_site_fract_x
 _atom_site_fract_y
 _atom_site_fract_z
 _atom_site_occupancy
 _atom_site_charge
  Sm  Sm1  1  0.500000  0.168010  0.750000  1.0  2.2789
  Sm  Sm2  1  0.000000  0.668010  0.750000  1.0  2.2789
  Sm  Sm3  1  0.500000  0.831990  0.250000  1.0  2.28
  Sm  Sm4  1  0.000000  0.331990  0.250000  1.0  2.28
  Sm  Sm5  1  0.662130  0.000000  0.500000  1.0  2.2665
  Sm  Sm6  1  0.162130  0.500000  0.500000  1.0  2.2665
  Sm  Sm7  1  0.337870  0.000000  0.000000  1.0  2.2651
  Sm  Sm8  1  0.837870  0.500000  0.000000  1.0  2.2651
  H  H9  1  0.779900  0.949400  0.007400  1.0  0.2151
  H  H10  1  0.682300  0.945300  0.012700  1.0  0.0922
  H  H11  1  0.436000  0.277700  0.237400  1.0  0.0929
  H  H12  1  0.436200  0.185100  0.238100  1.0  0.1024
  H  H13  1  0.749900  0.872400  0.696600  1.0  0.1121
  H  H14  1  0.819100  0.857100  0.924200  1.0  0.2088
  H  H15  1  0.648100  0.027800  0.858900  1.0  0.1087
  H  H16  1  0.375300  0.265500  0.557800  1.0  0.111
  H  H17  1  0.354900  0.325700  0.323900  1.0  0.1236
  H  H18  1  0.518200  0.154100  0.390900  1.0  0.1702
  H  H19  1  0.279900  0.449400  0.007400  1.0  0.2151
  H  H20  1  0.182300  0.445300  0.012700  1.0  0.0922
  H  H21  1  0.936000  0.777700  0.237400  1.0  0.0929
  H  H22  1  0.936200  0.685100  0.238100  1.0  0.1024
  H  H23  1  0.249900  0.372400  0.696600  1.0  0.1121
  H  H24  1  0.319100  0.357100  0.924200  1.0  0.2088
  H  H25  1  0.148100  0.527800  0.858900  1.0  0.1087
  H  H26  1  0.875300  0.765500  0.557800  1.0  0.1111
  H  H27  1  0.854900  0.825700  0.323900  1.0  0.1236
  H  H28  1  0.018200  0.654100  0.390900  1.0  0.1702
  H  H29  1  0.220100  0.050600  0.507400  1.0  0.2182
  H  H30  1  0.317700  0.054700  0.512700  1.0  0.095
  H  H31  1  0.564000  0.722300  0.737400  1.0  0.0919
  H  H32  1  0.563800  0.814900  0.738100  1.0  0.1029
  H  H33  1  0.250100  0.127600  0.196600  1.0  0.1119
  H  H34  1  0.180900  0.142900  0.424200  1.0  0.2079
  H  H35  1  0.351900  0.972200  0.358900  1.0  0.1083
  H  H36  1  0.624700  0.734500  0.057800  1.0  0.1108
  H  H37  1  0.645100  0.674300  0.823900  1.0  0.1233
  H  H38  1  0.481800  0.845900  0.890900  1.0  0.1703
  H  H39  1  0.720100  0.550600  0.507400  1.0  0.2182
  H  H40  1  0.817700  0.554700  0.512700  1.0  0.095
  H  H41  1  0.064000  0.222300  0.737400  1.0  0.0919
  H  H42  1  0.063800  0.314900  0.738100  1.0  0.1029
  H  H43  1  0.750100  0.627600  0.196600  1.0  0.1119
  H  H44  1  0.680900  0.642900  0.424200  1.0  0.2079
  H  H45  1  0.851900  0.472200  0.358900  1.0  0.1083
  H  H46  1  0.124700  0.234500  0.057800  1.0  0.1109
  H  H47  1  0.145100  0.174300  0.823900  1.0  0.1233
  H  H48  1  0.981800  0.345900  0.890900  1.0  0.1703
  H  H49  1  0.220100  0.949400  0.492600  1.0  0.2089
  H  H50  1  0.317700  0.945300  0.487300  1.0  0.0909
  H  H51  1  0.564000  0.277700  0.262600  1.0  0.0929
  H  H52  1  0.563800  0.185100  0.261900  1.0  0.1004
  H  H53  1  0.250100  0.872400  0.803400  1.0  0.1128
  H  H54  1  0.180900  0.857100  0.575800  1.0  0.2075
  H  H55  1  0.351900  0.027800  0.641100  1.0  0.1083
  H  H56  1  0.624700  0.265500  0.942200  1.0  0.1106
  H  H57  1  0.645100  0.325700  0.176100  1.0  0.1228
  H  H58  1  0.481800  0.154100  0.109100  1.0  0.1697
  H  H59  1  0.720100  0.449400  0.492600  1.0  0.2089
  H  H60  1  0.817700  0.445300  0.487300  1.0  0.0909
  H  H61  1  0.064000  0.777700  0.262600  1.0  0.0929
  H  H62  1  0.063800  0.685100  0.261900  1.0  0.1004
  H  H63  1  0.750100  0.372400  0.803400  1.0  0.1127
  H  H64  1  0.680900  0.357100  0.575800  1.0  0.2075
  H  H65  1  0.851900  0.527800  0.641100  1.0  0.1083
  H  H66  1  0.124700  0.765500  0.942200  1.0  0.1107
  H  H67  1  0.145100  0.825700  0.176100  1.0  0.1228
  H  H68  1  0.981800  0.654100  0.109100  1.0  0.1697
  H  H69  1  0.779900  0.050600  0.992600  1.0  0.2075
  H  H70  1  0.682300  0.054700  0.987300  1.0  0.0916
  H  H71  1  0.436000  0.722300  0.762600  1.0  0.0922
  H  H72  1  0.436200  0.814900  0.761900  1.0  0.1004
  H  H73  1  0.749900  0.127600  0.303400  1.0  0.1117
  H  H74  1  0.819100  0.142900  0.075800  1.0  0.2083
  H  H75  1  0.648100  0.972200  0.141100  1.0  0.1087
  H  H76  1  0.375300  0.734500  0.442200  1.0  0.1108
  H  H77  1  0.354900  0.674300  0.676100  1.0  0.1231
  H  H78  1  0.518200  0.845900  0.609100  1.0  0.17
  H  H79  1  0.279900  0.550600  0.992600  1.0  0.2075
  H  H80  1  0.182300  0.554700  0.987300  1.0  0.0916
  H  H81  1  0.936000  0.222300  0.762600  1.0  0.0922
  H  H82  1  0.936200  0.314900  0.761900  1.0  0.1004
  H  H83  1  0.249900  0.627600  0.303400  1.0  0.1116
  H  H84  1  0.319100  0.642900  0.075800  1.0  0.2083
  H  H85  1  0.148100  0.472200  0.141100  1.0  0.1087
  H  H86  1  0.875300  0.234500  0.442200  1.0  0.1109
  H  H87  1  0.854900  0.174300  0.676100  1.0  0.1231
  H  H88  1  0.018200  0.345900  0.609100  1.0  0.17
  C  C89  1  0.733800  0.970200  0.987000  1.0  -0.1083
  C  C90  1  0.463700  0.231600  0.262200  1.0  -0.122
  C  C91  1  0.636100  0.997500  0.703500  1.0  0.7186
  C  C92  1  0.869500  0.794700  0.787100  1.0  0.7151
  C  C93  1  0.686300  0.954100  0.768000  1.0  -0.1809
  C  C94  1  0.746100  0.891200  0.749100  1.0  -0.0234
  C  C95  1  0.799000  0.857400  0.807500  1.0  -0.1307
  C  C96  1  0.787700  0.880200  0.887900  1.0  -0.096
  C  C97  1  0.726900  0.938800  0.908400  1.0  0.1839
  C  C98  1  0.681200  0.981700  0.846800  1.0  -0.1257
  C  C99  1  0.489900  0.142600  0.543700  1.0  0.7141
  C  C100  1  0.298600  0.380500  0.465900  1.0  0.721
  C  C101  1  0.450600  0.194100  0.482700  1.0  -0.1664
  C  C102  1  0.391100  0.257500  0.504300  1.0  -0.0041
  C  C103  1  0.355600  0.308700  0.444200  1.0  -0.1619
  C  C104  1  0.378800  0.293200  0.364200  1.0  -0.1438
  C  C105  1  0.435900  0.231300  0.343800  1.0  0.2074
  C  C106  1  0.476000  0.187100  0.403300  1.0  -0.0748
  C  C107  1  0.233800  0.470200  0.987000  1.0  -0.1083
  C  C108  1  0.963700  0.731600  0.262200  1.0  -0.122
  C  C109  1  0.136100  0.497500  0.703500  1.0  0.7186
  C  C110  1  0.369500  0.294700  0.787100  1.0  0.7151
  C  C111  1  0.186300  0.454100  0.768000  1.0  -0.1809
  C  C112  1  0.246100  0.391200  0.749100  1.0  -0.0234
  C  C113  1  0.299000  0.357400  0.807500  1.0  -0.1307
  C  C114  1  0.287700  0.380200  0.887900  1.0  -0.096
  C  C115  1  0.226900  0.438800  0.908400  1.0  0.1839
  C  C116  1  0.181200  0.481700  0.846800  1.0  -0.1257
  C  C117  1  0.989900  0.642600  0.543700  1.0  0.7141
  C  C118  1  0.798600  0.880500  0.465900  1.0  0.721
  C  C119  1  0.950600  0.694100  0.482700  1.0  -0.1664
  C  C120  1  0.891100  0.757500  0.504300  1.0  -0.0041
  C  C121  1  0.855600  0.808700  0.444200  1.0  -0.1619
  C  C122  1  0.878800  0.793200  0.364200  1.0  -0.1438
  C  C123  1  0.935900  0.731300  0.343800  1.0  0.2074
  C  C124  1  0.976000  0.687100  0.403300  1.0  -0.0748
  C  C125  1  0.266200  0.029800  0.487000  1.0  -0.1032
  C  C126  1  0.536300  0.768400  0.762200  1.0  -0.1184
  C  C127  1  0.363900  0.002500  0.203500  1.0  0.7167
  C  C128  1  0.130500  0.205300  0.287100  1.0  0.7145
  C  C129  1  0.313700  0.045900  0.268000  1.0  -0.1812
  C  C130  1  0.253900  0.108800  0.249100  1.0  -0.0211
  C  C131  1  0.201000  0.142600  0.307500  1.0  -0.1301
  C  C132  1  0.212300  0.119800  0.387900  1.0  -0.0956
  C  C133  1  0.273100  0.061200  0.408400  1.0  0.181
  C  C134  1  0.318800  0.018300  0.346800  1.0  -0.1224
  C  C135  1  0.510100  0.857400  0.043700  1.0  0.7142
  C  C136  1  0.701400  0.619500  0.965900  1.0  0.7211
  C  C137  1  0.549400  0.805900  0.982700  1.0  -0.1657
  C  C138  1  0.608900  0.742500  0.004300  1.0  -0.0038
  C  C139  1  0.644400  0.691300  0.944200  1.0  -0.161
  C  C140  1  0.621200  0.706800  0.864200  1.0  -0.1442
  C  C141  1  0.564100  0.768700  0.843800  1.0  0.2086
  C  C142  1  0.524000  0.812900  0.903300  1.0  -0.0747
  C  C143  1  0.766200  0.529800  0.487000  1.0  -0.1032
  C  C144  1  0.036300  0.268400  0.762200  1.0  -0.1184
  C  C145  1  0.863900  0.502500  0.203500  1.0  0.7167
  C  C146  1  0.630500  0.705300  0.287100  1.0  0.7145
  C  C147  1  0.813700  0.545900  0.268000  1.0  -0.1812
  C  C148  1  0.753900  0.608800  0.249100  1.0  -0.0211
  C  C149  1  0.701000  0.642600  0.307500  1.0  -0.1301
  C  C150  1  0.712300  0.619800  0.387900  1.0  -0.0956
  C  C151  1  0.773100  0.561200  0.408400  1.0  0.181
  C  C152  1  0.818800  0.518300  0.346800  1.0  -0.1224
  C  C153  1  0.010100  0.357400  0.043700  1.0  0.7142
  C  C154  1  0.201400  0.119500  0.965900  1.0  0.7211
  C  C155  1  0.049400  0.305900  0.982700  1.0  -0.1657
  C  C156  1  0.108900  0.242500  0.004300  1.0  -0.0038
  C  C157  1  0.144400  0.191300  0.944200  1.0  -0.161
  C  C158  1  0.121200  0.206800  0.864200  1.0  -0.1442
  C  C159  1  0.064100  0.268700  0.843800  1.0  0.2086
  C  C160  1  0.024000  0.312900  0.903300  1.0  -0.0747
  C  C161  1  0.363900  0.997500  0.796500  1.0  0.7166
  C  C162  1  0.130500  0.794700  0.712900  1.0  0.7147
  C  C163  1  0.313700  0.954100  0.732000  1.0  -0.1818
  C  C164  1  0.253900  0.891200  0.750900  1.0  -0.0234
  C  C165  1  0.201000  0.857400  0.692500  1.0  -0.1316
  C  C166  1  0.212300  0.880200  0.612100  1.0  -0.0967
  C  C167  1  0.273100  0.938800  0.591600  1.0  0.2039
  C  C168  1  0.318800  0.981700  0.653200  1.0  -0.124
  C  C169  1  0.510100  0.142600  0.956300  1.0  0.7156
  C  C170  1  0.701400  0.380500  0.034100  1.0  0.7212
  C  C171  1  0.549400  0.194100  0.017300  1.0  -0.166
  C  C172  1  0.608900  0.257500  0.995700  1.0  -0.0063
  C  C173  1  0.644400  0.308700  0.055800  1.0  -0.1596
  C  C174  1  0.621200  0.293200  0.135800  1.0  -0.1426
  C  C175  1  0.564100  0.231300  0.156200  1.0  0.1974
  C  C176  1  0.524000  0.187100  0.096700  1.0  -0.074
  C  C177  1  0.863900  0.497500  0.796500  1.0  0.7166
  C  C178  1  0.630500  0.294700  0.712900  1.0  0.7147
  C  C179  1  0.813700  0.454100  0.732000  1.0  -0.1818
  C  C180  1  0.753900  0.391200  0.750900  1.0  -0.0234
  C  C181  1  0.701000  0.357400  0.692500  1.0  -0.1316
  C  C182  1  0.712300  0.380200  0.612100  1.0  -0.0967
  C  C183  1  0.773100  0.438800  0.591600  1.0  0.2039
  C  C184  1  0.818800  0.481700  0.653200  1.0  -0.124
  C  C185  1  0.010100  0.642600  0.956300  1.0  0.7156
  C  C186  1  0.201400  0.880500  0.034100  1.0  0.7212
  C  C187  1  0.049400  0.694100  0.017300  1.0  -0.166
  C  C188  1  0.108900  0.757500  0.995700  1.0  -0.0063
  C  C189  1  0.144400  0.808700  0.055800  1.0  -0.1596
  C  C190  1  0.121200  0.793200  0.135800  1.0  -0.1426
  C  C191  1  0.064100  0.731300  0.156200  1.0  0.1974
  C  C192  1  0.024000  0.687100  0.096700  1.0  -0.074
  C  C193  1  0.636100  0.002500  0.296500  1.0  0.7184
  C  C194  1  0.869500  0.205300  0.212900  1.0  0.7148
  C  C195  1  0.686300  0.045900  0.232000  1.0  -0.1809
  C  C196  1  0.746100  0.108800  0.250900  1.0  -0.0242
  C  C197  1  0.799000  0.142600  0.192500  1.0  -0.1312
  C  C198  1  0.787700  0.119800  0.112100  1.0  -0.0966
  C  C199  1  0.726900  0.061200  0.091600  1.0  0.2086
  C  C200  1  0.681200  0.018300  0.153200  1.0  -0.1224
  C  C201  1  0.489900  0.857400  0.456300  1.0  0.7146
  C  C202  1  0.298600  0.619500  0.534100  1.0  0.7216
  C  C203  1  0.450600  0.805900  0.517300  1.0  -0.1662
  C  C204  1  0.391100  0.742500  0.495700  1.0  -0.0052
  C  C205  1  0.355600  0.691300  0.555800  1.0  -0.1628
  C  C206  1  0.378800  0.706800  0.635800  1.0  -0.1437
  C  C207  1  0.435900  0.768700  0.656200  1.0  0.1949
  C  C208  1  0.476000  0.812900  0.596700  1.0  -0.0747
  C  C209  1  0.136100  0.502500  0.296500  1.0  0.7184
  C  C210  1  0.369500  0.705300  0.212900  1.0  0.7148
  C  C211  1  0.186300  0.545900  0.232000  1.0  -0.1809
  C  C212  1  0.246100  0.608800  0.250900  1.0  -0.0242
  C  C213  1  0.299000  0.642600  0.192500  1.0  -0.1312
  C  C214  1  0.287700  0.619800  0.112100  1.0  -0.0966
  C  C215  1  0.226900  0.561200  0.091600  1.0  0.2086
  C  C216  1  0.181200  0.518300  0.153200  1.0  -0.1224
  C  C217  1  0.989900  0.357400  0.456300  1.0  0.7146
  C  C218  1  0.798600  0.119500  0.534100  1.0  0.7216
  C  C219  1  0.950600  0.305900  0.517300  1.0  -0.1662
  C  C220  1  0.891100  0.242500  0.495700  1.0  -0.0052
  C  C221  1  0.855600  0.191300  0.555800  1.0  -0.1628
  C  C222  1  0.878800  0.206800  0.635800  1.0  -0.1437
  C  C223  1  0.935900  0.268700  0.656200  1.0  0.1949
  C  C224  1  0.976000  0.312900  0.596700  1.0  -0.0747
  O  O225  1  0.631600  0.965700  0.636200  1.0  -0.698
  O  O226  1  0.604500  0.065700  0.721800  1.0  -0.706
  O  O227  1  0.855400  0.748600  0.725300  1.0  -0.6926
  O  O228  1  0.933500  0.780000  0.833500  1.0  -0.6831
  O  O229  1  0.554100  0.096000  0.523500  1.0  -0.7302
  O  O230  1  0.455300  0.144600  0.615100  1.0  -0.7121
  O  O231  1  0.274200  0.426500  0.415500  1.0  -0.5889
  O  O232  1  0.268600  0.384800  0.535800  1.0  -0.6753
  O  O233  1  0.733800  0.029800  0.013000  1.0  -0.142
  O  O234  1  0.536300  0.231600  0.237800  1.0  -0.1831
  O  O235  1  0.131600  0.465700  0.636200  1.0  -0.698
  O  O236  1  0.104500  0.565700  0.721800  1.0  -0.706
  O  O237  1  0.355400  0.248600  0.725300  1.0  -0.6927
  O  O238  1  0.433500  0.280000  0.833500  1.0  -0.6831
  O  O239  1  0.054100  0.596000  0.523500  1.0  -0.7302
  O  O240  1  0.955300  0.644600  0.615100  1.0  -0.7121
  O  O241  1  0.774200  0.926500  0.415500  1.0  -0.5889
  O  O242  1  0.768600  0.884800  0.535800  1.0  -0.6754
  O  O243  1  0.233800  0.529800  0.013000  1.0  -0.142
  O  O244  1  0.036300  0.731600  0.237800  1.0  -0.1831
  O  O245  1  0.368400  0.034300  0.136200  1.0  -0.6996
  O  O246  1  0.395500  0.934300  0.221800  1.0  -0.7075
  O  O247  1  0.144600  0.251400  0.225300  1.0  -0.6923
  O  O248  1  0.066500  0.220000  0.333500  1.0  -0.6816
  O  O249  1  0.445900  0.904000  0.023500  1.0  -0.7322
  O  O250  1  0.544700  0.855400  0.115100  1.0  -0.712
  O  O251  1  0.725800  0.573500  0.915500  1.0  -0.5912
  O  O252  1  0.731400  0.615200  0.035800  1.0  -0.6737
  O  O253  1  0.266200  0.970200  0.513000  1.0  -0.1419
  O  O254  1  0.463700  0.768400  0.737800  1.0  -0.1818
  O  O255  1  0.868400  0.534300  0.136200  1.0  -0.6996
  O  O256  1  0.895500  0.434300  0.221800  1.0  -0.7075
  O  O257  1  0.644600  0.751400  0.225300  1.0  -0.6924
  O  O258  1  0.566500  0.720000  0.333500  1.0  -0.6816
  O  O259  1  0.945900  0.404000  0.023500  1.0  -0.7322
  O  O260  1  0.044700  0.355400  0.115100  1.0  -0.712
  O  O261  1  0.225800  0.073500  0.915500  1.0  -0.5912
  O  O262  1  0.231400  0.115200  0.035800  1.0  -0.6738
  O  O263  1  0.766200  0.470200  0.513000  1.0  -0.1419
  O  O264  1  0.963700  0.268400  0.737800  1.0  -0.1818
  O  O265  1  0.368400  0.965700  0.863800  1.0  -0.6991
  O  O266  1  0.395500  0.065700  0.778200  1.0  -0.7085
  O  O267  1  0.144600  0.748600  0.774700  1.0  -0.6904
  O  O268  1  0.066500  0.780000  0.666500  1.0  -0.6825
  O  O269  1  0.445900  0.096000  0.976500  1.0  -0.7324
  O  O270  1  0.544700  0.144600  0.884900  1.0  -0.7127
  O  O271  1  0.725800  0.426500  0.084500  1.0  -0.5919
  O  O272  1  0.731400  0.384800  0.964200  1.0  -0.6731
  O  O273  1  0.868400  0.465700  0.863800  1.0  -0.6991
  O  O274  1  0.895500  0.565700  0.778200  1.0  -0.7085
  O  O275  1  0.644600  0.248600  0.774700  1.0  -0.6905
  O  O276  1  0.566500  0.280000  0.666500  1.0  -0.6825
  O  O277  1  0.945900  0.596000  0.976500  1.0  -0.7324
  O  O278  1  0.044700  0.644600  0.884900  1.0  -0.7127
  O  O279  1  0.225800  0.926500  0.084500  1.0  -0.5919
  O  O280  1  0.231400  0.884800  0.964200  1.0  -0.6733
  O  O281  1  0.631600  0.034300  0.363800  1.0  -0.6974
  O  O282  1  0.604500  0.934300  0.278200  1.0  -0.7058
  O  O283  1  0.855400  0.251400  0.274700  1.0  -0.6908
  O  O284  1  0.933500  0.220000  0.166500  1.0  -0.6826
  O  O285  1  0.554100  0.904000  0.476500  1.0  -0.7311
  O  O286  1  0.455300  0.855400  0.384900  1.0  -0.7125
  O  O287  1  0.274200  0.573500  0.584500  1.0  -0.5909
  O  O288  1  0.268600  0.615200  0.464200  1.0  -0.6746
  O  O289  1  0.131600  0.534300  0.363800  1.0  -0.6974
  O  O290  1  0.104500  0.434300  0.278200  1.0  -0.7058
  O  O291  1  0.355400  0.751400  0.274700  1.0  -0.6909
  O  O292  1  0.433500  0.720000  0.166500  1.0  -0.6826
  O  O293  1  0.054100  0.404000  0.476500  1.0  -0.7311
  O  O294  1  0.955300  0.355400  0.384900  1.0  -0.7125
  O  O295  1  0.774200  0.073500  0.584500  1.0  -0.5909
  O  O296  1  0.768600  0.115200  0.464200  1.0  -0.6747
