# generated using pymatgen
data_PrH10(C9O4)2
_symmetry_space_group_name_H-M   'P 1'
_cell_length_a   14.66500000
_cell_length_b   16.79490000
_cell_length_c   16.72920000
_cell_angle_alpha   90.00000000
_cell_angle_beta   90.00000000
_cell_angle_gamma   90.00000000
_symmetry_Int_Tables_number   1
_chemical_formula_structural   PrH10(C9O4)2
_chemical_formula_sum   'Pr8 H80 C144 O64'
_cell_volume   4120.35526044
_cell_formula_units_Z   8
loop_
 _symmetry_equiv_pos_site_id
 _symmetry_equiv_pos_as_xyz
  1  'x, y, z'
loop_
 _atom_site_type_symbol
 _atom_site_label
 _atom_site_symmetry_multiplicity
 _atom_site_fract_x
 _atom_site_fract_y
 _atom_site_fract_z
 _atom_site_occupancy
 _atom_site_charge
  Pr  Pr1  1  0.000000  0.331630  0.250000  1.0  2.2442
  Pr  Pr2  1  0.500000  0.831630  0.250000  1.0  2.2446
  Pr  Pr3  1  0.000000  0.668370  0.750000  1.0  2.2428
  Pr  Pr4  1  0.500000  0.168370  0.750000  1.0  2.2431
  Pr  Pr5  1  0.837650  0.500000  0.000000  1.0  2.2339
  Pr  Pr6  1  0.337650  0.000000  0.000000  1.0  2.2339
  Pr  Pr7  1  0.162350  0.500000  0.500000  1.0  2.2324
  Pr  Pr8  1  0.662350  0.000000  0.500000  1.0  2.2324
  H  H9  1  0.061200  0.235600  0.742000  1.0  0.1689
  H  H10  1  0.067100  0.317400  0.737600  1.0  0.0961
  H  H11  1  0.735000  0.556200  0.510200  1.0  0.1948
  H  H12  1  0.831300  0.558900  0.510000  1.0  0.1056
  H  H13  1  0.123800  0.235100  0.056200  1.0  0.1132
  H  H14  1  0.137100  0.171600  0.825200  1.0  0.1364
  H  H15  1  0.979400  0.351500  0.890700  1.0  0.1014
  H  H16  1  0.750000  0.623800  0.196300  1.0  0.117
  H  H17  1  0.681900  0.640600  0.425300  1.0  0.2015
  H  H18  1  0.859000  0.475800  0.360400  1.0  0.1292
  H  H19  1  0.561200  0.735600  0.742000  1.0  0.1689
  H  H20  1  0.567100  0.817400  0.737600  1.0  0.0961
  H  H21  1  0.235000  0.056200  0.510200  1.0  0.1948
  H  H22  1  0.331300  0.058900  0.510000  1.0  0.1056
  H  H23  1  0.623800  0.735100  0.056200  1.0  0.1133
  H  H24  1  0.637100  0.671600  0.825200  1.0  0.1364
  H  H25  1  0.479400  0.851500  0.890700  1.0  0.1014
  H  H26  1  0.250000  0.123800  0.196300  1.0  0.1169
  H  H27  1  0.181900  0.140600  0.425300  1.0  0.2015
  H  H28  1  0.359000  0.975800  0.360400  1.0  0.1292
  H  H29  1  0.938800  0.764400  0.242000  1.0  0.1694
  H  H30  1  0.932900  0.682600  0.237600  1.0  0.0946
  H  H31  1  0.265000  0.443800  0.010200  1.0  0.193
  H  H32  1  0.168700  0.441100  0.010000  1.0  0.1054
  H  H33  1  0.876200  0.764900  0.556200  1.0  0.113
  H  H34  1  0.862900  0.828400  0.325200  1.0  0.136
  H  H35  1  0.020600  0.648500  0.390700  1.0  0.1007
  H  H36  1  0.250000  0.376200  0.696300  1.0  0.117
  H  H37  1  0.318100  0.359400  0.925300  1.0  0.2001
  H  H38  1  0.141000  0.524200  0.860400  1.0  0.1297
  H  H39  1  0.438800  0.264400  0.242000  1.0  0.1694
  H  H40  1  0.432900  0.182600  0.237600  1.0  0.0946
  H  H41  1  0.765000  0.943800  0.010200  1.0  0.193
  H  H42  1  0.668700  0.941100  0.010000  1.0  0.1054
  H  H43  1  0.376200  0.264900  0.556200  1.0  0.1131
  H  H44  1  0.362900  0.328400  0.325200  1.0  0.136
  H  H45  1  0.520600  0.148500  0.390700  1.0  0.1007
  H  H46  1  0.750000  0.876200  0.696300  1.0  0.1169
  H  H47  1  0.818100  0.859400  0.925300  1.0  0.2001
  H  H48  1  0.641000  0.024200  0.860400  1.0  0.1297
  H  H49  1  0.938800  0.235600  0.758000  1.0  0.1716
  H  H50  1  0.932900  0.317400  0.762400  1.0  0.0991
  H  H51  1  0.265000  0.556200  0.989800  1.0  0.1931
  H  H52  1  0.168700  0.558900  0.990000  1.0  0.1064
  H  H53  1  0.876200  0.235100  0.443800  1.0  0.113
  H  H54  1  0.862900  0.171600  0.674800  1.0  0.1363
  H  H55  1  0.020600  0.351500  0.609300  1.0  0.1009
  H  H56  1  0.250000  0.623800  0.303700  1.0  0.1164
  H  H57  1  0.318100  0.640600  0.074700  1.0  0.2005
  H  H58  1  0.141000  0.475800  0.139600  1.0  0.1292
  H  H59  1  0.438800  0.735600  0.758000  1.0  0.1716
  H  H60  1  0.432900  0.817400  0.762400  1.0  0.0991
  H  H61  1  0.765000  0.056200  0.989800  1.0  0.1931
  H  H62  1  0.668700  0.058900  0.990000  1.0  0.1064
  H  H63  1  0.376200  0.735100  0.443800  1.0  0.113
  H  H64  1  0.362900  0.671600  0.674800  1.0  0.1363
  H  H65  1  0.520600  0.851500  0.609300  1.0  0.1009
  H  H66  1  0.750000  0.123800  0.303700  1.0  0.1163
  H  H67  1  0.818100  0.140600  0.074700  1.0  0.2005
  H  H68  1  0.641000  0.975800  0.139600  1.0  0.1292
  H  H69  1  0.061200  0.764400  0.258000  1.0  0.1684
  H  H70  1  0.067100  0.682600  0.262400  1.0  0.0951
  H  H71  1  0.735000  0.443800  0.489800  1.0  0.1947
  H  H72  1  0.831300  0.441100  0.490000  1.0  0.1037
  H  H73  1  0.123800  0.764900  0.943800  1.0  0.1124
  H  H74  1  0.137100  0.828400  0.174800  1.0  0.1353
  H  H75  1  0.979400  0.648500  0.109300  1.0  0.1015
  H  H76  1  0.750000  0.376200  0.803700  1.0  0.1173
  H  H77  1  0.681900  0.359400  0.574700  1.0  0.2006
  H  H78  1  0.859000  0.524200  0.639600  1.0  0.1291
  H  H79  1  0.561200  0.264400  0.258000  1.0  0.1684
  H  H80  1  0.567100  0.182600  0.262400  1.0  0.0951
  H  H81  1  0.235000  0.943800  0.489800  1.0  0.1947
  H  H82  1  0.331300  0.941100  0.490000  1.0  0.1037
  H  H83  1  0.623800  0.264900  0.943800  1.0  0.1125
  H  H84  1  0.637100  0.328400  0.174800  1.0  0.1353
  H  H85  1  0.479400  0.148500  0.109300  1.0  0.1015
  H  H86  1  0.250000  0.876200  0.803700  1.0  0.1172
  H  H87  1  0.181900  0.859400  0.574700  1.0  0.2006
  H  H88  1  0.359000  0.024200  0.639600  1.0  0.1291
  C  C89  1  0.039200  0.271200  0.761000  1.0  -0.0767
  C  C90  1  0.777100  0.535500  0.488000  1.0  -0.1046
  C  C91  1  0.010700  0.356900  0.043400  1.0  0.7221
  C  C92  1  0.200400  0.123300  0.963400  1.0  0.7235
  C  C93  1  0.050100  0.306400  0.980800  1.0  -0.135
  C  C94  1  0.108500  0.242800  0.002800  1.0  0.0168
  C  C95  1  0.142700  0.192200  0.944500  1.0  -0.1107
  C  C96  1  0.118200  0.207100  0.864400  1.0  -0.1352
  C  C97  1  0.066400  0.273300  0.841800  1.0  0.1129
  C  C98  1  0.025500  0.315500  0.903200  1.0  -0.159
  C  C99  1  0.862500  0.503300  0.205700  1.0  0.7086
  C  C100  1  0.633400  0.706500  0.287800  1.0  0.7248
  C  C101  1  0.812900  0.545900  0.268600  1.0  -0.1226
  C  C102  1  0.754200  0.606700  0.249000  1.0  -0.0826
  C  C103  1  0.701000  0.643000  0.307800  1.0  -0.1179
  C  C104  1  0.713800  0.619000  0.388800  1.0  -0.087
  C  C105  1  0.776300  0.562200  0.409000  1.0  0.1936
  C  C106  1  0.822900  0.519700  0.348200  1.0  -0.2041
  C  C107  1  0.539200  0.771200  0.761000  1.0  -0.0767
  C  C108  1  0.277100  0.035500  0.488000  1.0  -0.1046
  C  C109  1  0.510700  0.856900  0.043400  1.0  0.7221
  C  C110  1  0.700400  0.623300  0.963400  1.0  0.7235
  C  C111  1  0.550100  0.806400  0.980800  1.0  -0.135
  C  C112  1  0.608500  0.742800  0.002800  1.0  0.0168
  C  C113  1  0.642700  0.692200  0.944500  1.0  -0.1107
  C  C114  1  0.618200  0.707100  0.864400  1.0  -0.1352
  C  C115  1  0.566400  0.773300  0.841800  1.0  0.1129
  C  C116  1  0.525500  0.815500  0.903200  1.0  -0.159
  C  C117  1  0.362500  0.003300  0.205700  1.0  0.7086
  C  C118  1  0.133400  0.206500  0.287800  1.0  0.7248
  C  C119  1  0.312900  0.045900  0.268600  1.0  -0.1226
  C  C120  1  0.254200  0.106700  0.249000  1.0  -0.0826
  C  C121  1  0.201000  0.143000  0.307800  1.0  -0.1179
  C  C122  1  0.213800  0.119000  0.388800  1.0  -0.087
  C  C123  1  0.276300  0.062200  0.409000  1.0  0.1936
  C  C124  1  0.322900  0.019700  0.348200  1.0  -0.2041
  C  C125  1  0.960800  0.728800  0.261000  1.0  -0.0776
  C  C126  1  0.222900  0.464500  0.988000  1.0  -0.1061
  C  C127  1  0.989300  0.643100  0.543400  1.0  0.7232
  C  C128  1  0.799600  0.876700  0.463400  1.0  0.7245
  C  C129  1  0.949900  0.693600  0.480800  1.0  -0.1352
  C  C130  1  0.891500  0.757200  0.502800  1.0  0.0171
  C  C131  1  0.857300  0.807800  0.444500  1.0  -0.1114
  C  C132  1  0.881800  0.792900  0.364400  1.0  -0.1351
  C  C133  1  0.933600  0.726700  0.341800  1.0  0.1142
  C  C134  1  0.974500  0.684500  0.403200  1.0  -0.1593
  C  C135  1  0.137500  0.496700  0.705700  1.0  0.7112
  C  C136  1  0.366600  0.293500  0.787800  1.0  0.7236
  C  C137  1  0.187100  0.454100  0.768600  1.0  -0.1217
  C  C138  1  0.245800  0.393300  0.749000  1.0  -0.0823
  C  C139  1  0.299000  0.357000  0.807800  1.0  -0.1174
  C  C140  1  0.286200  0.381000  0.888800  1.0  -0.086
  C  C141  1  0.223700  0.437800  0.909000  1.0  0.1947
  C  C142  1  0.177100  0.480300  0.848200  1.0  -0.2036
  C  C143  1  0.460800  0.228800  0.261000  1.0  -0.0776
  C  C144  1  0.722900  0.964500  0.988000  1.0  -0.1061
  C  C145  1  0.489300  0.143100  0.543400  1.0  0.7232
  C  C146  1  0.299600  0.376700  0.463400  1.0  0.7245
  C  C147  1  0.449900  0.193600  0.480800  1.0  -0.1352
  C  C148  1  0.391500  0.257200  0.502800  1.0  0.0171
  C  C149  1  0.357300  0.307800  0.444500  1.0  -0.1114
  C  C150  1  0.381800  0.292900  0.364400  1.0  -0.1351
  C  C151  1  0.433600  0.226700  0.341800  1.0  0.1142
  C  C152  1  0.474500  0.184500  0.403200  1.0  -0.1593
  C  C153  1  0.637500  0.996700  0.705700  1.0  0.7112
  C  C154  1  0.866600  0.793500  0.787800  1.0  0.7236
  C  C155  1  0.687100  0.954100  0.768600  1.0  -0.1217
  C  C156  1  0.745800  0.893300  0.749000  1.0  -0.0823
  C  C157  1  0.799000  0.857000  0.807800  1.0  -0.1174
  C  C158  1  0.786200  0.881000  0.888800  1.0  -0.086
  C  C159  1  0.723700  0.937800  0.909000  1.0  0.1947
  C  C160  1  0.677100  0.980300  0.848200  1.0  -0.2036
  C  C161  1  0.960800  0.271200  0.739000  1.0  -0.0771
  C  C162  1  0.222900  0.535500  0.012000  1.0  -0.1042
  C  C163  1  0.989300  0.356900  0.456600  1.0  0.7224
  C  C164  1  0.799600  0.123300  0.536600  1.0  0.7246
  C  C165  1  0.949900  0.306400  0.519200  1.0  -0.1346
  C  C166  1  0.891500  0.242800  0.497200  1.0  0.0164
  C  C167  1  0.857300  0.192200  0.555500  1.0  -0.1109
  C  C168  1  0.881800  0.207100  0.635600  1.0  -0.1353
  C  C169  1  0.933600  0.273300  0.658200  1.0  0.1142
  C  C170  1  0.974500  0.315500  0.596800  1.0  -0.1587
  C  C171  1  0.137500  0.503300  0.294300  1.0  0.7109
  C  C172  1  0.366600  0.706500  0.212200  1.0  0.7245
  C  C173  1  0.187100  0.545900  0.231400  1.0  -0.1211
  C  C174  1  0.245800  0.606700  0.251000  1.0  -0.0831
  C  C175  1  0.299000  0.643000  0.192200  1.0  -0.119
  C  C176  1  0.286200  0.619000  0.111200  1.0  -0.0846
  C  C177  1  0.223700  0.562200  0.091000  1.0  0.1897
  C  C178  1  0.177100  0.519700  0.151800  1.0  -0.2053
  C  C179  1  0.460800  0.771200  0.739000  1.0  -0.0771
  C  C180  1  0.722900  0.035500  0.012000  1.0  -0.1042
  C  C181  1  0.489300  0.856900  0.456600  1.0  0.7224
  C  C182  1  0.299600  0.623300  0.536600  1.0  0.7246
  C  C183  1  0.449900  0.806400  0.519200  1.0  -0.1346
  C  C184  1  0.391500  0.742800  0.497200  1.0  0.0164
  C  C185  1  0.357300  0.692200  0.555500  1.0  -0.1109
  C  C186  1  0.381800  0.707100  0.635600  1.0  -0.1353
  C  C187  1  0.433600  0.773300  0.658200  1.0  0.1142
  C  C188  1  0.474500  0.815500  0.596800  1.0  -0.1587
  C  C189  1  0.637500  0.003300  0.294300  1.0  0.7109
  C  C190  1  0.866600  0.206500  0.212200  1.0  0.7245
  C  C191  1  0.687100  0.045900  0.231400  1.0  -0.1211
  C  C192  1  0.745800  0.106700  0.251000  1.0  -0.0831
  C  C193  1  0.799000  0.143000  0.192200  1.0  -0.119
  C  C194  1  0.786200  0.119000  0.111200  1.0  -0.0846
  C  C195  1  0.723700  0.062200  0.091000  1.0  0.1897
  C  C196  1  0.677100  0.019700  0.151800  1.0  -0.2053
  C  C197  1  0.039200  0.728800  0.239000  1.0  -0.0783
  C  C198  1  0.777100  0.464500  0.512000  1.0  -0.1044
  C  C199  1  0.010700  0.643100  0.956600  1.0  0.7226
  C  C200  1  0.200400  0.876700  0.036600  1.0  0.7245
  C  C201  1  0.050100  0.693600  0.019200  1.0  -0.1354
  C  C202  1  0.108500  0.757200  0.997200  1.0  0.0161
  C  C203  1  0.142700  0.807800  0.055500  1.0  -0.1087
  C  C204  1  0.118200  0.792900  0.135600  1.0  -0.1334
  C  C205  1  0.066400  0.726700  0.158200  1.0  0.1143
  C  C206  1  0.025500  0.684500  0.096800  1.0  -0.1592
  C  C207  1  0.862500  0.496700  0.794300  1.0  0.7085
  C  C208  1  0.633400  0.293500  0.712200  1.0  0.7243
  C  C209  1  0.812900  0.454100  0.731400  1.0  -0.121
  C  C210  1  0.754200  0.393300  0.751000  1.0  -0.0842
  C  C211  1  0.701000  0.357000  0.692200  1.0  -0.1187
  C  C212  1  0.713800  0.381000  0.611200  1.0  -0.0862
  C  C213  1  0.776300  0.437800  0.591000  1.0  0.1913
  C  C214  1  0.822900  0.480300  0.651800  1.0  -0.2033
  C  C215  1  0.539200  0.228800  0.239000  1.0  -0.0783
  C  C216  1  0.277100  0.964500  0.512000  1.0  -0.1044
  C  C217  1  0.510700  0.143100  0.956600  1.0  0.7226
  C  C218  1  0.700400  0.376700  0.036600  1.0  0.7245
  C  C219  1  0.550100  0.193600  0.019200  1.0  -0.1354
  C  C220  1  0.608500  0.257200  0.997200  1.0  0.0161
  C  C221  1  0.642700  0.307800  0.055500  1.0  -0.1087
  C  C222  1  0.618200  0.292900  0.135600  1.0  -0.1334
  C  C223  1  0.566400  0.226700  0.158200  1.0  0.1143
  C  C224  1  0.525500  0.184500  0.096800  1.0  -0.1592
  C  C225  1  0.362500  0.996700  0.794300  1.0  0.7085
  C  C226  1  0.133400  0.793500  0.712200  1.0  0.7243
  C  C227  1  0.312900  0.954100  0.731400  1.0  -0.121
  C  C228  1  0.254200  0.893300  0.751000  1.0  -0.0842
  C  C229  1  0.201000  0.857000  0.692200  1.0  -0.1187
  C  C230  1  0.213800  0.881000  0.611200  1.0  -0.0862
  C  C231  1  0.276300  0.937800  0.591000  1.0  0.1913
  C  C232  1  0.322900  0.980300  0.651800  1.0  -0.2033
  O  O233  1  0.948600  0.401600  0.022600  1.0  -0.6798
  O  O234  1  0.046000  0.354500  0.112900  1.0  -0.7099
  O  O235  1  0.229200  0.114700  0.033200  1.0  -0.6786
  O  O236  1  0.223200  0.074500  0.914300  1.0  -0.6346
  O  O237  1  0.868500  0.535100  0.137900  1.0  -0.7091
  O  O238  1  0.895000  0.435600  0.221900  1.0  -0.7245
  O  O239  1  0.570100  0.721000  0.334700  1.0  -0.6789
  O  O240  1  0.645100  0.750600  0.225900  1.0  -0.6555
  O  O241  1  0.448600  0.901600  0.022600  1.0  -0.6798
  O  O242  1  0.546000  0.854500  0.112900  1.0  -0.7099
  O  O243  1  0.729200  0.614700  0.033200  1.0  -0.679
  O  O244  1  0.723200  0.574500  0.914300  1.0  -0.6346
  O  O245  1  0.368500  0.035100  0.137900  1.0  -0.7091
  O  O246  1  0.395000  0.935600  0.221900  1.0  -0.7245
  O  O247  1  0.070100  0.221000  0.334700  1.0  -0.6789
  O  O248  1  0.145100  0.250600  0.225900  1.0  -0.6551
  O  O249  1  0.051400  0.598400  0.522600  1.0  -0.6763
  O  O250  1  0.954000  0.645500  0.612900  1.0  -0.7096
  O  O251  1  0.770800  0.885300  0.533200  1.0  -0.6806
  O  O252  1  0.776800  0.925500  0.414300  1.0  -0.6338
  O  O253  1  0.131500  0.464900  0.637900  1.0  -0.7085
  O  O254  1  0.105000  0.564400  0.721900  1.0  -0.723
  O  O255  1  0.429900  0.279000  0.834700  1.0  -0.6803
  O  O256  1  0.354900  0.249400  0.725900  1.0  -0.6543
  O  O257  1  0.551400  0.098400  0.522600  1.0  -0.6763
  O  O258  1  0.454000  0.145500  0.612900  1.0  -0.7096
  O  O259  1  0.270800  0.385300  0.533200  1.0  -0.681
  O  O260  1  0.276800  0.425500  0.414300  1.0  -0.6338
  O  O261  1  0.631500  0.964900  0.637900  1.0  -0.7085
  O  O262  1  0.605000  0.064400  0.721900  1.0  -0.723
  O  O263  1  0.929900  0.779000  0.834700  1.0  -0.6803
  O  O264  1  0.854900  0.749400  0.725900  1.0  -0.6541
  O  O265  1  0.051400  0.401600  0.477400  1.0  -0.6783
  O  O266  1  0.954000  0.354500  0.387100  1.0  -0.7102
  O  O267  1  0.770800  0.114700  0.466800  1.0  -0.6807
  O  O268  1  0.776800  0.074500  0.585700  1.0  -0.6343
  O  O269  1  0.131500  0.535100  0.362100  1.0  -0.707
  O  O270  1  0.105000  0.435600  0.278100  1.0  -0.724
  O  O271  1  0.429900  0.721000  0.165300  1.0  -0.6812
  O  O272  1  0.354900  0.750600  0.274100  1.0  -0.6556
  O  O273  1  0.551400  0.901600  0.477400  1.0  -0.6783
  O  O274  1  0.454000  0.854500  0.387100  1.0  -0.7102
  O  O275  1  0.270800  0.614700  0.466800  1.0  -0.6812
  O  O276  1  0.276800  0.574500  0.585700  1.0  -0.6343
  O  O277  1  0.631500  0.035100  0.362100  1.0  -0.707
  O  O278  1  0.605000  0.935600  0.278100  1.0  -0.724
  O  O279  1  0.929900  0.221000  0.165300  1.0  -0.6812
  O  O280  1  0.854900  0.250600  0.274100  1.0  -0.6552
  O  O281  1  0.948600  0.598400  0.977400  1.0  -0.68
  O  O282  1  0.046000  0.645500  0.887100  1.0  -0.7099
  O  O283  1  0.229200  0.885300  0.966800  1.0  -0.6789
  O  O284  1  0.223200  0.925500  0.085700  1.0  -0.6348
  O  O285  1  0.868500  0.464900  0.862100  1.0  -0.7082
  O  O286  1  0.895000  0.564400  0.778100  1.0  -0.7242
  O  O287  1  0.570100  0.279000  0.665300  1.0  -0.6799
  O  O288  1  0.645100  0.249400  0.774100  1.0  -0.6537
  O  O289  1  0.448600  0.098400  0.977400  1.0  -0.68
  O  O290  1  0.546000  0.145500  0.887100  1.0  -0.7099
  O  O291  1  0.729200  0.385300  0.966800  1.0  -0.6794
  O  O292  1  0.723200  0.425500  0.085700  1.0  -0.6348
  O  O293  1  0.368500  0.964900  0.862100  1.0  -0.7082
  O  O294  1  0.395000  0.064400  0.778100  1.0  -0.7242
  O  O295  1  0.070100  0.779000  0.665300  1.0  -0.6799
  O  O296  1  0.145100  0.749400  0.774100  1.0  -0.6534
