# generated using pymatgen
data_CdH9C14(N3O)2
_symmetry_space_group_name_H-M   'P 1'
_cell_length_a   23.60660000
_cell_length_b   10.05990000
_cell_length_c   17.71350000
_cell_angle_alpha   90.00000000
_cell_angle_beta   124.83600000
_cell_angle_gamma   90.00000000
_symmetry_Int_Tables_number   1
_chemical_formula_structural   CdH9C14(N3O)2
_chemical_formula_sum   'Cd8 H72 C112 N48 O16'
_cell_volume   3452.73927606
_cell_formula_units_Z   8
loop_
 _symmetry_equiv_pos_site_id
 _symmetry_equiv_pos_as_xyz
  1  'x, y, z'
loop_
 _atom_site_type_symbol
 _atom_site_label
 _atom_site_symmetry_multiplicity
 _atom_site_fract_x
 _atom_site_fract_y
 _atom_site_fract_z
 _atom_site_occupancy
 _atom_site_charge
  Cd  Cd1  1  0.364310  0.400640  0.373670  1.0  0.9638
  Cd  Cd2  1  0.635690  0.400640  0.126330  1.0  0.9637
  Cd  Cd3  1  0.635690  0.599360  0.626330  1.0  0.9639
  Cd  Cd4  1  0.364310  0.599360  0.873670  1.0  0.9642
  Cd  Cd5  1  0.864310  0.900640  0.373670  1.0  0.9638
  Cd  Cd6  1  0.135690  0.900640  0.126330  1.0  0.9637
  Cd  Cd7  1  0.135690  0.099360  0.626330  1.0  0.9639
  Cd  Cd8  1  0.864310  0.099360  0.873670  1.0  0.9642
  H  H9  1  0.453900  0.804700  0.316600  1.0  0.1096
  H  H10  1  0.700200  0.325900  0.328300  1.0  0.1004
  H  H11  1  0.640300  0.120400  0.465300  1.0  0.118
  H  H12  1  0.658000  0.924000  0.414000  1.0  0.1058
  H  H13  1  0.696900  0.926200  0.320100  1.0  0.1209
  H  H14  1  0.625100  0.320200  0.518800  1.0  0.122
  H  H15  1  0.661600  0.673000  0.460600  1.0  0.1033
  H  H16  1  0.681200  0.511200  0.380100  1.0  0.2853
  H  H17  1  0.546100  0.804700  0.183400  1.0  0.1095
  H  H18  1  0.299800  0.325900  0.171700  1.0  0.1006
  H  H19  1  0.359700  0.120400  0.034700  1.0  0.1181
  H  H20  1  0.342000  0.924000  0.086000  1.0  0.1052
  H  H21  1  0.303100  0.926200  0.179900  1.0  0.1203
  H  H22  1  0.374900  0.320200  0.981200  1.0  0.1215
  H  H23  1  0.338400  0.673000  0.039400  1.0  0.1026
  H  H24  1  0.318800  0.511200  0.119900  1.0  0.2861
  H  H25  1  0.546100  0.195300  0.683400  1.0  0.1097
  H  H26  1  0.299800  0.674100  0.671700  1.0  0.1015
  H  H27  1  0.359700  0.879600  0.534700  1.0  0.1185
  H  H28  1  0.342000  0.076000  0.586000  1.0  0.1055
  H  H29  1  0.303100  0.073800  0.679900  1.0  0.1204
  H  H30  1  0.374900  0.679800  0.481200  1.0  0.1213
  H  H31  1  0.338400  0.327000  0.539400  1.0  0.1031
  H  H32  1  0.318800  0.488800  0.619900  1.0  0.286
  H  H33  1  0.453900  0.195300  0.816600  1.0  0.1097
  H  H34  1  0.700200  0.674100  0.828300  1.0  0.101
  H  H35  1  0.640300  0.879600  0.965300  1.0  0.1183
  H  H36  1  0.658000  0.076000  0.914000  1.0  0.1049
  H  H37  1  0.696900  0.073800  0.820100  1.0  0.1208
  H  H38  1  0.625100  0.679800  0.018800  1.0  0.1212
  H  H39  1  0.661600  0.327000  0.960600  1.0  0.1037
  H  H40  1  0.681200  0.488800  0.880100  1.0  0.2852
  H  H41  1  0.500000  0.920500  0.250000  1.0  0.108
  H  H42  1  0.500000  0.459400  0.250000  1.0  0.1182
  H  H43  1  0.500000  0.079500  0.750000  1.0  0.1081
  H  H44  1  0.500000  0.540600  0.750000  1.0  0.1183
  H  H45  1  0.200200  0.825900  0.328300  1.0  0.1004
  H  H46  1  0.140300  0.620400  0.465300  1.0  0.118
  H  H47  1  0.158000  0.424000  0.414000  1.0  0.1058
  H  H48  1  0.196900  0.426200  0.320100  1.0  0.1209
  H  H49  1  0.125100  0.820200  0.518800  1.0  0.122
  H  H50  1  0.161600  0.173000  0.460600  1.0  0.1033
  H  H51  1  0.181200  0.011200  0.380100  1.0  0.2853
  H  H52  1  0.953900  0.304700  0.316600  1.0  0.1096
  H  H53  1  0.799800  0.825900  0.171700  1.0  0.1006
  H  H54  1  0.859700  0.620400  0.034700  1.0  0.1181
  H  H55  1  0.842000  0.424000  0.086000  1.0  0.1052
  H  H56  1  0.803100  0.426200  0.179900  1.0  0.1203
  H  H57  1  0.874900  0.820200  0.981200  1.0  0.1215
  H  H58  1  0.838400  0.173000  0.039400  1.0  0.1026
  H  H59  1  0.818800  0.011200  0.119900  1.0  0.2861
  H  H60  1  0.046100  0.304700  0.183400  1.0  0.1095
  H  H61  1  0.799800  0.174100  0.671700  1.0  0.1015
  H  H62  1  0.859700  0.379600  0.534700  1.0  0.1185
  H  H63  1  0.842000  0.576000  0.586000  1.0  0.1055
  H  H64  1  0.803100  0.573800  0.679900  1.0  0.1204
  H  H65  1  0.874900  0.179800  0.481200  1.0  0.1213
  H  H66  1  0.838400  0.827000  0.539400  1.0  0.1031
  H  H67  1  0.818800  0.988800  0.619900  1.0  0.286
  H  H68  1  0.046100  0.695300  0.683400  1.0  0.1097
  H  H69  1  0.200200  0.174100  0.828300  1.0  0.101
  H  H70  1  0.140300  0.379600  0.965300  1.0  0.1183
  H  H71  1  0.158000  0.576000  0.914000  1.0  0.1049
  H  H72  1  0.196900  0.573800  0.820100  1.0  0.1208
  H  H73  1  0.125100  0.179800  0.018800  1.0  0.1212
  H  H74  1  0.161600  0.827000  0.960600  1.0  0.1037
  H  H75  1  0.181200  0.988800  0.880100  1.0  0.2852
  H  H76  1  0.953900  0.695300  0.816600  1.0  0.1097
  H  H77  1  0.000000  0.420500  0.250000  1.0  0.108
  H  H78  1  0.000000  0.959400  0.250000  1.0  0.1182
  H  H79  1  0.000000  0.579500  0.750000  1.0  0.1081
  H  H80  1  0.000000  0.040600  0.750000  1.0  0.1183
  C  C81  1  0.472210  0.758600  0.289700  1.0  -0.0048
  C  C82  1  0.471880  0.621700  0.289200  1.0  -0.1459
  C  C83  1  0.439800  0.546900  0.329390  1.0  0.6966
  C  C84  1  0.702080  0.126800  0.314250  1.0  -0.0519
  C  C85  1  0.691330  0.245300  0.345300  1.0  -0.0871
  C  C86  1  0.667440  0.244500  0.401630  1.0  -0.034
  C  C87  1  0.655640  0.122900  0.427200  1.0  -0.1603
  C  C88  1  0.666400  0.004600  0.396500  1.0  -0.0894
  C  C89  1  0.689640  0.005700  0.340300  1.0  -0.0599
  C  C90  1  0.725830  0.128700  0.253180  1.0  0.3442
  C  C91  1  0.656170  0.367300  0.434970  1.0  0.0678
  C  C92  1  0.636830  0.387200  0.493900  1.0  0.0235
  C  C93  1  0.656790  0.581500  0.462200  1.0  0.2125
  C  C94  1  0.527790  0.758600  0.210300  1.0  -0.0084
  C  C95  1  0.528120  0.621700  0.210800  1.0  -0.1472
  C  C96  1  0.560200  0.546900  0.170610  1.0  0.698
  C  C97  1  0.297920  0.126800  0.185750  1.0  -0.051
  C  C98  1  0.308670  0.245300  0.154700  1.0  -0.0886
  C  C99  1  0.332560  0.244500  0.098370  1.0  -0.0338
  C  C100  1  0.344360  0.122900  0.072800  1.0  -0.1583
  C  C101  1  0.333600  0.004600  0.103500  1.0  -0.0894
  C  C102  1  0.310360  0.005700  0.159700  1.0  -0.0578
  C  C103  1  0.274170  0.128700  0.246820  1.0  0.3459
  C  C104  1  0.343830  0.367300  0.065030  1.0  0.0682
  C  C105  1  0.363170  0.387200  0.006100  1.0  0.0229
  C  C106  1  0.343210  0.581500  0.037800  1.0  0.2121
  C  C107  1  0.527790  0.241400  0.710300  1.0  -0.0076
  C  C108  1  0.528120  0.378300  0.710800  1.0  -0.146
  C  C109  1  0.560200  0.453100  0.670610  1.0  0.6972
  C  C110  1  0.297920  0.873200  0.685750  1.0  -0.0507
  C  C111  1  0.308670  0.754700  0.654700  1.0  -0.0883
  C  C112  1  0.332560  0.755500  0.598370  1.0  -0.0339
  C  C113  1  0.344360  0.877100  0.572800  1.0  -0.1596
  C  C114  1  0.333600  0.995400  0.603500  1.0  -0.0879
  C  C115  1  0.310360  0.994300  0.659700  1.0  -0.0593
  C  C116  1  0.274170  0.871300  0.746820  1.0  0.3459
  C  C117  1  0.343830  0.632700  0.565030  1.0  0.0687
  C  C118  1  0.363170  0.612800  0.506100  1.0  0.0224
  C  C119  1  0.343210  0.418500  0.537800  1.0  0.2113
  C  C120  1  0.472210  0.241400  0.789700  1.0  -0.0068
  C  C121  1  0.471880  0.378300  0.789200  1.0  -0.146
  C  C122  1  0.439800  0.453100  0.829390  1.0  0.6973
  C  C123  1  0.702080  0.873200  0.814250  1.0  -0.0518
  C  C124  1  0.691330  0.754700  0.845300  1.0  -0.0872
  C  C125  1  0.667440  0.755500  0.901630  1.0  -0.034
  C  C126  1  0.655640  0.877100  0.927200  1.0  -0.1594
  C  C127  1  0.666400  0.995400  0.896500  1.0  -0.0877
  C  C128  1  0.689640  0.994300  0.840300  1.0  -0.0595
  C  C129  1  0.725830  0.871300  0.753180  1.0  0.3442
  C  C130  1  0.656170  0.632700  0.934970  1.0  0.068
  C  C131  1  0.636830  0.612800  0.993900  1.0  0.0232
  C  C132  1  0.656790  0.418500  0.962200  1.0  0.2124
  C  C133  1  0.500000  0.828100  0.250000  1.0  -0.0802
  C  C134  1  0.500000  0.551900  0.250000  1.0  0.0135
  C  C135  1  0.500000  0.171900  0.750000  1.0  -0.0789
  C  C136  1  0.500000  0.448100  0.750000  1.0  0.0101
  C  C137  1  0.202080  0.626800  0.314250  1.0  -0.0519
  C  C138  1  0.191330  0.745300  0.345300  1.0  -0.0871
  C  C139  1  0.167440  0.744500  0.401630  1.0  -0.034
  C  C140  1  0.155640  0.622900  0.427200  1.0  -0.1603
  C  C141  1  0.166400  0.504600  0.396500  1.0  -0.0894
  C  C142  1  0.189640  0.505700  0.340300  1.0  -0.0599
  C  C143  1  0.225830  0.628700  0.253180  1.0  0.3442
  C  C144  1  0.156170  0.867300  0.434970  1.0  0.0678
  C  C145  1  0.136830  0.887200  0.493900  1.0  0.0235
  C  C146  1  0.156790  0.081500  0.462200  1.0  0.2125
  C  C147  1  0.972210  0.258600  0.289700  1.0  -0.0048
  C  C148  1  0.971880  0.121700  0.289200  1.0  -0.1459
  C  C149  1  0.939800  0.046900  0.329390  1.0  0.6966
  C  C150  1  0.797920  0.626800  0.185750  1.0  -0.051
  C  C151  1  0.808670  0.745300  0.154700  1.0  -0.0886
  C  C152  1  0.832560  0.744500  0.098370  1.0  -0.0338
  C  C153  1  0.844360  0.622900  0.072800  1.0  -0.1583
  C  C154  1  0.833600  0.504600  0.103500  1.0  -0.0894
  C  C155  1  0.810360  0.505700  0.159700  1.0  -0.0578
  C  C156  1  0.774170  0.628700  0.246820  1.0  0.3459
  C  C157  1  0.843830  0.867300  0.065030  1.0  0.0682
  C  C158  1  0.863170  0.887200  0.006100  1.0  0.0229
  C  C159  1  0.843210  0.081500  0.037800  1.0  0.2121
  C  C160  1  0.027790  0.258600  0.210300  1.0  -0.0084
  C  C161  1  0.028120  0.121700  0.210800  1.0  -0.1472
  C  C162  1  0.060200  0.046900  0.170610  1.0  0.698
  C  C163  1  0.797920  0.373200  0.685750  1.0  -0.0507
  C  C164  1  0.808670  0.254700  0.654700  1.0  -0.0883
  C  C165  1  0.832560  0.255500  0.598370  1.0  -0.0339
  C  C166  1  0.844360  0.377100  0.572800  1.0  -0.1596
  C  C167  1  0.833600  0.495400  0.603500  1.0  -0.0879
  C  C168  1  0.810360  0.494300  0.659700  1.0  -0.0593
  C  C169  1  0.774170  0.371300  0.746820  1.0  0.3459
  C  C170  1  0.843830  0.132700  0.565030  1.0  0.0687
  C  C171  1  0.863170  0.112800  0.506100  1.0  0.0224
  C  C172  1  0.843210  0.918500  0.537800  1.0  0.2113
  C  C173  1  0.027790  0.741400  0.710300  1.0  -0.0076
  C  C174  1  0.028120  0.878300  0.710800  1.0  -0.146
  C  C175  1  0.060200  0.953100  0.670610  1.0  0.6972
  C  C176  1  0.202080  0.373200  0.814250  1.0  -0.0518
  C  C177  1  0.191330  0.254700  0.845300  1.0  -0.0872
  C  C178  1  0.167440  0.255500  0.901630  1.0  -0.034
  C  C179  1  0.155640  0.377100  0.927200  1.0  -0.1594
  C  C180  1  0.166400  0.495400  0.896500  1.0  -0.0877
  C  C181  1  0.189640  0.494300  0.840300  1.0  -0.0595
  C  C182  1  0.225830  0.371300  0.753180  1.0  0.3442
  C  C183  1  0.156170  0.132700  0.934970  1.0  0.068
  C  C184  1  0.136830  0.112800  0.993900  1.0  0.0232
  C  C185  1  0.156790  0.918500  0.962200  1.0  0.2124
  C  C186  1  0.972210  0.741400  0.789700  1.0  -0.0068
  C  C187  1  0.971880  0.878300  0.789200  1.0  -0.146
  C  C188  1  0.939800  0.953100  0.829390  1.0  0.6973
  C  C189  1  0.000000  0.328100  0.250000  1.0  -0.0802
  C  C190  1  0.000000  0.051900  0.250000  1.0  0.0135
  C  C191  1  0.000000  0.671900  0.750000  1.0  -0.0789
  C  C192  1  0.000000  0.948100  0.750000  1.0  0.0101
  N  N193  1  0.769720  0.042700  0.254990  1.0  -0.3061
  N  N194  1  0.774840  0.080500  0.186300  1.0  -0.1869
  N  N195  1  0.736400  0.184300  0.144570  1.0  -0.1013
  N  N196  1  0.704670  0.218100  0.186330  1.0  -0.3137
  N  N197  1  0.668390  0.492900  0.415690  1.0  -0.2649
  N  N198  1  0.637400  0.520800  0.510800  1.0  -0.3904
  N  N199  1  0.230280  0.042700  0.245010  1.0  -0.3056
  N  N200  1  0.225160  0.080500  0.313700  1.0  -0.1863
  N  N201  1  0.263600  0.184300  0.355430  1.0  -0.1039
  N  N202  1  0.295330  0.218100  0.313670  1.0  -0.3174
  N  N203  1  0.331610  0.492900  0.084310  1.0  -0.2653
  N  N204  1  0.362600  0.520800  0.989200  1.0  -0.3879
  N  N205  1  0.230280  0.957300  0.745010  1.0  -0.3058
  N  N206  1  0.225160  0.919500  0.813700  1.0  -0.1858
  N  N207  1  0.263600  0.815700  0.855430  1.0  -0.104
  N  N208  1  0.295330  0.781900  0.813670  1.0  -0.3161
  N  N209  1  0.331610  0.507100  0.584310  1.0  -0.2646
  N  N210  1  0.362600  0.479200  0.489200  1.0  -0.3886
  N  N211  1  0.769720  0.957300  0.754990  1.0  -0.3064
  N  N212  1  0.774840  0.919500  0.686300  1.0  -0.1861
  N  N213  1  0.736400  0.815700  0.644570  1.0  -0.1017
  N  N214  1  0.704670  0.781900  0.686330  1.0  -0.3146
  N  N215  1  0.668390  0.507100  0.915690  1.0  -0.2639
  N  N216  1  0.637400  0.479200  0.010800  1.0  -0.3887
  N  N217  1  0.269720  0.542700  0.254990  1.0  -0.3061
  N  N218  1  0.274840  0.580500  0.186300  1.0  -0.1839
  N  N219  1  0.236400  0.684300  0.144570  1.0  -0.1013
  N  N220  1  0.204670  0.718100  0.186330  1.0  -0.3137
  N  N221  1  0.168390  0.992900  0.415690  1.0  -0.2649
  N  N222  1  0.137400  0.020800  0.510800  1.0  -0.3904
  N  N223  1  0.730280  0.542700  0.245010  1.0  -0.3056
  N  N224  1  0.725160  0.580500  0.313700  1.0  -0.1832
  N  N225  1  0.763600  0.684300  0.355430  1.0  -0.1039
  N  N226  1  0.795330  0.718100  0.313670  1.0  -0.3174
  N  N227  1  0.831610  0.992900  0.084310  1.0  -0.2653
  N  N228  1  0.862600  0.020800  0.989200  1.0  -0.3879
  N  N229  1  0.730280  0.457300  0.745010  1.0  -0.3058
  N  N230  1  0.725160  0.419500  0.813700  1.0  -0.1827
  N  N231  1  0.763600  0.315700  0.855430  1.0  -0.104
  N  N232  1  0.795330  0.281900  0.813670  1.0  -0.3161
  N  N233  1  0.831610  0.007100  0.584310  1.0  -0.2646
  N  N234  1  0.862600  0.979200  0.489200  1.0  -0.3886
  N  N235  1  0.269720  0.457300  0.754990  1.0  -0.3064
  N  N236  1  0.274840  0.419500  0.686300  1.0  -0.1831
  N  N237  1  0.236400  0.315700  0.644570  1.0  -0.1017
  N  N238  1  0.204670  0.281900  0.686330  1.0  -0.3146
  N  N239  1  0.168390  0.007100  0.915690  1.0  -0.2639
  N  N240  1  0.137400  0.979200  0.010800  1.0  -0.3887
  O  O241  1  0.430570  0.605500  0.384700  1.0  -0.6641
  O  O242  1  0.420230  0.429800  0.303960  1.0  -0.5945
  O  O243  1  0.569430  0.605500  0.115300  1.0  -0.6635
  O  O244  1  0.579770  0.429800  0.196040  1.0  -0.5938
  O  O245  1  0.569430  0.394500  0.615300  1.0  -0.664
  O  O246  1  0.579770  0.570200  0.696040  1.0  -0.5937
  O  O247  1  0.430570  0.394500  0.884700  1.0  -0.6646
  O  O248  1  0.420230  0.570200  0.803960  1.0  -0.5931
  O  O249  1  0.930570  0.105500  0.384700  1.0  -0.6641
  O  O250  1  0.920230  0.929800  0.303960  1.0  -0.5945
  O  O251  1  0.069430  0.105500  0.115300  1.0  -0.6635
  O  O252  1  0.079770  0.929800  0.196040  1.0  -0.5938
  O  O253  1  0.069430  0.894500  0.615300  1.0  -0.664
  O  O254  1  0.079770  0.070200  0.696040  1.0  -0.5937
  O  O255  1  0.930570  0.894500  0.884700  1.0  -0.6646
  O  O256  1  0.920230  0.070200  0.803960  1.0  -0.5931
