# generated using pymatgen
data_CdH9C14(N3O)2
_symmetry_space_group_name_H-M   'P 1'
_cell_length_a   9.39930000
_cell_length_b   10.27830000
_cell_length_c   17.55160000
_cell_angle_alpha   103.05500000
_cell_angle_beta   90.00000000
_cell_angle_gamma   90.00000000
_symmetry_Int_Tables_number   1
_chemical_formula_structural   CdH9C14(N3O)2
_chemical_formula_sum   'Cd4 H36 C56 N24 O8'
_cell_volume   1651.81341347
_cell_formula_units_Z   4
loop_
 _symmetry_equiv_pos_site_id
 _symmetry_equiv_pos_as_xyz
  1  'x, y, z'
loop_
 _atom_site_type_symbol
 _atom_site_label
 _atom_site_symmetry_multiplicity
 _atom_site_fract_x
 _atom_site_fract_y
 _atom_site_fract_z
 _atom_site_occupancy
 _atom_site_charge
  Cd  Cd1  1  0.161050  0.225950  0.750200  1.0  0.9481
  Cd  Cd2  1  0.661050  0.774050  0.749800  1.0  0.9478
  Cd  Cd3  1  0.838950  0.774050  0.249800  1.0  0.9481
  Cd  Cd4  1  0.338950  0.225950  0.250200  1.0  0.9485
  H  H5  1  0.134300  0.846700  0.636200  1.0  0.112
  H  H6  1  0.122400  0.761800  0.501800  1.0  0.0925
  H  H7  1  0.325000  0.747500  0.426000  1.0  0.1096
  H  H8  1  0.553500  0.907700  0.617400  1.0  0.0944
  H  H9  1  0.541100  0.738700  0.350500  1.0  0.1184
  H  H10  1  0.908000  0.872300  0.441100  1.0  0.087
  H  H11  1  0.279600  0.407600  0.014600  1.0  0.0976
  H  H12  1  0.591700  0.488600  0.876300  1.0  0.1056
  H  H13  1  0.739600  0.896800  0.543700  1.0  0.2396
  H  H14  1  0.634300  0.153300  0.863800  1.0  0.112
  H  H15  1  0.622400  0.238200  0.998200  1.0  0.0927
  H  H16  1  0.825000  0.252500  0.074000  1.0  0.1092
  H  H17  1  0.053500  0.092300  0.882600  1.0  0.094
  H  H18  1  0.041100  0.261300  0.149500  1.0  0.1188
  H  H19  1  0.408000  0.127700  0.058900  1.0  0.0868
  H  H20  1  0.779600  0.592400  0.485400  1.0  0.0974
  H  H21  1  0.091700  0.511400  0.623700  1.0  0.1055
  H  H22  1  0.239600  0.103200  0.956300  1.0  0.2352
  H  H23  1  0.865700  0.153300  0.363800  1.0  0.1123
  H  H24  1  0.877600  0.238200  0.498200  1.0  0.0923
  H  H25  1  0.675000  0.252500  0.574000  1.0  0.1094
  H  H26  1  0.446500  0.092300  0.382600  1.0  0.0944
  H  H27  1  0.458900  0.261300  0.649500  1.0  0.1188
  H  H28  1  0.092000  0.127700  0.558900  1.0  0.0882
  H  H29  1  0.720400  0.592400  0.985400  1.0  0.0975
  H  H30  1  0.408300  0.511400  0.123700  1.0  0.1057
  H  H31  1  0.260400  0.103200  0.456300  1.0  0.2358
  H  H32  1  0.365700  0.846700  0.136200  1.0  0.1126
  H  H33  1  0.377600  0.761800  0.001800  1.0  0.0922
  H  H34  1  0.175000  0.747500  0.926000  1.0  0.1096
  H  H35  1  0.946500  0.907700  0.117400  1.0  0.0948
  H  H36  1  0.958900  0.738700  0.850500  1.0  0.1186
  H  H37  1  0.592000  0.872300  0.941100  1.0  0.0884
  H  H38  1  0.220400  0.407600  0.514600  1.0  0.0975
  H  H39  1  0.908300  0.488600  0.376300  1.0  0.1053
  H  H40  1  0.760400  0.896800  0.043700  1.0  0.2401
  C  C41  1  0.345100  0.885100  0.640030  1.0  -0.0556
  C  C42  1  0.215900  0.841800  0.605770  1.0  -0.082
  C  C43  1  0.209100  0.790600  0.525160  1.0  -0.0864
  C  C44  1  0.330700  0.782400  0.479600  1.0  -0.1075
  C  C45  1  0.461600  0.826000  0.513550  1.0  0.0343
  C  C46  1  0.467100  0.877700  0.593980  1.0  -0.0912
  C  C47  1  0.356200  0.933000  0.725640  1.0  0.3656
  C  C48  1  0.589400  0.818100  0.465350  1.0  0.0513
  C  C49  1  0.610900  0.775100  0.386610  1.0  0.0063
  C  C50  1  0.812600  0.848000  0.435750  1.0  0.2129
  C  C51  1  0.368000  0.444700  0.008710  1.0  -0.0584
  C  C52  1  0.422800  0.437800  0.934140  1.0  -0.1229
  C  C53  1  0.554700  0.493200  0.925970  1.0  -0.0629
  C  C54  1  0.339700  0.368100  0.863470  1.0  0.6477
  C  C55  1  0.845100  0.114900  0.859970  1.0  -0.0562
  C  C56  1  0.715900  0.158200  0.894230  1.0  -0.0819
  C  C57  1  0.709100  0.209400  0.974840  1.0  -0.087
  C  C58  1  0.830700  0.217600  0.020400  1.0  -0.1061
  C  C59  1  0.961600  0.174000  0.986450  1.0  0.0344
  C  C60  1  0.967100  0.122300  0.906020  1.0  -0.0899
  C  C61  1  0.856200  0.067000  0.774360  1.0  0.364
  C  C62  1  0.089400  0.181900  0.034650  1.0  0.0504
  C  C63  1  0.110900  0.224900  0.113390  1.0  0.0043
  C  C64  1  0.312600  0.152000  0.064250  1.0  0.2135
  C  C65  1  0.868000  0.555300  0.491290  1.0  -0.0591
  C  C66  1  0.922800  0.562200  0.565860  1.0  -0.1251
  C  C67  1  0.054700  0.506800  0.574030  1.0  -0.0637
  C  C68  1  0.839700  0.631900  0.636530  1.0  0.6463
  C  C69  1  0.654900  0.114900  0.359970  1.0  -0.0565
  C  C70  1  0.784100  0.158200  0.394230  1.0  -0.0833
  C  C71  1  0.790900  0.209400  0.474840  1.0  -0.0867
  C  C72  1  0.669300  0.217600  0.520400  1.0  -0.1056
  C  C73  1  0.538400  0.174000  0.486450  1.0  0.0344
  C  C74  1  0.532900  0.122300  0.406020  1.0  -0.0888
  C  C75  1  0.643800  0.067000  0.274360  1.0  0.3641
  C  C76  1  0.410600  0.181900  0.534650  1.0  0.0513
  C  C77  1  0.389100  0.224900  0.613390  1.0  0.0057
  C  C78  1  0.187400  0.152000  0.564250  1.0  0.2132
  C  C79  1  0.632000  0.555300  0.991290  1.0  -0.0587
  C  C80  1  0.577200  0.562200  0.065860  1.0  -0.1229
  C  C81  1  0.445300  0.506800  0.074030  1.0  -0.0637
  C  C82  1  0.660300  0.631900  0.136530  1.0  0.649
  C  C83  1  0.154900  0.885100  0.140030  1.0  -0.056
  C  C84  1  0.284100  0.841800  0.105770  1.0  -0.0835
  C  C85  1  0.290900  0.790600  0.025160  1.0  -0.0866
  C  C86  1  0.169300  0.782400  0.979600  1.0  -0.1077
  C  C87  1  0.038400  0.826000  0.013550  1.0  0.0344
  C  C88  1  0.032900  0.877700  0.093980  1.0  -0.0904
  C  C89  1  0.143800  0.933000  0.225640  1.0  0.3656
  C  C90  1  0.910600  0.818100  0.965350  1.0  0.0523
  C  C91  1  0.889100  0.775100  0.886610  1.0  0.0047
  C  C92  1  0.687400  0.848000  0.935750  1.0  0.2126
  C  C93  1  0.132000  0.444700  0.508710  1.0  -0.0584
  C  C94  1  0.077200  0.437800  0.434140  1.0  -0.1214
  C  C95  1  0.945300  0.493200  0.425970  1.0  -0.0613
  C  C96  1  0.160300  0.368100  0.363470  1.0  0.6478
  N  N97  1  0.451100  0.884900  0.769340  1.0  -0.3374
  N  N98  1  0.421300  0.944700  0.844510  1.0  -0.1011
  N  N99  1  0.314900  0.024300  0.845190  1.0  -0.0636
  N  N100  1  0.271000  0.020400  0.770790  1.0  -0.3415
  N  N101  1  0.720400  0.863800  0.495230  1.0  -0.1821
  N  N102  1  0.751100  0.793500  0.368510  1.0  -0.4125
  N  N103  1  0.951100  0.115100  0.730660  1.0  -0.3389
  N  N104  1  0.921300  0.055300  0.655490  1.0  -0.1001
  N  N105  1  0.814900  0.975700  0.654810  1.0  -0.0642
  N  N106  1  0.771000  0.979600  0.729210  1.0  -0.3414
  N  N107  1  0.220400  0.136200  0.004770  1.0  -0.1838
  N  N108  1  0.251100  0.206500  0.131490  1.0  -0.4115
  N  N109  1  0.548900  0.115100  0.230660  1.0  -0.3378
  N  N110  1  0.578700  0.055300  0.155490  1.0  -0.0987
  N  N111  1  0.685100  0.975700  0.154810  1.0  -0.0685
  N  N112  1  0.729000  0.979600  0.229210  1.0  -0.3412
  N  N113  1  0.279600  0.136200  0.504770  1.0  -0.1831
  N  N114  1  0.248900  0.206500  0.631490  1.0  -0.4115
  N  N115  1  0.048900  0.884900  0.269340  1.0  -0.3368
  N  N116  1  0.078700  0.944700  0.344510  1.0  -0.1007
  N  N117  1  0.185100  0.024300  0.345190  1.0  -0.0626
  N  N118  1  0.229000  0.020400  0.270790  1.0  -0.3416
  N  N119  1  0.779600  0.863800  0.995230  1.0  -0.1818
  N  N120  1  0.748900  0.793500  0.868510  1.0  -0.4122
  O  O121  1  0.218400  0.322600  0.873950  1.0  -0.6001
  O  O122  1  0.389900  0.359500  0.797440  1.0  -0.613
  O  O123  1  0.718400  0.677400  0.626050  1.0  -0.6012
  O  O124  1  0.889900  0.640500  0.702560  1.0  -0.6141
  O  O125  1  0.781600  0.677400  0.126050  1.0  -0.6005
  O  O126  1  0.610100  0.640500  0.202560  1.0  -0.6149
  O  O127  1  0.281600  0.322600  0.373950  1.0  -0.6013
  O  O128  1  0.110100  0.359500  0.297440  1.0  -0.6133
