# generated using pymatgen
data_EuH10(C9O4)2
_symmetry_space_group_name_H-M   'P 1'
_cell_length_a   14.60770000
_cell_length_b   16.55680000
_cell_length_c   16.63030000
_cell_angle_alpha   90.00000000
_cell_angle_beta   90.00000000
_cell_angle_gamma   90.00000000
_symmetry_Int_Tables_number   1
_chemical_formula_structural   EuH10(C9O4)2
_chemical_formula_sum   'Eu8 H80 C144 O64'
_cell_volume   4022.15059823
_cell_formula_units_Z   8
loop_
 _symmetry_equiv_pos_site_id
 _symmetry_equiv_pos_as_xyz
  1  'x, y, z'
loop_
 _atom_site_type_symbol
 _atom_site_label
 _atom_site_symmetry_multiplicity
 _atom_site_fract_x
 _atom_site_fract_y
 _atom_site_fract_z
 _atom_site_occupancy
 _atom_site_charge
  Eu  Eu1  1  0.661940  0.000000  0.500000  1.0  2.1054
  Eu  Eu2  1  0.161940  0.500000  0.500000  1.0  2.1054
  Eu  Eu3  1  0.338060  0.000000  0.000000  1.0  2.1047
  Eu  Eu4  1  0.838060  0.500000  0.000000  1.0  2.1047
  Eu  Eu5  1  0.500000  0.168040  0.750000  1.0  2.1117
  Eu  Eu6  1  0.000000  0.668040  0.750000  1.0  2.1118
  Eu  Eu7  1  0.500000  0.831960  0.250000  1.0  2.1125
  Eu  Eu8  1  0.000000  0.331960  0.250000  1.0  2.1127
  H  H9  1  0.284700  0.444500  0.011000  1.0  0.0978
  H  H10  1  0.179800  0.443900  0.012800  1.0  0.0962
  H  H11  1  0.519300  0.147500  0.389500  1.0  0.1077
  H  H12  1  0.353500  0.325600  0.324400  1.0  0.1568
  H  H13  1  0.376700  0.265800  0.559300  1.0  0.1163
  H  H14  1  0.252400  0.375600  0.695600  1.0  0.116
  H  H15  1  0.144000  0.525300  0.859000  1.0  0.1184
  H  H16  1  0.321400  0.354100  0.927300  1.0  0.1136
  H  H17  1  0.436600  0.282100  0.240400  1.0  0.1039
  H  H18  1  0.435400  0.189500  0.237400  1.0  0.1033
  H  H19  1  0.784700  0.944500  0.011000  1.0  0.0978
  H  H20  1  0.679800  0.943900  0.012800  1.0  0.0962
  H  H21  1  0.019300  0.647500  0.389500  1.0  0.1077
  H  H22  1  0.853500  0.825600  0.324400  1.0  0.1568
  H  H23  1  0.876700  0.765800  0.559300  1.0  0.1163
  H  H24  1  0.752400  0.875600  0.695600  1.0  0.116
  H  H25  1  0.644000  0.025300  0.859000  1.0  0.1184
  H  H26  1  0.821400  0.854100  0.927300  1.0  0.1136
  H  H27  1  0.936600  0.782100  0.240400  1.0  0.1039
  H  H28  1  0.935400  0.689500  0.237400  1.0  0.1033
  H  H29  1  0.715300  0.555500  0.511000  1.0  0.0978
  H  H30  1  0.820200  0.556100  0.512800  1.0  0.1002
  H  H31  1  0.480700  0.852500  0.889500  1.0  0.1082
  H  H32  1  0.646500  0.674400  0.824400  1.0  0.1565
  H  H33  1  0.623300  0.734200  0.059300  1.0  0.116
  H  H34  1  0.747600  0.624400  0.195600  1.0  0.1161
  H  H35  1  0.856000  0.474700  0.359000  1.0  0.118
  H  H36  1  0.678600  0.645900  0.427300  1.0  0.1134
  H  H37  1  0.563400  0.717900  0.740400  1.0  0.1041
  H  H38  1  0.564600  0.810500  0.737400  1.0  0.1048
  H  H39  1  0.215300  0.055500  0.511000  1.0  0.0978
  H  H40  1  0.320200  0.056100  0.512800  1.0  0.1002
  H  H41  1  0.980700  0.352500  0.889500  1.0  0.1082
  H  H42  1  0.146500  0.174400  0.824400  1.0  0.1565
  H  H43  1  0.123300  0.234200  0.059300  1.0  0.116
  H  H44  1  0.247600  0.124400  0.195600  1.0  0.1161
  H  H45  1  0.356000  0.974700  0.359000  1.0  0.118
  H  H46  1  0.178600  0.145900  0.427300  1.0  0.1134
  H  H47  1  0.063400  0.217900  0.740400  1.0  0.1041
  H  H48  1  0.064600  0.310500  0.737400  1.0  0.1048
  H  H49  1  0.715300  0.444500  0.489000  1.0  0.0981
  H  H50  1  0.820200  0.443900  0.487200  1.0  0.098
  H  H51  1  0.480700  0.147500  0.110500  1.0  0.1073
  H  H52  1  0.646500  0.325600  0.175600  1.0  0.1561
  H  H53  1  0.623300  0.265800  0.940700  1.0  0.1159
  H  H54  1  0.747600  0.375600  0.804400  1.0  0.1168
  H  H55  1  0.856000  0.525300  0.641000  1.0  0.1176
  H  H56  1  0.678600  0.354100  0.572700  1.0  0.1131
  H  H57  1  0.563400  0.282100  0.259600  1.0  0.1057
  H  H58  1  0.564600  0.189500  0.262600  1.0  0.1041
  H  H59  1  0.215300  0.944500  0.489000  1.0  0.0981
  H  H60  1  0.320200  0.943900  0.487200  1.0  0.098
  H  H61  1  0.980700  0.647500  0.110500  1.0  0.1073
  H  H62  1  0.146500  0.825600  0.175600  1.0  0.1561
  H  H63  1  0.123300  0.765800  0.940700  1.0  0.1159
  H  H64  1  0.247600  0.875600  0.804400  1.0  0.1168
  H  H65  1  0.356000  0.025300  0.641000  1.0  0.1176
  H  H66  1  0.178600  0.854100  0.572700  1.0  0.1131
  H  H67  1  0.063400  0.782100  0.259600  1.0  0.1057
  H  H68  1  0.064600  0.689500  0.262600  1.0  0.1041
  H  H69  1  0.284700  0.555500  0.989000  1.0  0.0996
  H  H70  1  0.179800  0.556100  0.987200  1.0  0.0966
  H  H71  1  0.519300  0.852500  0.610500  1.0  0.107
  H  H72  1  0.353500  0.674400  0.675600  1.0  0.1562
  H  H73  1  0.376700  0.734200  0.440700  1.0  0.1162
  H  H74  1  0.252400  0.624400  0.304400  1.0  0.116
  H  H75  1  0.144000  0.474700  0.141000  1.0  0.1177
  H  H76  1  0.321400  0.645900  0.072700  1.0  0.1142
  H  H77  1  0.436600  0.717900  0.759600  1.0  0.1031
  H  H78  1  0.435400  0.810500  0.762600  1.0  0.1033
  H  H79  1  0.784700  0.055500  0.989000  1.0  0.0996
  H  H80  1  0.679800  0.056100  0.987200  1.0  0.0966
  H  H81  1  0.019300  0.352500  0.610500  1.0  0.107
  H  H82  1  0.853500  0.174400  0.675600  1.0  0.1562
  H  H83  1  0.876700  0.234200  0.440700  1.0  0.1162
  H  H84  1  0.752400  0.124400  0.304400  1.0  0.116
  H  H85  1  0.644000  0.974700  0.141000  1.0  0.1177
  H  H86  1  0.821400  0.145900  0.072700  1.0  0.1142
  H  H87  1  0.936600  0.217900  0.759600  1.0  0.1031
  H  H88  1  0.935400  0.310500  0.762600  1.0  0.1033
  C  C89  1  0.231500  0.468800  0.987200  1.0  -0.0337
  C  C90  1  0.490500  0.142400  0.544000  1.0  0.7338
  C  C91  1  0.296800  0.379200  0.465400  1.0  0.7266
  C  C92  1  0.451200  0.195100  0.483000  1.0  -0.1482
  C  C93  1  0.475500  0.185800  0.403300  1.0  -0.1505
  C  C94  1  0.436200  0.232200  0.343700  1.0  0.2282
  C  C95  1  0.378300  0.293200  0.364600  1.0  -0.1498
  C  C96  1  0.354600  0.308800  0.445600  1.0  -0.1332
  C  C97  1  0.391600  0.257900  0.505500  1.0  0.0152
  C  C98  1  0.368800  0.293600  0.785900  1.0  0.7196
  C  C99  1  0.136500  0.498400  0.703700  1.0  0.7303
  C  C100  1  0.299100  0.355300  0.807400  1.0  -0.1156
  C  C101  1  0.247100  0.392200  0.748800  1.0  -0.0139
  C  C102  1  0.187400  0.453600  0.768300  1.0  -0.1317
  C  C103  1  0.179400  0.480300  0.846800  1.0  -0.1197
  C  C104  1  0.225800  0.438100  0.908100  1.0  0.1809
  C  C105  1  0.287100  0.379000  0.887300  1.0  -0.1659
  C  C106  1  0.464800  0.234700  0.262600  1.0  -0.036
  C  C107  1  0.731500  0.968800  0.987200  1.0  -0.0337
  C  C108  1  0.990500  0.642400  0.544000  1.0  0.7338
  C  C109  1  0.796800  0.879200  0.465400  1.0  0.7266
  C  C110  1  0.951200  0.695100  0.483000  1.0  -0.1482
  C  C111  1  0.975500  0.685800  0.403300  1.0  -0.1505
  C  C112  1  0.936200  0.732200  0.343700  1.0  0.2282
  C  C113  1  0.878300  0.793200  0.364600  1.0  -0.1498
  C  C114  1  0.854600  0.808800  0.445600  1.0  -0.1332
  C  C115  1  0.891600  0.757900  0.505500  1.0  0.0152
  C  C116  1  0.868800  0.793600  0.785900  1.0  0.7196
  C  C117  1  0.636500  0.998400  0.703700  1.0  0.7303
  C  C118  1  0.799100  0.855300  0.807400  1.0  -0.1156
  C  C119  1  0.747100  0.892200  0.748800  1.0  -0.0139
  C  C120  1  0.687400  0.953600  0.768300  1.0  -0.1317
  C  C121  1  0.679400  0.980300  0.846800  1.0  -0.1197
  C  C122  1  0.725800  0.938100  0.908100  1.0  0.1809
  C  C123  1  0.787100  0.879000  0.887300  1.0  -0.1659
  C  C124  1  0.964800  0.734700  0.262600  1.0  -0.036
  C  C125  1  0.768500  0.531200  0.487200  1.0  -0.032
  C  C126  1  0.509500  0.857600  0.044000  1.0  0.7325
  C  C127  1  0.703200  0.620800  0.965400  1.0  0.7275
  C  C128  1  0.548800  0.804900  0.983000  1.0  -0.1487
  C  C129  1  0.524500  0.814200  0.903300  1.0  -0.1507
  C  C130  1  0.563800  0.767800  0.843700  1.0  0.2267
  C  C131  1  0.621700  0.706800  0.864600  1.0  -0.1493
  C  C132  1  0.645400  0.691200  0.945600  1.0  -0.1323
  C  C133  1  0.608400  0.742100  0.005500  1.0  0.0159
  C  C134  1  0.631200  0.706400  0.285900  1.0  0.7207
  C  C135  1  0.863500  0.501600  0.203700  1.0  0.7297
  C  C136  1  0.700900  0.644700  0.307400  1.0  -0.1171
  C  C137  1  0.752900  0.607800  0.248800  1.0  -0.0106
  C  C138  1  0.812600  0.546400  0.268300  1.0  -0.1321
  C  C139  1  0.820600  0.519700  0.346800  1.0  -0.1187
  C  C140  1  0.774200  0.561900  0.408100  1.0  0.1784
  C  C141  1  0.712900  0.621000  0.387300  1.0  -0.1653
  C  C142  1  0.535200  0.765300  0.762600  1.0  -0.0328
  C  C143  1  0.268500  0.031200  0.487200  1.0  -0.032
  C  C144  1  0.009500  0.357600  0.044000  1.0  0.7325
  C  C145  1  0.203200  0.120800  0.965400  1.0  0.7275
  C  C146  1  0.048800  0.304900  0.983000  1.0  -0.1487
  C  C147  1  0.024500  0.314200  0.903300  1.0  -0.1507
  C  C148  1  0.063800  0.267800  0.843700  1.0  0.2267
  C  C149  1  0.121700  0.206800  0.864600  1.0  -0.1493
  C  C150  1  0.145400  0.191200  0.945600  1.0  -0.1323
  C  C151  1  0.108400  0.242100  0.005500  1.0  0.0159
  C  C152  1  0.131200  0.206400  0.285900  1.0  0.7207
  C  C153  1  0.363500  0.001600  0.203700  1.0  0.7297
  C  C154  1  0.200900  0.144700  0.307400  1.0  -0.1171
  C  C155  1  0.252900  0.107800  0.248800  1.0  -0.0106
  C  C156  1  0.312600  0.046400  0.268300  1.0  -0.1321
  C  C157  1  0.320600  0.019700  0.346800  1.0  -0.1187
  C  C158  1  0.274200  0.061900  0.408100  1.0  0.1784
  C  C159  1  0.212900  0.121000  0.387300  1.0  -0.1653
  C  C160  1  0.035200  0.265300  0.762600  1.0  -0.0328
  C  C161  1  0.768500  0.468800  0.512800  1.0  -0.03
  C  C162  1  0.509500  0.142400  0.956000  1.0  0.7326
  C  C163  1  0.703200  0.379200  0.034600  1.0  0.728
  C  C164  1  0.548800  0.195100  0.017000  1.0  -0.1489
  C  C165  1  0.524500  0.185800  0.096700  1.0  -0.1509
  C  C166  1  0.563800  0.232200  0.156300  1.0  0.2285
  C  C167  1  0.621700  0.293200  0.135400  1.0  -0.1487
  C  C168  1  0.645400  0.308800  0.054400  1.0  -0.1303
  C  C169  1  0.608400  0.257900  0.994500  1.0  0.014
  C  C170  1  0.631200  0.293600  0.714100  1.0  0.7212
  C  C171  1  0.863500  0.498400  0.796300  1.0  0.7293
  C  C172  1  0.700900  0.355300  0.692600  1.0  -0.1178
  C  C173  1  0.752900  0.392200  0.751200  1.0  -0.0137
  C  C174  1  0.812600  0.453600  0.731700  1.0  -0.1317
  C  C175  1  0.820600  0.480300  0.653200  1.0  -0.12
  C  C176  1  0.774200  0.438100  0.591900  1.0  0.1775
  C  C177  1  0.712900  0.379000  0.612700  1.0  -0.1659
  C  C178  1  0.535200  0.234700  0.237400  1.0  -0.0374
  C  C179  1  0.268500  0.968800  0.512800  1.0  -0.03
  C  C180  1  0.009500  0.642400  0.956000  1.0  0.7326
  C  C181  1  0.203200  0.879200  0.034600  1.0  0.728
  C  C182  1  0.048800  0.695100  0.017000  1.0  -0.1489
  C  C183  1  0.024500  0.685800  0.096700  1.0  -0.1509
  C  C184  1  0.063800  0.732200  0.156300  1.0  0.2285
  C  C185  1  0.121700  0.793200  0.135400  1.0  -0.1487
  C  C186  1  0.145400  0.808800  0.054400  1.0  -0.1303
  C  C187  1  0.108400  0.757900  0.994500  1.0  0.014
  C  C188  1  0.131200  0.793600  0.714100  1.0  0.7212
  C  C189  1  0.363500  0.998400  0.796300  1.0  0.7293
  C  C190  1  0.200900  0.855300  0.692600  1.0  -0.1178
  C  C191  1  0.252900  0.892200  0.751200  1.0  -0.0137
  C  C192  1  0.312600  0.953600  0.731700  1.0  -0.1317
  C  C193  1  0.320600  0.980300  0.653200  1.0  -0.12
  C  C194  1  0.274200  0.938100  0.591900  1.0  0.1775
  C  C195  1  0.212900  0.879000  0.612700  1.0  -0.1659
  C  C196  1  0.035200  0.734700  0.237400  1.0  -0.0374
  C  C197  1  0.231500  0.531200  0.012800  1.0  -0.033
  C  C198  1  0.490500  0.857600  0.456000  1.0  0.7324
  C  C199  1  0.296800  0.620800  0.534600  1.0  0.7268
  C  C200  1  0.451200  0.804900  0.517000  1.0  -0.1485
  C  C201  1  0.475500  0.814200  0.596700  1.0  -0.1501
  C  C202  1  0.436200  0.767800  0.656300  1.0  0.2286
  C  C203  1  0.378300  0.706800  0.635400  1.0  -0.1497
  C  C204  1  0.354600  0.691200  0.554400  1.0  -0.1327
  C  C205  1  0.391600  0.742100  0.494500  1.0  0.0151
  C  C206  1  0.368800  0.706400  0.214100  1.0  0.7198
  C  C207  1  0.136500  0.501600  0.296300  1.0  0.7313
  C  C208  1  0.299100  0.644700  0.192600  1.0  -0.1172
  C  C209  1  0.247100  0.607800  0.251200  1.0  -0.015
  C  C210  1  0.187400  0.546400  0.231700  1.0  -0.1316
  C  C211  1  0.179400  0.519700  0.153200  1.0  -0.1183
  C  C212  1  0.225800  0.561900  0.091900  1.0  0.1791
  C  C213  1  0.287100  0.621000  0.112700  1.0  -0.1657
  C  C214  1  0.464800  0.765300  0.737400  1.0  -0.0366
  C  C215  1  0.731500  0.031200  0.012800  1.0  -0.033
  C  C216  1  0.990500  0.357600  0.456000  1.0  0.7324
  C  C217  1  0.796800  0.120800  0.534600  1.0  0.7268
  C  C218  1  0.951200  0.304900  0.517000  1.0  -0.1485
  C  C219  1  0.975500  0.314200  0.596700  1.0  -0.1501
  C  C220  1  0.936200  0.267800  0.656300  1.0  0.2286
  C  C221  1  0.878300  0.206800  0.635400  1.0  -0.1497
  C  C222  1  0.854600  0.191200  0.554400  1.0  -0.1327
  C  C223  1  0.891600  0.242100  0.494500  1.0  0.0151
  C  C224  1  0.868800  0.206400  0.214100  1.0  0.7198
  C  C225  1  0.636500  0.001600  0.296300  1.0  0.7313
  C  C226  1  0.799100  0.144700  0.192600  1.0  -0.1172
  C  C227  1  0.747100  0.107800  0.251200  1.0  -0.015
  C  C228  1  0.687400  0.046400  0.231700  1.0  -0.1316
  C  C229  1  0.679400  0.019700  0.153200  1.0  -0.1183
  C  C230  1  0.725800  0.061900  0.091900  1.0  0.1791
  C  C231  1  0.787100  0.121000  0.112700  1.0  -0.1657
  C  C232  1  0.964800  0.265300  0.737400  1.0  -0.0366
  O  O233  1  0.553800  0.096900  0.523900  1.0  -0.6747
  O  O234  1  0.456600  0.143700  0.614800  1.0  -0.7147
  O  O235  1  0.266400  0.384800  0.536200  1.0  -0.628
  O  O236  1  0.271900  0.426100  0.414000  1.0  -0.6469
  O  O237  1  0.356900  0.248000  0.725100  1.0  -0.6523
  O  O238  1  0.435300  0.280400  0.832200  1.0  -0.6325
  O  O239  1  0.131000  0.465400  0.635300  1.0  -0.7122
  O  O240  1  0.102100  0.565400  0.721900  1.0  -0.7114
  O  O241  1  0.053800  0.596900  0.523900  1.0  -0.6752
  O  O242  1  0.956600  0.643700  0.614800  1.0  -0.7147
  O  O243  1  0.766400  0.884800  0.536200  1.0  -0.628
  O  O244  1  0.771900  0.926100  0.414000  1.0  -0.6469
  O  O245  1  0.856900  0.748000  0.725100  1.0  -0.6523
  O  O246  1  0.935300  0.780400  0.832200  1.0  -0.6325
  O  O247  1  0.631000  0.965400  0.635300  1.0  -0.7122
  O  O248  1  0.602100  0.065400  0.721900  1.0  -0.7114
  O  O249  1  0.446200  0.903100  0.023900  1.0  -0.6757
  O  O250  1  0.543400  0.856300  0.114800  1.0  -0.7143
  O  O251  1  0.733600  0.615200  0.036200  1.0  -0.6282
  O  O252  1  0.728100  0.573900  0.914000  1.0  -0.6474
  O  O253  1  0.643100  0.752000  0.225100  1.0  -0.6535
  O  O254  1  0.564700  0.719600  0.332200  1.0  -0.6306
  O  O255  1  0.869000  0.534600  0.135300  1.0  -0.7139
  O  O256  1  0.897900  0.434600  0.221900  1.0  -0.7131
  O  O257  1  0.946200  0.403100  0.023900  1.0  -0.6763
  O  O258  1  0.043400  0.356300  0.114800  1.0  -0.7143
  O  O259  1  0.233600  0.115200  0.036200  1.0  -0.6282
  O  O260  1  0.228100  0.073900  0.914000  1.0  -0.6474
  O  O261  1  0.143100  0.252000  0.225100  1.0  -0.6535
  O  O262  1  0.064700  0.219600  0.332200  1.0  -0.6306
  O  O263  1  0.369000  0.034600  0.135300  1.0  -0.7139
  O  O264  1  0.397900  0.934600  0.221900  1.0  -0.7131
  O  O265  1  0.446200  0.096900  0.976100  1.0  -0.677
  O  O266  1  0.543400  0.143700  0.885200  1.0  -0.7143
  O  O267  1  0.733600  0.384800  0.963800  1.0  -0.6293
  O  O268  1  0.728100  0.426100  0.086000  1.0  -0.6492
  O  O269  1  0.643100  0.248000  0.774900  1.0  -0.653
  O  O270  1  0.564700  0.280400  0.667800  1.0  -0.6319
  O  O271  1  0.869000  0.465400  0.864700  1.0  -0.714
  O  O272  1  0.897900  0.565400  0.778100  1.0  -0.7135
  O  O273  1  0.946200  0.596900  0.976100  1.0  -0.6791
  O  O274  1  0.043400  0.643700  0.885200  1.0  -0.7143
  O  O275  1  0.233600  0.884800  0.963800  1.0  -0.6293
  O  O276  1  0.228100  0.926100  0.086000  1.0  -0.6492
  O  O277  1  0.143100  0.748000  0.774900  1.0  -0.653
  O  O278  1  0.064700  0.780400  0.667800  1.0  -0.6319
  O  O279  1  0.369000  0.965400  0.864700  1.0  -0.714
  O  O280  1  0.397900  0.065400  0.778100  1.0  -0.7135
  O  O281  1  0.553800  0.903100  0.476100  1.0  -0.6762
  O  O282  1  0.456600  0.856300  0.385200  1.0  -0.7143
  O  O283  1  0.266400  0.615200  0.463800  1.0  -0.6286
  O  O284  1  0.271900  0.573900  0.586000  1.0  -0.6485
  O  O285  1  0.356900  0.752000  0.274900  1.0  -0.6531
  O  O286  1  0.435300  0.719600  0.167800  1.0  -0.632
  O  O287  1  0.131000  0.534600  0.364700  1.0  -0.712
  O  O288  1  0.102100  0.434600  0.278100  1.0  -0.712
  O  O289  1  0.053800  0.403100  0.476100  1.0  -0.6784
  O  O290  1  0.956600  0.356300  0.385200  1.0  -0.7143
  O  O291  1  0.766400  0.115200  0.463800  1.0  -0.6286
  O  O292  1  0.771900  0.073900  0.586000  1.0  -0.6485
  O  O293  1  0.856900  0.252000  0.274900  1.0  -0.6531
  O  O294  1  0.935300  0.219600  0.167800  1.0  -0.632
  O  O295  1  0.631000  0.034600  0.364700  1.0  -0.712
  O  O296  1  0.602100  0.934600  0.278100  1.0  -0.712
