# generated using pymatgen
data_Zn3H30C54(NO8)2
_symmetry_space_group_name_H-M   'P 1'
_cell_length_a   10.23040000
_cell_length_b   10.52930000
_cell_length_c   13.08530000
_cell_angle_alpha   100.83600000
_cell_angle_beta   90.73600000
_cell_angle_gamma   113.42000000
_symmetry_Int_Tables_number   1
_chemical_formula_structural   Zn3H30C54(NO8)2
_chemical_formula_sum   'Zn3 H30 C54 N2 O16'
_cell_volume   1264.33848342
_cell_formula_units_Z   1
loop_
 _symmetry_equiv_pos_site_id
 _symmetry_equiv_pos_as_xyz
  1  'x, y, z'
loop_
 _atom_site_type_symbol
 _atom_site_label
 _atom_site_symmetry_multiplicity
 _atom_site_fract_x
 _atom_site_fract_y
 _atom_site_fract_z
 _atom_site_occupancy
 _atom_site_charge
  Zn  Zn1  1  0.341900  0.195240  0.438930  1.0  0.8686
  Zn  Zn2  1  0.658100  0.804760  0.561070  1.0  0.8747
  Zn  Zn3  1  0.500000  0.000000  0.500000  1.0  1.0559
  H  H4  1  0.579500  0.548900  0.717300  1.0  0.0976
  H  H5  1  0.812600  0.321600  0.718100  1.0  0.1064
  H  H6  1  0.714600  0.701700  0.870200  1.0  0.1149
  H  H7  1  0.357000  0.475600  0.552800  1.0  0.0754
  H  H8  1  0.738400  0.644500  0.064700  1.0  0.1118
  H  H9  1  0.226000  0.904900  0.115200  1.0  0.1181
  H  H10  1  0.131700  0.940500  0.873300  1.0  0.1066
  H  H11  1  0.300000  0.979600  0.754500  1.0  0.0983
  H  H12  1  0.380400  0.659400  0.809200  1.0  0.0948
  H  H13  1  0.221400  0.628300  0.937800  1.0  0.1133
  H  H14  1  0.218900  0.602100  0.582300  1.0  0.11
  H  H15  1  0.903100  0.281500  0.399700  1.0  0.1152
  H  H16  1  0.052800  0.164200  0.371700  1.0  0.0874
  H  H17  1  0.940600  0.468900  0.869000  1.0  0.0953
  H  H18  1  0.652300  0.672700  0.308600  1.0  0.4016
  H  H19  1  0.420500  0.451100  0.282700  1.0  0.097
  H  H20  1  0.187400  0.678400  0.281900  1.0  0.106
  H  H21  1  0.285400  0.298300  0.129800  1.0  0.1162
  H  H22  1  0.643000  0.524400  0.447200  1.0  0.0753
  H  H23  1  0.261600  0.355500  0.935300  1.0  0.1125
  H  H24  1  0.774000  0.095100  0.884800  1.0  0.1177
  H  H25  1  0.868300  0.059500  0.126700  1.0  0.1072
  H  H26  1  0.700000  0.020400  0.245500  1.0  0.0985
  H  H27  1  0.619600  0.340600  0.190800  1.0  0.0951
  H  H28  1  0.778600  0.371700  0.062200  1.0  0.1132
  H  H29  1  0.781100  0.397900  0.417700  1.0  0.1094
  H  H30  1  0.096900  0.718500  0.600300  1.0  0.1156
  H  H31  1  0.947200  0.835800  0.628300  1.0  0.0856
  H  H32  1  0.059400  0.531100  0.131000  1.0  0.0956
  H  H33  1  0.347700  0.327300  0.691400  1.0  0.4
  C  C34  1  0.580200  0.306900  0.614200  1.0  0.6774
  C  C35  1  0.673100  0.410700  0.707000  1.0  -0.1562
  C  C36  1  0.649900  0.530400  0.749200  1.0  -0.0399
  C  C37  1  0.788400  0.394900  0.750100  1.0  -0.0134
  C  C38  1  0.733300  0.623900  0.840600  1.0  -0.1238
  C  C39  1  0.843600  0.601300  0.887300  1.0  0.0434
  C  C40  1  0.263500  0.435300  0.521500  1.0  0.1713
  C  C41  1  0.918500  0.690200  0.989600  1.0  -0.0071
  C  C42  1  0.837200  0.695000  0.074900  1.0  -0.0773
  C  C43  1  0.901000  0.773600  0.174700  1.0  -0.1132
  C  C44  1  0.805000  0.781300  0.258000  1.0  0.6715
  C  C45  1  0.047700  0.852900  0.191300  1.0  -0.0406
  C  C46  1  0.123300  0.933000  0.296600  1.0  0.656
  C  C47  1  0.127700  0.851200  0.105900  1.0  -0.0971
  C  C48  1  0.064000  0.770900  0.006800  1.0  0.0098
  C  C49  1  0.456100  0.842600  0.680800  1.0  0.6749
  C  C50  1  0.183400  0.884500  0.862600  1.0  -0.1194
  C  C51  1  0.282200  0.905800  0.789100  1.0  -0.006
  C  C52  1  0.353900  0.819900  0.766500  1.0  -0.157
  C  C53  1  0.331300  0.717600  0.822400  1.0  -0.0211
  C  C54  1  0.235200  0.698100  0.899700  1.0  -0.1267
  C  C55  1  0.161200  0.784100  0.918600  1.0  0.0593
  C  C56  1  0.181300  0.512800  0.538400  1.0  -0.1679
  C  C57  1  0.046500  0.459800  0.491700  1.0  0.068
  C  C58  1  0.996700  0.324900  0.431000  1.0  -0.1361
  C  C59  1  0.086200  0.253000  0.416100  1.0  0.1848
  C  C60  1  0.867600  0.486100  0.839500  1.0  -0.1224
  C  C61  1  0.419800  0.693100  0.385800  1.0  0.6773
  C  C62  1  0.326900  0.589300  0.293000  1.0  -0.1558
  C  C63  1  0.350100  0.469600  0.250800  1.0  -0.0367
  C  C64  1  0.211600  0.605100  0.249900  1.0  -0.0123
  C  C65  1  0.266700  0.376100  0.159400  1.0  -0.1232
  C  C66  1  0.156400  0.398700  0.112700  1.0  0.0437
  C  C67  1  0.736500  0.564700  0.478500  1.0  0.1714
  C  C68  1  0.081500  0.309800  0.010400  1.0  -0.0063
  C  C69  1  0.162800  0.305000  0.925100  1.0  -0.0864
  C  C70  1  0.099000  0.226400  0.825300  1.0  -0.1155
  C  C71  1  0.195000  0.218700  0.742000  1.0  0.6729
  C  C72  1  0.952300  0.147100  0.808700  1.0  -0.042
  C  C73  1  0.876700  0.067000  0.703400  1.0  0.6561
  C  C74  1  0.872300  0.148800  0.894100  1.0  -0.0973
  C  C75  1  0.936000  0.229100  0.993200  1.0  0.0089
  C  C76  1  0.543900  0.157400  0.319200  1.0  0.6743
  C  C77  1  0.816600  0.115500  0.137400  1.0  -0.1206
  C  C78  1  0.717800  0.094200  0.210900  1.0  -0.0074
  C  C79  1  0.646100  0.180100  0.233500  1.0  -0.1598
  C  C80  1  0.668700  0.282400  0.177600  1.0  -0.0198
  C  C81  1  0.764800  0.301900  0.100300  1.0  -0.1254
  C  C82  1  0.838800  0.215900  0.081400  1.0  0.0602
  C  C83  1  0.818700  0.487200  0.461600  1.0  -0.1736
  C  C84  1  0.953500  0.540200  0.508300  1.0  0.0675
  C  C85  1  0.003300  0.675100  0.569000  1.0  -0.1445
  C  C86  1  0.913800  0.747000  0.583900  1.0  0.1853
  C  C87  1  0.132400  0.513900  0.160500  1.0  -0.1206
  N  N88  1  0.215600  0.307500  0.463300  1.0  -0.3268
  N  N89  1  0.784400  0.692500  0.536700  1.0  -0.3268
  O  O90  1  0.828800  0.889200  0.322500  1.0  -0.517
  O  O91  1  0.696300  0.662500  0.258000  1.0  -0.5158
  O  O92  1  0.207700  0.058700  0.305400  1.0  -0.5886
  O  O93  1  0.100300  0.862200  0.368500  1.0  -0.5988
  O  O94  1  0.466600  0.315700  0.583700  1.0  -0.6086
  O  O95  1  0.618500  0.209700  0.571400  1.0  -0.6022
  O  O96  1  0.503700  0.748700  0.651000  1.0  -0.5646
  O  O97  1  0.484800  0.952400  0.645900  1.0  -0.604
  O  O98  1  0.171200  0.110800  0.677500  1.0  -0.5162
  O  O99  1  0.303700  0.337500  0.742000  1.0  -0.5143
  O  O100  1  0.792300  0.941300  0.694600  1.0  -0.5908
  O  O101  1  0.899700  0.137800  0.631500  1.0  -0.5989
  O  O102  1  0.533400  0.684300  0.416300  1.0  -0.6092
  O  O103  1  0.381500  0.790300  0.428600  1.0  -0.6028
  O  O104  1  0.496300  0.251300  0.349000  1.0  -0.5628
  O  O105  1  0.515200  0.047600  0.354100  1.0  -0.6042
