# generated using pymatgen
data_Cu6B2H54W2C47S6N19
_symmetry_space_group_name_H-M   'P 1'
_cell_length_a   30.40400000
_cell_length_b   19.65700000
_cell_length_c   19.68300000
_cell_angle_alpha   90.00000000
_cell_angle_beta   127.63000000
_cell_angle_gamma   90.00000000
_symmetry_Int_Tables_number   1
_chemical_formula_structural   Cu6B2H54W2C47S6N19
_chemical_formula_sum   'Cu24 B8 H216 W8 C188 S24 N76'
_cell_volume   9316.39770124
_cell_formula_units_Z   4
loop_
 _symmetry_equiv_pos_site_id
 _symmetry_equiv_pos_as_xyz
  1  'x, y, z'
loop_
 _atom_site_type_symbol
 _atom_site_label
 _atom_site_symmetry_multiplicity
 _atom_site_fract_x
 _atom_site_fract_y
 _atom_site_fract_z
 _atom_site_occupancy
 _atom_site_charge
  Cu  Cu1  1  0.180390  0.373900  0.253430  1.0  0.4851
  Cu  Cu2  1  0.296260  0.368410  0.349550  1.0  0.4147
  Cu  Cu3  1  0.094710  0.253770  0.370220  1.0  0.6119
  Cu  Cu4  1  0.680390  0.873900  0.253430  1.0  0.4851
  Cu  Cu5  1  0.796260  0.868410  0.349550  1.0  0.4147
  Cu  Cu6  1  0.594710  0.753770  0.370220  1.0  0.6119
  Cu  Cu7  1  0.819610  0.373900  0.246570  1.0  0.4847
  Cu  Cu8  1  0.703740  0.368410  0.150450  1.0  0.4131
  Cu  Cu9  1  0.905290  0.253770  0.129780  1.0  0.6107
  Cu  Cu10  1  0.319610  0.873900  0.246570  1.0  0.4847
  Cu  Cu11  1  0.203740  0.868410  0.150450  1.0  0.4131
  Cu  Cu12  1  0.405290  0.753770  0.129780  1.0  0.6107
  Cu  Cu13  1  0.819610  0.626100  0.746570  1.0  0.4849
  Cu  Cu14  1  0.703740  0.631590  0.650450  1.0  0.413
  Cu  Cu15  1  0.905290  0.746230  0.629780  1.0  0.6108
  Cu  Cu16  1  0.319610  0.126100  0.746570  1.0  0.4849
  Cu  Cu17  1  0.203740  0.131590  0.650450  1.0  0.413
  Cu  Cu18  1  0.405290  0.246230  0.629780  1.0  0.6108
  Cu  Cu19  1  0.180390  0.626100  0.753430  1.0  0.4845
  Cu  Cu20  1  0.296260  0.631590  0.849550  1.0  0.4141
  Cu  Cu21  1  0.094710  0.746230  0.870220  1.0  0.6124
  Cu  Cu22  1  0.680390  0.126100  0.753430  1.0  0.4845
  Cu  Cu23  1  0.796260  0.131590  0.849550  1.0  0.4141
  Cu  Cu24  1  0.594710  0.246230  0.870220  1.0  0.6124
  B  B25  1  0.225400  0.508300  0.042500  1.0  0.3237
  B  B26  1  0.725400  0.008300  0.042500  1.0  0.3237
  B  B27  1  0.774600  0.508300  0.457500  1.0  0.3252
  B  B28  1  0.274600  0.008300  0.457500  1.0  0.3252
  B  B29  1  0.774600  0.491700  0.957500  1.0  0.3257
  B  B30  1  0.274600  0.991700  0.957500  1.0  0.3257
  B  B31  1  0.225400  0.491700  0.542500  1.0  0.3241
  B  B32  1  0.725400  0.991700  0.542500  1.0  0.3241
  H  H33  1  0.224000  0.529000  0.995000  1.0  0.0694
  H  H34  1  0.051700  0.413700  0.885700  1.0  0.1119
  H  H35  1  0.116600  0.318200  0.072200  1.0  0.1211
  H  H36  1  0.056300  0.349000  0.006000  1.0  0.1078
  H  H37  1  0.098100  0.382400  0.097900  1.0  0.1211
  H  H38  1  0.114600  0.554100  0.864700  1.0  0.1126
  H  H39  1  0.077800  0.492400  0.804400  1.0  0.1147
  H  H40  1  0.142500  0.493400  0.850500  1.0  0.104
  H  H41  1  0.258700  0.707400  0.183700  1.0  0.1016
  H  H42  1  0.204800  0.617700  0.265200  1.0  0.1244
  H  H43  1  0.251600  0.674000  0.303100  1.0  0.1235
  H  H44  1  0.268000  0.597300  0.333400  1.0  0.111
  H  H45  1  0.276400  0.632900  0.033000  1.0  0.1119
  H  H46  1  0.273700  0.706300  0.063400  1.0  0.1028
  H  H47  1  0.218300  0.669400  0.988100  1.0  0.1149
  H  H48  1  0.378000  0.374500  0.148100  1.0  0.1116
  H  H49  1  0.374400  0.375800  0.323300  1.0  0.1197
  H  H50  1  0.394600  0.325200  0.284800  1.0  0.122
  H  H51  1  0.338400  0.310900  0.270900  1.0  0.1256
  H  H52  1  0.273900  0.449200  0.950700  1.0  0.1048
  H  H53  1  0.339600  0.448400  0.010500  1.0  0.1127
  H  H54  1  0.307900  0.513900  0.006900  1.0  0.113
  H  H55  1  0.989100  0.344700  0.301300  1.0  0.0669
  H  H56  1  0.959200  0.427200  0.350500  1.0  0.1097
  H  H57  1  0.110500  0.420100  0.579400  1.0  0.0773
  H  H58  1  0.138200  0.340700  0.526400  1.0  0.0852
  H  H59  1  0.048300  0.490000  0.577300  1.0  0.0669
  H  H60  1  0.724000  0.029000  0.995000  1.0  0.0694
  H  H61  1  0.551700  0.913700  0.885700  1.0  0.1119
  H  H62  1  0.616600  0.818200  0.072200  1.0  0.1211
  H  H63  1  0.556300  0.849000  0.006000  1.0  0.1078
  H  H64  1  0.598100  0.882400  0.097900  1.0  0.1211
  H  H65  1  0.614600  0.054100  0.864700  1.0  0.1126
  H  H66  1  0.577800  0.992400  0.804400  1.0  0.1147
  H  H67  1  0.642500  0.993400  0.850500  1.0  0.104
  H  H68  1  0.758700  0.207400  0.183700  1.0  0.1016
  H  H69  1  0.704800  0.117700  0.265200  1.0  0.1244
  H  H70  1  0.751600  0.174000  0.303100  1.0  0.1235
  H  H71  1  0.768000  0.097300  0.333400  1.0  0.111
  H  H72  1  0.776400  0.132900  0.033000  1.0  0.1119
  H  H73  1  0.773700  0.206300  0.063400  1.0  0.1028
  H  H74  1  0.718300  0.169400  0.988100  1.0  0.1149
  H  H75  1  0.878000  0.874500  0.148100  1.0  0.1116
  H  H76  1  0.874400  0.875800  0.323300  1.0  0.1197
  H  H77  1  0.894600  0.825200  0.284800  1.0  0.122
  H  H78  1  0.838400  0.810900  0.270900  1.0  0.1256
  H  H79  1  0.773900  0.949200  0.950700  1.0  0.1048
  H  H80  1  0.839600  0.948400  0.010500  1.0  0.1127
  H  H81  1  0.807900  0.013900  0.006900  1.0  0.113
  H  H82  1  0.489100  0.844700  0.301300  1.0  0.0669
  H  H83  1  0.459200  0.927200  0.350500  1.0  0.1097
  H  H84  1  0.610500  0.920100  0.579400  1.0  0.0773
  H  H85  1  0.638200  0.840700  0.526400  1.0  0.0852
  H  H86  1  0.548300  0.990000  0.577300  1.0  0.0669
  H  H87  1  0.776000  0.529000  0.505000  1.0  0.0699
  H  H88  1  0.948300  0.413700  0.614300  1.0  0.1124
  H  H89  1  0.883400  0.318200  0.427800  1.0  0.1232
  H  H90  1  0.943700  0.349000  0.494000  1.0  0.0994
  H  H91  1  0.901900  0.382400  0.402100  1.0  0.121
  H  H92  1  0.885400  0.554100  0.635300  1.0  0.1124
  H  H93  1  0.922200  0.492400  0.695600  1.0  0.1122
  H  H94  1  0.857500  0.493400  0.649500  1.0  0.1043
  H  H95  1  0.741300  0.707400  0.316300  1.0  0.1014
  H  H96  1  0.795200  0.617700  0.234800  1.0  0.121
  H  H97  1  0.748400  0.674000  0.196900  1.0  0.1241
  H  H98  1  0.732000  0.597300  0.166600  1.0  0.111
  H  H99  1  0.723600  0.632900  0.467000  1.0  0.1121
  H  H100  1  0.726300  0.706300  0.436600  1.0  0.1035
  H  H101  1  0.781700  0.669400  0.511900  1.0  0.1152
  H  H102  1  0.622000  0.374500  0.351900  1.0  0.1121
  H  H103  1  0.625600  0.375800  0.176700  1.0  0.1178
  H  H104  1  0.605400  0.325200  0.215200  1.0  0.1209
  H  H105  1  0.661600  0.310900  0.229100  1.0  0.125
  H  H106  1  0.726100  0.449200  0.549300  1.0  0.1053
  H  H107  1  0.660400  0.448400  0.489500  1.0  0.1117
  H  H108  1  0.692100  0.513900  0.493100  1.0  0.1131
  H  H109  1  0.010900  0.344700  0.198700  1.0  0.0673
  H  H110  1  0.040800  0.427200  0.149500  1.0  0.1093
  H  H111  1  0.889500  0.420100  0.920600  1.0  0.0769
  H  H112  1  0.861800  0.340700  0.973600  1.0  0.0849
  H  H113  1  0.951700  0.490000  0.922700  1.0  0.0661
  H  H114  1  0.276000  0.029000  0.505000  1.0  0.0699
  H  H115  1  0.448300  0.913700  0.614300  1.0  0.1124
  H  H116  1  0.383400  0.818200  0.427800  1.0  0.1232
  H  H117  1  0.443700  0.849000  0.494000  1.0  0.0994
  H  H118  1  0.401900  0.882400  0.402100  1.0  0.121
  H  H119  1  0.385400  0.054100  0.635300  1.0  0.1124
  H  H120  1  0.422200  0.992400  0.695600  1.0  0.1122
  H  H121  1  0.357500  0.993400  0.649500  1.0  0.1043
  H  H122  1  0.241300  0.207400  0.316300  1.0  0.1014
  H  H123  1  0.295200  0.117700  0.234800  1.0  0.121
  H  H124  1  0.248400  0.174000  0.196900  1.0  0.1241
  H  H125  1  0.232000  0.097300  0.166600  1.0  0.111
  H  H126  1  0.223600  0.132900  0.467000  1.0  0.1121
  H  H127  1  0.226300  0.206300  0.436600  1.0  0.1035
  H  H128  1  0.281700  0.169400  0.511900  1.0  0.1152
  H  H129  1  0.122000  0.874500  0.351900  1.0  0.1121
  H  H130  1  0.125600  0.875800  0.176700  1.0  0.1178
  H  H131  1  0.105400  0.825200  0.215200  1.0  0.1209
  H  H132  1  0.161600  0.810900  0.229100  1.0  0.125
  H  H133  1  0.226100  0.949200  0.549300  1.0  0.1053
  H  H134  1  0.160400  0.948400  0.489500  1.0  0.1117
  H  H135  1  0.192100  0.013900  0.493100  1.0  0.1131
  H  H136  1  0.510900  0.844700  0.198700  1.0  0.0673
  H  H137  1  0.540800  0.927200  0.149500  1.0  0.1093
  H  H138  1  0.389500  0.920100  0.920600  1.0  0.0769
  H  H139  1  0.361800  0.840700  0.973600  1.0  0.0849
  H  H140  1  0.451700  0.990000  0.922700  1.0  0.0661
  H  H141  1  0.776000  0.471000  0.005000  1.0  0.0699
  H  H142  1  0.948300  0.586300  0.114300  1.0  0.1114
  H  H143  1  0.883400  0.681800  0.927800  1.0  0.1229
  H  H144  1  0.943700  0.651000  0.994000  1.0  0.0992
  H  H145  1  0.901900  0.617600  0.902100  1.0  0.1204
  H  H146  1  0.885400  0.445900  0.135300  1.0  0.1113
  H  H147  1  0.922200  0.507600  0.195600  1.0  0.112
  H  H148  1  0.857500  0.506600  0.149500  1.0  0.1043
  H  H149  1  0.741300  0.292600  0.816300  1.0  0.1019
  H  H150  1  0.795200  0.382300  0.734800  1.0  0.1215
  H  H151  1  0.748400  0.326000  0.696900  1.0  0.1219
  H  H152  1  0.732000  0.402700  0.666667  1.0  0.112
  H  H153  1  0.723600  0.367100  0.967000  1.0  0.1118
  H  H154  1  0.726300  0.293700  0.936600  1.0  0.1014
  H  H155  1  0.781700  0.330600  0.011900  1.0  0.1152
  H  H156  1  0.622000  0.625500  0.851900  1.0  0.1117
  H  H157  1  0.625600  0.624200  0.676700  1.0  0.1179
  H  H158  1  0.605400  0.674800  0.715200  1.0  0.1206
  H  H159  1  0.661600  0.689100  0.729100  1.0  0.1251
  H  H160  1  0.726100  0.550800  0.049300  1.0  0.1041
  H  H161  1  0.660400  0.551600  0.989500  1.0  0.1117
  H  H162  1  0.692100  0.486100  0.993100  1.0  0.11
  H  H163  1  0.010900  0.655300  0.698700  1.0  0.067
  H  H164  1  0.040800  0.572800  0.649500  1.0  0.1091
  H  H165  1  0.889500  0.579900  0.420600  1.0  0.0768
  H  H166  1  0.861800  0.659300  0.473600  1.0  0.0853
  H  H167  1  0.951700  0.510000  0.422700  1.0  0.0659
  H  H168  1  0.276000  0.971000  0.005000  1.0  0.0699
  H  H169  1  0.448300  0.086300  0.114300  1.0  0.1114
  H  H170  1  0.383400  0.181800  0.927800  1.0  0.1229
  H  H171  1  0.443700  0.151000  0.994000  1.0  0.0992
  H  H172  1  0.401900  0.117600  0.902100  1.0  0.1204
  H  H173  1  0.385400  0.945900  0.135300  1.0  0.1113
  H  H174  1  0.422200  0.007600  0.195600  1.0  0.112
  H  H175  1  0.357500  0.006600  0.149500  1.0  0.1043
  H  H176  1  0.241300  0.792600  0.816300  1.0  0.1019
  H  H177  1  0.295200  0.882300  0.734800  1.0  0.1215
  H  H178  1  0.248400  0.826000  0.696900  1.0  0.1219
  H  H179  1  0.232000  0.902700  0.666667  1.0  0.112
  H  H180  1  0.223600  0.867100  0.967000  1.0  0.1118
  H  H181  1  0.226300  0.793700  0.936600  1.0  0.1014
  H  H182  1  0.281700  0.830600  0.011900  1.0  0.1152
  H  H183  1  0.122000  0.125500  0.851900  1.0  0.1117
  H  H184  1  0.125600  0.124200  0.676700  1.0  0.1179
  H  H185  1  0.105400  0.174800  0.715200  1.0  0.1206
  H  H186  1  0.161600  0.189100  0.729100  1.0  0.1251
  H  H187  1  0.226100  0.050800  0.049300  1.0  0.1041
  H  H188  1  0.160400  0.051600  0.989500  1.0  0.1117
  H  H189  1  0.192100  0.986100  0.993100  1.0  0.11
  H  H190  1  0.510900  0.155300  0.698700  1.0  0.067
  H  H191  1  0.540800  0.072800  0.649500  1.0  0.1091
  H  H192  1  0.389500  0.079900  0.420600  1.0  0.0768
  H  H193  1  0.361800  0.159300  0.473600  1.0  0.0853
  H  H194  1  0.451700  0.010000  0.422700  1.0  0.0659
  H  H195  1  0.224000  0.471000  0.495000  1.0  0.0692
  H  H196  1  0.051700  0.586300  0.385700  1.0  0.1117
  H  H197  1  0.116600  0.681800  0.572200  1.0  0.1222
  H  H198  1  0.056300  0.651000  0.506000  1.0  0.1079
  H  H199  1  0.098100  0.617600  0.597900  1.0  0.1198
  H  H200  1  0.114600  0.445900  0.364700  1.0  0.112
  H  H201  1  0.077800  0.507600  0.304400  1.0  0.1148
  H  H202  1  0.142500  0.506600  0.350500  1.0  0.1043
  H  H203  1  0.258700  0.292600  0.683700  1.0  0.1016
  H  H204  1  0.204800  0.382300  0.765200  1.0  0.1243
  H  H205  1  0.251600  0.326000  0.803100  1.0  0.1227
  H  H206  1  0.268000  0.402700  0.833400  1.0  0.1108
  H  H207  1  0.276400  0.367100  0.533000  1.0  0.1118
  H  H208  1  0.273700  0.293700  0.563400  1.0  0.1024
  H  H209  1  0.218300  0.330600  0.488100  1.0  0.1144
  H  H210  1  0.378000  0.625500  0.648100  1.0  0.1119
  H  H211  1  0.374400  0.624200  0.823300  1.0  0.1197
  H  H212  1  0.394600  0.674800  0.784800  1.0  0.1227
  H  H213  1  0.338400  0.689100  0.770900  1.0  0.1264
  H  H214  1  0.273900  0.550800  0.450700  1.0  0.1047
  H  H215  1  0.339600  0.551600  0.510500  1.0  0.113
  H  H216  1  0.307900  0.486100  0.506900  1.0  0.1125
  H  H217  1  0.989100  0.655300  0.801300  1.0  0.0668
  H  H218  1  0.959200  0.572800  0.850500  1.0  0.1096
  H  H219  1  0.110500  0.579900  0.079400  1.0  0.0767
  H  H220  1  0.138200  0.659300  0.026400  1.0  0.0849
  H  H221  1  0.048300  0.510000  0.077300  1.0  0.066
  H  H222  1  0.724000  0.971000  0.495000  1.0  0.0692
  H  H223  1  0.551700  0.086300  0.385700  1.0  0.1117
  H  H224  1  0.616600  0.181800  0.572200  1.0  0.1222
  H  H225  1  0.556300  0.151000  0.506000  1.0  0.1079
  H  H226  1  0.598100  0.117600  0.597900  1.0  0.1198
  H  H227  1  0.614600  0.945900  0.364700  1.0  0.112
  H  H228  1  0.577800  0.007600  0.304400  1.0  0.1148
  H  H229  1  0.642500  0.006600  0.350500  1.0  0.1043
  H  H230  1  0.758700  0.792600  0.683700  1.0  0.1016
  H  H231  1  0.704800  0.882300  0.765200  1.0  0.1243
  H  H232  1  0.751600  0.826000  0.803100  1.0  0.1227
  H  H233  1  0.768000  0.902700  0.833400  1.0  0.1108
  H  H234  1  0.776400  0.867100  0.533000  1.0  0.1118
  H  H235  1  0.773700  0.793700  0.563400  1.0  0.1024
  H  H236  1  0.718300  0.830600  0.488100  1.0  0.1144
  H  H237  1  0.878000  0.125500  0.648100  1.0  0.1119
  H  H238  1  0.874400  0.124200  0.823300  1.0  0.1197
  H  H239  1  0.894600  0.174800  0.784800  1.0  0.1227
  H  H240  1  0.838400  0.189100  0.770900  1.0  0.1264
  H  H241  1  0.773900  0.050800  0.450700  1.0  0.1047
  H  H242  1  0.839600  0.051600  0.510500  1.0  0.113
  H  H243  1  0.807900  0.986100  0.506900  1.0  0.1125
  H  H244  1  0.489100  0.155300  0.801300  1.0  0.0668
  H  H245  1  0.459200  0.072800  0.850500  1.0  0.1096
  H  H246  1  0.610500  0.079900  0.079400  1.0  0.0767
  H  H247  1  0.638200  0.159300  0.026400  1.0  0.0849
  H  H248  1  0.548300  0.010000  0.077300  1.0  0.066
  W  W249  1  0.234580  0.444840  0.211490  1.0  0.5635
  W  W250  1  0.734580  0.944840  0.211490  1.0  0.5635
  W  W251  1  0.765420  0.444840  0.288510  1.0  0.5654
  W  W252  1  0.265420  0.944840  0.288510  1.0  0.5654
  W  W253  1  0.765420  0.555160  0.788510  1.0  0.5651
  W  W254  1  0.265420  0.055160  0.788510  1.0  0.5651
  W  W255  1  0.234580  0.555160  0.711490  1.0  0.5627
  W  W256  1  0.734580  0.055160  0.711490  1.0  0.5627
  C  C257  1  0.116300  0.405900  0.016600  1.0  0.1953
  C  C258  1  0.087900  0.426100  0.932500  1.0  -0.1682
  C  C259  1  0.124300  0.468900  0.931300  1.0  0.2445
  C  C260  1  0.094900  0.359800  0.051200  1.0  -0.4618
  C  C261  1  0.113900  0.505400  0.856100  1.0  -0.394
  C  C262  1  0.246400  0.613100  0.211100  1.0  0.2198
  C  C263  1  0.252900  0.660900  0.170000  1.0  -0.1291
  C  C264  1  0.249700  0.631300  0.106000  1.0  0.2137
  C  C265  1  0.242300  0.626800  0.285200  1.0  -0.438
  C  C266  1  0.255000  0.662700  0.042000  1.0  -0.3936
  C  C267  1  0.331700  0.386400  0.195000  1.0  0.3123
  C  C268  1  0.347300  0.394500  0.141100  1.0  -0.1425
  C  C269  1  0.308800  0.437200  0.076600  1.0  0.3477
  C  C270  1  0.362400  0.346100  0.275500  1.0  -0.423
  C  C271  1  0.307400  0.464500  0.004900  1.0  -0.3941
  C  C272  1  0.014000  0.360900  0.357800  1.0  0.1553
  C  C273  1  0.995700  0.410500  0.386700  1.0  -0.1971
  C  C274  1  0.034200  0.434900  0.472700  1.0  -0.0352
  C  C275  1  0.085300  0.406500  0.521800  1.0  -0.103
  C  C276  1  0.101900  0.358100  0.490400  1.0  0.133
  C  C277  1  0.021400  0.484000  0.517900  1.0  -0.156
  C  C278  1  0.146900  0.326300  0.293700  1.0  -0.0757
  C  C279  1  0.336200  0.321800  0.454500  1.0  0.0549
  C  C280  1  0.976900  0.213000  0.221500  1.0  -0.0307
  C  C281  1  0.616300  0.905900  0.016600  1.0  0.1953
  C  C282  1  0.587900  0.926100  0.932500  1.0  -0.1682
  C  C283  1  0.624300  0.968900  0.931300  1.0  0.2445
  C  C284  1  0.594900  0.859800  0.051200  1.0  -0.4618
  C  C285  1  0.613900  0.005400  0.856100  1.0  -0.394
  C  C286  1  0.746400  0.113100  0.211100  1.0  0.2198
  C  C287  1  0.752900  0.160900  0.170000  1.0  -0.1291
  C  C288  1  0.749700  0.131300  0.106000  1.0  0.2137
  C  C289  1  0.742300  0.126800  0.285200  1.0  -0.438
  C  C290  1  0.755000  0.162700  0.042000  1.0  -0.3936
  C  C291  1  0.831700  0.886400  0.195000  1.0  0.3123
  C  C292  1  0.847300  0.894500  0.141100  1.0  -0.1425
  C  C293  1  0.808800  0.937200  0.076600  1.0  0.3477
  C  C294  1  0.862400  0.846100  0.275500  1.0  -0.423
  C  C295  1  0.807400  0.964500  0.004900  1.0  -0.3941
  C  C296  1  0.514000  0.860900  0.357800  1.0  0.1553
  C  C297  1  0.495700  0.910500  0.386700  1.0  -0.1971
  C  C298  1  0.534200  0.934900  0.472700  1.0  -0.0352
  C  C299  1  0.585300  0.906500  0.521800  1.0  -0.103
  C  C300  1  0.601900  0.858100  0.490400  1.0  0.133
  C  C301  1  0.521400  0.984000  0.517900  1.0  -0.156
  C  C302  1  0.646900  0.826300  0.293700  1.0  -0.0757
  C  C303  1  0.836200  0.821800  0.454500  1.0  0.0549
  C  C304  1  0.476900  0.713000  0.221500  1.0  -0.0307
  C  C305  1  0.883700  0.405900  0.483400  1.0  0.1955
  C  C306  1  0.912100  0.426100  0.567500  1.0  -0.1697
  C  C307  1  0.875700  0.468900  0.568700  1.0  0.2439
  C  C308  1  0.905100  0.359800  0.448800  1.0  -0.4643
  C  C309  1  0.886100  0.505400  0.643900  1.0  -0.3941
  C  C310  1  0.753600  0.613100  0.288900  1.0  0.22
  C  C311  1  0.747100  0.660900  0.330000  1.0  -0.1299
  C  C312  1  0.750300  0.631300  0.394000  1.0  0.2137
  C  C313  1  0.757700  0.626800  0.214800  1.0  -0.438
  C  C314  1  0.745000  0.662700  0.458000  1.0  -0.3918
  C  C315  1  0.668300  0.386400  0.305000  1.0  0.3104
  C  C316  1  0.652700  0.394500  0.358900  1.0  -0.145
  C  C317  1  0.691200  0.437200  0.423400  1.0  0.3483
  C  C318  1  0.637600  0.346100  0.224500  1.0  -0.4225
  C  C319  1  0.692600  0.464500  0.495100  1.0  -0.3919
  C  C320  1  0.986000  0.360900  0.142200  1.0  0.1551
  C  C321  1  0.004300  0.410500  0.113300  1.0  -0.1977
  C  C322  1  0.965800  0.434900  0.027300  1.0  -0.0335
  C  C323  1  0.914700  0.406500  0.978200  1.0  -0.1027
  C  C324  1  0.898100  0.358100  0.009600  1.0  0.1342
  C  C325  1  0.978600  0.484000  0.982100  1.0  -0.156
  C  C326  1  0.853100  0.326300  0.206300  1.0  -0.071
  C  C327  1  0.663800  0.321800  0.045500  1.0  0.046
  C  C328  1  0.383700  0.905900  0.483400  1.0  0.1955
  C  C329  1  0.412100  0.926100  0.567500  1.0  -0.1697
  C  C330  1  0.375700  0.968900  0.568700  1.0  0.2439
  C  C331  1  0.405100  0.859800  0.448800  1.0  -0.4643
  C  C332  1  0.386100  0.005400  0.643900  1.0  -0.3941
  C  C333  1  0.253600  0.113100  0.288900  1.0  0.22
  C  C334  1  0.247100  0.160900  0.330000  1.0  -0.1299
  C  C335  1  0.250300  0.131300  0.394000  1.0  0.2137
  C  C336  1  0.257700  0.126800  0.214800  1.0  -0.438
  C  C337  1  0.245000  0.162700  0.458000  1.0  -0.3918
  C  C338  1  0.168300  0.886400  0.305000  1.0  0.3104
  C  C339  1  0.152700  0.894500  0.358900  1.0  -0.145
  C  C340  1  0.191200  0.937200  0.423400  1.0  0.3483
  C  C341  1  0.137600  0.846100  0.224500  1.0  -0.4225
  C  C342  1  0.192600  0.964500  0.495100  1.0  -0.3919
  C  C343  1  0.486000  0.860900  0.142200  1.0  0.1551
  C  C344  1  0.504300  0.910500  0.113300  1.0  -0.1977
  C  C345  1  0.465800  0.934900  0.027300  1.0  -0.0335
  C  C346  1  0.414700  0.906500  0.978200  1.0  -0.1027
  C  C347  1  0.398100  0.858100  0.009600  1.0  0.1342
  C  C348  1  0.478600  0.984000  0.982100  1.0  -0.156
  C  C349  1  0.353100  0.826300  0.206300  1.0  -0.071
  C  C350  1  0.163800  0.821800  0.045500  1.0  0.046
  C  C351  1  0.883700  0.594100  0.983400  1.0  0.1964
  C  C352  1  0.912100  0.573900  0.067500  1.0  -0.1667
  C  C353  1  0.875700  0.531100  0.068700  1.0  0.2443
  C  C354  1  0.905100  0.640200  0.948800  1.0  -0.4653
  C  C355  1  0.886100  0.494600  0.143900  1.0  -0.3941
  C  C356  1  0.753600  0.386900  0.788900  1.0  0.222
  C  C357  1  0.747100  0.339100  0.830000  1.0  -0.1298
  C  C358  1  0.750300  0.368700  0.894000  1.0  0.2133
  C  C359  1  0.757700  0.373200  0.714800  1.0  -0.4377
  C  C360  1  0.745000  0.337300  0.958000  1.0  -0.3916
  C  C361  1  0.668300  0.613600  0.805000  1.0  0.3101
  C  C362  1  0.652700  0.605500  0.858900  1.0  -0.1463
  C  C363  1  0.691200  0.562800  0.923400  1.0  0.3482
  C  C364  1  0.637600  0.653900  0.724500  1.0  -0.4218
  C  C365  1  0.692600  0.535500  0.995100  1.0  -0.3927
  C  C366  1  0.986000  0.639100  0.642200  1.0  0.1559
  C  C367  1  0.004300  0.589500  0.613300  1.0  -0.1977
  C  C368  1  0.965800  0.565100  0.527300  1.0  -0.0341
  C  C369  1  0.914700  0.593500  0.478200  1.0  -0.1025
  C  C370  1  0.898100  0.641900  0.509600  1.0  0.1342
  C  C371  1  0.978600  0.516000  0.482100  1.0  -0.1543
  C  C372  1  0.853100  0.673700  0.706300  1.0  -0.0719
  C  C373  1  0.663800  0.678200  0.545500  1.0  0.0477
  C  C374  1  0.023100  0.787000  0.778500  1.0  -0.0339
  C  C375  1  0.383700  0.094100  0.983400  1.0  0.1964
  C  C376  1  0.412100  0.073900  0.067500  1.0  -0.1667
  C  C377  1  0.375700  0.031100  0.068700  1.0  0.2443
  C  C378  1  0.405100  0.140200  0.948800  1.0  -0.4653
  C  C379  1  0.386100  0.994600  0.143900  1.0  -0.3941
  C  C380  1  0.253600  0.886900  0.788900  1.0  0.222
  C  C381  1  0.247100  0.839100  0.830000  1.0  -0.1298
  C  C382  1  0.250300  0.868700  0.894000  1.0  0.2133
  C  C383  1  0.257700  0.873200  0.714800  1.0  -0.4377
  C  C384  1  0.245000  0.837300  0.958000  1.0  -0.3916
  C  C385  1  0.168300  0.113600  0.805000  1.0  0.3101
  C  C386  1  0.152700  0.105500  0.858900  1.0  -0.1463
  C  C387  1  0.191200  0.062800  0.923400  1.0  0.3482
  C  C388  1  0.137600  0.153900  0.724500  1.0  -0.4218
  C  C389  1  0.192600  0.035500  0.995100  1.0  -0.3927
  C  C390  1  0.486000  0.139100  0.642200  1.0  0.1559
  C  C391  1  0.504300  0.089500  0.613300  1.0  -0.1977
  C  C392  1  0.465800  0.065100  0.527300  1.0  -0.0341
  C  C393  1  0.414700  0.093500  0.478200  1.0  -0.1025
  C  C394  1  0.398100  0.141900  0.509600  1.0  0.1342
  C  C395  1  0.478600  0.016000  0.482100  1.0  -0.1543
  C  C396  1  0.353100  0.173700  0.706300  1.0  -0.0719
  C  C397  1  0.163800  0.178200  0.545500  1.0  0.0477
  C  C398  1  0.523100  0.287000  0.778500  1.0  -0.0339
  C  C399  1  0.116300  0.594100  0.516600  1.0  0.1965
  C  C400  1  0.087900  0.573900  0.432500  1.0  -0.1681
  C  C401  1  0.124300  0.531100  0.431300  1.0  0.2453
  C  C402  1  0.094900  0.640200  0.551200  1.0  -0.4646
  C  C403  1  0.113900  0.494600  0.356100  1.0  -0.3936
  C  C404  1  0.246400  0.386900  0.711100  1.0  0.2202
  C  C405  1  0.252900  0.339100  0.670000  1.0  -0.1291
  C  C406  1  0.249700  0.368700  0.606000  1.0  0.2138
  C  C407  1  0.242300  0.373200  0.785200  1.0  -0.4383
  C  C408  1  0.255000  0.337300  0.542000  1.0  -0.3926
  C  C409  1  0.331700  0.613600  0.695000  1.0  0.3128
  C  C410  1  0.347300  0.605500  0.641100  1.0  -0.1426
  C  C411  1  0.308800  0.562800  0.576600  1.0  0.348
  C  C412  1  0.362400  0.653900  0.775500  1.0  -0.4225
  C  C413  1  0.307400  0.535500  0.504900  1.0  -0.3946
  C  C414  1  0.014000  0.639100  0.857800  1.0  0.156
  C  C415  1  0.995700  0.589500  0.886700  1.0  -0.1973
  C  C416  1  0.034200  0.565100  0.972700  1.0  -0.0351
  C  C417  1  0.085300  0.593500  0.021800  1.0  -0.1024
  C  C418  1  0.101900  0.641900  0.990400  1.0  0.1325
  C  C419  1  0.021400  0.516000  0.017900  1.0  -0.1541
  C  C420  1  0.146900  0.673700  0.793700  1.0  -0.0755
  C  C421  1  0.336200  0.678200  0.954500  1.0  0.0544
  C  C422  1  0.616300  0.094100  0.516600  1.0  0.1965
  C  C423  1  0.587900  0.073900  0.432500  1.0  -0.1681
  C  C424  1  0.624300  0.031100  0.431300  1.0  0.2453
  C  C425  1  0.594900  0.140200  0.551200  1.0  -0.4646
  C  C426  1  0.613900  0.994600  0.356100  1.0  -0.3936
  C  C427  1  0.746400  0.886900  0.711100  1.0  0.2202
  C  C428  1  0.752900  0.839100  0.670000  1.0  -0.1291
  C  C429  1  0.749700  0.868700  0.606000  1.0  0.2138
  C  C430  1  0.742300  0.873200  0.785200  1.0  -0.4383
  C  C431  1  0.755000  0.837300  0.542000  1.0  -0.3926
  C  C432  1  0.831700  0.113600  0.695000  1.0  0.3128
  C  C433  1  0.847300  0.105500  0.641100  1.0  -0.1426
  C  C434  1  0.808800  0.062800  0.576600  1.0  0.348
  C  C435  1  0.862400  0.153900  0.775500  1.0  -0.4225
  C  C436  1  0.807400  0.035500  0.504900  1.0  -0.3946
  C  C437  1  0.514000  0.139100  0.857800  1.0  0.156
  C  C438  1  0.495700  0.089500  0.886700  1.0  -0.1973
  C  C439  1  0.534200  0.065100  0.972700  1.0  -0.0351
  C  C440  1  0.585300  0.093500  0.021800  1.0  -0.1024
  C  C441  1  0.601900  0.141900  0.990400  1.0  0.1325
  C  C442  1  0.521400  0.016000  0.017900  1.0  -0.1541
  C  C443  1  0.646900  0.173700  0.793700  1.0  -0.0755
  C  C444  1  0.836200  0.178200  0.954500  1.0  0.0544
  S  S445  1  0.170660  0.483300  0.224860  1.0  -0.2509
  S  S446  1  0.312840  0.474940  0.338550  1.0  -0.3619
  S  S447  1  0.231240  0.327160  0.219650  1.0  -0.2351
  S  S448  1  0.670660  0.983300  0.224860  1.0  -0.2509
  S  S449  1  0.812840  0.974940  0.338550  1.0  -0.3619
  S  S450  1  0.731240  0.827160  0.219650  1.0  -0.2351
  S  S451  1  0.829340  0.483300  0.275140  1.0  -0.2525
  S  S452  1  0.687160  0.474940  0.161450  1.0  -0.3645
  S  S453  1  0.768760  0.327160  0.280350  1.0  -0.2347
  S  S454  1  0.329340  0.983300  0.275140  1.0  -0.2525
  S  S455  1  0.187160  0.974940  0.161450  1.0  -0.3645
  S  S456  1  0.268760  0.827160  0.280350  1.0  -0.2347
  S  S457  1  0.829340  0.516700  0.775140  1.0  -0.2525
  S  S458  1  0.687160  0.525060  0.661450  1.0  -0.3642
  S  S459  1  0.768760  0.672840  0.780350  1.0  -0.2361
  S  S460  1  0.329340  0.016700  0.775140  1.0  -0.2525
  S  S461  1  0.187160  0.025060  0.661450  1.0  -0.3642
  S  S462  1  0.268760  0.172840  0.780350  1.0  -0.2361
  S  S463  1  0.170660  0.516700  0.724860  1.0  -0.2507
  S  S464  1  0.312840  0.525060  0.838550  1.0  -0.3622
  S  S465  1  0.231240  0.672840  0.719650  1.0  -0.2363
  S  S466  1  0.670660  0.016700  0.724860  1.0  -0.2507
  S  S467  1  0.812840  0.025060  0.838550  1.0  -0.3622
  S  S468  1  0.731240  0.172840  0.719650  1.0  -0.2363
  N  N469  1  0.168300  0.436700  0.067700  1.0  -0.4114
  N  N470  1  0.170400  0.474500  0.010700  1.0  -0.044
  N  N471  1  0.236800  0.552500  0.173800  1.0  -0.3672
  N  N472  1  0.238500  0.565000  0.105200  1.0  -0.103
  N  N473  1  0.285500  0.426100  0.164200  1.0  -0.3773
  N  N474  1  0.272900  0.456300  0.090400  1.0  -0.067
  N  N475  1  0.066200  0.335400  0.408300  1.0  -0.3515
  N  N476  1  0.129900  0.298300  0.324300  1.0  -0.4016
  N  N477  1  0.359500  0.293800  0.518600  1.0  -0.4189
  N  N478  1  0.023100  0.213000  0.278500  1.0  -0.4189
  N  N479  1  0.668300  0.936700  0.067700  1.0  -0.4114
  N  N480  1  0.670400  0.974500  0.010700  1.0  -0.044
  N  N481  1  0.736800  0.052500  0.173800  1.0  -0.3672
  N  N482  1  0.738500  0.065000  0.105200  1.0  -0.103
  N  N483  1  0.785500  0.926100  0.164200  1.0  -0.3773
  N  N484  1  0.772900  0.956300  0.090400  1.0  -0.067
  N  N485  1  0.566200  0.835400  0.408300  1.0  -0.3515
  N  N486  1  0.629900  0.798300  0.324300  1.0  -0.4016
  N  N487  1  0.859500  0.793800  0.518600  1.0  -0.4189
  N  N488  1  0.523100  0.713000  0.278500  1.0  -0.4189
  N  N489  1  0.831700  0.436700  0.432300  1.0  -0.4128
  N  N490  1  0.829600  0.474500  0.489300  1.0  -0.0446
  N  N491  1  0.763200  0.552500  0.326200  1.0  -0.3646
  N  N492  1  0.761500  0.565000  0.394800  1.0  -0.1036
  N  N493  1  0.714500  0.426100  0.335800  1.0  -0.3754
  N  N494  1  0.727100  0.456300  0.409600  1.0  -0.0665
  N  N495  1  0.933800  0.335400  0.091700  1.0  -0.3516
  N  N496  1  0.870100  0.298300  0.175700  1.0  -0.4023
  N  N497  1  0.640500  0.293800  0.981400  1.0  -0.4189
  N  N498  1  0.331700  0.936700  0.432300  1.0  -0.4128
  N  N499  1  0.329600  0.974500  0.489300  1.0  -0.0446
  N  N500  1  0.263200  0.052500  0.326200  1.0  -0.3646
  N  N501  1  0.261500  0.065000  0.394800  1.0  -0.1036
  N  N502  1  0.214500  0.926100  0.335800  1.0  -0.3754
  N  N503  1  0.227100  0.956300  0.409600  1.0  -0.0665
  N  N504  1  0.433800  0.835400  0.091700  1.0  -0.3516
  N  N505  1  0.370100  0.798300  0.175700  1.0  -0.4023
  N  N506  1  0.140500  0.793800  0.981400  1.0  -0.4189
  N  N507  1  0.831700  0.563300  0.932300  1.0  -0.4159
  N  N508  1  0.829600  0.525500  0.989300  1.0  -0.0445
  N  N509  1  0.763200  0.447500  0.826200  1.0  -0.3653
  N  N510  1  0.761500  0.435000  0.894800  1.0  -0.1037
  N  N511  1  0.714500  0.573900  0.835800  1.0  -0.3759
  N  N512  1  0.727100  0.543700  0.909600  1.0  -0.0672
  N  N513  1  0.933800  0.664600  0.591700  1.0  -0.351
  N  N514  1  0.870100  0.701700  0.675700  1.0  -0.4044
  N  N515  1  0.640500  0.706200  0.481400  1.0  -0.4193
  N  N516  1  0.976900  0.787000  0.721500  1.0  -0.4244
  N  N517  1  0.331700  0.063300  0.932300  1.0  -0.4159
  N  N518  1  0.329600  0.025500  0.989300  1.0  -0.0445
  N  N519  1  0.263200  0.947500  0.826200  1.0  -0.3653
  N  N520  1  0.261500  0.935000  0.894800  1.0  -0.1037
  N  N521  1  0.214500  0.073900  0.835800  1.0  -0.3759
  N  N522  1  0.227100  0.043700  0.909600  1.0  -0.0672
  N  N523  1  0.433800  0.164600  0.591700  1.0  -0.351
  N  N524  1  0.370100  0.201700  0.675700  1.0  -0.4044
  N  N525  1  0.140500  0.206200  0.481400  1.0  -0.4193
  N  N526  1  0.476900  0.287000  0.721500  1.0  -0.4244
  N  N527  1  0.168300  0.563300  0.567700  1.0  -0.4144
  N  N528  1  0.170400  0.525500  0.510700  1.0  -0.0441
  N  N529  1  0.236800  0.447500  0.673800  1.0  -0.367
  N  N530  1  0.238500  0.435000  0.605200  1.0  -0.1031
  N  N531  1  0.285500  0.573900  0.664200  1.0  -0.3773
  N  N532  1  0.272900  0.543700  0.590400  1.0  -0.067
  N  N533  1  0.066200  0.664600  0.908300  1.0  -0.3511
  N  N534  1  0.129900  0.701700  0.824300  1.0  -0.4031
  N  N535  1  0.359500  0.706200  0.018600  1.0  -0.4172
  N  N536  1  0.668300  0.063300  0.567700  1.0  -0.4144
  N  N537  1  0.670400  0.025500  0.510700  1.0  -0.0441
  N  N538  1  0.736800  0.947500  0.673800  1.0  -0.367
  N  N539  1  0.738500  0.935000  0.605200  1.0  -0.1031
  N  N540  1  0.785500  0.073900  0.664200  1.0  -0.3773
  N  N541  1  0.772900  0.043700  0.590400  1.0  -0.067
  N  N542  1  0.566200  0.164600  0.908300  1.0  -0.3511
  N  N543  1  0.629900  0.201700  0.824300  1.0  -0.4031
  N  N544  1  0.859500  0.206200  0.018600  1.0  -0.4172
