# generated using pymatgen
data_Zn3H34(C22O5)2
_symmetry_space_group_name_H-M   'P 1'
_cell_length_a   5.96600000
_cell_length_b   19.01320000
_cell_length_c   19.01320000
_cell_angle_alpha   101.32700000
_cell_angle_beta   97.75150000
_cell_angle_gamma   82.24850000
_symmetry_Int_Tables_number   1
_chemical_formula_structural   Zn3H34(C22O5)2
_chemical_formula_sum   'Zn3 H34 C44 O10'
_cell_volume   2082.30834175
_cell_formula_units_Z   1
loop_
 _symmetry_equiv_pos_site_id
 _symmetry_equiv_pos_as_xyz
  1  'x, y, z'
loop_
 _atom_site_type_symbol
 _atom_site_label
 _atom_site_symmetry_multiplicity
 _atom_site_fract_x
 _atom_site_fract_y
 _atom_site_fract_z
 _atom_site_occupancy
 _atom_site_charge
  Zn  Zn1  1  0.500000  0.000000  0.000000  1.0  0.8996
  Zn  Zn2  1  0.000000  0.060120  0.060120  1.0  1.0181
  Zn  Zn3  1  0.000000  0.939880  0.939880  1.0  1.0177
  H  H4  1  0.752300  0.287300  0.071900  1.0  0.1139
  H  H5  1  0.552800  0.396900  0.058300  1.0  0.0884
  H  H6  1  0.011200  0.304100  0.970900  1.0  0.0946
  H  H7  1  0.190400  0.194800  0.992400  1.0  0.1138
  H  H8  1  0.048800  0.561000  0.912000  1.0  0.1138
  H  H9  1  0.345400  0.478800  0.869200  1.0  0.1223
  H  H10  1  0.502200  0.452900  0.936500  1.0  0.1364
  H  H11  1  0.356900  0.397200  0.880600  1.0  0.1362
  H  H12  1  0.247700  0.071900  0.287300  1.0  0.1137
  H  H13  1  0.447200  0.058300  0.396900  1.0  0.0886
  H  H14  1  0.988800  0.970900  0.304100  1.0  0.0961
  H  H15  1  0.809600  0.992400  0.194800  1.0  0.1208
  H  H16  1  0.951200  0.912000  0.561000  1.0  0.1125
  H  H17  1  0.654600  0.869200  0.478800  1.0  0.124
  H  H18  1  0.497800  0.936500  0.452900  1.0  0.1347
  H  H19  1  0.643100  0.880600  0.397200  1.0  0.1344
  H  H20  1  0.247700  0.712700  0.928100  1.0  0.1137
  H  H21  1  0.447200  0.603100  0.941700  1.0  0.0884
  H  H22  1  0.988800  0.695900  0.029100  1.0  0.0951
  H  H23  1  0.809600  0.805200  0.007600  1.0  0.114
  H  H24  1  0.951200  0.439000  0.088000  1.0  0.1126
  H  H25  1  0.654600  0.521200  0.130800  1.0  0.1235
  H  H26  1  0.497800  0.547100  0.063500  1.0  0.1333
  H  H27  1  0.643100  0.602800  0.119400  1.0  0.1373
  H  H28  1  0.752300  0.928100  0.712700  1.0  0.1133
  H  H29  1  0.552800  0.941700  0.603100  1.0  0.0897
  H  H30  1  0.011200  0.029100  0.695900  1.0  0.096
  H  H31  1  0.190400  0.007600  0.805200  1.0  0.1207
  H  H32  1  0.048800  0.088000  0.439000  1.0  0.1119
  H  H33  1  0.345400  0.130800  0.521200  1.0  0.1231
  H  H34  1  0.502200  0.063500  0.547100  1.0  0.136
  H  H35  1  0.356900  0.119400  0.602800  1.0  0.1347
  H  H36  1  0.837300  0.918050  0.017770  1.0  0.2139
  H  H37  1  0.162700  0.081950  0.982230  1.0  0.2148
  C  C38  1  0.626200  0.157000  0.034400  1.0  0.7563
  C  C39  1  0.500700  0.228500  0.029300  1.0  -0.1145
  C  C40  1  0.598400  0.289100  0.050900  1.0  -0.0442
  C  C41  1  0.477100  0.354700  0.042900  1.0  -0.1385
  C  C42  1  0.258300  0.362600  0.014400  1.0  0.1086
  C  C43  1  0.163200  0.301700  0.993700  1.0  -0.154
  C  C44  1  0.272100  0.235800  0.003400  1.0  -0.1325
  C  C45  1  0.125600  0.433700  0.006700  1.0  0.0334
  C  C46  1  0.154900  0.469400  0.951600  1.0  0.0638
  C  C47  1  0.026100  0.535900  0.948500  1.0  -0.1434
  C  C48  1  0.358900  0.447600  0.905200  1.0  -0.3469
  C  C49  1  0.373800  0.034400  0.157000  1.0  0.7553
  C  C50  1  0.499300  0.029300  0.228500  1.0  -0.1247
  C  C51  1  0.401600  0.050900  0.289100  1.0  -0.0349
  C  C52  1  0.522900  0.042900  0.354700  1.0  -0.1406
  C  C53  1  0.741700  0.014400  0.362600  1.0  0.1064
  C  C54  1  0.836800  0.993700  0.301700  1.0  -0.1544
  C  C55  1  0.727900  0.003400  0.235800  1.0  -0.0864
  C  C56  1  0.874400  0.006700  0.433700  1.0  0.0349
  C  C57  1  0.845100  0.951600  0.469400  1.0  0.0685
  C  C58  1  0.973900  0.948500  0.535900  1.0  -0.1387
  C  C59  1  0.641100  0.905200  0.447600  1.0  -0.3443
  C  C60  1  0.373800  0.843000  0.965600  1.0  0.7573
  C  C61  1  0.499300  0.771500  0.970700  1.0  -0.1161
  C  C62  1  0.401600  0.710900  0.949100  1.0  -0.043
  C  C63  1  0.522900  0.645300  0.957100  1.0  -0.1395
  C  C64  1  0.741700  0.637400  0.985600  1.0  0.1079
  C  C65  1  0.836800  0.698300  0.006300  1.0  -0.1547
  C  C66  1  0.727900  0.764200  0.996600  1.0  -0.1316
  C  C67  1  0.874400  0.566300  0.993300  1.0  0.0345
  C  C68  1  0.845100  0.530600  0.048400  1.0  0.07
  C  C69  1  0.973900  0.464100  0.051500  1.0  -0.1358
  C  C70  1  0.641100  0.552400  0.094800  1.0  -0.3451
  C  C71  1  0.626200  0.965600  0.843000  1.0  0.7547
  C  C72  1  0.500700  0.970700  0.771500  1.0  -0.1261
  C  C73  1  0.598400  0.949100  0.710900  1.0  -0.0363
  C  C74  1  0.477100  0.957100  0.645300  1.0  -0.1403
  C  C75  1  0.258300  0.985600  0.637400  1.0  0.1066
  C  C76  1  0.163200  0.006300  0.698300  1.0  -0.1532
  C  C77  1  0.272100  0.996600  0.764200  1.0  -0.0873
  C  C78  1  0.125600  0.993300  0.566300  1.0  0.0349
  C  C79  1  0.154900  0.048400  0.530600  1.0  0.0635
  C  C80  1  0.026100  0.051500  0.464100  1.0  -0.1443
  C  C81  1  0.358900  0.094800  0.552400  1.0  -0.3481
  O  O82  1  0.540300  0.103800  0.013000  1.0  -0.634
  O  O83  1  0.826700  0.153520  0.060400  1.0  -0.5954
  O  O84  1  0.459700  0.013000  0.103800  1.0  -0.6511
  O  O85  1  0.173300  0.060400  0.153520  1.0  -0.5956
  O  O86  1  0.459700  0.896200  0.987000  1.0  -0.6321
  O  O87  1  0.173300  0.846480  0.939600  1.0  -0.5946
  O  O88  1  0.540300  0.987000  0.896200  1.0  -0.652
  O  O89  1  0.826700  0.939600  0.846480  1.0  -0.596
  O  O90  1  0.162700  0.028310  0.971690  1.0  -0.8787
  O  O91  1  0.837300  0.971690  0.028310  1.0  -0.8795
