# generated using pymatgen
data_Zn4H12C24O13
_symmetry_space_group_name_H-M   'P 1'
_cell_length_a   18.38000000
_cell_length_b   18.38000000
_cell_length_c   18.38000000
_cell_angle_alpha   60.25950000
_cell_angle_beta   60.25950000
_cell_angle_gamma   60.25950000
_symmetry_Int_Tables_number   1
_chemical_formula_structural   Zn4H12C24O13
_chemical_formula_sum   'Zn16 H48 C96 O52'
_cell_volume   4416.36566397
_cell_formula_units_Z   4
loop_
 _symmetry_equiv_pos_site_id
 _symmetry_equiv_pos_as_xyz
  1  'x, y, z'
loop_
 _atom_site_type_symbol
 _atom_site_label
 _atom_site_symmetry_multiplicity
 _atom_site_fract_x
 _atom_site_fract_y
 _atom_site_fract_z
 _atom_site_occupancy
 _atom_site_charge
  Zn  Zn1  1  0.609330  0.783290  0.609330  1.0  1.0949
  Zn  Zn2  1  0.196140  0.022020  0.196140  1.0  1.092
  Zn  Zn3  1  0.609330  0.609330  0.783290  1.0  1.0967
  Zn  Zn4  1  0.196140  0.196140  0.022020  1.0  1.0937
  Zn  Zn5  1  0.783290  0.609330  0.609330  1.0  1.0957
  Zn  Zn6  1  0.022020  0.196140  0.196140  1.0  1.0924
  Zn  Zn7  1  0.608790  0.608790  0.608790  1.0  1.1297
  Zn  Zn8  1  0.196610  0.196610  0.196610  1.0  1.0869
  Zn  Zn9  1  0.216710  0.390670  0.390670  1.0  1.0959
  Zn  Zn10  1  0.977980  0.803860  0.803860  1.0  1.0918
  Zn  Zn11  1  0.390670  0.390670  0.216710  1.0  1.0956
  Zn  Zn12  1  0.803860  0.803860  0.977980  1.0  1.0954
  Zn  Zn13  1  0.390670  0.216710  0.390670  1.0  1.0951
  Zn  Zn14  1  0.803860  0.977980  0.803860  1.0  1.0919
  Zn  Zn15  1  0.391210  0.391210  0.391210  1.0  1.1303
  Zn  Zn16  1  0.803390  0.803390  0.803390  1.0  1.0867
  H  H17  1  0.839300  0.055100  0.356700  1.0  0.1123
  H  H18  1  0.750900  0.965400  0.444800  1.0  0.1002
  H  H19  1  0.356700  0.839300  0.055100  1.0  0.1125
  H  H20  1  0.444800  0.750900  0.965400  1.0  0.0994
  H  H21  1  0.055100  0.356700  0.839300  1.0  0.1111
  H  H22  1  0.965400  0.444800  0.750900  1.0  0.1009
  H  H23  1  0.055100  0.839300  0.356700  1.0  0.1121
  H  H24  1  0.965400  0.750900  0.444800  1.0  0.0998
  H  H25  1  0.839300  0.356700  0.055100  1.0  0.1122
  H  H26  1  0.750900  0.444800  0.965400  1.0  0.0998
  H  H27  1  0.356700  0.055100  0.839300  1.0  0.1117
  H  H28  1  0.444800  0.965400  0.750900  1.0  0.1016
  H  H29  1  0.358500  0.055000  0.358500  1.0  0.1017
  H  H30  1  0.447600  0.966200  0.447600  1.0  0.1074
  H  H31  1  0.358000  0.839700  0.358000  1.0  0.1123
  H  H32  1  0.446300  0.751600  0.446300  1.0  0.1088
  H  H33  1  0.358500  0.358500  0.055000  1.0  0.1022
  H  H34  1  0.447600  0.447600  0.966200  1.0  0.1067
  H  H35  1  0.358000  0.358000  0.839700  1.0  0.1112
  H  H36  1  0.446300  0.446300  0.751600  1.0  0.1087
  H  H37  1  0.055000  0.358500  0.358500  1.0  0.1029
  H  H38  1  0.966200  0.447600  0.447600  1.0  0.1075
  H  H39  1  0.839700  0.358000  0.358000  1.0  0.112
  H  H40  1  0.751600  0.446300  0.446300  1.0  0.1086
  H  H41  1  0.944900  0.160700  0.643300  1.0  0.112
  H  H42  1  0.034600  0.249100  0.555200  1.0  0.1
  H  H43  1  0.160700  0.643300  0.944900  1.0  0.1123
  H  H44  1  0.249100  0.555200  0.034600  1.0  0.1002
  H  H45  1  0.643300  0.944900  0.160700  1.0  0.1112
  H  H46  1  0.555200  0.034600  0.249100  1.0  0.1017
  H  H47  1  0.160700  0.944900  0.643300  1.0  0.1122
  H  H48  1  0.249100  0.034600  0.555200  1.0  0.1011
  H  H49  1  0.643300  0.160700  0.944900  1.0  0.1124
  H  H50  1  0.555200  0.249100  0.034600  1.0  0.0996
  H  H51  1  0.944900  0.643300  0.160700  1.0  0.1102
  H  H52  1  0.034600  0.555200  0.249100  1.0  0.1011
  H  H53  1  0.945000  0.641500  0.641500  1.0  0.102
  H  H54  1  0.033800  0.552400  0.552400  1.0  0.1072
  H  H55  1  0.160300  0.642000  0.642000  1.0  0.1116
  H  H56  1  0.248400  0.553700  0.553700  1.0  0.1081
  H  H57  1  0.641500  0.641500  0.945000  1.0  0.1023
  H  H58  1  0.552400  0.552400  0.033800  1.0  0.1067
  H  H59  1  0.642000  0.642000  0.160300  1.0  0.1112
  H  H60  1  0.553700  0.553700  0.248400  1.0  0.1079
  H  H61  1  0.641500  0.945000  0.641500  1.0  0.1017
  H  H62  1  0.552400  0.033800  0.552400  1.0  0.1075
  H  H63  1  0.642000  0.160300  0.642000  1.0  0.1121
  H  H64  1  0.553700  0.248400  0.553700  1.0  0.1093
  C  C65  1  0.865570  0.993570  0.374470  1.0  -0.0555
  C  C66  1  0.812350  0.939450  0.427750  1.0  -0.0385
  C  C67  1  0.374470  0.865570  0.993570  1.0  -0.0547
  C  C68  1  0.427750  0.812350  0.939450  1.0  -0.0371
  C  C69  1  0.993570  0.374470  0.865570  1.0  -0.0532
  C  C70  1  0.939450  0.427750  0.812350  1.0  -0.0392
  C  C71  1  0.993570  0.865570  0.374470  1.0  -0.0517
  C  C72  1  0.939450  0.812350  0.427750  1.0  -0.0363
  C  C73  1  0.865570  0.374470  0.993570  1.0  -0.055
  C  C74  1  0.812350  0.427750  0.939450  1.0  -0.0395
  C  C75  1  0.374470  0.993570  0.865570  1.0  -0.0551
  C  C76  1  0.427750  0.939450  0.812350  1.0  -0.0378
  C  C77  1  0.290930  0.014430  0.290930  1.0  0.717
  C  C78  1  0.349340  0.956140  0.349340  1.0  -0.1272
  C  C79  1  0.376010  0.993610  0.376010  1.0  -0.0459
  C  C80  1  0.429800  0.940000  0.429800  1.0  -0.0515
  C  C81  1  0.375760  0.865860  0.375760  1.0  -0.0565
  C  C82  1  0.429030  0.812930  0.429030  1.0  -0.0512
  C  C83  1  0.456530  0.848830  0.456530  1.0  -0.1272
  C  C84  1  0.514390  0.791190  0.514390  1.0  0.7174
  C  C85  1  0.290930  0.290930  0.014430  1.0  0.7171
  C  C86  1  0.349340  0.349340  0.956140  1.0  -0.1273
  C  C87  1  0.376010  0.376010  0.993610  1.0  -0.0459
  C  C88  1  0.429800  0.429800  0.940000  1.0  -0.0521
  C  C89  1  0.375760  0.375760  0.865860  1.0  -0.0571
  C  C90  1  0.429030  0.429030  0.812930  1.0  -0.0517
  C  C91  1  0.456530  0.456530  0.848830  1.0  -0.1285
  C  C92  1  0.514390  0.514390  0.791190  1.0  0.7155
  C  C93  1  0.014430  0.290930  0.290930  1.0  0.7167
  C  C94  1  0.956140  0.349340  0.349340  1.0  -0.1275
  C  C95  1  0.993610  0.376010  0.376010  1.0  -0.0481
  C  C96  1  0.940000  0.429800  0.429800  1.0  -0.0514
  C  C97  1  0.865860  0.375760  0.375760  1.0  -0.0556
  C  C98  1  0.812930  0.429030  0.429030  1.0  -0.0498
  C  C99  1  0.848830  0.456530  0.456530  1.0  -0.1278
  C  C100  1  0.791190  0.514390  0.514390  1.0  0.7181
  C  C101  1  0.014600  0.014600  0.290900  1.0  0.728
  C  C102  1  0.956260  0.956260  0.348360  1.0  -0.1257
  C  C103  1  0.849250  0.849250  0.454950  1.0  -0.1266
  C  C104  1  0.790990  0.790990  0.514590  1.0  0.7129
  C  C105  1  0.290900  0.014600  0.014600  1.0  0.7267
  C  C106  1  0.348360  0.956260  0.956260  1.0  -0.1285
  C  C107  1  0.454950  0.849250  0.849250  1.0  -0.1282
  C  C108  1  0.514590  0.790990  0.790990  1.0  0.7127
  C  C109  1  0.014600  0.290900  0.014600  1.0  0.7275
  C  C110  1  0.956260  0.348360  0.956260  1.0  -0.1273
  C  C111  1  0.849250  0.454950  0.849250  1.0  -0.1281
  C  C112  1  0.790990  0.514590  0.790990  1.0  0.7114
  C  C113  1  0.006430  0.134430  0.625530  1.0  -0.0541
  C  C114  1  0.060550  0.187650  0.572250  1.0  -0.0366
  C  C115  1  0.134430  0.625530  0.006430  1.0  -0.0555
  C  C116  1  0.187650  0.572250  0.060550  1.0  -0.0395
  C  C117  1  0.625530  0.006430  0.134430  1.0  -0.0544
  C  C118  1  0.572250  0.060550  0.187650  1.0  -0.038
  C  C119  1  0.134430  0.006430  0.625530  1.0  -0.0546
  C  C120  1  0.187650  0.060550  0.572250  1.0  -0.0366
  C  C121  1  0.625530  0.134430  0.006430  1.0  -0.0553
  C  C122  1  0.572250  0.187650  0.060550  1.0  -0.0386
  C  C123  1  0.006430  0.625530  0.134430  1.0  -0.0545
  C  C124  1  0.060550  0.572250  0.187650  1.0  -0.038
  C  C125  1  0.985570  0.709070  0.709070  1.0  0.7179
  C  C126  1  0.043860  0.650660  0.650660  1.0  -0.1278
  C  C127  1  0.006390  0.623990  0.623990  1.0  -0.0486
  C  C128  1  0.060000  0.570200  0.570200  1.0  -0.0511
  C  C129  1  0.134140  0.624240  0.624240  1.0  -0.0547
  C  C130  1  0.187070  0.570970  0.570970  1.0  -0.049
  C  C131  1  0.151170  0.543470  0.543470  1.0  -0.1289
  C  C132  1  0.208810  0.485610  0.485610  1.0  0.7172
  C  C133  1  0.709070  0.709070  0.985570  1.0  0.7168
  C  C134  1  0.650660  0.650660  0.043860  1.0  -0.1277
  C  C135  1  0.623990  0.623990  0.006390  1.0  -0.046
  C  C136  1  0.570200  0.570200  0.060000  1.0  -0.0509
  C  C137  1  0.624240  0.624240  0.134140  1.0  -0.0568
  C  C138  1  0.570970  0.570970  0.187070  1.0  -0.0523
  C  C139  1  0.543470  0.543470  0.151170  1.0  -0.1295
  C  C140  1  0.485610  0.485610  0.208810  1.0  0.7169
  C  C141  1  0.709070  0.985570  0.709070  1.0  0.7177
  C  C142  1  0.650660  0.043860  0.650660  1.0  -0.1277
  C  C143  1  0.623990  0.006390  0.623990  1.0  -0.0451
  C  C144  1  0.570200  0.060000  0.570200  1.0  -0.0521
  C  C145  1  0.624240  0.134140  0.624240  1.0  -0.0565
  C  C146  1  0.570970  0.187070  0.570970  1.0  -0.0476
  C  C147  1  0.543470  0.151170  0.543470  1.0  -0.1283
  C  C148  1  0.485610  0.208810  0.485610  1.0  0.717
  C  C149  1  0.985400  0.985400  0.709100  1.0  0.7272
  C  C150  1  0.043740  0.043740  0.651640  1.0  -0.1256
  C  C151  1  0.150750  0.150750  0.545050  1.0  -0.1253
  C  C152  1  0.209010  0.209010  0.485410  1.0  0.7119
  C  C153  1  0.985400  0.709100  0.985400  1.0  0.7269
  C  C154  1  0.043740  0.651640  0.043740  1.0  -0.1271
  C  C155  1  0.150750  0.545050  0.150750  1.0  -0.1281
  C  C156  1  0.209010  0.485410  0.209010  1.0  0.7111
  C  C157  1  0.709100  0.985400  0.985400  1.0  0.7266
  C  C158  1  0.651640  0.043740  0.043740  1.0  -0.1297
  C  C159  1  0.545050  0.150750  0.150750  1.0  -0.1279
  C  C160  1  0.485410  0.209010  0.209010  1.0  0.7123
  O  O161  1  0.707870  0.829670  0.536770  1.0  -0.6051
  O  O162  1  0.976150  0.097050  0.268350  1.0  -0.6175
  O  O163  1  0.536770  0.707870  0.829670  1.0  -0.6065
  O  O164  1  0.268350  0.976150  0.097050  1.0  -0.6165
  O  O165  1  0.829670  0.536770  0.707870  1.0  -0.6033
  O  O166  1  0.097050  0.268350  0.976150  1.0  -0.6162
  O  O167  1  0.829670  0.707870  0.536770  1.0  -0.6043
  O  O168  1  0.097050  0.976150  0.268350  1.0  -0.6157
  O  O169  1  0.707870  0.536770  0.829670  1.0  -0.6052
  O  O170  1  0.976150  0.268350  0.097050  1.0  -0.6169
  O  O171  1  0.536770  0.829670  0.707870  1.0  -0.6066
  O  O172  1  0.268350  0.097050  0.976150  1.0  -0.6177
  O  O173  1  0.536960  0.829510  0.536960  1.0  -0.6133
  O  O174  1  0.536250  0.708050  0.536250  1.0  -0.6194
  O  O175  1  0.269270  0.097530  0.269270  1.0  -0.6204
  O  O176  1  0.268600  0.976350  0.268600  1.0  -0.6156
  O  O177  1  0.536960  0.536960  0.829510  1.0  -0.6132
  O  O178  1  0.536250  0.536250  0.708050  1.0  -0.6168
  O  O179  1  0.269270  0.269270  0.097530  1.0  -0.6214
  O  O180  1  0.268600  0.268600  0.976350  1.0  -0.614
  O  O181  1  0.829510  0.536960  0.536960  1.0  -0.613
  O  O182  1  0.708050  0.536250  0.536250  1.0  -0.618
  O  O183  1  0.097530  0.269270  0.269270  1.0  -0.6206
  O  O184  1  0.976350  0.268600  0.268600  1.0  -0.6164
  O  O185  1  0.652530  0.652530  0.652530  1.0  -1.2666
  O  O186  1  0.152740  0.152740  0.152740  1.0  -1.263
  O  O187  1  0.170330  0.292130  0.463230  1.0  -0.6061
  O  O188  1  0.902950  0.023850  0.731650  1.0  -0.6158
  O  O189  1  0.292130  0.463230  0.170330  1.0  -0.6055
  O  O190  1  0.023850  0.731650  0.902950  1.0  -0.6156
  O  O191  1  0.463230  0.170330  0.292130  1.0  -0.6068
  O  O192  1  0.731650  0.902950  0.023850  1.0  -0.6175
  O  O193  1  0.292130  0.170330  0.463230  1.0  -0.6048
  O  O194  1  0.023850  0.902950  0.731650  1.0  -0.6169
  O  O195  1  0.463230  0.292130  0.170330  1.0  -0.6068
  O  O196  1  0.731650  0.023850  0.902950  1.0  -0.6158
  O  O197  1  0.170330  0.463230  0.292130  1.0  -0.6048
  O  O198  1  0.902950  0.731650  0.023850  1.0  -0.6173
  O  O199  1  0.170490  0.463040  0.463040  1.0  -0.6132
  O  O200  1  0.291950  0.463750  0.463750  1.0  -0.6182
  O  O201  1  0.902470  0.730730  0.730730  1.0  -0.6196
  O  O202  1  0.023650  0.731400  0.731400  1.0  -0.6163
  O  O203  1  0.463040  0.463040  0.170490  1.0  -0.6125
  O  O204  1  0.463750  0.463750  0.291950  1.0  -0.6177
  O  O205  1  0.730730  0.730730  0.902470  1.0  -0.6212
  O  O206  1  0.731400  0.731400  0.023650  1.0  -0.6152
  O  O207  1  0.463040  0.170490  0.463040  1.0  -0.6129
  O  O208  1  0.463750  0.291950  0.463750  1.0  -0.6191
  O  O209  1  0.730730  0.902470  0.730730  1.0  -0.6207
  O  O210  1  0.731400  0.023650  0.731400  1.0  -0.6157
  O  O211  1  0.347470  0.347470  0.347470  1.0  -1.2673
  O  O212  1  0.847260  0.847260  0.847260  1.0  -1.2644
