# generated using pymatgen
data_Fe2Ni3H52(C10N7)3
_symmetry_space_group_name_H-M   'P 1'
_cell_length_a   13.99850000
_cell_length_b   13.99850000
_cell_length_c   16.68800000
_cell_angle_alpha   80.95150000
_cell_angle_beta   80.95150000
_cell_angle_gamma   61.63480000
_symmetry_Int_Tables_number   1
_chemical_formula_structural   Fe2Ni3H52(C10N7)3
_chemical_formula_sum   'Fe4 Ni6 H104 C60 N42'
_cell_volume   2828.86323882
_cell_formula_units_Z   2
loop_
 _symmetry_equiv_pos_site_id
 _symmetry_equiv_pos_as_xyz
  1  'x, y, z'
loop_
 _atom_site_type_symbol
 _atom_site_label
 _atom_site_symmetry_multiplicity
 _atom_site_fract_x
 _atom_site_fract_y
 _atom_site_fract_z
 _atom_site_occupancy
 _atom_site_charge
  Fe  Fe1  1  0.839110  0.780310  0.418400  1.0  -0.5068
  Fe  Fe2  1  0.219690  0.160890  0.081600  1.0  -0.5074
  Fe  Fe3  1  0.160890  0.219690  0.581600  1.0  -0.5071
  Fe  Fe4  1  0.780310  0.839110  0.918400  1.0  -0.5066
  Ni  Ni5  1  0.953660  0.591220  0.693430  1.0  0.6915
  Ni  Ni6  1  0.408780  0.046340  0.806570  1.0  0.6916
  Ni  Ni7  1  0.046340  0.408780  0.306570  1.0  0.6898
  Ni  Ni8  1  0.591220  0.953660  0.193430  1.0  0.6916
  Ni  Ni9  1  0.107090  0.892910  0.250000  1.0  0.3989
  Ni  Ni10  1  0.892910  0.107090  0.750000  1.0  0.3979
  H  H11  1  0.135200  0.591000  0.652400  1.0  0.3289
  H  H12  1  0.077500  0.668100  0.714700  1.0  0.2814
  H  H13  1  0.217700  0.447500  0.739500  1.0  0.0539
  H  H14  1  0.217200  0.541200  0.780600  1.0  0.0521
  H  H15  1  0.094500  0.545100  0.864600  1.0  0.0997
  H  H16  1  0.199100  0.431300  0.862600  1.0  0.1396
  H  H17  1  0.053000  0.410800  0.898000  1.0  0.0775
  H  H18  1  0.110800  0.360800  0.814700  1.0  0.0563
  H  H19  1  0.935400  0.544000  0.839200  1.0  0.2715
  H  H20  1  0.883800  0.448800  0.883300  1.0  0.0707
  H  H21  1  0.941000  0.372400  0.813200  1.0  0.0263
  H  H22  1  0.748100  0.533300  0.835000  1.0  0.077
  H  H23  1  0.788900  0.417500  0.807500  1.0  0.0812
  H  H24  1  0.774400  0.477000  0.677300  1.0  0.0674
  H  H25  1  0.679700  0.580300  0.717800  1.0  0.0517
  H  H26  1  0.757300  0.669300  0.677000  1.0  0.3047
  H  H27  1  0.816100  0.590100  0.617600  1.0  0.3249
  H  H28  1  0.164800  0.869200  0.389500  1.0  0.3184
  H  H29  1  0.222700  0.920900  0.334900  1.0  0.3044
  H  H30  1  0.093200  0.994200  0.445400  1.0  0.0496
  H  H31  1  0.141600  0.055000  0.378200  1.0  0.0652
  H  H32  1  0.001500  0.161300  0.371800  1.0  0.1083
  H  H33  1  0.953500  0.088300  0.423900  1.0  0.0851
  H  H34  1  0.922900  0.179900  0.283600  1.0  0.0569
  H  H35  1  0.865100  0.118100  0.339700  1.0  0.0722
  H  H36  1  0.924700  0.004700  0.282500  1.0  0.4313
  H  H37  1  0.409000  0.864800  0.847600  1.0  0.3261
  H  H38  1  0.331900  0.922500  0.785300  1.0  0.2806
  H  H39  1  0.552500  0.782300  0.760500  1.0  0.0551
  H  H40  1  0.458800  0.782800  0.719400  1.0  0.0503
  H  H41  1  0.454900  0.905500  0.635400  1.0  0.1048
  H  H42  1  0.568700  0.800900  0.637400  1.0  0.1376
  H  H43  1  0.589200  0.947000  0.602000  1.0  0.0766
  H  H44  1  0.639200  0.889200  0.685300  1.0  0.0593
  H  H45  1  0.456000  0.064600  0.660800  1.0  0.2646
  H  H46  1  0.551200  0.116200  0.616700  1.0  0.0722
  H  H47  1  0.627600  0.059000  0.686800  1.0  0.0303
  H  H48  1  0.466700  0.251900  0.665000  1.0  0.0767
  H  H49  1  0.582500  0.211100  0.692500  1.0  0.0833
  H  H50  1  0.523000  0.225600  0.822700  1.0  0.0632
  H  H51  1  0.419700  0.320300  0.782200  1.0  0.0536
  H  H52  1  0.330700  0.242700  0.823000  1.0  0.302
  H  H53  1  0.409900  0.183900  0.882400  1.0  0.3256
  H  H54  1  0.130800  0.835200  0.110500  1.0  0.3242
  H  H55  1  0.079100  0.777300  0.165100  1.0  0.301
  H  H56  1  0.005800  0.906800  0.054600  1.0  0.0504
  H  H57  1  0.945000  0.858400  0.121800  1.0  0.0645
  H  H58  1  0.838700  0.998500  0.128200  1.0  0.1113
  H  H59  1  0.911700  0.046500  0.076100  1.0  0.0852
  H  H60  1  0.820100  0.077100  0.216400  1.0  0.0526
  H  H61  1  0.881900  0.134900  0.160300  1.0  0.0733
  H  H62  1  0.995300  0.075300  0.217500  1.0  0.4384
  H  H63  1  0.864800  0.409000  0.347600  1.0  0.3284
  H  H64  1  0.922500  0.331900  0.285300  1.0  0.2813
  H  H65  1  0.782300  0.552500  0.260500  1.0  0.0571
  H  H66  1  0.782800  0.458800  0.219400  1.0  0.052
  H  H67  1  0.905500  0.454900  0.135400  1.0  0.1009
  H  H68  1  0.800900  0.568700  0.137400  1.0  0.1383
  H  H69  1  0.947000  0.589200  0.102000  1.0  0.0762
  H  H70  1  0.889200  0.639200  0.185300  1.0  0.0581
  H  H71  1  0.064600  0.456000  0.160800  1.0  0.2737
  H  H72  1  0.116200  0.551200  0.116700  1.0  0.0706
  H  H73  1  0.059000  0.627600  0.186800  1.0  0.038
  H  H74  1  0.251900  0.466700  0.165000  1.0  0.0765
  H  H75  1  0.211100  0.582500  0.192500  1.0  0.082
  H  H76  1  0.225600  0.523000  0.322700  1.0  0.0673
  H  H77  1  0.320300  0.419700  0.282200  1.0  0.0524
  H  H78  1  0.242700  0.330700  0.323000  1.0  0.304
  H  H79  1  0.183900  0.409900  0.382400  1.0  0.3236
  H  H80  1  0.835200  0.130800  0.610500  1.0  0.3178
  H  H81  1  0.777300  0.079100  0.665100  1.0  0.3041
  H  H82  1  0.906800  0.005800  0.554600  1.0  0.0509
  H  H83  1  0.858400  0.945000  0.621800  1.0  0.0665
  H  H84  1  0.998500  0.838700  0.628200  1.0  0.1102
  H  H85  1  0.046500  0.911700  0.576100  1.0  0.0829
  H  H86  1  0.077100  0.820100  0.716400  1.0  0.0533
  H  H87  1  0.134900  0.881900  0.660300  1.0  0.073
  H  H88  1  0.075300  0.995300  0.717500  1.0  0.4313
  H  H89  1  0.591000  0.135200  0.152400  1.0  0.3264
  H  H90  1  0.668100  0.077500  0.214700  1.0  0.2796
  H  H91  1  0.447500  0.217700  0.239500  1.0  0.0555
  H  H92  1  0.541200  0.217200  0.280600  1.0  0.0502
  H  H93  1  0.545100  0.094500  0.364600  1.0  0.102
  H  H94  1  0.431300  0.199100  0.362600  1.0  0.1385
  H  H95  1  0.410800  0.053000  0.398000  1.0  0.0776
  H  H96  1  0.360800  0.110800  0.314700  1.0  0.0576
  H  H97  1  0.544000  0.935400  0.339200  1.0  0.2732
  H  H98  1  0.448800  0.883800  0.383300  1.0  0.0705
  H  H99  1  0.372400  0.941000  0.313200  1.0  0.0277
  H  H100  1  0.533300  0.748100  0.335000  1.0  0.0754
  H  H101  1  0.417500  0.788900  0.307500  1.0  0.0829
  H  H102  1  0.477000  0.774400  0.177300  1.0  0.062
  H  H103  1  0.580300  0.679700  0.217800  1.0  0.0508
  H  H104  1  0.669300  0.757300  0.177000  1.0  0.3043
  H  H105  1  0.590100  0.816100  0.117600  1.0  0.3259
  H  H106  1  0.869200  0.164800  0.889500  1.0  0.3196
  H  H107  1  0.920900  0.222700  0.834900  1.0  0.3023
  H  H108  1  0.994200  0.093200  0.945400  1.0  0.0496
  H  H109  1  0.055000  0.141600  0.878200  1.0  0.064
  H  H110  1  0.161300  0.001500  0.871800  1.0  0.1129
  H  H111  1  0.088300  0.953500  0.923900  1.0  0.0854
  H  H112  1  0.179900  0.922900  0.783600  1.0  0.0545
  H  H113  1  0.118100  0.865100  0.839700  1.0  0.0723
  H  H114  1  0.004700  0.924700  0.782500  1.0  0.4356
  C  C115  1  0.901800  0.728000  0.521800  1.0  0.213
  C  C116  1  0.960300  0.801300  0.364700  1.0  0.2233
  C  C117  1  0.914800  0.632600  0.387500  1.0  0.2208
  C  C118  1  0.766400  0.931000  0.444800  1.0  0.1913
  C  C119  1  0.715900  0.755100  0.465000  1.0  0.1949
  C  C120  1  0.771600  0.831600  0.317600  1.0  0.2142
  C  C121  1  0.170000  0.513000  0.767500  1.0  0.1273
  C  C122  1  0.135100  0.481300  0.833500  1.0  -0.2581
  C  C123  1  0.068800  0.429400  0.840100  1.0  0.0637
  C  C124  1  0.898600  0.449200  0.823900  1.0  0.0933
  C  C125  1  0.800400  0.482400  0.796800  1.0  -0.2027
  C  C126  1  0.758900  0.534700  0.711200  1.0  0.0775
  C  C127  1  0.096600  0.017200  0.386900  1.0  0.1367
  C  C128  1  0.998500  0.092300  0.373600  1.0  -0.1944
  C  C129  1  0.935900  0.108700  0.312200  1.0  0.0835
  C  C130  1  0.272000  0.098200  0.978200  1.0  0.2101
  C  C131  1  0.198700  0.039700  0.135300  1.0  0.2258
  C  C132  1  0.367400  0.085200  0.112500  1.0  0.2212
  C  C133  1  0.069000  0.233600  0.055200  1.0  0.1909
  C  C134  1  0.244900  0.284100  0.035000  1.0  0.1953
  C  C135  1  0.168400  0.228400  0.182400  1.0  0.2164
  C  C136  1  0.487000  0.830000  0.732500  1.0  0.1241
  C  C137  1  0.518700  0.864900  0.666500  1.0  -0.2603
  C  C138  1  0.570600  0.931200  0.659900  1.0  0.0654
  C  C139  1  0.550800  0.101400  0.676100  1.0  0.0904
  C  C140  1  0.517600  0.199600  0.703200  1.0  -0.2028
  C  C141  1  0.465300  0.241100  0.788800  1.0  0.0851
  C  C142  1  0.982800  0.903400  0.113100  1.0  0.1299
  C  C143  1  0.907700  0.001500  0.126400  1.0  -0.1941
  C  C144  1  0.891300  0.064100  0.187800  1.0  0.0851
  C  C145  1  0.098200  0.272000  0.478200  1.0  0.2094
  C  C146  1  0.039700  0.198700  0.635300  1.0  0.2232
  C  C147  1  0.085200  0.367400  0.612500  1.0  0.2216
  C  C148  1  0.233600  0.069000  0.555200  1.0  0.1921
  C  C149  1  0.284100  0.244900  0.535000  1.0  0.1948
  C  C150  1  0.228400  0.168400  0.682400  1.0  0.2155
  C  C151  1  0.830000  0.487000  0.232500  1.0  0.126
  C  C152  1  0.864900  0.518700  0.166500  1.0  -0.2609
  C  C153  1  0.931200  0.570600  0.159900  1.0  0.0632
  C  C154  1  0.101400  0.550800  0.176100  1.0  0.0891
  C  C155  1  0.199600  0.517600  0.203200  1.0  -0.2007
  C  C156  1  0.241100  0.465300  0.288800  1.0  0.0889
  C  C157  1  0.903400  0.982800  0.613100  1.0  0.1368
  C  C158  1  0.001500  0.907700  0.626400  1.0  -0.1931
  C  C159  1  0.064100  0.891300  0.687800  1.0  0.0834
  C  C160  1  0.728000  0.901800  0.021800  1.0  0.2114
  C  C161  1  0.801300  0.960300  0.864700  1.0  0.2248
  C  C162  1  0.632600  0.914800  0.887500  1.0  0.2214
  C  C163  1  0.931000  0.766400  0.944800  1.0  0.1914
  C  C164  1  0.755100  0.715900  0.965000  1.0  0.1956
  C  C165  1  0.831600  0.771600  0.817600  1.0  0.215
  C  C166  1  0.513000  0.170000  0.267500  1.0  0.1216
  C  C167  1  0.481300  0.135100  0.333500  1.0  -0.2581
  C  C168  1  0.429400  0.068800  0.340100  1.0  0.0627
  C  C169  1  0.449200  0.898600  0.323900  1.0  0.0944
  C  C170  1  0.482400  0.800400  0.296800  1.0  -0.2048
  C  C171  1  0.534700  0.758900  0.211200  1.0  0.0814
  C  C172  1  0.017200  0.096600  0.886900  1.0  0.1384
  C  C173  1  0.092300  0.998500  0.873600  1.0  -0.1939
  C  C174  1  0.108700  0.935900  0.812200  1.0  0.0798
  N  N175  1  0.936200  0.691000  0.583300  1.0  -0.4729
  N  N176  1  0.028100  0.818500  0.328000  1.0  -0.5116
  N  N177  1  0.960700  0.547500  0.366800  1.0  -0.4321
  N  N178  1  0.725100  0.020500  0.456900  1.0  -0.5662
  N  N179  1  0.648100  0.733100  0.490300  1.0  -0.5455
  N  N180  1  0.725900  0.866300  0.260300  1.0  -0.4905
  N  N181  1  0.095800  0.600200  0.702000  1.0  -0.6064
  N  N182  1  0.968000  0.489600  0.804600  1.0  -0.3634
  N  N183  1  0.808400  0.599000  0.671400  1.0  -0.573
  N  N184  1  0.155500  0.925300  0.350400  1.0  -0.5795
  N  N185  1  0.309000  0.063800  0.916700  1.0  -0.4766
  N  N186  1  0.181500  0.971900  0.172000  1.0  -0.5169
  N  N187  1  0.452500  0.039300  0.133200  1.0  -0.4303
  N  N188  1  0.979500  0.274900  0.043100  1.0  -0.5663
  N  N189  1  0.266900  0.351900  0.009700  1.0  -0.5459
  N  N190  1  0.133700  0.274100  0.239700  1.0  -0.4921
  N  N191  1  0.399800  0.904200  0.798000  1.0  -0.6073
  N  N192  1  0.510400  0.032000  0.695400  1.0  -0.3624
  N  N193  1  0.401000  0.191600  0.828600  1.0  -0.5748
  N  N194  1  0.074700  0.844500  0.149600  1.0  -0.5803
  N  N195  1  0.063800  0.309000  0.416700  1.0  -0.4747
  N  N196  1  0.971900  0.181500  0.672000  1.0  -0.5145
  N  N197  1  0.039300  0.452500  0.633200  1.0  -0.4319
  N  N198  1  0.274900  0.979500  0.543100  1.0  -0.5623
  N  N199  1  0.351900  0.266900  0.509700  1.0  -0.5449
  N  N200  1  0.274100  0.133700  0.739700  1.0  -0.4916
  N  N201  1  0.904200  0.399800  0.298000  1.0  -0.6081
  N  N202  1  0.032000  0.510400  0.195400  1.0  -0.3628
  N  N203  1  0.191600  0.401000  0.328600  1.0  -0.5721
  N  N204  1  0.844500  0.074700  0.649600  1.0  -0.5789
  N  N205  1  0.691000  0.936200  0.083300  1.0  -0.4751
  N  N206  1  0.818500  0.028100  0.828000  1.0  -0.5182
  N  N207  1  0.547500  0.960700  0.866800  1.0  -0.4314
  N  N208  1  0.020500  0.725100  0.956900  1.0  -0.5652
  N  N209  1  0.733100  0.648100  0.990300  1.0  -0.5453
  N  N210  1  0.866300  0.725900  0.760300  1.0  -0.4934
  N  N211  1  0.600200  0.095800  0.202000  1.0  -0.6047
  N  N212  1  0.489600  0.968000  0.304600  1.0  -0.3635
  N  N213  1  0.599000  0.808400  0.171400  1.0  -0.5732
  N  N214  1  0.925300  0.155500  0.850400  1.0  -0.5802
  N  N215  1  0.960000  0.040000  0.250000  1.0  -0.5656
  N  N216  1  0.040000  0.960000  0.750000  1.0  -0.5656
