# generated using pymatgen
data_Zn4H12C24O13
_symmetry_space_group_name_H-M   'P 1'
_cell_length_a   18.31490000
_cell_length_b   18.31490000
_cell_length_c   18.31490000
_cell_angle_alpha   60.32950000
_cell_angle_beta   60.32950000
_cell_angle_gamma   60.32950000
_symmetry_Int_Tables_number   1
_chemical_formula_structural   Zn4H12C24O13
_chemical_formula_sum   'Zn8 H24 C48 O26'
_cell_volume   4376.47322284
_cell_formula_units_Z   2
loop_
 _symmetry_equiv_pos_site_id
 _symmetry_equiv_pos_as_xyz
  1  'x, y, z'
loop_
 _atom_site_type_symbol
 _atom_site_label
 _atom_site_symmetry_multiplicity
 _atom_site_fract_x
 _atom_site_fract_y
 _atom_site_fract_z
 _atom_site_occupancy
 _atom_site_charge
  Zn  Zn1  1  0.206090  0.206090  0.206090  1.0  1.0847
  Zn  Zn2  1  0.793910  0.793910  0.793910  1.0  1.0856
  Zn  Zn3  1  0.206770  0.379520  0.206770  1.0  1.1215
  Zn  Zn4  1  0.206770  0.206770  0.379520  1.0  1.1255
  Zn  Zn5  1  0.379520  0.206770  0.206770  1.0  1.1209
  Zn  Zn6  1  0.620480  0.793230  0.793230  1.0  1.1208
  Zn  Zn7  1  0.793230  0.793230  0.620480  1.0  1.124
  Zn  Zn8  1  0.793230  0.620480  0.793230  1.0  1.1208
  H  H9  1  0.042600  0.343500  0.565300  1.0  0.1193
  H  H10  1  0.565300  0.042600  0.343500  1.0  0.1198
  H  H11  1  0.343500  0.565300  0.042600  1.0  0.1191
  H  H12  1  0.656500  0.957400  0.434700  1.0  0.1191
  H  H13  1  0.957400  0.434700  0.656500  1.0  0.1198
  H  H14  1  0.434700  0.656500  0.957400  1.0  0.1199
  H  H15  1  0.957400  0.656500  0.434700  1.0  0.1202
  H  H16  1  0.434700  0.957400  0.656500  1.0  0.1197
  H  H17  1  0.656500  0.434700  0.957400  1.0  0.1188
  H  H18  1  0.343500  0.042600  0.565300  1.0  0.1198
  H  H19  1  0.042600  0.565300  0.343500  1.0  0.12
  H  H20  1  0.565300  0.343500  0.042600  1.0  0.1199
  H  H21  1  0.048800  0.558600  0.048800  1.0  0.1183
  H  H22  1  0.041700  0.344500  0.041700  1.0  0.1251
  H  H23  1  0.048800  0.048800  0.558600  1.0  0.1173
  H  H24  1  0.041700  0.041700  0.344500  1.0  0.124
  H  H25  1  0.558600  0.048800  0.048800  1.0  0.118
  H  H26  1  0.344500  0.041700  0.041700  1.0  0.1262
  H  H27  1  0.441400  0.951200  0.951200  1.0  0.1166
  H  H28  1  0.655500  0.958300  0.958300  1.0  0.1247
  H  H29  1  0.951200  0.951200  0.441400  1.0  0.1171
  H  H30  1  0.958300  0.958300  0.655500  1.0  0.1238
  H  H31  1  0.951200  0.441400  0.951200  1.0  0.1178
  H  H32  1  0.958300  0.655500  0.958300  1.0  0.1253
  C  C33  1  0.027700  0.405100  0.538700  1.0  -0.0646
  C  C34  1  0.538700  0.027700  0.405100  1.0  -0.0648
  C  C35  1  0.405100  0.538700  0.027700  1.0  -0.0661
  C  C36  1  0.594900  0.972300  0.461300  1.0  -0.0652
  C  C37  1  0.972300  0.461300  0.594900  1.0  -0.0665
  C  C38  1  0.461300  0.594900  0.972300  1.0  -0.0665
  C  C39  1  0.972300  0.594900  0.461300  1.0  -0.0662
  C  C40  1  0.461300  0.972300  0.594900  1.0  -0.0643
  C  C41  1  0.594900  0.461300  0.972300  1.0  -0.0658
  C  C42  1  0.405100  0.027700  0.538700  1.0  -0.0646
  C  C43  1  0.027700  0.538700  0.405100  1.0  -0.0667
  C  C44  1  0.538700  0.405100  0.027700  1.0  -0.0641
  C  C45  1  0.111300  0.390100  0.111300  1.0  0.6849
  C  C46  1  0.053900  0.444000  0.053900  1.0  -0.1165
  C  C47  1  0.029400  0.535300  0.029400  1.0  -0.0639
  C  C48  1  0.025200  0.406000  0.025200  1.0  -0.0577
  C  C49  1  0.111300  0.111300  0.390100  1.0  0.6838
  C  C50  1  0.053900  0.053900  0.444000  1.0  -0.1177
  C  C51  1  0.029400  0.029400  0.535300  1.0  -0.0629
  C  C52  1  0.025200  0.025200  0.406000  1.0  -0.0592
  C  C53  1  0.390100  0.111300  0.111300  1.0  0.6844
  C  C54  1  0.444000  0.053900  0.053900  1.0  -0.1181
  C  C55  1  0.535300  0.029400  0.029400  1.0  -0.0621
  C  C56  1  0.406000  0.025200  0.025200  1.0  -0.0594
  C  C57  1  0.609900  0.888700  0.888700  1.0  0.6843
  C  C58  1  0.556000  0.946100  0.946100  1.0  -0.1172
  C  C59  1  0.464700  0.970600  0.970600  1.0  -0.0649
  C  C60  1  0.594000  0.974800  0.974800  1.0  -0.0594
  C  C61  1  0.888700  0.888700  0.609900  1.0  0.6846
  C  C62  1  0.946100  0.946100  0.556000  1.0  -0.1177
  C  C63  1  0.970600  0.970600  0.464700  1.0  -0.0645
  C  C64  1  0.974800  0.974800  0.594000  1.0  -0.0607
  C  C65  1  0.888700  0.609900  0.888700  1.0  0.6845
  C  C66  1  0.946100  0.556000  0.946100  1.0  -0.1169
  C  C67  1  0.970600  0.464700  0.970600  1.0  -0.0665
  C  C68  1  0.974800  0.594000  0.974800  1.0  -0.0581
  C  C69  1  0.111700  0.389400  0.389400  1.0  0.6921
  C  C70  1  0.059900  0.442450  0.442450  1.0  -0.0931
  C  C71  1  0.389400  0.111700  0.389400  1.0  0.6919
  C  C72  1  0.442450  0.059900  0.442450  1.0  -0.0931
  C  C73  1  0.389400  0.389400  0.111700  1.0  0.6934
  C  C74  1  0.442450  0.442450  0.059900  1.0  -0.093
  C  C75  1  0.610600  0.888300  0.610600  1.0  0.6933
  C  C76  1  0.557550  0.940100  0.557550  1.0  -0.0929
  C  C77  1  0.888300  0.610600  0.610600  1.0  0.6924
  C  C78  1  0.940100  0.557550  0.557550  1.0  -0.0933
  C  C79  1  0.610600  0.610600  0.888300  1.0  0.6942
  C  C80  1  0.557550  0.557550  0.940100  1.0  -0.093
  O  O81  1  0.135290  0.427590  0.301190  1.0  -0.6279
  O  O82  1  0.301190  0.135290  0.427590  1.0  -0.6265
  O  O83  1  0.427590  0.301190  0.135290  1.0  -0.6274
  O  O84  1  0.572410  0.864710  0.698810  1.0  -0.6277
  O  O85  1  0.864710  0.698810  0.572410  1.0  -0.6282
  O  O86  1  0.698810  0.572410  0.864710  1.0  -0.6267
  O  O87  1  0.864710  0.572410  0.698810  1.0  -0.6271
  O  O88  1  0.698810  0.864710  0.572410  1.0  -0.6273
  O  O89  1  0.572410  0.698810  0.864710  1.0  -0.6283
  O  O90  1  0.427590  0.135290  0.301190  1.0  -0.6275
  O  O91  1  0.135290  0.301190  0.427590  1.0  -0.6284
  O  O92  1  0.301190  0.427590  0.135290  1.0  -0.626
  O  O93  1  0.251530  0.251530  0.251530  1.0  -1.2717
  O  O94  1  0.748470  0.748470  0.748470  1.0  -1.2717
  O  O95  1  0.134100  0.302200  0.134100  1.0  -0.6168
  O  O96  1  0.133800  0.428200  0.133800  1.0  -0.5818
  O  O97  1  0.134100  0.134100  0.302200  1.0  -0.6188
  O  O98  1  0.133800  0.133800  0.428200  1.0  -0.5847
  O  O99  1  0.302200  0.134100  0.134100  1.0  -0.6156
  O  O100  1  0.428200  0.133800  0.133800  1.0  -0.5834
  O  O101  1  0.697800  0.865900  0.865900  1.0  -0.615
  O  O102  1  0.571800  0.866200  0.866200  1.0  -0.5834
  O  O103  1  0.865900  0.865900  0.697800  1.0  -0.6173
  O  O104  1  0.866200  0.866200  0.571800  1.0  -0.5836
  O  O105  1  0.865900  0.697800  0.865900  1.0  -0.6152
  O  O106  1  0.866200  0.571800  0.866200  1.0  -0.5818
