# generated using pymatgen
data_Zn4H12C24O13
_symmetry_space_group_name_H-M   'P 1'
_cell_length_a   18.36660000
_cell_length_b   18.36660000
_cell_length_c   18.36660000
_cell_angle_alpha   60.05540000
_cell_angle_beta   60.05540000
_cell_angle_gamma   60.05540000
_symmetry_Int_Tables_number   1
_chemical_formula_structural   Zn4H12C24O13
_chemical_formula_sum   'Zn16 H48 C96 O52'
_cell_volume   4386.48118494
_cell_formula_units_Z   4
loop_
 _symmetry_equiv_pos_site_id
 _symmetry_equiv_pos_as_xyz
  1  'x, y, z'
loop_
 _atom_site_type_symbol
 _atom_site_label
 _atom_site_symmetry_multiplicity
 _atom_site_fract_x
 _atom_site_fract_y
 _atom_site_fract_z
 _atom_site_occupancy
 _atom_site_charge
  Zn  Zn1  1  0.610470  0.784240  0.610470  1.0  1.0963
  Zn  Zn2  1  0.197400  0.023470  0.197400  1.0  1.1208
  Zn  Zn3  1  0.610470  0.610470  0.784240  1.0  1.0968
  Zn  Zn4  1  0.197400  0.197410  0.023470  1.0  1.1144
  Zn  Zn5  1  0.784240  0.610470  0.610470  1.0  1.0974
  Zn  Zn6  1  0.023470  0.197410  0.197400  1.0  1.1137
  Zn  Zn7  1  0.610110  0.610110  0.610110  1.0  1.1598
  Zn  Zn8  1  0.197540  0.197540  0.197540  1.0  1.1336
  Zn  Zn9  1  0.215760  0.389530  0.389530  1.0  1.0976
  Zn  Zn10  1  0.976530  0.802590  0.802590  1.0  1.1234
  Zn  Zn11  1  0.389530  0.389530  0.215760  1.0  1.0962
  Zn  Zn12  1  0.802590  0.802600  0.976530  1.0  1.1206
  Zn  Zn13  1  0.389530  0.215760  0.389530  1.0  1.0962
  Zn  Zn14  1  0.802590  0.976530  0.802590  1.0  1.1137
  Zn  Zn15  1  0.389890  0.389890  0.389890  1.0  1.1607
  Zn  Zn16  1  0.802460  0.802460  0.802460  1.0  1.1289
  H  H17  1  0.356900  0.839600  0.057300  1.0  0.1077
  H  H18  1  0.446200  0.750900  0.968200  1.0  0.0942
  H  H19  1  0.057300  0.356900  0.839600  1.0  0.106
  H  H20  1  0.968200  0.446200  0.750900  1.0  0.095
  H  H21  1  0.839600  0.057300  0.356900  1.0  0.1071
  H  H22  1  0.750900  0.968200  0.446200  1.0  0.0953
  H  H23  1  0.839600  0.356900  0.057300  1.0  0.1075
  H  H24  1  0.750900  0.446200  0.968200  1.0  0.0937
  H  H25  1  0.356900  0.057300  0.839600  1.0  0.1068
  H  H26  1  0.446200  0.968200  0.750900  1.0  0.0952
  H  H27  1  0.057300  0.839600  0.356900  1.0  0.1075
  H  H28  1  0.968200  0.750900  0.446200  1.0  0.0952
  H  H29  1  0.359400  0.056200  0.359400  1.0  0.0938
  H  H30  1  0.448000  0.968100  0.448000  1.0  0.1031
  H  H31  1  0.359200  0.840000  0.359200  1.0  0.1076
  H  H32  1  0.448200  0.750800  0.448200  1.0  0.11
  H  H33  1  0.359400  0.359400  0.056200  1.0  0.094
  H  H34  1  0.448000  0.448000  0.968100  1.0  0.1026
  H  H35  1  0.359200  0.359200  0.840000  1.0  0.1063
  H  H36  1  0.448200  0.448200  0.750800  1.0  0.1092
  H  H37  1  0.056200  0.359400  0.359400  1.0  0.0943
  H  H38  1  0.968100  0.448000  0.448000  1.0  0.1034
  H  H39  1  0.840000  0.359200  0.359200  1.0  0.1075
  H  H40  1  0.750800  0.448200  0.448200  1.0  0.1093
  H  H41  1  0.160400  0.643100  0.942700  1.0  0.1075
  H  H42  1  0.249100  0.553800  0.031800  1.0  0.0942
  H  H43  1  0.643100  0.942700  0.160400  1.0  0.1063
  H  H44  1  0.553800  0.031800  0.249100  1.0  0.0958
  H  H45  1  0.942700  0.160400  0.643100  1.0  0.1074
  H  H46  1  0.031800  0.249100  0.553800  1.0  0.0952
  H  H47  1  0.643100  0.160400  0.942700  1.0  0.1077
  H  H48  1  0.553800  0.249100  0.031800  1.0  0.0946
  H  H49  1  0.942700  0.643100  0.160400  1.0  0.1056
  H  H50  1  0.031800  0.553800  0.249100  1.0  0.0948
  H  H51  1  0.160400  0.942700  0.643100  1.0  0.1072
  H  H52  1  0.249100  0.031800  0.553800  1.0  0.0956
  H  H53  1  0.943800  0.640600  0.640600  1.0  0.0939
  H  H54  1  0.031900  0.552000  0.552000  1.0  0.1034
  H  H55  1  0.160000  0.640800  0.640800  1.0  0.1073
  H  H56  1  0.249200  0.551800  0.551800  1.0  0.1088
  H  H57  1  0.640600  0.640600  0.943800  1.0  0.0949
  H  H58  1  0.552000  0.552000  0.031900  1.0  0.1028
  H  H59  1  0.640800  0.640800  0.160000  1.0  0.1062
  H  H60  1  0.551800  0.551800  0.249200  1.0  0.1083
  H  H61  1  0.640600  0.943800  0.640600  1.0  0.0925
  H  H62  1  0.552000  0.031900  0.552000  1.0  0.1036
  H  H63  1  0.640800  0.160000  0.640800  1.0  0.1073
  H  H64  1  0.551800  0.249200  0.551800  1.0  0.1102
  C  C65  1  0.375410  0.865910  0.995710  1.0  -0.0583
  C  C66  1  0.429150  0.812650  0.941950  1.0  -0.0434
  C  C67  1  0.995710  0.375410  0.865910  1.0  -0.0543
  C  C68  1  0.941950  0.429150  0.812650  1.0  -0.046
  C  C69  1  0.865910  0.995710  0.375410  1.0  -0.0562
  C  C70  1  0.812650  0.941950  0.429150  1.0  -0.0447
  C  C71  1  0.865910  0.375410  0.995710  1.0  -0.0575
  C  C72  1  0.812650  0.429150  0.941950  1.0  -0.047
  C  C73  1  0.375410  0.995710  0.865910  1.0  -0.0555
  C  C74  1  0.429150  0.941950  0.812650  1.0  -0.045
  C  C75  1  0.995710  0.865910  0.375410  1.0  -0.0532
  C  C76  1  0.941950  0.812650  0.429150  1.0  -0.0429
  C  C77  1  0.291810  0.016330  0.291810  1.0  0.7264
  C  C78  1  0.350130  0.957410  0.350130  1.0  -0.1334
  C  C79  1  0.377030  0.994630  0.377030  1.0  -0.044
  C  C80  1  0.430560  0.941360  0.430560  1.0  -0.0474
  C  C81  1  0.377000  0.866200  0.377000  1.0  -0.0597
  C  C82  1  0.430480  0.812580  0.430480  1.0  -0.063
  C  C83  1  0.457820  0.850690  0.457820  1.0  -0.132
  C  C84  1  0.515560  0.792120  0.515560  1.0  0.7211
  C  C85  1  0.291810  0.291810  0.016330  1.0  0.7252
  C  C86  1  0.350130  0.350130  0.957410  1.0  -0.1333
  C  C87  1  0.377030  0.377030  0.994630  1.0  -0.0445
  C  C88  1  0.430560  0.430560  0.941360  1.0  -0.0473
  C  C89  1  0.377000  0.377000  0.866200  1.0  -0.059
  C  C90  1  0.430480  0.430480  0.812580  1.0  -0.0655
  C  C91  1  0.457820  0.457820  0.850690  1.0  -0.1329
  C  C92  1  0.515560  0.515560  0.792120  1.0  0.7195
  C  C93  1  0.016330  0.291810  0.291810  1.0  0.7253
  C  C94  1  0.957410  0.350130  0.350130  1.0  -0.1335
  C  C95  1  0.994630  0.377030  0.377030  1.0  -0.0464
  C  C96  1  0.941360  0.430560  0.430560  1.0  -0.0468
  C  C97  1  0.866200  0.377000  0.377000  1.0  -0.0586
  C  C98  1  0.812580  0.430480  0.430480  1.0  -0.0621
  C  C99  1  0.850690  0.457820  0.457820  1.0  -0.133
  C  C100  1  0.792120  0.515560  0.515560  1.0  0.7215
  C  C101  1  0.291700  0.015850  0.015850  1.0  0.735
  C  C102  1  0.349190  0.957990  0.957990  1.0  -0.1327
  C  C103  1  0.457580  0.850080  0.850080  1.0  -0.1346
  C  C104  1  0.515830  0.791820  0.791820  1.0  0.7125
  C  C105  1  0.015850  0.291700  0.015850  1.0  0.7356
  C  C106  1  0.957990  0.349190  0.957990  1.0  -0.1326
  C  C107  1  0.850080  0.457580  0.850080  1.0  -0.1327
  C  C108  1  0.791820  0.515830  0.791820  1.0  0.71
  C  C109  1  0.015850  0.015850  0.291700  1.0  0.7357
  C  C110  1  0.957990  0.957990  0.349190  1.0  -0.1295
  C  C111  1  0.850080  0.850080  0.457580  1.0  -0.1296
  C  C112  1  0.791820  0.791820  0.515830  1.0  0.7119
  C  C113  1  0.134090  0.624590  0.004290  1.0  -0.0577
  C  C114  1  0.187350  0.570850  0.058050  1.0  -0.0462
  C  C115  1  0.624590  0.004290  0.134090  1.0  -0.0543
  C  C116  1  0.570850  0.058050  0.187350  1.0  -0.0456
  C  C117  1  0.004290  0.134090  0.624590  1.0  -0.0558
  C  C118  1  0.058050  0.187350  0.570850  1.0  -0.0448
  C  C119  1  0.624590  0.134090  0.004290  1.0  -0.0584
  C  C120  1  0.570850  0.187350  0.058050  1.0  -0.0446
  C  C121  1  0.004290  0.624590  0.134090  1.0  -0.0567
  C  C122  1  0.058050  0.570850  0.187350  1.0  -0.046
  C  C123  1  0.134090  0.004290  0.624590  1.0  -0.0539
  C  C124  1  0.187350  0.058050  0.570850  1.0  -0.044
  C  C125  1  0.983670  0.708190  0.708190  1.0  0.7258
  C  C126  1  0.042590  0.649870  0.649870  1.0  -0.1328
  C  C127  1  0.005370  0.622970  0.622970  1.0  -0.0459
  C  C128  1  0.058640  0.569440  0.569440  1.0  -0.0475
  C  C129  1  0.133800  0.623000  0.623000  1.0  -0.0566
  C  C130  1  0.187420  0.569520  0.569520  1.0  -0.0596
  C  C131  1  0.149310  0.542180  0.542180  1.0  -0.1336
  C  C132  1  0.207880  0.484440  0.484440  1.0  0.7205
  C  C133  1  0.708190  0.708190  0.983670  1.0  0.7257
  C  C134  1  0.649870  0.649870  0.042590  1.0  -0.1316
  C  C135  1  0.622970  0.622970  0.005370  1.0  -0.044
  C  C136  1  0.569440  0.569440  0.058640  1.0  -0.0473
  C  C137  1  0.623000  0.623000  0.133800  1.0  -0.0593
  C  C138  1  0.569520  0.569520  0.187420  1.0  -0.0659
  C  C139  1  0.542180  0.542180  0.149310  1.0  -0.1344
  C  C140  1  0.484440  0.484440  0.207880  1.0  0.7205
  C  C141  1  0.708190  0.983670  0.708190  1.0  0.726
  C  C142  1  0.649870  0.042590  0.649870  1.0  -0.1334
  C  C143  1  0.622970  0.005370  0.622970  1.0  -0.0421
  C  C144  1  0.569440  0.058640  0.569440  1.0  -0.0486
  C  C145  1  0.623000  0.133800  0.623000  1.0  -0.0596
  C  C146  1  0.569520  0.187420  0.569520  1.0  -0.0619
  C  C147  1  0.542180  0.149310  0.542180  1.0  -0.1328
  C  C148  1  0.484440  0.207880  0.484440  1.0  0.7208
  C  C149  1  0.984150  0.708300  0.984150  1.0  0.7353
  C  C150  1  0.042010  0.650810  0.042010  1.0  -0.1328
  C  C151  1  0.149920  0.542420  0.149920  1.0  -0.1341
  C  C152  1  0.208180  0.484170  0.208180  1.0  0.7106
  C  C153  1  0.708300  0.984150  0.984150  1.0  0.7351
  C  C154  1  0.650810  0.042010  0.042010  1.0  -0.1339
  C  C155  1  0.542420  0.149920  0.149920  1.0  -0.1353
  C  C156  1  0.484170  0.208180  0.208180  1.0  0.7123
  C  C157  1  0.984150  0.984150  0.708300  1.0  0.7358
  C  C158  1  0.042010  0.042010  0.650810  1.0  -0.1298
  C  C159  1  0.149920  0.149920  0.542420  1.0  -0.1278
  C  C160  1  0.208180  0.208180  0.484170  1.0  0.7121
  O  O161  1  0.538310  0.830710  0.709010  1.0  -0.6024
  O  O162  1  0.269750  0.977250  0.098150  1.0  -0.6209
  O  O163  1  0.709010  0.538310  0.830710  1.0  -0.6016
  O  O164  1  0.098150  0.269750  0.977250  1.0  -0.6226
  O  O165  1  0.830710  0.709010  0.538310  1.0  -0.5995
  O  O166  1  0.977250  0.098150  0.269750  1.0  -0.617
  O  O167  1  0.830710  0.538310  0.709010  1.0  -0.5989
  O  O168  1  0.977250  0.269750  0.098150  1.0  -0.6232
  O  O169  1  0.538310  0.709010  0.830710  1.0  -0.6024
  O  O170  1  0.269750  0.098150  0.977250  1.0  -0.6173
  O  O171  1  0.709010  0.830710  0.538310  1.0  -0.6007
  O  O172  1  0.098150  0.977250  0.269750  1.0  -0.6203
  O  O173  1  0.537760  0.830970  0.537760  1.0  -0.6168
  O  O174  1  0.537510  0.709730  0.537510  1.0  -0.6119
  O  O175  1  0.270190  0.098150  0.270190  1.0  -0.6027
  O  O176  1  0.269970  0.977180  0.269970  1.0  -0.6246
  O  O177  1  0.537760  0.537760  0.830970  1.0  -0.6161
  O  O178  1  0.537510  0.537510  0.709730  1.0  -0.6105
  O  O179  1  0.270190  0.270190  0.098150  1.0  -0.6051
  O  O180  1  0.269970  0.269970  0.977180  1.0  -0.6204
  O  O181  1  0.830970  0.537760  0.537760  1.0  -0.6162
  O  O182  1  0.709730  0.537510  0.537510  1.0  -0.6112
  O  O183  1  0.098150  0.270190  0.270190  1.0  -0.6045
  O  O184  1  0.977180  0.269970  0.269970  1.0  -0.6204
  O  O185  1  0.653680  0.653680  0.653680  1.0  -1.2707
  O  O186  1  0.154330  0.154330  0.154330  1.0  -1.269
  O  O187  1  0.169290  0.461690  0.290990  1.0  -0.5995
  O  O188  1  0.022750  0.730250  0.901850  1.0  -0.6212
  O  O189  1  0.461690  0.290990  0.169290  1.0  -0.6024
  O  O190  1  0.730250  0.901850  0.022750  1.0  -0.6226
  O  O191  1  0.290990  0.169290  0.461690  1.0  -0.6005
  O  O192  1  0.901850  0.022750  0.730250  1.0  -0.6233
  O  O193  1  0.461690  0.169290  0.290990  1.0  -0.6026
  O  O194  1  0.730250  0.022750  0.901850  1.0  -0.6147
  O  O195  1  0.290990  0.461690  0.169290  1.0  -0.6016
  O  O196  1  0.901850  0.730250  0.022750  1.0  -0.6154
  O  O197  1  0.169290  0.290990  0.461690  1.0  -0.6011
  O  O198  1  0.022750  0.901850  0.730250  1.0  -0.6233
  O  O199  1  0.169030  0.462240  0.462240  1.0  -0.6159
  O  O200  1  0.290270  0.462490  0.462490  1.0  -0.6117
  O  O201  1  0.901850  0.729810  0.729810  1.0  -0.5988
  O  O202  1  0.022820  0.730030  0.730030  1.0  -0.6242
  O  O203  1  0.462240  0.462240  0.169030  1.0  -0.6161
  O  O204  1  0.462490  0.462490  0.290270  1.0  -0.6131
  O  O205  1  0.729810  0.729810  0.901850  1.0  -0.6044
  O  O206  1  0.730030  0.730030  0.022820  1.0  -0.6218
  O  O207  1  0.462240  0.169030  0.462240  1.0  -0.6165
  O  O208  1  0.462490  0.290270  0.462490  1.0  -0.6131
  O  O209  1  0.729810  0.901850  0.729810  1.0  -0.607
  O  O210  1  0.730030  0.022820  0.730030  1.0  -0.6194
  O  O211  1  0.346320  0.346320  0.346320  1.0  -1.2709
  O  O212  1  0.845670  0.845670  0.845670  1.0  -1.2692
