# generated using pymatgen
data_ZnH6(C3N2)2
_symmetry_space_group_name_H-M   'P 1'
_cell_length_a   17.05800000
_cell_length_b   19.07300000
_cell_length_c   19.07300000
_cell_angle_alpha   90.00000000
_cell_angle_beta   90.00000000
_cell_angle_gamma   90.00000000
_symmetry_Int_Tables_number   1
_chemical_formula_structural   ZnH6(C3N2)2
_chemical_formula_sum   'Zn16 H96 C96 N64'
_cell_volume   6205.34779408
_cell_formula_units_Z   16
loop_
 _symmetry_equiv_pos_site_id
 _symmetry_equiv_pos_as_xyz
  1  'x, y, z'
loop_
 _atom_site_type_symbol
 _atom_site_label
 _atom_site_symmetry_multiplicity
 _atom_site_fract_x
 _atom_site_fract_y
 _atom_site_fract_z
 _atom_site_occupancy
 _atom_site_charge
  Zn  Zn1  1  0.823580  0.886120  0.334910  1.0  0.7312
  Zn  Zn2  1  0.823580  0.113880  0.665090  1.0  0.7316
  Zn  Zn3  1  0.323580  0.165090  0.386120  1.0  0.7309
  Zn  Zn4  1  0.323580  0.834910  0.613880  1.0  0.7311
  Zn  Zn5  1  0.676420  0.613880  0.834910  1.0  0.7313
  Zn  Zn6  1  0.676420  0.386120  0.165090  1.0  0.7312
  Zn  Zn7  1  0.176420  0.334910  0.886120  1.0  0.7308
  Zn  Zn8  1  0.176420  0.665090  0.113880  1.0  0.731
  Zn  Zn9  1  0.176420  0.113880  0.665090  1.0  0.7315
  Zn  Zn10  1  0.176420  0.886120  0.334910  1.0  0.7312
  Zn  Zn11  1  0.676420  0.834910  0.613880  1.0  0.731
  Zn  Zn12  1  0.676420  0.165090  0.386120  1.0  0.7308
  Zn  Zn13  1  0.323580  0.386120  0.165090  1.0  0.7313
  Zn  Zn14  1  0.323580  0.613880  0.834910  1.0  0.7314
  Zn  Zn15  1  0.823580  0.665090  0.113880  1.0  0.7311
  Zn  Zn16  1  0.823580  0.334910  0.886120  1.0  0.7309
  H  H17  1  0.928600  0.770300  0.406300  1.0  0.0943
  H  H18  1  0.691400  0.875700  0.215100  1.0  0.1036
  H  H19  1  0.856900  0.022700  0.237800  1.0  0.096
  H  H20  1  0.711500  0.755200  0.365900  1.0  0.0989
  H  H21  1  0.718100  0.002900  0.397200  1.0  0.0568
  H  H22  1  0.928600  0.229700  0.593700  1.0  0.0946
  H  H23  1  0.691400  0.124300  0.784900  1.0  0.1035
  H  H24  1  0.856900  0.977300  0.762200  1.0  0.0959
  H  H25  1  0.711500  0.244800  0.634100  1.0  0.0989
  H  H26  1  0.718100  0.997100  0.602800  1.0  0.0573
  H  H27  1  0.428600  0.093700  0.270300  1.0  0.0941
  H  H28  1  0.191400  0.284900  0.375700  1.0  0.1031
  H  H29  1  0.356900  0.262200  0.522700  1.0  0.0964
  H  H30  1  0.211500  0.134100  0.255200  1.0  0.0981
  H  H31  1  0.218100  0.102800  0.502900  1.0  0.0568
  H  H32  1  0.428600  0.906300  0.729700  1.0  0.094
  H  H33  1  0.191400  0.715100  0.624300  1.0  0.1029
  H  H34  1  0.356900  0.737800  0.477300  1.0  0.0961
  H  H35  1  0.211500  0.865900  0.744800  1.0  0.0986
  H  H36  1  0.218100  0.897200  0.497100  1.0  0.0562
  H  H37  1  0.571400  0.729700  0.906300  1.0  0.0947
  H  H38  1  0.808600  0.624300  0.715100  1.0  0.1039
  H  H39  1  0.643100  0.477300  0.737800  1.0  0.0959
  H  H40  1  0.788500  0.744800  0.865900  1.0  0.0993
  H  H41  1  0.781900  0.497100  0.897200  1.0  0.056
  H  H42  1  0.571400  0.270300  0.093700  1.0  0.0943
  H  H43  1  0.808600  0.375700  0.284900  1.0  0.1038
  H  H44  1  0.643100  0.522700  0.262200  1.0  0.0962
  H  H45  1  0.788500  0.255200  0.134100  1.0  0.0986
  H  H46  1  0.781900  0.502900  0.102800  1.0  0.0571
  H  H47  1  0.071400  0.406300  0.770300  1.0  0.0939
  H  H48  1  0.308600  0.215100  0.875700  1.0  0.1036
  H  H49  1  0.143100  0.237800  0.022700  1.0  0.0957
  H  H50  1  0.288500  0.365900  0.755200  1.0  0.0982
  H  H51  1  0.281900  0.397200  0.002900  1.0  0.0569
  H  H52  1  0.071400  0.593700  0.229700  1.0  0.0945
  H  H53  1  0.308600  0.784900  0.124300  1.0  0.1027
  H  H54  1  0.143100  0.762200  0.977300  1.0  0.0967
  H  H55  1  0.288500  0.634100  0.244800  1.0  0.0977
  H  H56  1  0.281900  0.602800  0.997100  1.0  0.0564
  H  H57  1  0.071400  0.229700  0.593700  1.0  0.0945
  H  H58  1  0.308600  0.124300  0.784900  1.0  0.1037
  H  H59  1  0.143100  0.977300  0.762200  1.0  0.0962
  H  H60  1  0.288500  0.244800  0.634100  1.0  0.1007
  H  H61  1  0.281900  0.997100  0.602800  1.0  0.0571
  H  H62  1  0.071400  0.770300  0.406300  1.0  0.0945
  H  H63  1  0.308600  0.875700  0.215100  1.0  0.1042
  H  H64  1  0.143100  0.022700  0.237800  1.0  0.0959
  H  H65  1  0.288500  0.755200  0.365900  1.0  0.1009
  H  H66  1  0.281900  0.002900  0.397200  1.0  0.0564
  H  H67  1  0.571400  0.906300  0.729700  1.0  0.0942
  H  H68  1  0.808600  0.715100  0.624300  1.0  0.1032
  H  H69  1  0.643100  0.737800  0.477300  1.0  0.0956
  H  H70  1  0.788500  0.865900  0.744800  1.0  0.1004
  H  H71  1  0.781900  0.897200  0.497100  1.0  0.0561
  H  H72  1  0.571400  0.093700  0.270300  1.0  0.0941
  H  H73  1  0.808600  0.284900  0.375700  1.0  0.1032
  H  H74  1  0.643100  0.262200  0.522700  1.0  0.0964
  H  H75  1  0.788500  0.134100  0.255200  1.0  0.1003
  H  H76  1  0.781900  0.102800  0.502900  1.0  0.0569
  H  H77  1  0.428600  0.270300  0.093700  1.0  0.0943
  H  H78  1  0.191400  0.375700  0.284900  1.0  0.104
  H  H79  1  0.356900  0.522700  0.262200  1.0  0.0958
  H  H80  1  0.211500  0.255200  0.134100  1.0  0.1013
  H  H81  1  0.218100  0.502900  0.102800  1.0  0.0573
  H  H82  1  0.428600  0.729700  0.906300  1.0  0.0947
  H  H83  1  0.191400  0.624300  0.715100  1.0  0.1034
  H  H84  1  0.356900  0.477300  0.737800  1.0  0.0961
  H  H85  1  0.211500  0.744800  0.865900  1.0  0.1014
  H  H86  1  0.218100  0.497100  0.897200  1.0  0.0563
  H  H87  1  0.928600  0.593700  0.229700  1.0  0.0942
  H  H88  1  0.691400  0.784900  0.124300  1.0  0.1025
  H  H89  1  0.856900  0.762200  0.977300  1.0  0.0963
  H  H90  1  0.711500  0.634100  0.244800  1.0  0.1
  H  H91  1  0.718100  0.602800  0.997100  1.0  0.0565
  H  H92  1  0.928600  0.406300  0.770300  1.0  0.0941
  H  H93  1  0.691400  0.215100  0.875700  1.0  0.1034
  H  H94  1  0.856900  0.237800  0.022700  1.0  0.0961
  H  H95  1  0.711500  0.365900  0.755200  1.0  0.1002
  H  H96  1  0.718100  0.397200  0.002900  1.0  0.0571
  H  H97  1  0.000000  0.931900  0.303100  1.0  0.062
  H  H98  1  0.000000  0.068100  0.696900  1.0  0.0624
  H  H99  1  0.500000  0.196900  0.431900  1.0  0.0625
  H  H100  1  0.500000  0.803100  0.568100  1.0  0.0619
  H  H101  1  0.500000  0.568100  0.803100  1.0  0.0617
  H  H102  1  0.500000  0.431900  0.196900  1.0  0.0622
  H  H103  1  0.000000  0.303100  0.931900  1.0  0.0628
  H  H104  1  0.000000  0.696900  0.068100  1.0  0.0618
  H  H105  1  0.873200  0.755700  0.244300  1.0  0.0564
  H  H106  1  0.873200  0.244300  0.755700  1.0  0.0567
  H  H107  1  0.373200  0.255700  0.255700  1.0  0.0566
  H  H108  1  0.373200  0.744300  0.744300  1.0  0.0561
  H  H109  1  0.626800  0.744300  0.744300  1.0  0.0564
  H  H110  1  0.626800  0.255700  0.255700  1.0  0.0568
  H  H111  1  0.126800  0.244300  0.755700  1.0  0.0569
  H  H112  1  0.126800  0.755700  0.244300  1.0  0.0567
  C  C113  1  0.960200  0.805800  0.388600  1.0  -0.0391
  C  C114  1  0.730700  0.842700  0.207800  1.0  -0.0395
  C  C115  1  0.822300  0.032700  0.274200  1.0  -0.0299
  C  C116  1  0.714000  0.784600  0.404700  1.0  -0.0446
  C  C117  1  0.748900  0.023100  0.362400  1.0  0.2331
  C  C118  1  0.960200  0.194200  0.611400  1.0  -0.0388
  C  C119  1  0.730700  0.157300  0.792200  1.0  -0.0391
  C  C120  1  0.822300  0.967300  0.725800  1.0  -0.029
  C  C121  1  0.714000  0.215400  0.595300  1.0  -0.0448
  C  C122  1  0.748900  0.976900  0.637600  1.0  0.2325
  C  C123  1  0.460200  0.111400  0.305800  1.0  -0.0386
  C  C124  1  0.230700  0.292200  0.342700  1.0  -0.038
  C  C125  1  0.322300  0.225800  0.532700  1.0  -0.0311
  C  C126  1  0.214000  0.095300  0.284600  1.0  -0.045
  C  C127  1  0.248900  0.137600  0.523100  1.0  0.2311
  C  C128  1  0.460200  0.888600  0.694200  1.0  -0.0395
  C  C129  1  0.230700  0.707800  0.657300  1.0  -0.0376
  C  C130  1  0.322300  0.774200  0.467300  1.0  -0.0317
  C  C131  1  0.214000  0.904700  0.715400  1.0  -0.0443
  C  C132  1  0.248900  0.862400  0.476900  1.0  0.2306
  C  C133  1  0.539800  0.694200  0.888600  1.0  -0.0396
  C  C134  1  0.769300  0.657300  0.707800  1.0  -0.0394
  C  C135  1  0.677700  0.467300  0.774200  1.0  -0.0296
  C  C136  1  0.786000  0.715400  0.904700  1.0  -0.0447
  C  C137  1  0.751100  0.476900  0.862400  1.0  0.233
  C  C138  1  0.539800  0.305800  0.111400  1.0  -0.0389
  C  C139  1  0.769300  0.342700  0.292200  1.0  -0.0393
  C  C140  1  0.677700  0.532700  0.225800  1.0  -0.029
  C  C141  1  0.786000  0.284600  0.095300  1.0  -0.0447
  C  C142  1  0.751100  0.523100  0.137600  1.0  0.233
  C  C143  1  0.039800  0.388600  0.805800  1.0  -0.0381
  C  C144  1  0.269300  0.207800  0.842700  1.0  -0.0377
  C  C145  1  0.177700  0.274200  0.032700  1.0  -0.0311
  C  C146  1  0.286000  0.404700  0.784600  1.0  -0.045
  C  C147  1  0.251100  0.362400  0.023100  1.0  0.2314
  C  C148  1  0.039800  0.611400  0.194200  1.0  -0.0382
  C  C149  1  0.269300  0.792200  0.157300  1.0  -0.0375
  C  C150  1  0.177700  0.725800  0.967300  1.0  -0.0318
  C  C151  1  0.286000  0.595300  0.215400  1.0  -0.0449
  C  C152  1  0.251100  0.637600  0.976900  1.0  0.2318
  C  C153  1  0.039800  0.194200  0.611400  1.0  -0.0386
  C  C154  1  0.269300  0.157300  0.792200  1.0  -0.0394
  C  C155  1  0.177700  0.967300  0.725800  1.0  -0.029
  C  C156  1  0.286000  0.215400  0.595300  1.0  -0.0447
  C  C157  1  0.251100  0.976900  0.637600  1.0  0.2328
  C  C158  1  0.039800  0.805800  0.388600  1.0  -0.0386
  C  C159  1  0.269300  0.842700  0.207800  1.0  -0.0393
  C  C160  1  0.177700  0.032700  0.274200  1.0  -0.0295
  C  C161  1  0.286000  0.784600  0.404700  1.0  -0.045
  C  C162  1  0.251100  0.023100  0.362400  1.0  0.2335
  C  C163  1  0.539800  0.888600  0.694200  1.0  -0.0386
  C  C164  1  0.769300  0.707800  0.657300  1.0  -0.0381
  C  C165  1  0.677700  0.774200  0.467300  1.0  -0.0316
  C  C166  1  0.786000  0.904700  0.715400  1.0  -0.0445
  C  C167  1  0.751100  0.862400  0.476900  1.0  0.2311
  C  C168  1  0.539800  0.111400  0.305800  1.0  -0.0383
  C  C169  1  0.769300  0.292200  0.342700  1.0  -0.0374
  C  C170  1  0.677700  0.225800  0.532700  1.0  -0.031
  C  C171  1  0.786000  0.095300  0.284600  1.0  -0.0453
  C  C172  1  0.751100  0.137600  0.523100  1.0  0.2311
  C  C173  1  0.460200  0.305800  0.111400  1.0  -0.0392
  C  C174  1  0.230700  0.342700  0.292200  1.0  -0.0393
  C  C175  1  0.322300  0.532700  0.225800  1.0  -0.0291
  C  C176  1  0.214000  0.284600  0.095300  1.0  -0.0444
  C  C177  1  0.248900  0.523100  0.137600  1.0  0.2328
  C  C178  1  0.460200  0.694200  0.888600  1.0  -0.0401
  C  C179  1  0.230700  0.657300  0.707800  1.0  -0.0393
  C  C180  1  0.322300  0.467300  0.774200  1.0  -0.03
  C  C181  1  0.214000  0.715400  0.904700  1.0  -0.0446
  C  C182  1  0.248900  0.476900  0.862400  1.0  0.2323
  C  C183  1  0.960200  0.611400  0.194200  1.0  -0.0387
  C  C184  1  0.730700  0.792200  0.157300  1.0  -0.0379
  C  C185  1  0.822300  0.725800  0.967300  1.0  -0.0316
  C  C186  1  0.714000  0.595300  0.215400  1.0  -0.0449
  C  C187  1  0.748900  0.637600  0.976900  1.0  0.2316
  C  C188  1  0.960200  0.388600  0.805800  1.0  -0.0384
  C  C189  1  0.730700  0.207800  0.842700  1.0  -0.0374
  C  C190  1  0.822300  0.274200  0.032700  1.0  -0.0314
  C  C191  1  0.714000  0.404700  0.784600  1.0  -0.0444
  C  C192  1  0.748900  0.362400  0.023100  1.0  0.2312
  C  C193  1  0.000000  0.894600  0.334500  1.0  0.2343
  C  C194  1  0.000000  0.105400  0.665500  1.0  0.2338
  C  C195  1  0.500000  0.165500  0.394600  1.0  0.2341
  C  C196  1  0.500000  0.834500  0.605400  1.0  0.235
  C  C197  1  0.500000  0.605400  0.834500  1.0  0.2336
  C  C198  1  0.500000  0.394600  0.165500  1.0  0.2334
  C  C199  1  0.000000  0.334500  0.894600  1.0  0.2343
  C  C200  1  0.000000  0.665500  0.105400  1.0  0.2348
  C  C201  1  0.831500  0.777900  0.222100  1.0  0.2366
  C  C202  1  0.831500  0.222100  0.777900  1.0  0.2365
  C  C203  1  0.331500  0.277900  0.277900  1.0  0.2367
  C  C204  1  0.331500  0.722100  0.722100  1.0  0.2363
  C  C205  1  0.668500  0.722100  0.722100  1.0  0.2361
  C  C206  1  0.668500  0.277900  0.277900  1.0  0.2368
  C  C207  1  0.168500  0.222100  0.777900  1.0  0.2362
  C  C208  1  0.168500  0.777900  0.222100  1.0  0.2367
  N  N209  1  0.934300  0.865800  0.358700  1.0  -0.3869
  N  N210  1  0.798700  0.836600  0.246100  1.0  -0.3957
  N  N211  1  0.800400  0.987000  0.325000  1.0  -0.3887
  N  N212  1  0.754800  0.846000  0.409200  1.0  -0.3834
  N  N213  1  0.934300  0.134200  0.641300  1.0  -0.3871
  N  N214  1  0.798700  0.163400  0.753900  1.0  -0.3949
  N  N215  1  0.800400  0.013000  0.675000  1.0  -0.3887
  N  N216  1  0.754800  0.154000  0.590800  1.0  -0.383
  N  N217  1  0.434300  0.141300  0.365800  1.0  -0.3879
  N  N218  1  0.298700  0.253900  0.336600  1.0  -0.3957
  N  N219  1  0.300400  0.175000  0.487000  1.0  -0.3883
  N  N220  1  0.254800  0.090800  0.346000  1.0  -0.3838
  N  N221  1  0.434300  0.858700  0.634200  1.0  -0.3869
  N  N222  1  0.298700  0.746100  0.663400  1.0  -0.3956
  N  N223  1  0.300400  0.825000  0.513000  1.0  -0.3877
  N  N224  1  0.254800  0.909200  0.654000  1.0  -0.3842
  N  N225  1  0.565700  0.634200  0.858700  1.0  -0.3848
  N  N226  1  0.701300  0.663400  0.746100  1.0  -0.3966
  N  N227  1  0.699600  0.513000  0.825000  1.0  -0.3894
  N  N228  1  0.745200  0.654000  0.909200  1.0  -0.3838
  N  N229  1  0.565700  0.365800  0.141300  1.0  -0.3865
  N  N230  1  0.701300  0.336600  0.253900  1.0  -0.3955
  N  N231  1  0.699600  0.487000  0.175000  1.0  -0.3887
  N  N232  1  0.745200  0.346000  0.090800  1.0  -0.3834
  N  N233  1  0.065700  0.358700  0.865800  1.0  -0.3871
  N  N234  1  0.201300  0.246100  0.836600  1.0  -0.3954
  N  N235  1  0.199600  0.325000  0.987000  1.0  -0.388
  N  N236  1  0.245200  0.409200  0.846000  1.0  -0.3844
  N  N237  1  0.065700  0.641300  0.134200  1.0  -0.3863
  N  N238  1  0.201300  0.753900  0.163400  1.0  -0.3962
  N  N239  1  0.199600  0.675000  0.013000  1.0  -0.3883
  N  N240  1  0.245200  0.590800  0.154000  1.0  -0.3842
  N  N241  1  0.065700  0.134200  0.641300  1.0  -0.3872
  N  N242  1  0.201300  0.163400  0.753900  1.0  -0.3956
  N  N243  1  0.199600  0.013000  0.675000  1.0  -0.3889
  N  N244  1  0.245200  0.154000  0.590800  1.0  -0.3835
  N  N245  1  0.065700  0.865800  0.358700  1.0  -0.3878
  N  N246  1  0.201300  0.836600  0.246100  1.0  -0.3959
  N  N247  1  0.199600  0.987000  0.325000  1.0  -0.3893
  N  N248  1  0.245200  0.846000  0.409200  1.0  -0.3835
  N  N249  1  0.565700  0.858700  0.634200  1.0  -0.3877
  N  N250  1  0.701300  0.746100  0.663400  1.0  -0.3962
  N  N251  1  0.699600  0.825000  0.513000  1.0  -0.3884
  N  N252  1  0.745200  0.909200  0.654000  1.0  -0.3845
  N  N253  1  0.565700  0.141300  0.365800  1.0  -0.3881
  N  N254  1  0.701300  0.253900  0.336600  1.0  -0.3957
  N  N255  1  0.699600  0.175000  0.487000  1.0  -0.3885
  N  N256  1  0.745200  0.090800  0.346000  1.0  -0.384
  N  N257  1  0.434300  0.365800  0.141300  1.0  -0.389
  N  N258  1  0.298700  0.336600  0.253900  1.0  -0.3952
  N  N259  1  0.300400  0.487000  0.175000  1.0  -0.3886
  N  N260  1  0.254800  0.346000  0.090800  1.0  -0.3832
  N  N261  1  0.434300  0.634200  0.858700  1.0  -0.3881
  N  N262  1  0.298700  0.663400  0.746100  1.0  -0.396
  N  N263  1  0.300400  0.513000  0.825000  1.0  -0.3894
  N  N264  1  0.254800  0.654000  0.909200  1.0  -0.3835
  N  N265  1  0.934300  0.641300  0.134200  1.0  -0.3892
  N  N266  1  0.798700  0.753900  0.163400  1.0  -0.3961
  N  N267  1  0.800400  0.675000  0.013000  1.0  -0.3887
  N  N268  1  0.754800  0.590800  0.154000  1.0  -0.3841
  N  N269  1  0.934300  0.358700  0.865800  1.0  -0.3892
  N  N270  1  0.798700  0.246100  0.836600  1.0  -0.395
  N  N271  1  0.800400  0.325000  0.987000  1.0  -0.3882
  N  N272  1  0.754800  0.409200  0.846000  1.0  -0.3839
