# generated using pymatgen
data_ZnH6(C3N2)2
_symmetry_space_group_name_H-M   'P 1'
_cell_length_a   14.57550000
_cell_length_b   14.57550000
_cell_length_c   14.57550000
_cell_angle_alpha   109.47100000
_cell_angle_beta   109.47100000
_cell_angle_gamma   109.47100000
_symmetry_Int_Tables_number   1
_chemical_formula_structural   ZnH6(C3N2)2
_chemical_formula_sum   'Zn6 H36 C36 N24'
_cell_volume   2383.70244647
_cell_formula_units_Z   6
loop_
 _symmetry_equiv_pos_site_id
 _symmetry_equiv_pos_as_xyz
  1  'x, y, z'
loop_
 _atom_site_type_symbol
 _atom_site_label
 _atom_site_symmetry_multiplicity
 _atom_site_fract_x
 _atom_site_fract_y
 _atom_site_fract_z
 _atom_site_occupancy
 _atom_site_charge
  Zn  Zn1  1  0.750000  0.500000  0.250000  1.0  0.6804
  Zn  Zn2  1  0.250000  0.500000  0.750000  1.0  0.6809
  Zn  Zn3  1  0.250000  0.750000  0.500000  1.0  0.6807
  Zn  Zn4  1  0.750000  0.250000  0.500000  1.0  0.6804
  Zn  Zn5  1  0.500000  0.750000  0.250000  1.0  0.6807
  Zn  Zn6  1  0.500000  0.250000  0.750000  1.0  0.6809
  H  H7  1  0.670800  0.538700  0.436700  1.0  0.0991
  H  H8  1  0.102000  0.234100  0.563300  1.0  0.0992
  H  H9  1  0.898000  0.461300  0.132100  1.0  0.0969
  H  H10  1  0.329200  0.765900  0.867900  1.0  0.099
  H  H11  1  0.132100  0.898000  0.461300  1.0  0.0981
  H  H12  1  0.867900  0.329200  0.765900  1.0  0.1007
  H  H13  1  0.436700  0.670800  0.538700  1.0  0.0983
  H  H14  1  0.563300  0.102000  0.234100  1.0  0.0995
  H  H15  1  0.234100  0.563300  0.102000  1.0  0.0994
  H  H16  1  0.538700  0.436700  0.670800  1.0  0.0991
  H  H17  1  0.765900  0.867900  0.329200  1.0  0.0994
  H  H18  1  0.461300  0.132100  0.898000  1.0  0.0985
  H  H19  1  0.234100  0.102000  0.563300  1.0  0.0999
  H  H20  1  0.538700  0.670800  0.436700  1.0  0.0994
  H  H21  1  0.765900  0.329200  0.867900  1.0  0.0997
  H  H22  1  0.461300  0.898000  0.132100  1.0  0.0976
  H  H23  1  0.670800  0.436700  0.538700  1.0  0.0989
  H  H24  1  0.102000  0.563300  0.234100  1.0  0.0994
  H  H25  1  0.898000  0.132100  0.461300  1.0  0.0968
  H  H26  1  0.329200  0.867900  0.765900  1.0  0.1008
  H  H27  1  0.132100  0.461300  0.898000  1.0  0.0977
  H  H28  1  0.867900  0.765900  0.329200  1.0  0.0998
  H  H29  1  0.436700  0.538700  0.670800  1.0  0.0985
  H  H30  1  0.563300  0.234100  0.102000  1.0  0.0986
  H  H31  1  0.803200  0.359100  0.359100  1.0  0.033
  H  H32  1  0.000000  0.444100  0.640900  1.0  0.0356
  H  H33  1  0.000000  0.640900  0.444100  1.0  0.0327
  H  H34  1  0.196800  0.555900  0.555900  1.0  0.0325
  H  H35  1  0.444100  0.000000  0.640900  1.0  0.0353
  H  H36  1  0.555900  0.196800  0.555900  1.0  0.032
  H  H37  1  0.359100  0.803200  0.359100  1.0  0.0337
  H  H38  1  0.640900  0.000000  0.444100  1.0  0.0334
  H  H39  1  0.444100  0.640900  0.000000  1.0  0.0327
  H  H40  1  0.359100  0.359100  0.803200  1.0  0.0339
  H  H41  1  0.555900  0.555900  0.196800  1.0  0.0342
  H  H42  1  0.640900  0.444100  0.000000  1.0  0.0337
  C  C43  1  0.692100  0.482800  0.427100  1.0  -0.0185
  C  C44  1  0.055700  0.265000  0.572900  1.0  -0.0212
  C  C45  1  0.944300  0.517200  0.209300  1.0  -0.0217
  C  C46  1  0.307900  0.735000  0.790700  1.0  -0.0175
  C  C47  1  0.209300  0.944300  0.517200  1.0  -0.0235
  C  C48  1  0.790700  0.307900  0.735000  1.0  -0.0183
  C  C49  1  0.427100  0.692100  0.482800  1.0  -0.0164
  C  C50  1  0.572900  0.055700  0.265000  1.0  -0.0207
  C  C51  1  0.265000  0.572900  0.055700  1.0  -0.0201
  C  C52  1  0.482800  0.427100  0.692100  1.0  -0.0183
  C  C53  1  0.735000  0.790700  0.307900  1.0  -0.0192
  C  C54  1  0.517200  0.209300  0.944300  1.0  -0.0216
  C  C55  1  0.265000  0.055700  0.572900  1.0  -0.0234
  C  C56  1  0.482800  0.692100  0.427100  1.0  -0.0194
  C  C57  1  0.735000  0.307900  0.790700  1.0  -0.0186
  C  C58  1  0.517200  0.944300  0.209300  1.0  -0.0223
  C  C59  1  0.692100  0.427100  0.482800  1.0  -0.0197
  C  C60  1  0.055700  0.572900  0.265000  1.0  -0.0217
  C  C61  1  0.944300  0.209300  0.517200  1.0  -0.0243
  C  C62  1  0.307900  0.790700  0.735000  1.0  -0.0196
  C  C63  1  0.209300  0.517200  0.944300  1.0  -0.0227
  C  C64  1  0.790700  0.735000  0.307900  1.0  -0.021
  C  C65  1  0.427100  0.482800  0.692100  1.0  -0.0207
  C  C66  1  0.572900  0.265000  0.055700  1.0  -0.021
  C  C67  1  0.758440  0.383420  0.383420  1.0  0.2471
  C  C68  1  0.000000  0.375020  0.616580  1.0  0.2513
  C  C69  1  0.000000  0.616580  0.375020  1.0  0.2479
  C  C70  1  0.241560  0.624980  0.624980  1.0  0.2448
  C  C71  1  0.375020  0.000000  0.616580  1.0  0.2528
  C  C72  1  0.624980  0.241560  0.624980  1.0  0.2475
  C  C73  1  0.383420  0.758440  0.383420  1.0  0.2478
  C  C74  1  0.616580  0.000000  0.375020  1.0  0.2509
  C  C75  1  0.375020  0.616580  0.000000  1.0  0.2516
  C  C76  1  0.383420  0.383420  0.758440  1.0  0.2442
  C  C77  1  0.624980  0.624980  0.241560  1.0  0.2464
  C  C78  1  0.616580  0.375020  0.000000  1.0  0.2504
  N  N79  1  0.727690  0.446860  0.353670  1.0  -0.3894
  N  N80  1  0.093190  0.374020  0.646330  1.0  -0.3879
  N  N81  1  0.906810  0.553140  0.280830  1.0  -0.3909
  N  N82  1  0.272310  0.625980  0.719170  1.0  -0.3893
  N  N83  1  0.280830  0.906810  0.553140  1.0  -0.3928
  N  N84  1  0.719170  0.272310  0.625980  1.0  -0.3878
  N  N85  1  0.353670  0.727690  0.446860  1.0  -0.3887
  N  N86  1  0.646330  0.093190  0.374020  1.0  -0.3907
  N  N87  1  0.374020  0.646330  0.093190  1.0  -0.3884
  N  N88  1  0.446860  0.353670  0.727690  1.0  -0.3906
  N  N89  1  0.625980  0.719170  0.272310  1.0  -0.3894
  N  N90  1  0.553140  0.280830  0.906810  1.0  -0.3895
  N  N91  1  0.374020  0.093190  0.646330  1.0  -0.3913
  N  N92  1  0.446860  0.727690  0.353670  1.0  -0.388
  N  N93  1  0.625980  0.272310  0.719170  1.0  -0.3888
  N  N94  1  0.553140  0.906810  0.280830  1.0  -0.3929
  N  N95  1  0.727690  0.353670  0.446860  1.0  -0.3904
  N  N96  1  0.093190  0.646330  0.374020  1.0  -0.3897
  N  N97  1  0.906810  0.280830  0.553140  1.0  -0.3908
  N  N98  1  0.272310  0.719170  0.625980  1.0  -0.3885
  N  N99  1  0.280830  0.553140  0.906810  1.0  -0.39
  N  N100  1  0.719170  0.625980  0.272310  1.0  -0.3898
  N  N101  1  0.353670  0.446860  0.727690  1.0  -0.3904
  N  N102  1  0.646330  0.374020  0.093190  1.0  -0.3869
