# generated using pymatgen
data_ZnH6(C3N2)2
_symmetry_space_group_name_H-M   'P 1'
_cell_length_a   9.60970000
_cell_length_b   24.35900000
_cell_length_c   24.80400000
_cell_angle_alpha   91.77400000
_cell_angle_beta   90.00000000
_cell_angle_gamma   90.00000000
_symmetry_Int_Tables_number   1
_chemical_formula_structural   ZnH6(C3N2)2
_chemical_formula_sum   'Zn20 H120 C120 N80'
_cell_volume   5803.40401147
_cell_formula_units_Z   20
loop_
 _symmetry_equiv_pos_site_id
 _symmetry_equiv_pos_as_xyz
  1  'x, y, z'
loop_
 _atom_site_type_symbol
 _atom_site_label
 _atom_site_symmetry_multiplicity
 _atom_site_fract_x
 _atom_site_fract_y
 _atom_site_fract_z
 _atom_site_occupancy
 _atom_site_charge
  Zn  Zn1  1  0.967150  0.232630  0.317940  1.0  0.7396
  Zn  Zn2  1  0.741200  0.012860  0.275890  1.0  0.7399
  Zn  Zn3  1  0.236360  0.032130  0.137470  1.0  0.7249
  Zn  Zn4  1  0.328000  0.340980  0.482260  1.0  0.7356
  Zn  Zn5  1  0.440200  0.216590  0.683910  1.0  0.7344
  Zn  Zn6  1  0.467150  0.267370  0.182060  1.0  0.7385
  Zn  Zn7  1  0.241200  0.487140  0.224110  1.0  0.7384
  Zn  Zn8  1  0.736360  0.467870  0.362530  1.0  0.7245
  Zn  Zn9  1  0.828000  0.159020  0.017740  1.0  0.7345
  Zn  Zn10  1  0.940200  0.283410  0.816090  1.0  0.7343
  Zn  Zn11  1  0.032850  0.767370  0.682060  1.0  0.7389
  Zn  Zn12  1  0.258800  0.987140  0.724110  1.0  0.7379
  Zn  Zn13  1  0.763640  0.967870  0.862530  1.0  0.7249
  Zn  Zn14  1  0.672000  0.659020  0.517740  1.0  0.7344
  Zn  Zn15  1  0.559800  0.783410  0.316090  1.0  0.7343
  Zn  Zn16  1  0.532850  0.732630  0.817940  1.0  0.7397
  Zn  Zn17  1  0.758800  0.512860  0.775890  1.0  0.7394
  Zn  Zn18  1  0.263640  0.532130  0.637470  1.0  0.7251
  Zn  Zn19  1  0.172000  0.840980  0.982260  1.0  0.7355
  Zn  Zn20  1  0.059800  0.716590  0.183910  1.0  0.7344
  H  H21  1  0.178100  0.280300  0.235500  1.0  0.0464
  H  H22  1  0.220400  0.145200  0.310100  1.0  0.0935
  H  H23  1  0.428200  0.158200  0.258100  1.0  0.0977
  H  H24  1  0.927700  0.114000  0.277700  1.0  0.0329
  H  H25  1  0.742600  0.179900  0.397200  1.0  0.0879
  H  H26  1  0.656800  0.086800  0.384400  1.0  0.0873
  H  H27  1  0.435900  0.994100  0.227800  1.0  0.0491
  H  H28  1  0.710400  0.099000  0.180300  1.0  0.0909
  H  H29  1  0.504000  0.107400  0.125200  1.0  0.0817
  H  H30  1  0.954500  0.051400  0.189200  1.0  0.062
  H  H31  1  0.190200  0.925500  0.214500  1.0  0.0942
  H  H32  1  0.986100  0.919000  0.271300  1.0  0.0931
  H  H33  1  0.536500  0.428500  0.448200  1.0  0.0653
  H  H34  1  0.493300  0.288400  0.371700  1.0  0.0936
  H  H35  1  0.667400  0.339200  0.325400  1.0  0.0781
  H  H36  1  0.354300  0.417900  0.587600  1.0  0.0585
  H  H37  1  0.133600  0.528000  0.516700  1.0  0.091
  H  H38  1  0.157600  0.450200  0.454600  1.0  0.1041
  H  H39  1  0.218900  0.280300  0.377300  1.0  0.0512
  H  H40  1  0.993000  0.333600  0.498100  1.0  0.1008
  H  H41  1  0.839000  0.290700  0.430700  1.0  0.0942
  H  H42  1  0.302100  0.302900  0.604900  1.0  0.0624
  H  H43  1  0.575100  0.258300  0.496900  1.0  0.0906
  H  H44  1  0.624800  0.208700  0.578200  1.0  0.1001
  H  H45  1  0.143000  0.212000  0.738100  1.0  0.0518
  H  H46  1  0.205700  0.357800  0.799400  1.0  0.0988
  H  H47  1  0.408300  0.331800  0.743900  1.0  0.0946
  H  H48  1  0.614500  0.895000  0.258100  1.0  0.0528
  H  H49  1  0.668400  0.867700  0.405800  1.0  0.0876
  H  H50  1  0.729800  0.962600  0.394400  1.0  0.1111
  H  H51  1  0.678100  0.219700  0.264500  1.0  0.0469
  H  H52  1  0.720400  0.354800  0.189900  1.0  0.0932
  H  H53  1  0.928200  0.341800  0.241900  1.0  0.0973
  H  H54  1  0.427700  0.386000  0.222300  1.0  0.0338
  H  H55  1  0.242600  0.320100  0.102800  1.0  0.087
  H  H56  1  0.156800  0.413200  0.115600  1.0  0.0856
  H  H57  1  0.935900  0.505900  0.272200  1.0  0.0489
  H  H58  1  0.210400  0.401000  0.319700  1.0  0.0913
  H  H59  1  0.004000  0.392600  0.374800  1.0  0.0818
  H  H60  1  0.454500  0.448600  0.310800  1.0  0.0623
  H  H61  1  0.690200  0.574500  0.285500  1.0  0.0937
  H  H62  1  0.486100  0.581000  0.228700  1.0  0.0925
  H  H63  1  0.036500  0.071500  0.051800  1.0  0.0647
  H  H64  1  0.993300  0.211600  0.128300  1.0  0.0937
  H  H65  1  0.167400  0.160800  0.174600  1.0  0.0786
  H  H66  1  0.854300  0.082100  0.912400  1.0  0.058
  H  H67  1  0.633600  0.972000  0.983300  1.0  0.0906
  H  H68  1  0.657600  0.049800  0.045400  1.0  0.1004
  H  H69  1  0.718900  0.219700  0.122700  1.0  0.0522
  H  H70  1  0.493000  0.166400  0.001900  1.0  0.1011
  H  H71  1  0.339000  0.209300  0.069300  1.0  0.0934
  H  H72  1  0.802100  0.197100  0.895100  1.0  0.062
  H  H73  1  0.075100  0.241700  0.003100  1.0  0.0899
  H  H74  1  0.124800  0.291300  0.921800  1.0  0.1004
  H  H75  1  0.643000  0.288000  0.761900  1.0  0.052
  H  H76  1  0.705700  0.142200  0.700600  1.0  0.0991
  H  H77  1  0.908300  0.168200  0.756100  1.0  0.0943
  H  H78  1  0.114500  0.605000  0.241900  1.0  0.0527
  H  H79  1  0.168400  0.632300  0.094200  1.0  0.0871
  H  H80  1  0.229800  0.537400  0.105600  1.0  0.112
  H  H81  1  0.821900  0.719700  0.764500  1.0  0.0467
  H  H82  1  0.779600  0.854800  0.689900  1.0  0.0933
  H  H83  1  0.571800  0.841800  0.741900  1.0  0.0975
  H  H84  1  0.072300  0.886000  0.722300  1.0  0.033
  H  H85  1  0.257400  0.820100  0.602800  1.0  0.0871
  H  H86  1  0.343200  0.913200  0.615600  1.0  0.0863
  H  H87  1  0.564100  0.005900  0.772200  1.0  0.0492
  H  H88  1  0.289600  0.901000  0.819700  1.0  0.0912
  H  H89  1  0.496000  0.892600  0.874800  1.0  0.082
  H  H90  1  0.045500  0.948600  0.810800  1.0  0.0629
  H  H91  1  0.809800  0.074500  0.785500  1.0  0.0939
  H  H92  1  0.013900  0.081000  0.728700  1.0  0.0962
  H  H93  1  0.463500  0.571500  0.551800  1.0  0.0648
  H  H94  1  0.506700  0.711600  0.628300  1.0  0.0937
  H  H95  1  0.332600  0.660800  0.674600  1.0  0.079
  H  H96  1  0.645700  0.582100  0.412400  1.0  0.0581
  H  H97  1  0.866400  0.472000  0.483300  1.0  0.0907
  H  H98  1  0.842400  0.549800  0.545400  1.0  0.1005
  H  H99  1  0.781100  0.719700  0.622700  1.0  0.0523
  H  H100  1  0.007000  0.666400  0.501900  1.0  0.1009
  H  H101  1  0.161000  0.709300  0.569300  1.0  0.0922
  H  H102  1  0.697900  0.697100  0.395100  1.0  0.0615
  H  H103  1  0.424900  0.741700  0.503100  1.0  0.0906
  H  H104  1  0.375200  0.791300  0.421800  1.0  0.1011
  H  H105  1  0.857000  0.788000  0.261900  1.0  0.0521
  H  H106  1  0.794300  0.642200  0.200600  1.0  0.0994
  H  H107  1  0.591700  0.668200  0.256100  1.0  0.0944
  H  H108  1  0.385500  0.105000  0.741900  1.0  0.0529
  H  H109  1  0.331600  0.132300  0.594200  1.0  0.0871
  H  H110  1  0.270200  0.037400  0.605600  1.0  0.1122
  H  H111  1  0.321900  0.780300  0.735500  1.0  0.0462
  H  H112  1  0.279600  0.645200  0.810100  1.0  0.0937
  H  H113  1  0.071800  0.658200  0.758100  1.0  0.0973
  H  H114  1  0.572300  0.614000  0.777700  1.0  0.0322
  H  H115  1  0.757400  0.679900  0.897200  1.0  0.0879
  H  H116  1  0.843200  0.586800  0.884400  1.0  0.0871
  H  H117  1  0.064100  0.494100  0.727800  1.0  0.0495
  H  H118  1  0.789600  0.599000  0.680300  1.0  0.0907
  H  H119  1  0.996000  0.607400  0.625200  1.0  0.0818
  H  H120  1  0.545500  0.551400  0.689200  1.0  0.0625
  H  H121  1  0.309800  0.425500  0.714500  1.0  0.0939
  H  H122  1  0.513900  0.419000  0.771300  1.0  0.0972
  H  H123  1  0.963500  0.928500  0.948200  1.0  0.0655
  H  H124  1  0.006700  0.788400  0.871700  1.0  0.0938
  H  H125  1  0.832600  0.839200  0.825400  1.0  0.0785
  H  H126  1  0.145700  0.917900  0.087600  1.0  0.0586
  H  H127  1  0.366400  0.028000  0.016700  1.0  0.0908
  H  H128  1  0.342400  0.950200  0.954600  1.0  0.1042
  H  H129  1  0.281100  0.780300  0.877300  1.0  0.0516
  H  H130  1  0.507000  0.833600  0.998100  1.0  0.1003
  H  H131  1  0.661000  0.790700  0.930700  1.0  0.0928
  H  H132  1  0.197900  0.802900  0.104900  1.0  0.0618
  H  H133  1  0.924900  0.758300  0.996900  1.0  0.091
  H  H134  1  0.875200  0.708700  0.078200  1.0  0.1009
  H  H135  1  0.357000  0.712000  0.238100  1.0  0.0519
  H  H136  1  0.294300  0.857800  0.299400  1.0  0.0991
  H  H137  1  0.091700  0.831800  0.243900  1.0  0.0948
  H  H138  1  0.885500  0.395000  0.758100  1.0  0.0528
  H  H139  1  0.831600  0.367700  0.905800  1.0  0.0879
  H  H140  1  0.770200  0.462600  0.894400  1.0  0.1112
  C  C141  1  0.215500  0.247800  0.247800  1.0  0.2346
  C  C142  1  0.237400  0.174900  0.288400  1.0  -0.0237
  C  C143  1  0.352100  0.181800  0.259600  1.0  -0.0194
  C  C144  1  0.869700  0.118700  0.307500  1.0  0.2192
  C  C145  1  0.773500  0.154700  0.370900  1.0  -0.0443
  C  C146  1  0.724000  0.103200  0.363200  1.0  -0.0276
  C  C147  1  0.480500  0.021600  0.209000  1.0  0.2454
  C  C148  1  0.629600  0.078400  0.183400  1.0  -0.0347
  C  C149  1  0.515600  0.083100  0.153000  1.0  -0.0018
  C  C150  1  0.988300  0.019100  0.203300  1.0  0.236
  C  C151  1  0.117600  0.950800  0.216600  1.0  -0.0332
  C  C152  1  0.004400  0.947100  0.247800  1.0  -0.0335
  C  C153  1  0.547200  0.399300  0.423600  1.0  0.231
  C  C154  1  0.523400  0.323500  0.382000  1.0  -0.0048
  C  C155  1  0.619900  0.351100  0.356300  1.0  -0.018
  C  C156  1  0.302100  0.435900  0.561900  1.0  0.2354
  C  C157  1  0.181800  0.495900  0.523700  1.0  0.0017
  C  C158  1  0.195100  0.453200  0.489200  1.0  -0.0419
  C  C159  1  0.142800  0.287500  0.399600  1.0  0.237
  C  C160  1  0.021100  0.317000  0.465600  1.0  -0.0383
  C  C161  1  0.935300  0.293300  0.427900  1.0  -0.0205
  C  C162  1  0.376200  0.285100  0.587700  1.0  0.231
  C  C163  1  0.524600  0.261200  0.528900  1.0  -0.0184
  C  C164  1  0.552500  0.233500  0.573900  1.0  -0.0321
  C  C165  1  0.184200  0.245700  0.746700  1.0  0.238
  C  C166  1  0.216700  0.324700  0.780200  1.0  -0.0302
  C  C167  1  0.329800  0.310400  0.749400  1.0  -0.0501
  C  C168  1  0.633900  0.900300  0.294700  1.0  0.2264
  C  C169  1  0.663000  0.885400  0.373200  1.0  -0.0083
  C  C170  1  0.697800  0.938000  0.367800  1.0  -0.0561
  C  C171  1  0.715500  0.252200  0.252200  1.0  0.2348
  C  C172  1  0.737400  0.325100  0.211600  1.0  -0.0216
  C  C173  1  0.852100  0.318200  0.240400  1.0  -0.0195
  C  C174  1  0.369700  0.381300  0.192500  1.0  0.2192
  C  C175  1  0.273500  0.345300  0.129100  1.0  -0.0444
  C  C176  1  0.224000  0.396800  0.136800  1.0  -0.0268
  C  C177  1  0.980500  0.478400  0.291000  1.0  0.2459
  C  C178  1  0.129600  0.421600  0.316600  1.0  -0.0353
  C  C179  1  0.015600  0.416900  0.347000  1.0  -0.002
  C  C180  1  0.488300  0.480900  0.296700  1.0  0.2374
  C  C181  1  0.617600  0.549200  0.283400  1.0  -0.0339
  C  C182  1  0.504400  0.552900  0.252200  1.0  -0.0341
  C  C183  1  0.047200  0.100700  0.076400  1.0  0.2312
  C  C184  1  0.023400  0.176500  0.118000  1.0  -0.004
  C  C185  1  0.119900  0.148900  0.143700  1.0  -0.0182
  C  C186  1  0.802100  0.064100  0.938100  1.0  0.2356
  C  C187  1  0.681800  0.004100  0.976300  1.0  0.0029
  C  C188  1  0.695100  0.046800  0.010800  1.0  -0.0419
  C  C189  1  0.642800  0.212500  0.100400  1.0  0.2367
  C  C190  1  0.521100  0.183000  0.034400  1.0  -0.0375
  C  C191  1  0.435300  0.206700  0.072100  1.0  -0.0193
  C  C192  1  0.876200  0.214900  0.912300  1.0  0.2314
  C  C193  1  0.024600  0.238800  0.971100  1.0  -0.0191
  C  C194  1  0.052500  0.266500  0.926100  1.0  -0.0326
  C  C195  1  0.684200  0.254300  0.753300  1.0  0.2378
  C  C196  1  0.716700  0.175300  0.719800  1.0  -0.0293
  C  C197  1  0.829800  0.189600  0.750600  1.0  -0.0498
  C  C198  1  0.133900  0.599700  0.205300  1.0  0.227
  C  C199  1  0.163000  0.614600  0.126800  1.0  -0.0076
  C  C200  1  0.197800  0.562000  0.132200  1.0  -0.0574
  C  C201  1  0.784500  0.752200  0.752200  1.0  0.2344
  C  C202  1  0.762600  0.825100  0.711600  1.0  -0.0213
  C  C203  1  0.647900  0.818200  0.740400  1.0  -0.0213
  C  C204  1  0.130300  0.881300  0.692500  1.0  0.2222
  C  C205  1  0.226500  0.845300  0.629100  1.0  -0.0443
  C  C206  1  0.276000  0.896800  0.636800  1.0  -0.0282
  C  C207  1  0.519500  0.978400  0.791000  1.0  0.2467
  C  C208  1  0.370400  0.921600  0.816600  1.0  -0.0372
  C  C209  1  0.484400  0.916900  0.847000  1.0  -0.0028
  C  C210  1  0.011700  0.980900  0.796700  1.0  0.2376
  C  C211  1  0.882400  0.049200  0.783400  1.0  -0.0352
  C  C212  1  0.995600  0.052900  0.752200  1.0  -0.0271
  C  C213  1  0.452800  0.600700  0.576400  1.0  0.2309
  C  C214  1  0.476600  0.676500  0.618000  1.0  -0.0041
  C  C215  1  0.380100  0.648900  0.643700  1.0  -0.0199
  C  C216  1  0.697900  0.564100  0.438100  1.0  0.2354
  C  C217  1  0.818200  0.504100  0.476300  1.0  0.003
  C  C218  1  0.804900  0.546800  0.510800  1.0  -0.0408
  C  C219  1  0.857200  0.712500  0.600400  1.0  0.2356
  C  C220  1  0.978900  0.683000  0.534400  1.0  -0.0383
  C  C221  1  0.064700  0.706700  0.572100  1.0  -0.0177
  C  C222  1  0.623800  0.714900  0.412300  1.0  0.2321
  C  C223  1  0.475400  0.738800  0.471100  1.0  -0.0193
  C  C224  1  0.447500  0.766500  0.426100  1.0  -0.0316
  C  C225  1  0.815800  0.754300  0.253300  1.0  0.238
  C  C226  1  0.783300  0.675300  0.219800  1.0  -0.0298
  C  C227  1  0.670200  0.689600  0.250600  1.0  -0.0518
  C  C228  1  0.366100  0.099700  0.705300  1.0  0.2271
  C  C229  1  0.337000  0.114600  0.626800  1.0  -0.0078
  C  C230  1  0.302200  0.062000  0.632200  1.0  -0.0565
  C  C231  1  0.284500  0.747800  0.747800  1.0  0.2346
  C  C232  1  0.262600  0.674900  0.788400  1.0  -0.0239
  C  C233  1  0.147900  0.681800  0.759600  1.0  -0.0214
  C  C234  1  0.630300  0.618700  0.807500  1.0  0.2222
  C  C235  1  0.726500  0.654700  0.870900  1.0  -0.0432
  C  C236  1  0.776000  0.603200  0.863200  1.0  -0.0274
  C  C237  1  0.019500  0.521600  0.709000  1.0  0.2459
  C  C238  1  0.870400  0.578400  0.683400  1.0  -0.0364
  C  C239  1  0.984400  0.583100  0.653000  1.0  -0.002
  C  C240  1  0.511700  0.519100  0.703300  1.0  0.2362
  C  C241  1  0.382400  0.450800  0.716600  1.0  -0.0347
  C  C242  1  0.495600  0.447100  0.747800  1.0  -0.0254
  C  C243  1  0.952800  0.899300  0.923600  1.0  0.2311
  C  C244  1  0.976600  0.823500  0.882000  1.0  -0.0051
  C  C245  1  0.880100  0.851100  0.856300  1.0  -0.0195
  C  C246  1  0.197900  0.935900  0.061900  1.0  0.2351
  C  C247  1  0.318200  0.995900  0.023700  1.0  0.0022
  C  C248  1  0.304900  0.953200  0.989200  1.0  -0.0415
  C  C249  1  0.357200  0.787500  0.899600  1.0  0.2365
  C  C250  1  0.478900  0.817000  0.965600  1.0  -0.0376
  C  C251  1  0.564700  0.793300  0.927900  1.0  -0.0191
  C  C252  1  0.123800  0.785100  0.087700  1.0  0.2321
  C  C253  1  0.975400  0.761200  0.028900  1.0  -0.0183
  C  C254  1  0.947500  0.733500  0.073900  1.0  -0.0314
  C  C255  1  0.315800  0.745700  0.246700  1.0  0.2378
  C  C256  1  0.283300  0.824700  0.280200  1.0  -0.0306
  C  C257  1  0.170200  0.810400  0.249400  1.0  -0.052
  C  C258  1  0.866100  0.400300  0.794700  1.0  0.2262
  C  C259  1  0.837000  0.385400  0.873200  1.0  -0.0088
  C  C260  1  0.802200  0.438000  0.867800  1.0  -0.0562
  N  N261  1  0.149700  0.216800  0.281700  1.0  -0.3853
  N  N262  1  0.339600  0.229300  0.232500  1.0  -0.4176
  N  N263  1  0.871300  0.163600  0.336000  1.0  -0.3539
  N  N264  1  0.784500  0.079800  0.321500  1.0  -0.3779
  N  N265  1  0.607500  0.037600  0.220200  1.0  -0.4162
  N  N266  1  0.420900  0.047000  0.169500  1.0  -0.3948
  N  N267  1  0.920000  0.991200  0.239500  1.0  -0.4089
  N  N268  1  0.108300  0.997400  0.188900  1.0  -0.3892
  N  N269  1  0.636600  0.399800  0.383400  1.0  -0.3867
  N  N270  1  0.473200  0.352900  0.425800  1.0  -0.4136
  N  N271  1  0.248600  0.485600  0.570400  1.0  -0.4023
  N  N272  1  0.274600  0.414300  0.513900  1.0  -0.3944
  N  N273  1  0.154300  0.312300  0.447900  1.0  -0.3991
  N  N274  1  0.013000  0.274000  0.385700  1.0  -0.404
  N  N275  1  0.412500  0.293900  0.537200  1.0  -0.3918
  N  N276  1  0.456600  0.248100  0.611600  1.0  -0.4021
  N  N277  1  0.306700  0.259500  0.728300  1.0  -0.3877
  N  N278  1  0.123600  0.283300  0.778500  1.0  -0.3887
  N  N279  1  0.620800  0.861400  0.328500  1.0  -0.3684
  N  N280  1  0.676300  0.947700  0.315100  1.0  -0.3945
  N  N281  1  0.649700  0.283200  0.218300  1.0  -0.385
  N  N282  1  0.839600  0.270700  0.267500  1.0  -0.4167
  N  N283  1  0.371300  0.336400  0.164000  1.0  -0.3535
  N  N284  1  0.284500  0.420200  0.178500  1.0  -0.3766
  N  N285  1  0.107500  0.462400  0.279800  1.0  -0.4176
  N  N286  1  0.920900  0.453000  0.330500  1.0  -0.395
  N  N287  1  0.420000  0.508800  0.260500  1.0  -0.4089
  N  N288  1  0.608300  0.502600  0.311100  1.0  -0.389
  N  N289  1  0.136600  0.100200  0.116600  1.0  -0.3857
  N  N290  1  0.973200  0.147100  0.074200  1.0  -0.4141
  N  N291  1  0.748600  0.014400  0.929600  1.0  -0.4026
  N  N292  1  0.774600  0.085700  0.986100  1.0  -0.3947
  N  N293  1  0.654300  0.187700  0.052100  1.0  -0.3994
  N  N294  1  0.513000  0.226000  0.114300  1.0  -0.4047
  N  N295  1  0.912500  0.206100  0.962800  1.0  -0.3924
  N  N296  1  0.956600  0.251900  0.888400  1.0  -0.4017
  N  N297  1  0.806700  0.240500  0.771700  1.0  -0.3873
  N  N298  1  0.623600  0.216700  0.721500  1.0  -0.3885
  N  N299  1  0.120800  0.638600  0.171500  1.0  -0.3673
  N  N300  1  0.176300  0.552300  0.184900  1.0  -0.3938
  N  N301  1  0.850300  0.783200  0.718300  1.0  -0.3855
  N  N302  1  0.660400  0.770700  0.767500  1.0  -0.4183
  N  N303  1  0.128700  0.836400  0.664000  1.0  -0.3555
  N  N304  1  0.215500  0.920200  0.678500  1.0  -0.3772
  N  N305  1  0.392500  0.962400  0.779800  1.0  -0.4179
  N  N306  1  0.579100  0.953000  0.830500  1.0  -0.3944
  N  N307  1  0.080000  0.008800  0.760500  1.0  -0.4083
  N  N308  1  0.891700  0.002600  0.811100  1.0  -0.39
  N  N309  1  0.363400  0.600200  0.616600  1.0  -0.389
  N  N310  1  0.526800  0.647100  0.574200  1.0  -0.4128
  N  N311  1  0.751400  0.514400  0.429600  1.0  -0.4023
  N  N312  1  0.725400  0.585700  0.486100  1.0  -0.3948
  N  N313  1  0.845700  0.687700  0.552100  1.0  -0.4007
  N  N314  1  0.987000  0.726000  0.614300  1.0  -0.4046
  N  N315  1  0.587500  0.706100  0.462800  1.0  -0.3918
  N  N316  1  0.543400  0.751900  0.388400  1.0  -0.4022
  N  N317  1  0.693300  0.740500  0.271700  1.0  -0.3879
  N  N318  1  0.876400  0.716700  0.221500  1.0  -0.3884
  N  N319  1  0.379200  0.138600  0.671500  1.0  -0.3668
  N  N320  1  0.323700  0.052300  0.684900  1.0  -0.3933
  N  N321  1  0.350300  0.716800  0.781700  1.0  -0.3849
  N  N322  1  0.160400  0.729300  0.732500  1.0  -0.419
  N  N323  1  0.628700  0.663600  0.836000  1.0  -0.3553
  N  N324  1  0.715500  0.579800  0.821500  1.0  -0.3781
  N  N325  1  0.892500  0.537600  0.720200  1.0  -0.4168
  N  N326  1  0.079100  0.547000  0.669500  1.0  -0.3939
  N  N327  1  0.580000  0.491200  0.739500  1.0  -0.4081
  N  N328  1  0.391700  0.497400  0.688900  1.0  -0.39
  N  N329  1  0.863400  0.899800  0.883400  1.0  -0.3893
  N  N330  1  0.026800  0.852900  0.925800  1.0  -0.4119
  N  N331  1  0.251400  0.985600  0.070400  1.0  -0.4021
  N  N332  1  0.225400  0.914300  0.013900  1.0  -0.395
  N  N333  1  0.345700  0.812300  0.947900  1.0  -0.4026
  N  N334  1  0.487000  0.774000  0.885700  1.0  -0.4042
  N  N335  1  0.087500  0.793900  0.037200  1.0  -0.3912
  N  N336  1  0.043400  0.748100  0.111600  1.0  -0.4029
  N  N337  1  0.193300  0.759500  0.228300  1.0  -0.3882
  N  N338  1  0.376400  0.783300  0.278500  1.0  -0.3882
  N  N339  1  0.879200  0.361400  0.828500  1.0  -0.3681
  N  N340  1  0.823700  0.447700  0.815100  1.0  -0.3941
