# generated using pymatgen
data_CuB2H12C16(NF)8
_symmetry_space_group_name_H-M   'P 1'
_cell_length_a   12.08610000
_cell_length_b   14.65550000
_cell_length_c   21.56730000
_cell_angle_alpha   90.00000000
_cell_angle_beta   104.02500000
_cell_angle_gamma   90.00000000
_symmetry_Int_Tables_number   1
_chemical_formula_structural   CuB2H12C16(NF)8
_chemical_formula_sum   'Cu6 B12 H72 C96 N48 F48'
_cell_volume   3706.29027625
_cell_formula_units_Z   6
loop_
 _symmetry_equiv_pos_site_id
 _symmetry_equiv_pos_as_xyz
  1  'x, y, z'
loop_
 _atom_site_type_symbol
 _atom_site_label
 _atom_site_symmetry_multiplicity
 _atom_site_fract_x
 _atom_site_fract_y
 _atom_site_fract_z
 _atom_site_occupancy
 _atom_site_charge
  Cu  Cu1  1  0.725270  0.741240  0.504770  1.0  0.4665
  Cu  Cu2  1  0.274730  0.741240  0.995230  1.0  0.4676
  Cu  Cu3  1  0.274730  0.258760  0.495230  1.0  0.4667
  Cu  Cu4  1  0.725270  0.258760  0.004770  1.0  0.4655
  Cu  Cu5  1  0.000000  0.000000  0.500000  1.0  0.6611
  Cu  Cu6  1  0.000000  0.000000  0.000000  1.0  0.6611
  B  B7  1  0.763100  0.439600  0.355200  1.0  0.9997
  B  B8  1  0.703500  0.089800  0.278200  1.0  0.9833
  B  B9  1  0.740400  0.230700  0.631400  1.0  0.9626
  B  B10  1  0.236900  0.439600  0.144800  1.0  0.9989
  B  B11  1  0.296500  0.089800  0.221800  1.0  0.9821
  B  B12  1  0.259600  0.230700  0.868600  1.0  0.9647
  B  B13  1  0.236900  0.560400  0.644800  1.0  1.0006
  B  B14  1  0.296500  0.910200  0.721800  1.0  0.9822
  B  B15  1  0.259600  0.769300  0.368600  1.0  0.9643
  B  B16  1  0.763100  0.560400  0.855200  1.0  1.0007
  B  B17  1  0.703500  0.910200  0.778200  1.0  0.9817
  B  B18  1  0.740400  0.769300  0.131400  1.0  0.9626
  H  H19  1  0.144300  0.110000  0.613700  1.0  0.064
  H  H20  1  0.143300  0.131600  0.720500  1.0  0.1085
  H  H21  1  0.862000  0.978400  0.686700  1.0  0.0706
  H  H22  1  0.735400  0.012200  0.467100  1.0  0.0801
  H  H23  1  0.667400  0.279900  0.440700  1.0  0.1177
  H  H24  1  0.862000  0.300600  0.452300  1.0  0.0561
  H  H25  1  0.523400  0.237000  0.491500  1.0  0.0771
  H  H26  1  0.545800  0.000900  0.401000  1.0  0.1126
  H  H27  1  0.351900  0.981100  0.394900  1.0  0.0612
  H  H28  1  0.598800  0.619700  0.407500  1.0  0.072
  H  H29  1  0.506000  0.616200  0.300800  1.0  0.1193
  H  H30  1  0.567700  0.882600  0.296800  1.0  0.0712
  H  H31  1  0.697100  0.706400  0.641100  1.0  0.0707
  H  H32  1  0.812500  0.699800  0.744700  1.0  0.1141
  H  H33  1  0.074900  0.754100  0.667800  1.0  0.0791
  H  H34  1  0.861000  0.566400  0.536000  1.0  0.1109
  H  H35  1  0.072200  0.554300  0.419500  1.0  0.1155
  H  H36  1  0.987400  0.687100  0.373100  1.0  0.0654
  H  H37  1  0.855700  0.110000  0.886300  1.0  0.0646
  H  H38  1  0.856700  0.131600  0.779500  1.0  0.1088
  H  H39  1  0.138000  0.978400  0.813300  1.0  0.0705
  H  H40  1  0.264600  0.012200  0.032900  1.0  0.0802
  H  H41  1  0.332600  0.279900  0.059300  1.0  0.1176
  H  H42  1  0.138000  0.300600  0.047700  1.0  0.0558
  H  H43  1  0.476600  0.237000  0.008500  1.0  0.0769
  H  H44  1  0.454200  0.000900  0.099000  1.0  0.1127
  H  H45  1  0.648100  0.981100  0.105100  1.0  0.0615
  H  H46  1  0.401200  0.619700  0.092500  1.0  0.0711
  H  H47  1  0.494000  0.616200  0.199200  1.0  0.1196
  H  H48  1  0.432300  0.882600  0.203200  1.0  0.0719
  H  H49  1  0.302900  0.706400  0.858900  1.0  0.0704
  H  H50  1  0.187500  0.699800  0.755300  1.0  0.1131
  H  H51  1  0.925100  0.754100  0.832200  1.0  0.081
  H  H52  1  0.139000  0.566400  0.964000  1.0  0.1095
  H  H53  1  0.927800  0.554300  0.080500  1.0  0.1165
  H  H54  1  0.012600  0.687100  0.126900  1.0  0.0645
  H  H55  1  0.855700  0.890000  0.386300  1.0  0.065
  H  H56  1  0.856700  0.868400  0.279500  1.0  0.1083
  H  H57  1  0.138000  0.021600  0.313300  1.0  0.0702
  H  H58  1  0.264600  0.987800  0.532900  1.0  0.0797
  H  H59  1  0.332600  0.720100  0.559300  1.0  0.1177
  H  H60  1  0.138000  0.699400  0.547700  1.0  0.0559
  H  H61  1  0.476600  0.763000  0.508500  1.0  0.0767
  H  H62  1  0.454200  0.999100  0.599000  1.0  0.1128
  H  H63  1  0.648100  0.018900  0.605100  1.0  0.061
  H  H64  1  0.401200  0.380300  0.592500  1.0  0.072
  H  H65  1  0.494000  0.383800  0.699200  1.0  0.1192
  H  H66  1  0.432300  0.117400  0.703200  1.0  0.0712
  H  H67  1  0.302900  0.293600  0.358900  1.0  0.0704
  H  H68  1  0.187500  0.300200  0.255300  1.0  0.1138
  H  H69  1  0.925100  0.245900  0.332200  1.0  0.0809
  H  H70  1  0.139000  0.433600  0.464000  1.0  0.1096
  H  H71  1  0.927800  0.445700  0.580500  1.0  0.1156
  H  H72  1  0.012600  0.312900  0.626900  1.0  0.0647
  H  H73  1  0.144300  0.890000  0.113700  1.0  0.0639
  H  H74  1  0.143300  0.868400  0.220500  1.0  0.1087
  H  H75  1  0.862000  0.021600  0.186700  1.0  0.0704
  H  H76  1  0.735400  0.987800  0.967100  1.0  0.0798
  H  H77  1  0.667400  0.720100  0.940700  1.0  0.117
  H  H78  1  0.862000  0.699400  0.952300  1.0  0.0562
  H  H79  1  0.523400  0.763000  0.991500  1.0  0.077
  H  H80  1  0.545800  0.999100  0.901000  1.0  0.1127
  H  H81  1  0.351900  0.018900  0.894900  1.0  0.0613
  H  H82  1  0.598800  0.380300  0.907500  1.0  0.072
  H  H83  1  0.506000  0.383800  0.800800  1.0  0.1193
  H  H84  1  0.567700  0.117400  0.796800  1.0  0.0714
  H  H85  1  0.697100  0.293600  0.141100  1.0  0.0698
  H  H86  1  0.812500  0.300200  0.244700  1.0  0.1139
  H  H87  1  0.074900  0.245900  0.167800  1.0  0.0794
  H  H88  1  0.861000  0.433600  0.036000  1.0  0.1106
  H  H89  1  0.072200  0.445700  0.919500  1.0  0.1153
  H  H90  1  0.987400  0.312900  0.873100  1.0  0.0656
  C  C91  1  0.086800  0.082500  0.629800  1.0  0.1485
  C  C92  1  0.086700  0.096000  0.693700  1.0  -0.23
  C  C93  1  0.002100  0.056000  0.716200  1.0  0.0991
  C  C94  1  0.922000  0.005300  0.672500  1.0  0.1705
  C  C95  1  0.759700  0.072900  0.465300  1.0  0.1383
  C  C96  1  0.678600  0.142700  0.453200  1.0  0.0976
  C  C97  1  0.717700  0.230000  0.448800  1.0  -0.2502
  C  C98  1  0.834600  0.241600  0.456900  1.0  0.1615
  C  C99  1  0.489500  0.183800  0.471100  1.0  0.1159
  C  C100  1  0.556800  0.122300  0.447000  1.0  0.0939
  C  C101  1  0.504800  0.044900  0.418000  1.0  -0.23
  C  C102  1  0.388500  0.033900  0.414600  1.0  0.1594
  C  C103  1  0.591800  0.674000  0.383800  1.0  0.1563
  C  C104  1  0.536800  0.671200  0.320000  1.0  -0.2361
  C  C105  1  0.527800  0.750300  0.284700  1.0  0.0947
  C  C106  1  0.572800  0.826900  0.318900  1.0  0.1316
  C  C107  1  0.776100  0.715000  0.647600  1.0  0.1449
  C  C108  1  0.844200  0.711500  0.709800  1.0  -0.2401
  C  C109  1  0.959700  0.725900  0.718200  1.0  0.0367
  C  C110  1  0.996800  0.742700  0.663200  1.0  0.1731
  C  C111  1  0.889000  0.590100  0.502300  1.0  0.159
  C  C112  1  0.976800  0.542500  0.484000  1.0  0.0797
  C  C113  1  0.013200  0.581400  0.434600  1.0  -0.2283
  C  C114  1  0.961700  0.661300  0.407000  1.0  0.1475
  C  C115  1  0.913200  0.082500  0.870200  1.0  0.1481
  C  C116  1  0.913300  0.096000  0.806300  1.0  -0.2293
  C  C117  1  0.997900  0.056000  0.783800  1.0  0.0989
  C  C118  1  0.078000  0.005300  0.827500  1.0  0.1704
  C  C119  1  0.240300  0.072900  0.034700  1.0  0.1403
  C  C120  1  0.321400  0.142700  0.046800  1.0  0.0984
  C  C121  1  0.282300  0.230000  0.051200  1.0  -0.2491
  C  C122  1  0.165400  0.241600  0.043100  1.0  0.1606
  C  C123  1  0.510500  0.183800  0.028900  1.0  0.1151
  C  C124  1  0.443200  0.122300  0.053000  1.0  0.0946
  C  C125  1  0.495200  0.044900  0.082000  1.0  -0.2313
  C  C126  1  0.611500  0.033900  0.085400  1.0  0.159
  C  C127  1  0.408200  0.674000  0.116200  1.0  0.1553
  C  C128  1  0.463200  0.671200  0.180000  1.0  -0.2368
  C  C129  1  0.472200  0.750300  0.215300  1.0  0.0953
  C  C130  1  0.427200  0.826900  0.181100  1.0  0.1318
  C  C131  1  0.223900  0.715000  0.852400  1.0  0.1436
  C  C132  1  0.155800  0.711500  0.790200  1.0  -0.2407
  C  C133  1  0.040300  0.725900  0.781800  1.0  0.0369
  C  C134  1  0.003200  0.742700  0.836800  1.0  0.174
  C  C135  1  0.111000  0.590100  0.997700  1.0  0.1585
  C  C136  1  0.023200  0.542500  0.016000  1.0  0.0802
  C  C137  1  0.986800  0.581400  0.065400  1.0  -0.2273
  C  C138  1  0.038300  0.661300  0.093000  1.0  0.146
  C  C139  1  0.913200  0.917500  0.370200  1.0  0.1488
  C  C140  1  0.913300  0.904000  0.306300  1.0  -0.2291
  C  C141  1  0.997900  0.944000  0.283800  1.0  0.0983
  C  C142  1  0.078000  0.994700  0.327500  1.0  0.1704
  C  C143  1  0.240300  0.927100  0.534700  1.0  0.1396
  C  C144  1  0.321400  0.857300  0.546800  1.0  0.0988
  C  C145  1  0.282300  0.770000  0.551200  1.0  -0.2492
  C  C146  1  0.165400  0.758400  0.543100  1.0  0.1606
  C  C147  1  0.510500  0.816200  0.528900  1.0  0.1162
  C  C148  1  0.443200  0.877700  0.553000  1.0  0.0942
  C  C149  1  0.495200  0.955100  0.582000  1.0  -0.2314
  C  C150  1  0.611500  0.966100  0.585400  1.0  0.1597
  C  C151  1  0.408200  0.326000  0.616200  1.0  0.1565
  C  C152  1  0.463200  0.328800  0.680000  1.0  -0.2372
  C  C153  1  0.472200  0.249700  0.715300  1.0  0.0951
  C  C154  1  0.427200  0.173100  0.681100  1.0  0.1325
  C  C155  1  0.223900  0.285000  0.352400  1.0  0.1443
  C  C156  1  0.155800  0.288500  0.290200  1.0  -0.2413
  C  C157  1  0.040300  0.274100  0.281800  1.0  0.0365
  C  C158  1  0.003200  0.257300  0.336800  1.0  0.1738
  C  C159  1  0.111000  0.409900  0.497700  1.0  0.1579
  C  C160  1  0.023200  0.457500  0.516000  1.0  0.0801
  C  C161  1  0.986800  0.418600  0.565400  1.0  -0.2262
  C  C162  1  0.038300  0.338700  0.593000  1.0  0.1465
  C  C163  1  0.086800  0.917500  0.129800  1.0  0.1489
  C  C164  1  0.086700  0.904000  0.193700  1.0  -0.2301
  C  C165  1  0.002100  0.944000  0.216200  1.0  0.0983
  C  C166  1  0.922000  0.994700  0.172500  1.0  0.1703
  C  C167  1  0.759700  0.927100  0.965300  1.0  0.1374
  C  C168  1  0.678600  0.857300  0.953200  1.0  0.0978
  C  C169  1  0.717700  0.770000  0.948800  1.0  -0.2501
  C  C170  1  0.834600  0.758400  0.956900  1.0  0.1617
  C  C171  1  0.489500  0.816200  0.971100  1.0  0.117
  C  C172  1  0.556800  0.877700  0.947000  1.0  0.0939
  C  C173  1  0.504800  0.955100  0.918000  1.0  -0.2306
  C  C174  1  0.388500  0.966100  0.914600  1.0  0.1598
  C  C175  1  0.591800  0.326000  0.883800  1.0  0.1562
  C  C176  1  0.536800  0.328800  0.820000  1.0  -0.2378
  C  C177  1  0.527800  0.249700  0.784700  1.0  0.0946
  C  C178  1  0.572800  0.173100  0.818900  1.0  0.1325
  C  C179  1  0.776100  0.285000  0.147600  1.0  0.1455
  C  C180  1  0.844200  0.288500  0.209800  1.0  -0.2405
  C  C181  1  0.959700  0.274100  0.218200  1.0  0.0362
  C  C182  1  0.996800  0.257300  0.163200  1.0  0.1725
  C  C183  1  0.889000  0.409900  0.002300  1.0  0.1587
  C  C184  1  0.976800  0.457500  0.984000  1.0  0.0798
  C  C185  1  0.013200  0.418600  0.934600  1.0  -0.2276
  C  C186  1  0.961700  0.338700  0.907000  1.0  0.1476
  N  N187  1  0.009100  0.032600  0.591150  1.0  -0.2686
  N  N188  1  0.925400  0.992900  0.612800  1.0  -0.218
  N  N189  1  0.870100  0.090200  0.474400  1.0  -0.2732
  N  N190  1  0.908700  0.174600  0.470500  1.0  -0.2144
  N  N191  1  0.378900  0.169600  0.466020  1.0  -0.2645
  N  N192  1  0.327400  0.094000  0.437740  1.0  -0.2406
  N  N193  1  0.634200  0.748300  0.412600  1.0  -0.2293
  N  N194  1  0.623200  0.827000  0.381500  1.0  -0.2599
  N  N195  1  0.818100  0.729700  0.597620  1.0  -0.2444
  N  N196  1  0.929800  0.743700  0.604670  1.0  -0.2815
  N  N197  1  0.843900  0.665900  0.475020  1.0  -0.2482
  N  N198  1  0.878400  0.703000  0.426000  1.0  -0.2713
  N  N199  1  0.990900  0.032600  0.908850  1.0  -0.2683
  N  N200  1  0.074600  0.992900  0.887200  1.0  -0.2161
  N  N201  1  0.129900  0.090200  0.025600  1.0  -0.2738
  N  N202  1  0.091300  0.174600  0.029500  1.0  -0.2143
  N  N203  1  0.621100  0.169600  0.033980  1.0  -0.2631
  N  N204  1  0.672600  0.094000  0.062260  1.0  -0.242
  N  N205  1  0.365800  0.748300  0.087400  1.0  -0.2314
  N  N206  1  0.376800  0.827000  0.118500  1.0  -0.2597
  N  N207  1  0.181900  0.729700  0.902380  1.0  -0.2438
  N  N208  1  0.070200  0.743700  0.895330  1.0  -0.2818
  N  N209  1  0.156100  0.665900  0.024980  1.0  -0.2492
  N  N210  1  0.121600  0.703000  0.074000  1.0  -0.2718
  N  N211  1  0.990900  0.967400  0.408850  1.0  -0.2685
  N  N212  1  0.074600  0.007100  0.387200  1.0  -0.2171
  N  N213  1  0.129900  0.909800  0.525600  1.0  -0.2733
  N  N214  1  0.091300  0.825400  0.529500  1.0  -0.2139
  N  N215  1  0.621100  0.830400  0.533980  1.0  -0.2639
  N  N216  1  0.672600  0.906000  0.562260  1.0  -0.2418
  N  N217  1  0.365800  0.251700  0.587400  1.0  -0.2319
  N  N218  1  0.376800  0.173000  0.618500  1.0  -0.2609
  N  N219  1  0.181900  0.270300  0.402380  1.0  -0.244
  N  N220  1  0.070200  0.256300  0.395330  1.0  -0.2808
  N  N221  1  0.156100  0.334100  0.524980  1.0  -0.2492
  N  N222  1  0.121600  0.297000  0.574000  1.0  -0.2699
  N  N223  1  0.009100  0.967400  0.091150  1.0  -0.2682
  N  N224  1  0.925400  0.007100  0.112800  1.0  -0.2173
  N  N225  1  0.870100  0.909800  0.974400  1.0  -0.2733
  N  N226  1  0.908700  0.825400  0.970500  1.0  -0.2139
  N  N227  1  0.378900  0.830400  0.966020  1.0  -0.2655
  N  N228  1  0.327400  0.906000  0.937740  1.0  -0.2406
  N  N229  1  0.634200  0.251700  0.912600  1.0  -0.2299
  N  N230  1  0.623200  0.173000  0.881500  1.0  -0.2602
  N  N231  1  0.818100  0.270300  0.097620  1.0  -0.2446
  N  N232  1  0.929800  0.256300  0.104670  1.0  -0.2812
  N  N233  1  0.843900  0.334100  0.975020  1.0  -0.2487
  N  N234  1  0.878400  0.297000  0.926000  1.0  -0.2717
  F  F235  1  0.738600  0.448500  0.414700  1.0  -0.2582
  F  F236  1  0.706100  0.367900  0.322500  1.0  -0.2146
  F  F237  1  0.877300  0.421300  0.365000  1.0  -0.282
  F  F238  1  0.737200  0.520300  0.324100  1.0  -0.2135
  F  F239  1  0.814900  0.107400  0.300700  1.0  -0.2702
  F  F240  1  0.667300  0.035900  0.319600  1.0  -0.2783
  F  F241  1  0.644800  0.165700  0.267900  1.0  -0.2529
  F  F242  1  0.690100  0.038900  0.228300  1.0  -0.279
  F  F243  1  0.821100  0.188500  0.608700  1.0  -0.2686
  F  F244  1  0.757500  0.240800  0.691000  1.0  -0.2453
  F  F245  1  0.646600  0.186500  0.605100  1.0  -0.3367
  F  F246  1  0.708700  0.304900  0.595400  1.0  -0.2884
  F  F247  1  0.261400  0.448500  0.085300  1.0  -0.2575
  F  F248  1  0.293900  0.367900  0.177500  1.0  -0.2157
  F  F249  1  0.122700  0.421300  0.135000  1.0  -0.2794
  F  F250  1  0.262800  0.520300  0.175900  1.0  -0.2114
  F  F251  1  0.185100  0.107400  0.199300  1.0  -0.2697
  F  F252  1  0.332700  0.035900  0.180400  1.0  -0.2796
  F  F253  1  0.355200  0.165700  0.232100  1.0  -0.254
  F  F254  1  0.309900  0.038900  0.271700  1.0  -0.2776
  F  F255  1  0.178900  0.188500  0.891300  1.0  -0.2679
  F  F256  1  0.242500  0.240800  0.809000  1.0  -0.2446
  F  F257  1  0.353400  0.186500  0.894900  1.0  -0.3387
  F  F258  1  0.291300  0.304900  0.904600  1.0  -0.2903
  F  F259  1  0.261400  0.551500  0.585300  1.0  -0.2577
  F  F260  1  0.293900  0.632100  0.677500  1.0  -0.2148
  F  F261  1  0.122700  0.578700  0.635000  1.0  -0.2792
  F  F262  1  0.262800  0.479700  0.675900  1.0  -0.2127
  F  F263  1  0.185100  0.892600  0.699300  1.0  -0.2703
  F  F264  1  0.332700  0.964100  0.680400  1.0  -0.2797
  F  F265  1  0.355200  0.834300  0.732100  1.0  -0.254
  F  F266  1  0.309900  0.961100  0.771700  1.0  -0.2777
  F  F267  1  0.178900  0.811500  0.391300  1.0  -0.268
  F  F268  1  0.242500  0.759200  0.309000  1.0  -0.244
  F  F269  1  0.353400  0.813500  0.394900  1.0  -0.339
  F  F270  1  0.291300  0.695100  0.404600  1.0  -0.2896
  F  F271  1  0.738600  0.551500  0.914700  1.0  -0.2581
  F  F272  1  0.706100  0.632100  0.822500  1.0  -0.214
  F  F273  1  0.877300  0.578700  0.865000  1.0  -0.2822
  F  F274  1  0.737200  0.479700  0.824100  1.0  -0.2145
  F  F275  1  0.814900  0.892600  0.800700  1.0  -0.2705
  F  F276  1  0.667300  0.964100  0.819600  1.0  -0.2787
  F  F277  1  0.644800  0.834300  0.767900  1.0  -0.252
  F  F278  1  0.690100  0.961100  0.728300  1.0  -0.2792
  F  F279  1  0.821100  0.811500  0.108700  1.0  -0.2687
  F  F280  1  0.757500  0.759200  0.191000  1.0  -0.2443
  F  F281  1  0.646600  0.813500  0.105100  1.0  -0.3361
  F  F282  1  0.708700  0.695100  0.095400  1.0  -0.2884
