# generated using pymatgen
data_Zn4CoH18(C2N)18
_symmetry_space_group_name_H-M   'P 1'
_cell_length_a   17.77710000
_cell_length_b   17.77710000
_cell_length_c   19.11290000
_cell_angle_alpha   90.00000000
_cell_angle_beta   90.00000000
_cell_angle_gamma   120.00000000
_symmetry_Int_Tables_number   1
_chemical_formula_structural   Zn4CoH18(C2N)18
_chemical_formula_sum   'Zn8 Co2 H36 C72 N36'
_cell_volume   5230.93170709
_cell_formula_units_Z   2
loop_
 _symmetry_equiv_pos_site_id
 _symmetry_equiv_pos_as_xyz
  1  'x, y, z'
loop_
 _atom_site_type_symbol
 _atom_site_label
 _atom_site_symmetry_multiplicity
 _atom_site_fract_x
 _atom_site_fract_y
 _atom_site_fract_z
 _atom_site_occupancy
 _atom_site_charge
  Zn  Zn1  1  0.872500  0.504400  0.328500  1.0  0.0367
  Zn  Zn2  1  0.631900  0.127500  0.328500  1.0  0.0371
  Zn  Zn3  1  0.495600  0.368100  0.328500  1.0  0.0423
  Zn  Zn4  1  0.368100  0.495600  0.671500  1.0  0.0371
  Zn  Zn5  1  0.504400  0.872500  0.671500  1.0  0.0383
  Zn  Zn6  1  0.127500  0.631900  0.671500  1.0  0.043
  Zn  Zn7  1  0.666667  0.333333  0.265000  1.0  0.4275
  Zn  Zn8  1  0.333333  0.666667  0.735000  1.0  0.427
  Co  Co9  1  0.666667  0.333333  0.076300  1.0  0.3798
  Co  Co10  1  0.333333  0.666667  0.923700  1.0  0.3763
  H  H11  1  0.557710  0.537130  0.439440  1.0  0.1136
  H  H12  1  0.799310  0.716020  0.502930  1.0  0.1056
  H  H13  1  0.862030  0.652060  0.440370  1.0  0.1118
  H  H14  1  0.859220  0.470450  0.999370  1.0  0.1221
  H  H15  1  0.019900  0.629290  0.198230  1.0  0.108
  H  H16  1  0.085520  0.652170  0.089200  1.0  0.1126
  H  H17  1  0.979420  0.442290  0.439440  1.0  0.1132
  H  H18  1  0.916710  0.200690  0.502930  1.0  0.1052
  H  H19  1  0.790030  0.137970  0.440370  1.0  0.1123
  H  H20  1  0.611230  0.140780  0.999370  1.0  0.1219
  H  H21  1  0.609390  0.980100  0.198230  1.0  0.1065
  H  H22  1  0.566650  0.914480  0.089200  1.0  0.1137
  H  H23  1  0.462870  0.020580  0.439440  1.0  0.1135
  H  H24  1  0.283980  0.083290  0.502930  1.0  0.1057
  H  H25  1  0.347940  0.209970  0.440370  1.0  0.1123
  H  H26  1  0.529550  0.388770  0.999370  1.0  0.1213
  H  H27  1  0.370710  0.390610  0.198230  1.0  0.109
  H  H28  1  0.347830  0.433350  0.089200  1.0  0.1129
  H  H29  1  0.020580  0.462870  0.560560  1.0  0.1138
  H  H30  1  0.083290  0.283980  0.497070  1.0  0.1053
  H  H31  1  0.209970  0.347940  0.559630  1.0  0.1112
  H  H32  1  0.388770  0.529550  0.000630  1.0  0.1228
  H  H33  1  0.390610  0.370710  0.801770  1.0  0.1083
  H  H34  1  0.433350  0.347830  0.910800  1.0  0.1133
  H  H35  1  0.537130  0.557710  0.560560  1.0  0.1131
  H  H36  1  0.716020  0.799310  0.497070  1.0  0.1058
  H  H37  1  0.652060  0.862030  0.559630  1.0  0.1114
  H  H38  1  0.470450  0.859220  0.000630  1.0  0.1226
  H  H39  1  0.629290  0.019900  0.801770  1.0  0.1082
  H  H40  1  0.652170  0.085520  0.910800  1.0  0.1132
  H  H41  1  0.442290  0.979420  0.560560  1.0  0.1139
  H  H42  1  0.200690  0.916710  0.497070  1.0  0.1057
  H  H43  1  0.137970  0.790030  0.559630  1.0  0.1122
  H  H44  1  0.140780  0.611230  0.000630  1.0  0.1219
  H  H45  1  0.980100  0.609390  0.801770  1.0  0.1062
  H  H46  1  0.914480  0.566650  0.910800  1.0  0.1125
  C  C47  1  0.655000  0.514000  0.409000  1.0  0.0992
  C  C48  1  0.747490  0.555490  0.400000  1.0  0.0839
  C  C49  1  0.617000  0.557000  0.443000  1.0  -0.1425
  C  C50  1  0.763420  0.665420  0.478000  1.0  -0.1157
  C  C51  1  0.802000  0.629000  0.440000  1.0  -0.1321
  C  C52  1  0.671830  0.632830  0.481000  1.0  0.0498
  C  C53  1  0.904000  0.528000  0.166600  1.0  0.0918
  C  C54  1  0.854720  0.482720  0.107400  1.0  0.1265
  C  C55  1  0.890000  0.502200  0.038400  1.0  -0.1991
  C  C56  1  0.974000  0.572000  0.034300  1.0  0.0337
  C  C57  1  0.989000  0.596000  0.160000  1.0  -0.1155
  C  C58  1  0.026000  0.613000  0.094360  1.0  -0.1257
  C  C59  1  0.859000  0.345000  0.409000  1.0  0.0998
  C  C60  1  0.808000  0.252510  0.400000  1.0  0.0831
  C  C61  1  0.940000  0.383000  0.443000  1.0  -0.1398
  C  C62  1  0.902000  0.236580  0.478000  1.0  -0.1166
  C  C63  1  0.827000  0.198000  0.440000  1.0  -0.1347
  C  C64  1  0.961000  0.328170  0.481000  1.0  0.05
  C  C65  1  0.624000  0.096000  0.166600  1.0  0.093
  C  C66  1  0.628000  0.145280  0.107400  1.0  0.126
  C  C67  1  0.612200  0.110000  0.038400  1.0  -0.2012
  C  C68  1  0.598000  0.026000  0.034300  1.0  0.0333
  C  C69  1  0.607000  0.011000  0.160000  1.0  -0.1165
  C  C70  1  0.587000  0.974000  0.094360  1.0  -0.1253
  C  C71  1  0.486000  0.141000  0.409000  1.0  0.1006
  C  C72  1  0.444510  0.192000  0.400000  1.0  0.0848
  C  C73  1  0.443000  0.060000  0.443000  1.0  -0.1347
  C  C74  1  0.334580  0.098000  0.478000  1.0  -0.1153
  C  C75  1  0.371000  0.173000  0.440000  1.0  -0.1324
  C  C76  1  0.367170  0.039000  0.481000  1.0  0.0492
  C  C77  1  0.472000  0.376000  0.166600  1.0  0.0923
  C  C78  1  0.517280  0.372000  0.107400  1.0  0.1266
  C  C79  1  0.497800  0.387800  0.038400  1.0  -0.1969
  C  C80  1  0.428000  0.402000  0.034300  1.0  0.0339
  C  C81  1  0.404000  0.393000  0.160000  1.0  -0.1153
  C  C82  1  0.387000  0.413000  0.094360  1.0  -0.1243
  C  C83  1  0.141000  0.486000  0.591000  1.0  0.0993
  C  C84  1  0.192000  0.444510  0.600000  1.0  0.085
  C  C85  1  0.060000  0.443000  0.557000  1.0  -0.1386
  C  C86  1  0.098000  0.334580  0.522000  1.0  -0.1143
  C  C87  1  0.173000  0.371000  0.560000  1.0  -0.1327
  C  C88  1  0.039000  0.367170  0.519000  1.0  0.0497
  C  C89  1  0.376000  0.472000  0.833400  1.0  0.0944
  C  C90  1  0.372000  0.517280  0.892600  1.0  0.1256
  C  C91  1  0.387800  0.497800  0.961600  1.0  -0.2007
  C  C92  1  0.402000  0.428000  0.965700  1.0  0.0341
  C  C93  1  0.393000  0.404000  0.840000  1.0  -0.1145
  C  C94  1  0.413000  0.387000  0.905640  1.0  -0.1252
  C  C95  1  0.514000  0.655000  0.591000  1.0  0.1005
  C  C96  1  0.555490  0.747490  0.600000  1.0  0.0837
  C  C97  1  0.557000  0.617000  0.557000  1.0  -0.1306
  C  C98  1  0.665420  0.763420  0.522000  1.0  -0.1174
  C  C99  1  0.629000  0.802000  0.560000  1.0  -0.1336
  C  C100  1  0.632830  0.671830  0.519000  1.0  0.0502
  C  C101  1  0.528000  0.904000  0.833400  1.0  0.0941
  C  C102  1  0.482720  0.854720  0.892600  1.0  0.1269
  C  C103  1  0.502200  0.890000  0.961600  1.0  -0.1981
  C  C104  1  0.572000  0.974000  0.965700  1.0  0.0338
  C  C105  1  0.596000  0.989000  0.840000  1.0  -0.1131
  C  C106  1  0.613000  0.026000  0.905640  1.0  -0.1244
  C  C107  1  0.345000  0.859000  0.591000  1.0  0.1006
  C  C108  1  0.252510  0.808000  0.600000  1.0  0.0853
  C  C109  1  0.383000  0.940000  0.557000  1.0  -0.137
  C  C110  1  0.236580  0.902000  0.522000  1.0  -0.1156
  C  C111  1  0.198000  0.827000  0.560000  1.0  -0.1318
  C  C112  1  0.328170  0.961000  0.519000  1.0  0.049
  C  C113  1  0.096000  0.624000  0.833400  1.0  0.0943
  C  C114  1  0.145280  0.628000  0.892600  1.0  0.1259
  C  C115  1  0.110000  0.612200  0.961600  1.0  -0.1964
  C  C116  1  0.026000  0.598000  0.965700  1.0  0.0334
  C  C117  1  0.011000  0.607000  0.840000  1.0  -0.1127
  C  C118  1  0.974000  0.587000  0.905640  1.0  -0.1262
  N  N119  1  0.761100  0.500100  0.360000  1.0  -0.0872
  N  N120  1  0.684660  0.438660  0.336000  1.0  -0.0565
  N  N121  1  0.618000  0.445000  0.366000  1.0  -0.1304
  N  N122  1  0.853000  0.486000  0.223500  1.0  -0.1188
  N  N123  1  0.778000  0.422000  0.199200  1.0  0.0009
  N  N124  1  0.776010  0.417010  0.129300  1.0  -0.2512
  N  N125  1  0.739000  0.238900  0.360000  1.0  -0.0878
  N  N126  1  0.754000  0.315340  0.336000  1.0  -0.0543
  N  N127  1  0.827000  0.382000  0.366000  1.0  -0.1312
  N  N128  1  0.633000  0.147000  0.223500  1.0  -0.12
  N  N129  1  0.644000  0.222000  0.199200  1.0  0.0003
  N  N130  1  0.641000  0.223990  0.129300  1.0  -0.2511
  N  N131  1  0.499900  0.261000  0.360000  1.0  -0.0879
  N  N132  1  0.561340  0.246000  0.336000  1.0  -0.052
  N  N133  1  0.555000  0.173000  0.366000  1.0  -0.1315
  N  N134  1  0.514000  0.367000  0.223500  1.0  -0.119
  N  N135  1  0.578000  0.356000  0.199200  1.0  0.0028
  N  N136  1  0.582990  0.359000  0.129300  1.0  -0.2515
  N  N137  1  0.261000  0.499900  0.640000  1.0  -0.0874
  N  N138  1  0.246000  0.561340  0.664000  1.0  -0.0574
  N  N139  1  0.173000  0.555000  0.634000  1.0  -0.1308
  N  N140  1  0.367000  0.514000  0.776500  1.0  -0.1201
  N  N141  1  0.356000  0.578000  0.800800  1.0  0.0003
  N  N142  1  0.359000  0.582990  0.870700  1.0  -0.2518
  N  N143  1  0.500100  0.761100  0.640000  1.0  -0.0864
  N  N144  1  0.438660  0.684660  0.664000  1.0  -0.0572
  N  N145  1  0.445000  0.618000  0.634000  1.0  -0.1324
  N  N146  1  0.486000  0.853000  0.776500  1.0  -0.1193
  N  N147  1  0.422000  0.778000  0.800800  1.0  -0.0006
  N  N148  1  0.417010  0.776010  0.870700  1.0  -0.2511
  N  N149  1  0.238900  0.739000  0.640000  1.0  -0.0874
  N  N150  1  0.315340  0.754000  0.664000  1.0  -0.0542
  N  N151  1  0.382000  0.827000  0.634000  1.0  -0.1323
  N  N152  1  0.147000  0.633000  0.776500  1.0  -0.1193
  N  N153  1  0.222000  0.644000  0.800800  1.0  0.0012
  N  N154  1  0.223990  0.641000  0.870700  1.0  -0.2517
