# generated using pymatgen
data_NiH26(C9N2)4
_symmetry_space_group_name_H-M   'P 1'
_cell_length_a   9.65350000
_cell_length_b   12.91320000
_cell_length_c   17.20720000
_cell_angle_alpha   105.77400000
_cell_angle_beta   90.00000000
_cell_angle_gamma   111.94900000
_symmetry_Int_Tables_number   1
_chemical_formula_structural   NiH26(C9N2)4
_chemical_formula_sum   'Ni2 H52 C72 N16'
_cell_volume   1902.16210082
_cell_formula_units_Z   2
loop_
 _symmetry_equiv_pos_site_id
 _symmetry_equiv_pos_as_xyz
  1  'x, y, z'
loop_
 _atom_site_type_symbol
 _atom_site_label
 _atom_site_symmetry_multiplicity
 _atom_site_fract_x
 _atom_site_fract_y
 _atom_site_fract_z
 _atom_site_occupancy
 _atom_site_charge
  Ni  Ni1  1  0.082610  0.055120  0.610390  1.0  0.7367
  Ni  Ni2  1  0.972510  0.055120  0.110390  1.0  0.7357
  H  H3  1  0.166100  0.985800  0.763100  1.0  0.0954
  H  H4  1  0.202700  0.805600  0.764600  1.0  0.1212
  H  H5  1  0.157100  0.681600  0.621300  1.0  0.1204
  H  H6  1  0.048600  0.745600  0.336200  1.0  0.1114
  H  H7  1  0.021800  0.908400  0.297000  1.0  0.1206
  H  H8  1  0.025200  0.057200  0.426500  1.0  0.0956
  H  H9  1  0.313500  0.706400  0.478700  1.0  0.1155
  H  H10  1  0.309900  0.524800  0.408600  1.0  0.112
  H  H11  1  0.859700  0.398200  0.367300  1.0  0.1199
  H  H12  1  0.864100  0.582000  0.431900  1.0  0.1065
  H  H13  1  0.920800  0.268800  0.245500  1.0  0.0821
  H  H14  1  0.201400  0.134000  0.290800  1.0  0.1089
  H  H15  1  0.260700  0.317800  0.399100  1.0  0.1329
  H  H16  1  0.405900  0.041800  0.616400  1.0  0.0908
  H  H17  1  0.653500  0.208200  0.636700  1.0  0.1203
  H  H18  1  0.602100  0.378600  0.626400  1.0  0.1268
  H  H19  1  0.096500  0.436000  0.560600  1.0  0.1144
  H  H20  1  0.829300  0.299400  0.522600  1.0  0.1234
  H  H21  1  0.812200  0.110600  0.542900  1.0  0.09
  H  H22  1  0.493000  0.433800  0.508000  1.0  0.0951
  H  H23  1  0.633200  0.629400  0.522100  1.0  0.1125
  H  H24  1  0.448200  0.720600  0.725600  1.0  0.1114
  H  H25  1  0.300200  0.525600  0.708200  1.0  0.1095
  H  H26  1  0.844900  0.805400  0.598600  1.0  0.0947
  H  H27  1  0.742800  0.079000  0.676400  1.0  0.1077
  H  H28  1  0.519300  0.908800  0.680300  1.0  0.1313
  H  H29  1  0.819700  0.985800  0.263100  1.0  0.0964
  H  H30  1  0.602900  0.805600  0.264600  1.0  0.121
  H  H31  1  0.524500  0.681600  0.121300  1.0  0.1201
  H  H32  1  0.697000  0.745600  0.836200  1.0  0.1115
  H  H33  1  0.886600  0.908400  0.797000  1.0  0.1221
  H  H34  1  0.032000  0.057200  0.926500  1.0  0.0955
  H  H35  1  0.392900  0.706400  0.978700  1.0  0.1152
  H  H36  1  0.214900  0.524800  0.908600  1.0  0.1109
  H  H37  1  0.538500  0.398200  0.867300  1.0  0.1204
  H  H38  1  0.717900  0.582000  0.931900  1.0  0.1066
  H  H39  1  0.348000  0.268800  0.745500  1.0  0.0818
  H  H40  1  0.932600  0.134000  0.790800  1.0  0.1091
  H  H41  1  0.057100  0.317800  0.899100  1.0  0.1325
  H  H42  1  0.635900  0.041800  0.116400  1.0  0.0907
  H  H43  1  0.554700  0.208200  0.136700  1.0  0.1206
  H  H44  1  0.776500  0.378600  0.126400  1.0  0.1268
  H  H45  1  0.339500  0.436000  0.060600  1.0  0.1141
  H  H46  1  0.470100  0.299400  0.022600  1.0  0.1235
  H  H47  1  0.298400  0.110600  0.042900  1.0  0.0901
  H  H48  1  0.940800  0.433800  0.008000  1.0  0.095
  H  H49  1  0.996200  0.629400  0.022100  1.0  0.1125
  H  H50  1  0.272400  0.720600  0.225600  1.0  0.1111
  H  H51  1  0.225400  0.525600  0.208200  1.0  0.1094
  H  H52  1  0.960500  0.805400  0.098600  1.0  0.0951
  H  H53  1  0.336200  0.079000  0.176400  1.0  0.1073
  H  H54  1  0.389500  0.908800  0.180300  1.0  0.1307
  C  C55  1  0.158460  0.925320  0.716990  1.0  0.0418
  C  C56  1  0.178230  0.823260  0.718850  1.0  -0.177
  C  C57  1  0.154080  0.755360  0.639740  1.0  -0.1799
  C  C58  1  0.123760  0.819040  0.591230  1.0  0.1679
  C  C59  1  0.090480  0.781800  0.506300  1.0  -0.0564
  C  C60  1  0.059660  0.843920  0.458150  1.0  0.132
  C  C61  1  0.046850  0.813900  0.371360  1.0  -0.1538
  C  C62  1  0.031440  0.903080  0.349430  1.0  -0.1789
  C  C63  1  0.033520  0.986840  0.423790  1.0  0.0679
  C  C64  1  0.089380  0.663940  0.461990  1.0  0.068
  C  C65  1  0.222520  0.645240  0.455370  1.0  -0.1078
  C  C66  1  0.220370  0.536140  0.414240  1.0  -0.1419
  C  C67  1  0.085320  0.444300  0.381630  1.0  0.1323
  C  C68  1  0.950760  0.460540  0.388710  1.0  -0.1833
  C  C69  1  0.953730  0.570460  0.428070  1.0  -0.0929
  C  C70  1  0.998340  0.257860  0.269660  1.0  0.1476
  C  C71  1  0.152450  0.184700  0.294700  1.0  0.0264
  C  C72  1  0.185570  0.286140  0.355560  1.0  -0.1412
  C  C73  1  0.418760  0.116260  0.614800  1.0  0.058
  C  C74  1  0.559870  0.210000  0.626770  1.0  -0.1829
  C  C75  1  0.531460  0.303860  0.620910  1.0  -0.2081
  C  C76  1  0.372090  0.264640  0.604800  1.0  0.1449
  C  C77  1  0.291190  0.332960  0.597850  1.0  -0.064
  C  C78  1  0.134900  0.294840  0.583500  1.0  0.1553
  C  C79  1  0.055620  0.358680  0.561100  1.0  -0.1635
  C  C80  1  0.908140  0.283720  0.540540  1.0  -0.158
  C  C81  1  0.900520  0.176980  0.552260  1.0  0.06
  C  C82  1  0.382360  0.459300  0.606790  1.0  0.0607
  C  C83  1  0.482860  0.491120  0.551240  1.0  -0.1095
  C  C84  1  0.568180  0.608300  0.560100  1.0  -0.1785
  C  C85  1  0.555990  0.693280  0.625570  1.0  0.1367
  C  C86  1  0.456170  0.663100  0.681720  1.0  -0.1703
  C  C87  1  0.368640  0.546220  0.671550  1.0  -0.0808
  C  C88  1  0.792690  0.853060  0.618070  1.0  0.1552
  C  C89  1  0.735560  0.002240  0.660930  1.0  -0.0209
  C  C90  1  0.610620  0.908420  0.663320  1.0  -0.1228
  C  C91  1  0.766860  0.925320  0.216990  1.0  0.0427
  C  C92  1  0.645030  0.823260  0.218850  1.0  -0.1782
  C  C93  1  0.601280  0.755360  0.139740  1.0  -0.18
  C  C94  1  0.695280  0.819040  0.091230  1.0  0.1675
  C  C95  1  0.691320  0.781800  0.006300  1.0  -0.0564
  C  C96  1  0.784260  0.843920  0.958150  1.0  0.1319
  C  C97  1  0.767050  0.813900  0.871360  1.0  -0.1551
  C  C98  1  0.871640  0.903080  0.849430  1.0  -0.1771
  C  C99  1  0.953320  0.986840  0.923790  1.0  0.0671
  C  C100  1  0.574560  0.663940  0.961990  1.0  0.0696
  C  C101  1  0.422720  0.645240  0.955370  1.0  -0.1076
  C  C102  1  0.315770  0.536140  0.914240  1.0  -0.1432
  C  C103  1  0.358980  0.444300  0.881630  1.0  0.1329
  C  C104  1  0.509780  0.460540  0.888710  1.0  -0.1834
  C  C105  1  0.616730  0.570460  0.928070  1.0  -0.0929
  C  C106  1  0.259520  0.257860  0.769660  1.0  0.1469
  C  C107  1  0.032250  0.184700  0.794700  1.0  0.0265
  C  C108  1  0.100570  0.286140  0.855560  1.0  -0.1418
  C  C109  1  0.697500  0.116260  0.114800  1.0  0.0574
  C  C110  1  0.650130  0.210000  0.126770  1.0  -0.183
  C  C111  1  0.772400  0.303860  0.120910  1.0  -0.2093
  C  C112  1  0.892550  0.264640  0.104800  1.0  0.1478
  C  C113  1  0.041770  0.332960  0.097850  1.0  -0.0646
  C  C114  1  0.159940  0.294840  0.083500  1.0  0.1546
  C  C115  1  0.303060  0.358680  0.061100  1.0  -0.1649
  C  C116  1  0.375580  0.283720  0.040540  1.0  -0.1568
  C  C117  1  0.276460  0.176980  0.052260  1.0  0.0599
  C  C118  1  0.076940  0.459300  0.106790  1.0  0.06
  C  C119  1  0.008260  0.491120  0.051240  1.0  -0.1106
  C  C120  1  0.040120  0.608300  0.060100  1.0  -0.1785
  C  C121  1  0.137290  0.693280  0.125570  1.0  0.1372
  C  C122  1  0.206930  0.663100  0.181720  1.0  -0.1702
  C  C123  1  0.177580  0.546220  0.171550  1.0  -0.0808
  C  C124  1  0.060370  0.853060  0.118070  1.0  0.155
  C  C125  1  0.266680  0.002240  0.160930  1.0  -0.0206
  C  C126  1  0.297800  0.908420  0.163320  1.0  -0.1214
  N  N127  1  0.127670  0.925180  0.641670  1.0  -0.3786
  N  N128  1  0.048740  0.953060  0.488830  1.0  -0.4049
  N  N129  1  0.085000  0.332220  0.339360  1.0  0.035
  N  N130  1  0.036460  0.167760  0.239830  1.0  -0.41
  N  N131  1  0.306460  0.147480  0.601010  1.0  -0.3866
  N  N132  1  0.033400  0.182320  0.578090  1.0  -0.3933
  N  N133  1  0.648200  0.813440  0.635310  1.0  0.0404
  N  N134  1  0.849830  0.967560  0.632340  1.0  -0.3912
  N  N135  1  0.797510  0.925180  0.141670  1.0  -0.3787
  N  N136  1  0.904320  0.953060  0.988830  1.0  -0.4047
  N  N137  1  0.247220  0.332220  0.839360  1.0  0.035
  N  N138  1  0.131300  0.167760  0.739830  1.0  -0.4098
  N  N139  1  0.841020  0.147480  0.101010  1.0  -0.3855
  N  N140  1  0.148920  0.182320  0.078090  1.0  -0.3931
  N  N141  1  0.165240  0.813440  0.135310  1.0  0.0412
  N  N142  1  0.117730  0.967560  0.132340  1.0  -0.3906
