# generated using pymatgen
data_NdSiH16(C7O2)4
_symmetry_space_group_name_H-M   'P 1'
_cell_length_a   24.30210000
_cell_length_b   16.01420000
_cell_length_c   22.00180000
_cell_angle_alpha   90.00000000
_cell_angle_beta   100.13800000
_cell_angle_gamma   90.00000000
_symmetry_Int_Tables_number   1
_chemical_formula_structural   NdSiH16(C7O2)4
_chemical_formula_sum   'Nd8 Si8 H128 C224 O64'
_cell_volume   8428.94038207
_cell_formula_units_Z   8
loop_
 _symmetry_equiv_pos_site_id
 _symmetry_equiv_pos_as_xyz
  1  'x, y, z'
loop_
 _atom_site_type_symbol
 _atom_site_label
 _atom_site_symmetry_multiplicity
 _atom_site_fract_x
 _atom_site_fract_y
 _atom_site_fract_z
 _atom_site_occupancy
 _atom_site_charge
  Nd  Nd1  1  0.758190  0.288430  0.095450  1.0  2.2549
  Nd  Nd2  1  0.258190  0.788430  0.095450  1.0  2.2549
  Nd  Nd3  1  0.241810  0.288430  0.404550  1.0  2.2563
  Nd  Nd4  1  0.741810  0.788430  0.404550  1.0  2.2563
  Nd  Nd5  1  0.241810  0.711570  0.904550  1.0  2.2567
  Nd  Nd6  1  0.741810  0.211570  0.904550  1.0  2.2567
  Nd  Nd7  1  0.758190  0.711570  0.595450  1.0  2.2551
  Nd  Nd8  1  0.258190  0.211570  0.595450  1.0  2.2551
  Si  Si9  1  0.380080  0.270930  0.005990  1.0  0.8926
  Si  Si10  1  0.880080  0.770930  0.005990  1.0  0.8926
  Si  Si11  1  0.619920  0.270930  0.494010  1.0  0.8927
  Si  Si12  1  0.119920  0.770930  0.494010  1.0  0.8927
  Si  Si13  1  0.619920  0.729070  0.994010  1.0  0.8928
  Si  Si14  1  0.119920  0.229070  0.994010  1.0  0.8928
  Si  Si15  1  0.380080  0.729070  0.505990  1.0  0.8928
  Si  Si16  1  0.880080  0.229070  0.505990  1.0  0.8928
  H  H17  1  0.281900  0.475200  0.114200  1.0  0.1143
  H  H18  1  0.347200  0.565100  0.973900  1.0  0.1058
  H  H19  1  0.430800  0.222700  0.897600  1.0  0.0984
  H  H20  1  0.245400  0.270900  0.815000  1.0  0.1172
  H  H21  1  0.399500  0.206400  0.792800  1.0  0.116
  H  H22  1  0.566200  0.151700  0.033800  1.0  0.1112
  H  H23  1  0.281400  0.013200  0.035400  1.0  0.0941
  H  H24  1  0.470800  0.152000  0.007300  1.0  0.1029
  H  H25  1  0.381200  0.436200  0.956900  1.0  0.1046
  H  H26  1  0.389800  0.223500  0.135000  1.0  0.1045
  H  H27  1  0.468100  0.392000  0.055500  1.0  0.1039
  H  H28  1  0.276700  0.285100  0.919500  1.0  0.0818
  H  H29  1  0.313500  0.345000  0.095700  1.0  0.1022
  H  H30  1  0.355700  0.120200  0.190700  1.0  0.112
  H  H31  1  0.563600  0.390600  0.084000  1.0  0.114
  H  H32  1  0.312500  0.119100  0.978900  1.0  0.1027
  H  H33  1  0.781900  0.975200  0.114200  1.0  0.1143
  H  H34  1  0.847200  0.065100  0.973900  1.0  0.1058
  H  H35  1  0.930800  0.722700  0.897600  1.0  0.0984
  H  H36  1  0.745400  0.770900  0.815000  1.0  0.1172
  H  H37  1  0.899500  0.706400  0.792800  1.0  0.116
  H  H38  1  0.066200  0.651700  0.033800  1.0  0.1112
  H  H39  1  0.781400  0.513200  0.035400  1.0  0.0941
  H  H40  1  0.970800  0.652000  0.007300  1.0  0.1029
  H  H41  1  0.881200  0.936200  0.956900  1.0  0.1046
  H  H42  1  0.889800  0.723500  0.135000  1.0  0.1045
  H  H43  1  0.968100  0.892000  0.055500  1.0  0.1039
  H  H44  1  0.776700  0.785100  0.919500  1.0  0.0818
  H  H45  1  0.813500  0.845000  0.095700  1.0  0.1022
  H  H46  1  0.855700  0.620200  0.190700  1.0  0.112
  H  H47  1  0.063600  0.890600  0.084000  1.0  0.114
  H  H48  1  0.812500  0.619100  0.978900  1.0  0.1027
  H  H49  1  0.718100  0.475200  0.385800  1.0  0.1147
  H  H50  1  0.652800  0.565100  0.526100  1.0  0.1053
  H  H51  1  0.569200  0.222700  0.602400  1.0  0.0999
  H  H52  1  0.754600  0.270900  0.685000  1.0  0.1165
  H  H53  1  0.600500  0.206400  0.707200  1.0  0.116
  H  H54  1  0.433800  0.151700  0.466200  1.0  0.1109
  H  H55  1  0.718600  0.013200  0.464600  1.0  0.094
  H  H56  1  0.529200  0.152000  0.492700  1.0  0.1022
  H  H57  1  0.618800  0.436200  0.543100  1.0  0.1041
  H  H58  1  0.610200  0.223500  0.365000  1.0  0.1044
  H  H59  1  0.531900  0.392000  0.444500  1.0  0.1039
  H  H60  1  0.723300  0.285100  0.580500  1.0  0.0818
  H  H61  1  0.686500  0.345000  0.404300  1.0  0.1024
  H  H62  1  0.644300  0.120200  0.309300  1.0  0.1125
  H  H63  1  0.436400  0.390600  0.416000  1.0  0.1143
  H  H64  1  0.687500  0.119100  0.521100  1.0  0.1029
  H  H65  1  0.218100  0.975200  0.385800  1.0  0.1147
  H  H66  1  0.152800  0.065100  0.526100  1.0  0.1053
  H  H67  1  0.069200  0.722700  0.602400  1.0  0.0999
  H  H68  1  0.254600  0.770900  0.685000  1.0  0.1165
  H  H69  1  0.100500  0.706400  0.707200  1.0  0.116
  H  H70  1  0.933800  0.651700  0.466200  1.0  0.1109
  H  H71  1  0.218600  0.513200  0.464600  1.0  0.094
  H  H72  1  0.029200  0.652000  0.492700  1.0  0.1022
  H  H73  1  0.118800  0.936200  0.543100  1.0  0.1041
  H  H74  1  0.110200  0.723500  0.365000  1.0  0.1044
  H  H75  1  0.031900  0.892000  0.444500  1.0  0.1039
  H  H76  1  0.223300  0.785100  0.580500  1.0  0.0818
  H  H77  1  0.186500  0.845000  0.404300  1.0  0.1024
  H  H78  1  0.144300  0.620200  0.309300  1.0  0.1125
  H  H79  1  0.936400  0.890600  0.416000  1.0  0.1143
  H  H80  1  0.187500  0.619100  0.521100  1.0  0.1029
  H  H81  1  0.718100  0.524800  0.885800  1.0  0.1146
  H  H82  1  0.652800  0.434900  0.026100  1.0  0.1056
  H  H83  1  0.569200  0.777300  0.102400  1.0  0.0999
  H  H84  1  0.754600  0.729100  0.185000  1.0  0.1166
  H  H85  1  0.600500  0.793600  0.207200  1.0  0.1158
  H  H86  1  0.433800  0.848300  0.966200  1.0  0.1113
  H  H87  1  0.718600  0.986800  0.964600  1.0  0.094
  H  H88  1  0.529200  0.848000  0.992700  1.0  0.1023
  H  H89  1  0.618800  0.563800  0.043100  1.0  0.1042
  H  H90  1  0.610200  0.776500  0.865000  1.0  0.1039
  H  H91  1  0.531900  0.608000  0.944500  1.0  0.1033
  H  H92  1  0.723300  0.714900  0.080500  1.0  0.0818
  H  H93  1  0.686500  0.655000  0.904300  1.0  0.1026
  H  H94  1  0.644300  0.879800  0.809300  1.0  0.1124
  H  H95  1  0.436400  0.609400  0.916000  1.0  0.114
  H  H96  1  0.687500  0.880900  0.021100  1.0  0.1029
  H  H97  1  0.218100  0.024800  0.885800  1.0  0.1146
  H  H98  1  0.152800  0.934900  0.026100  1.0  0.1056
  H  H99  1  0.069200  0.277300  0.102400  1.0  0.0999
  H  H100  1  0.254600  0.229100  0.185000  1.0  0.1166
  H  H101  1  0.100500  0.293600  0.207200  1.0  0.1158
  H  H102  1  0.933800  0.348300  0.966200  1.0  0.1113
  H  H103  1  0.218600  0.486800  0.964600  1.0  0.094
  H  H104  1  0.029200  0.348000  0.992700  1.0  0.1023
  H  H105  1  0.118800  0.063800  0.043100  1.0  0.1042
  H  H106  1  0.110200  0.276500  0.865000  1.0  0.1039
  H  H107  1  0.031900  0.108000  0.944500  1.0  0.1033
  H  H108  1  0.223300  0.214900  0.080500  1.0  0.0818
  H  H109  1  0.186500  0.155000  0.904300  1.0  0.1026
  H  H110  1  0.144300  0.379800  0.809300  1.0  0.1124
  H  H111  1  0.936400  0.109400  0.916000  1.0  0.114
  H  H112  1  0.187500  0.380900  0.021100  1.0  0.1029
  H  H113  1  0.281900  0.524800  0.614200  1.0  0.1143
  H  H114  1  0.347200  0.434900  0.473900  1.0  0.1055
  H  H115  1  0.430800  0.777300  0.397600  1.0  0.0986
  H  H116  1  0.245400  0.729100  0.315000  1.0  0.1172
  H  H117  1  0.399500  0.793600  0.292800  1.0  0.1164
  H  H118  1  0.566200  0.848300  0.533800  1.0  0.112
  H  H119  1  0.281400  0.986800  0.535400  1.0  0.0946
  H  H120  1  0.470800  0.848000  0.507300  1.0  0.1032
  H  H121  1  0.381200  0.563800  0.456900  1.0  0.1046
  H  H122  1  0.389800  0.776500  0.635000  1.0  0.1045
  H  H123  1  0.468100  0.608000  0.555500  1.0  0.1033
  H  H124  1  0.276700  0.714900  0.419500  1.0  0.0819
  H  H125  1  0.313500  0.655000  0.595700  1.0  0.1022
  H  H126  1  0.355700  0.879800  0.690700  1.0  0.1119
  H  H127  1  0.563600  0.609400  0.584000  1.0  0.1142
  H  H128  1  0.312500  0.880900  0.478900  1.0  0.103
  H  H129  1  0.781900  0.024800  0.614200  1.0  0.1143
  H  H130  1  0.847200  0.934900  0.473900  1.0  0.1055
  H  H131  1  0.930800  0.277300  0.397600  1.0  0.0986
  H  H132  1  0.745400  0.229100  0.315000  1.0  0.1172
  H  H133  1  0.899500  0.293600  0.292800  1.0  0.1164
  H  H134  1  0.066200  0.348300  0.533800  1.0  0.112
  H  H135  1  0.781400  0.486800  0.535400  1.0  0.0946
  H  H136  1  0.970800  0.348000  0.507300  1.0  0.1032
  H  H137  1  0.881200  0.063800  0.456900  1.0  0.1046
  H  H138  1  0.889800  0.276500  0.635000  1.0  0.1045
  H  H139  1  0.968100  0.108000  0.555500  1.0  0.1033
  H  H140  1  0.776700  0.214900  0.419500  1.0  0.0819
  H  H141  1  0.813500  0.155000  0.595700  1.0  0.1022
  H  H142  1  0.855700  0.379800  0.690700  1.0  0.1119
  H  H143  1  0.063600  0.109400  0.584000  1.0  0.1142
  H  H144  1  0.812500  0.380900  0.478900  1.0  0.103
  C  C145  1  0.300100  0.229660  0.724460  1.0  0.6923
  C  C146  1  0.289160  0.619080  0.057940  1.0  0.737
  C  C147  1  0.293230  0.987100  0.153200  1.0  0.7491
  C  C148  1  0.310580  0.534290  0.045920  1.0  -0.0708
  C  C149  1  0.301520  0.467470  0.081960  1.0  -0.0637
  C  C150  1  0.340610  0.520760  0.998910  1.0  -0.0496
  C  C151  1  0.319520  0.237810  0.793170  1.0  -0.1086
  C  C152  1  0.393270  0.232100  0.881460  1.0  -0.0278
  C  C153  1  0.282790  0.261000  0.831390  1.0  -0.062
  C  C154  1  0.374610  0.222800  0.818200  1.0  -0.0709
  C  C155  1  0.457840  0.272230  0.027770  1.0  -0.3221
  C  C156  1  0.357120  0.255260  0.921070  1.0  -0.3196
  C  C157  1  0.354020  0.184950  0.049790  1.0  -0.2943
  C  C158  1  0.351870  0.374940  0.024400  1.0  -0.2922
  C  C159  1  0.636950  0.271310  0.079350  1.0  0.6822
  C  C160  1  0.575120  0.270320  0.062430  1.0  -0.1391
  C  C161  1  0.546520  0.200300  0.038820  1.0  -0.0523
  C  C162  1  0.303110  0.055800  0.055920  1.0  -0.0399
  C  C163  1  0.489130  0.200730  0.022360  1.0  -0.0409
  C  C164  1  0.316050  0.054400  0.118740  1.0  -0.0984
  C  C165  1  0.360860  0.443270  0.988660  1.0  -0.0457
  C  C166  1  0.367190  0.182000  0.114130  1.0  -0.0566
  C  C167  1  0.487530  0.342890  0.051250  1.0  -0.0385
  C  C168  1  0.301900  0.269400  0.894320  1.0  -0.0244
  C  C169  1  0.321030  0.389390  0.071210  1.0  -0.0444
  C  C170  1  0.347500  0.118800  0.147840  1.0  -0.0277
  C  C171  1  0.545000  0.342300  0.068390  1.0  -0.0479
  C  C172  1  0.321920  0.120100  0.021710  1.0  -0.0321
  C  C173  1  0.800100  0.729660  0.724460  1.0  0.6923
  C  C174  1  0.789160  0.119080  0.057940  1.0  0.737
  C  C175  1  0.793230  0.487100  0.153200  1.0  0.7491
  C  C176  1  0.810580  0.034290  0.045920  1.0  -0.0708
  C  C177  1  0.801520  0.967470  0.081960  1.0  -0.0637
  C  C178  1  0.840610  0.020760  0.998910  1.0  -0.0496
  C  C179  1  0.819520  0.737810  0.793170  1.0  -0.1086
  C  C180  1  0.893270  0.732100  0.881460  1.0  -0.0278
  C  C181  1  0.782790  0.761000  0.831390  1.0  -0.062
  C  C182  1  0.874610  0.722800  0.818200  1.0  -0.0709
  C  C183  1  0.957840  0.772230  0.027770  1.0  -0.3221
  C  C184  1  0.857120  0.755260  0.921070  1.0  -0.3196
  C  C185  1  0.854020  0.684950  0.049790  1.0  -0.2943
  C  C186  1  0.851870  0.874940  0.024400  1.0  -0.2922
  C  C187  1  0.136950  0.771310  0.079350  1.0  0.6822
  C  C188  1  0.075120  0.770320  0.062430  1.0  -0.1391
  C  C189  1  0.046520  0.700300  0.038820  1.0  -0.0523
  C  C190  1  0.803110  0.555800  0.055920  1.0  -0.0399
  C  C191  1  0.989130  0.700730  0.022360  1.0  -0.0409
  C  C192  1  0.816050  0.554400  0.118740  1.0  -0.0984
  C  C193  1  0.860860  0.943270  0.988660  1.0  -0.0457
  C  C194  1  0.867190  0.682000  0.114130  1.0  -0.0566
  C  C195  1  0.987530  0.842890  0.051250  1.0  -0.0385
  C  C196  1  0.801900  0.769400  0.894320  1.0  -0.0244
  C  C197  1  0.821030  0.889390  0.071210  1.0  -0.0444
  C  C198  1  0.847500  0.618800  0.147840  1.0  -0.0277
  C  C199  1  0.045000  0.842300  0.068390  1.0  -0.0479
  C  C200  1  0.821920  0.620100  0.021710  1.0  -0.0321
  C  C201  1  0.699900  0.229660  0.775540  1.0  0.6915
  C  C202  1  0.710840  0.619080  0.442060  1.0  0.7372
  C  C203  1  0.706770  0.987100  0.346800  1.0  0.7484
  C  C204  1  0.689420  0.534290  0.454080  1.0  -0.0712
  C  C205  1  0.698480  0.467470  0.418040  1.0  -0.0637
  C  C206  1  0.659390  0.520760  0.501090  1.0  -0.0484
  C  C207  1  0.680480  0.237810  0.706830  1.0  -0.1085
  C  C208  1  0.606730  0.232100  0.618540  1.0  -0.0316
  C  C209  1  0.717210  0.261000  0.668610  1.0  -0.0625
  C  C210  1  0.625390  0.222800  0.681800  1.0  -0.0709
  C  C211  1  0.542160  0.272230  0.472230  1.0  -0.3206
  C  C212  1  0.642880  0.255260  0.578930  1.0  -0.3191
  C  C213  1  0.645980  0.184950  0.450210  1.0  -0.2935
  C  C214  1  0.648130  0.374940  0.475600  1.0  -0.2904
  C  C215  1  0.363050  0.271310  0.420650  1.0  0.6836
  C  C216  1  0.424880  0.270320  0.437570  1.0  -0.1401
  C  C217  1  0.453480  0.200300  0.461180  1.0  -0.0511
  C  C218  1  0.696890  0.055800  0.444080  1.0  -0.0423
  C  C219  1  0.510870  0.200730  0.477640  1.0  -0.0409
  C  C220  1  0.683950  0.054400  0.381260  1.0  -0.0969
  C  C221  1  0.639140  0.443270  0.511340  1.0  -0.0435
  C  C222  1  0.632810  0.182000  0.385870  1.0  -0.0561
  C  C223  1  0.512470  0.342890  0.448750  1.0  -0.0377
  C  C224  1  0.698100  0.269400  0.605680  1.0  -0.0276
  C  C225  1  0.678970  0.389390  0.428790  1.0  -0.0442
  C  C226  1  0.652500  0.118800  0.352160  1.0  -0.0285
  C  C227  1  0.455000  0.342300  0.431610  1.0  -0.0475
  C  C228  1  0.678080  0.120100  0.478290  1.0  -0.0329
  C  C229  1  0.199900  0.729660  0.775540  1.0  0.6915
  C  C230  1  0.210840  0.119080  0.442060  1.0  0.7372
  C  C231  1  0.206770  0.487100  0.346800  1.0  0.7484
  C  C232  1  0.189420  0.034290  0.454080  1.0  -0.0712
  C  C233  1  0.198480  0.967470  0.418040  1.0  -0.0637
  C  C234  1  0.159390  0.020760  0.501090  1.0  -0.0484
  C  C235  1  0.180480  0.737810  0.706830  1.0  -0.1085
  C  C236  1  0.106730  0.732100  0.618540  1.0  -0.0316
  C  C237  1  0.217210  0.761000  0.668610  1.0  -0.0625
  C  C238  1  0.125390  0.722800  0.681800  1.0  -0.0709
  C  C239  1  0.042160  0.772230  0.472230  1.0  -0.3206
  C  C240  1  0.142880  0.755260  0.578930  1.0  -0.3191
  C  C241  1  0.145980  0.684950  0.450210  1.0  -0.2935
  C  C242  1  0.148130  0.874940  0.475600  1.0  -0.2904
  C  C243  1  0.863050  0.771310  0.420650  1.0  0.6836
  C  C244  1  0.924880  0.770320  0.437570  1.0  -0.1401
  C  C245  1  0.953480  0.700300  0.461180  1.0  -0.0511
  C  C246  1  0.196890  0.555800  0.444080  1.0  -0.0423
  C  C247  1  0.010870  0.700730  0.477640  1.0  -0.0409
  C  C248  1  0.183950  0.554400  0.381260  1.0  -0.0969
  C  C249  1  0.139140  0.943270  0.511340  1.0  -0.0435
  C  C250  1  0.132810  0.682000  0.385870  1.0  -0.0561
  C  C251  1  0.012470  0.842890  0.448750  1.0  -0.0377
  C  C252  1  0.198100  0.769400  0.605680  1.0  -0.0276
  C  C253  1  0.178970  0.889390  0.428790  1.0  -0.0442
  C  C254  1  0.152500  0.618800  0.352160  1.0  -0.0285
  C  C255  1  0.955000  0.842300  0.431610  1.0  -0.0475
  C  C256  1  0.178080  0.620100  0.478290  1.0  -0.0329
  C  C257  1  0.699900  0.770340  0.275540  1.0  0.6916
  C  C258  1  0.710840  0.380920  0.942060  1.0  0.7366
  C  C259  1  0.706770  0.012900  0.846800  1.0  0.7491
  C  C260  1  0.689420  0.465710  0.954080  1.0  -0.0743
  C  C261  1  0.698480  0.532530  0.918040  1.0  -0.0648
  C  C262  1  0.659390  0.479240  0.001090  1.0  -0.0492
  C  C263  1  0.680480  0.762190  0.206830  1.0  -0.1088
  C  C264  1  0.606730  0.767900  0.118540  1.0  -0.0316
  C  C265  1  0.717210  0.739000  0.168610  1.0  -0.0623
  C  C266  1  0.625390  0.777200  0.181800  1.0  -0.0715
  C  C267  1  0.542160  0.727770  0.972230  1.0  -0.3205
  C  C268  1  0.642880  0.744740  0.078930  1.0  -0.3192
  C  C269  1  0.645980  0.815050  0.950210  1.0  -0.2941
  C  C270  1  0.648130  0.625060  0.975600  1.0  -0.289
  C  C271  1  0.363050  0.728690  0.920650  1.0  0.6832
  C  C272  1  0.424880  0.729680  0.937570  1.0  -0.1385
  C  C273  1  0.453480  0.799700  0.961180  1.0  -0.052
  C  C274  1  0.696890  0.944200  0.944080  1.0  -0.0419
  C  C275  1  0.510870  0.799270  0.977640  1.0  -0.0413
  C  C276  1  0.683950  0.945600  0.881260  1.0  -0.0969
  C  C277  1  0.639140  0.556730  0.011340  1.0  -0.0434
  C  C278  1  0.632810  0.818000  0.885870  1.0  -0.056
  C  C279  1  0.512470  0.657110  0.948750  1.0  -0.0359
  C  C280  1  0.698100  0.730600  0.105680  1.0  -0.0281
  C  C281  1  0.678970  0.610610  0.928790  1.0  -0.0438
  C  C282  1  0.652500  0.881200  0.852160  1.0  -0.0303
  C  C283  1  0.455000  0.657700  0.931610  1.0  -0.0468
  C  C284  1  0.678080  0.879900  0.978290  1.0  -0.0319
  C  C285  1  0.199900  0.270340  0.275540  1.0  0.6916
  C  C286  1  0.210840  0.880920  0.942060  1.0  0.7366
  C  C287  1  0.206770  0.512900  0.846800  1.0  0.7491
  C  C288  1  0.189420  0.965710  0.954080  1.0  -0.0743
  C  C289  1  0.198480  0.032530  0.918040  1.0  -0.0648
  C  C290  1  0.159390  0.979240  0.001090  1.0  -0.0492
  C  C291  1  0.180480  0.262190  0.206830  1.0  -0.1088
  C  C292  1  0.106730  0.267900  0.118540  1.0  -0.0316
  C  C293  1  0.217210  0.239000  0.168610  1.0  -0.0623
  C  C294  1  0.125390  0.277200  0.181800  1.0  -0.0715
  C  C295  1  0.042160  0.227770  0.972230  1.0  -0.3205
  C  C296  1  0.142880  0.244740  0.078930  1.0  -0.3192
  C  C297  1  0.145980  0.315050  0.950210  1.0  -0.2941
  C  C298  1  0.148130  0.125060  0.975600  1.0  -0.289
  C  C299  1  0.863050  0.228690  0.920650  1.0  0.6832
  C  C300  1  0.924880  0.229680  0.937570  1.0  -0.1385
  C  C301  1  0.953480  0.299700  0.961180  1.0  -0.052
  C  C302  1  0.196890  0.444200  0.944080  1.0  -0.0419
  C  C303  1  0.010870  0.299270  0.977640  1.0  -0.0413
  C  C304  1  0.183950  0.445600  0.881260  1.0  -0.0969
  C  C305  1  0.139140  0.056730  0.011340  1.0  -0.0434
  C  C306  1  0.132810  0.318000  0.885870  1.0  -0.056
  C  C307  1  0.012470  0.157110  0.948750  1.0  -0.0359
  C  C308  1  0.198100  0.230600  0.105680  1.0  -0.0281
  C  C309  1  0.178970  0.110610  0.928790  1.0  -0.0438
  C  C310  1  0.152500  0.381200  0.852160  1.0  -0.0303
  C  C311  1  0.955000  0.157700  0.931610  1.0  -0.0468
  C  C312  1  0.178080  0.379900  0.978290  1.0  -0.0319
  C  C313  1  0.300100  0.770340  0.224460  1.0  0.6923
  C  C314  1  0.289160  0.380920  0.557940  1.0  0.7369
  C  C315  1  0.293230  0.012900  0.653200  1.0  0.7488
  C  C316  1  0.310580  0.465710  0.545920  1.0  -0.0715
  C  C317  1  0.301520  0.532530  0.581960  1.0  -0.0634
  C  C318  1  0.340610  0.479240  0.498910  1.0  -0.0505
  C  C319  1  0.319520  0.762190  0.293170  1.0  -0.1084
  C  C320  1  0.393270  0.767900  0.381460  1.0  -0.028
  C  C321  1  0.282790  0.739000  0.331390  1.0  -0.0617
  C  C322  1  0.374610  0.777200  0.318200  1.0  -0.0704
  C  C323  1  0.457840  0.727770  0.527770  1.0  -0.322
  C  C324  1  0.357120  0.744740  0.421070  1.0  -0.32
  C  C325  1  0.354020  0.815050  0.549790  1.0  -0.2955
  C  C326  1  0.351870  0.625060  0.524400  1.0  -0.29
  C  C327  1  0.636950  0.728690  0.579350  1.0  0.6823
  C  C328  1  0.575120  0.729680  0.562430  1.0  -0.1384
  C  C329  1  0.546520  0.799700  0.538820  1.0  -0.0519
  C  C330  1  0.303110  0.944200  0.555920  1.0  -0.0393
  C  C331  1  0.489130  0.799270  0.522360  1.0  -0.0405
  C  C332  1  0.316050  0.945600  0.618740  1.0  -0.0985
  C  C333  1  0.360860  0.556730  0.488660  1.0  -0.0458
  C  C334  1  0.367190  0.818000  0.614130  1.0  -0.0567
  C  C335  1  0.487530  0.657110  0.551250  1.0  -0.037
  C  C336  1  0.301900  0.730600  0.394320  1.0  -0.0245
  C  C337  1  0.321030  0.610610  0.571210  1.0  -0.0445
  C  C338  1  0.347500  0.881200  0.647840  1.0  -0.0265
  C  C339  1  0.545000  0.657700  0.568390  1.0  -0.0472
  C  C340  1  0.321920  0.879900  0.521710  1.0  -0.0326
  C  C341  1  0.800100  0.270340  0.224460  1.0  0.6923
  C  C342  1  0.789160  0.880920  0.557940  1.0  0.7369
  C  C343  1  0.793230  0.512900  0.653200  1.0  0.7488
  C  C344  1  0.810580  0.965710  0.545920  1.0  -0.0715
  C  C345  1  0.801520  0.032530  0.581960  1.0  -0.0634
  C  C346  1  0.840610  0.979240  0.498910  1.0  -0.0505
  C  C347  1  0.819520  0.262190  0.293170  1.0  -0.1084
  C  C348  1  0.893270  0.267900  0.381460  1.0  -0.028
  C  C349  1  0.782790  0.239000  0.331390  1.0  -0.0617
  C  C350  1  0.874610  0.277200  0.318200  1.0  -0.0704
  C  C351  1  0.957840  0.227770  0.527770  1.0  -0.322
  C  C352  1  0.857120  0.244740  0.421070  1.0  -0.32
  C  C353  1  0.854020  0.315050  0.549790  1.0  -0.2955
  C  C354  1  0.851870  0.125060  0.524400  1.0  -0.29
  C  C355  1  0.136950  0.228690  0.579350  1.0  0.6823
  C  C356  1  0.075120  0.229680  0.562430  1.0  -0.1384
  C  C357  1  0.046520  0.299700  0.538820  1.0  -0.0519
  C  C358  1  0.803110  0.444200  0.555920  1.0  -0.0393
  C  C359  1  0.989130  0.299270  0.522360  1.0  -0.0405
  C  C360  1  0.816050  0.445600  0.618740  1.0  -0.0985
  C  C361  1  0.860860  0.056730  0.488660  1.0  -0.0458
  C  C362  1  0.867190  0.318000  0.614130  1.0  -0.0567
  C  C363  1  0.987530  0.157110  0.551250  1.0  -0.037
  C  C364  1  0.801900  0.230600  0.394320  1.0  -0.0245
  C  C365  1  0.821030  0.110610  0.571210  1.0  -0.0445
  C  C366  1  0.847500  0.381200  0.647840  1.0  -0.0265
  C  C367  1  0.045000  0.157700  0.568390  1.0  -0.0472
  C  C368  1  0.821920  0.379900  0.521710  1.0  -0.0326
  O  O369  1  0.265600  0.929920  0.124610  1.0  -0.7082
  O  O370  1  0.300170  0.993300  0.210330  1.0  -0.4499
  O  O371  1  0.284130  0.638130  0.111680  1.0  -0.6412
  O  O372  1  0.665420  0.210160  0.064990  1.0  -0.6943
  O  O373  1  0.334490  0.216630  0.689160  1.0  -0.6687
  O  O374  1  0.277710  0.671260  0.013900  1.0  -0.8475
  O  O375  1  0.661130  0.334320  0.106270  1.0  -0.6562
  O  O376  1  0.248010  0.236700  0.703890  1.0  -0.6566
  O  O377  1  0.765600  0.429920  0.124610  1.0  -0.7082
  O  O378  1  0.800170  0.493300  0.210330  1.0  -0.4499
  O  O379  1  0.784130  0.138130  0.111680  1.0  -0.6412
  O  O380  1  0.165420  0.710160  0.064990  1.0  -0.6943
  O  O381  1  0.834490  0.716630  0.689160  1.0  -0.6687
  O  O382  1  0.777710  0.171260  0.013900  1.0  -0.8475
  O  O383  1  0.161130  0.834320  0.106270  1.0  -0.6562
  O  O384  1  0.748010  0.736700  0.703890  1.0  -0.6568
  O  O385  1  0.734400  0.929920  0.375390  1.0  -0.7095
  O  O386  1  0.699830  0.993300  0.289670  1.0  -0.4506
  O  O387  1  0.715870  0.638130  0.388320  1.0  -0.639
  O  O388  1  0.334580  0.210160  0.435010  1.0  -0.6951
  O  O389  1  0.665510  0.216630  0.810840  1.0  -0.6674
  O  O390  1  0.722290  0.671260  0.486100  1.0  -0.8461
  O  O391  1  0.338870  0.334320  0.393730  1.0  -0.6564
  O  O392  1  0.751990  0.236700  0.796110  1.0  -0.6586
  O  O393  1  0.234400  0.429920  0.375390  1.0  -0.7095
  O  O394  1  0.199830  0.493300  0.289670  1.0  -0.4506
  O  O395  1  0.215870  0.138130  0.388320  1.0  -0.639
  O  O396  1  0.834580  0.710160  0.435010  1.0  -0.6951
  O  O397  1  0.165510  0.716630  0.810840  1.0  -0.6674
  O  O398  1  0.222290  0.171260  0.486100  1.0  -0.8461
  O  O399  1  0.838870  0.834320  0.393730  1.0  -0.6564
  O  O400  1  0.251990  0.736700  0.796110  1.0  -0.6588
  O  O401  1  0.734400  0.070080  0.875390  1.0  -0.7106
  O  O402  1  0.699830  0.006700  0.789670  1.0  -0.4509
  O  O403  1  0.715870  0.361870  0.888320  1.0  -0.6398
  O  O404  1  0.334580  0.789840  0.935010  1.0  -0.6987
  O  O405  1  0.665510  0.783370  0.310840  1.0  -0.6675
  O  O406  1  0.722290  0.328740  0.986100  1.0  -0.8448
  O  O407  1  0.338870  0.665680  0.893730  1.0  -0.6571
  O  O408  1  0.751990  0.763300  0.296110  1.0  -0.659
  O  O409  1  0.234400  0.570080  0.875390  1.0  -0.7106
  O  O410  1  0.199830  0.506700  0.789670  1.0  -0.4509
  O  O411  1  0.215870  0.861870  0.888320  1.0  -0.6398
  O  O412  1  0.834580  0.289840  0.935010  1.0  -0.6987
  O  O413  1  0.165510  0.283370  0.310840  1.0  -0.6675
  O  O414  1  0.222290  0.828740  0.986100  1.0  -0.8448
  O  O415  1  0.838870  0.165680  0.893730  1.0  -0.6571
  O  O416  1  0.251990  0.263300  0.296110  1.0  -0.6612
  O  O417  1  0.265600  0.070080  0.624610  1.0  -0.7094
  O  O418  1  0.300170  0.006700  0.710330  1.0  -0.4503
  O  O419  1  0.284130  0.361870  0.611680  1.0  -0.6412
  O  O420  1  0.665420  0.789840  0.564990  1.0  -0.698
  O  O421  1  0.334490  0.783370  0.189160  1.0  -0.6686
  O  O422  1  0.277710  0.328740  0.513900  1.0  -0.8458
  O  O423  1  0.661130  0.665680  0.606270  1.0  -0.6568
  O  O424  1  0.248010  0.763300  0.203890  1.0  -0.6572
  O  O425  1  0.765600  0.570080  0.624610  1.0  -0.7094
  O  O426  1  0.800170  0.506700  0.710330  1.0  -0.4503
  O  O427  1  0.784130  0.861870  0.611680  1.0  -0.6412
  O  O428  1  0.165420  0.289840  0.564990  1.0  -0.698
  O  O429  1  0.834490  0.283370  0.189160  1.0  -0.6686
  O  O430  1  0.777710  0.828740  0.513900  1.0  -0.8458
  O  O431  1  0.161130  0.165680  0.606270  1.0  -0.6568
  O  O432  1  0.748010  0.263300  0.203890  1.0  -0.6593
