# generated using pymatgen
data_Er4Si3H48(C7O2)12
_symmetry_space_group_name_H-M   'P 1'
_cell_length_a   18.77400000
_cell_length_b   29.70400000
_cell_length_c   24.89000000
_cell_angle_alpha   90.00000000
_cell_angle_beta   90.00000000
_cell_angle_gamma   90.00000000
_symmetry_Int_Tables_number   1
_chemical_formula_structural   Er4Si3H48(C7O2)12
_chemical_formula_sum   'Er16 Si12 H192 C336 O96'
_cell_volume   13880.22948144
_cell_formula_units_Z   4
loop_
 _symmetry_equiv_pos_site_id
 _symmetry_equiv_pos_as_xyz
  1  'x, y, z'
loop_
 _atom_site_type_symbol
 _atom_site_label
 _atom_site_symmetry_multiplicity
 _atom_site_fract_x
 _atom_site_fract_y
 _atom_site_fract_z
 _atom_site_occupancy
 _atom_site_charge
  Er  Er1  1  0.176870  0.194610  0.000000  1.0  1.5245
  Er  Er2  1  0.823130  0.805390  0.000000  1.0  1.5243
  Er  Er3  1  0.823130  0.194610  0.500000  1.0  1.5247
  Er  Er4  1  0.176870  0.805390  0.500000  1.0  1.524
  Er  Er5  1  0.676870  0.694610  0.000000  1.0  1.5245
  Er  Er6  1  0.323130  0.305390  0.000000  1.0  1.5243
  Er  Er7  1  0.323130  0.694610  0.500000  1.0  1.5247
  Er  Er8  1  0.676870  0.305390  0.500000  1.0  1.524
  Er  Er9  1  0.268290  0.041700  0.000000  1.0  1.5357
  Er  Er10  1  0.731710  0.958300  0.000000  1.0  1.5341
  Er  Er11  1  0.731710  0.041700  0.500000  1.0  1.5352
  Er  Er12  1  0.268290  0.958300  0.500000  1.0  1.5347
  Er  Er13  1  0.768290  0.541700  0.000000  1.0  1.5357
  Er  Er14  1  0.231710  0.458300  0.000000  1.0  1.5343
  Er  Er15  1  0.231710  0.541700  0.500000  1.0  1.5352
  Er  Er16  1  0.768290  0.458300  0.500000  1.0  1.5352
  Si  Si17  1  0.000000  0.000000  0.250000  1.0  0.9864
  Si  Si18  1  0.000000  0.000000  0.750000  1.0  0.9864
  Si  Si19  1  0.500000  0.500000  0.250000  1.0  0.9864
  Si  Si20  1  0.500000  0.500000  0.750000  1.0  0.9864
  Si  Si21  1  0.000000  0.383440  0.750000  1.0  0.9414
  Si  Si22  1  0.000000  0.616560  0.750000  1.0  0.942
  Si  Si23  1  0.000000  0.616560  0.250000  1.0  0.942
  Si  Si24  1  0.000000  0.383440  0.250000  1.0  0.9414
  Si  Si25  1  0.500000  0.883440  0.750000  1.0  0.9414
  Si  Si26  1  0.500000  0.116560  0.750000  1.0  0.942
  Si  Si27  1  0.500000  0.116560  0.250000  1.0  0.942
  Si  Si28  1  0.500000  0.883440  0.250000  1.0  0.9414
  H  H29  1  0.039400  0.124300  0.127300  1.0  0.0978
  H  H30  1  0.960600  0.875700  0.127300  1.0  0.0974
  H  H31  1  0.960600  0.124300  0.372700  1.0  0.0977
  H  H32  1  0.039400  0.875700  0.372700  1.0  0.098
  H  H33  1  0.960600  0.875700  0.872700  1.0  0.0973
  H  H34  1  0.039400  0.124300  0.872700  1.0  0.0979
  H  H35  1  0.039400  0.875700  0.627300  1.0  0.0977
  H  H36  1  0.960600  0.124300  0.627300  1.0  0.0977
  H  H37  1  0.539400  0.624300  0.127300  1.0  0.0978
  H  H38  1  0.460600  0.375700  0.127300  1.0  0.0974
  H  H39  1  0.460600  0.624300  0.372700  1.0  0.0977
  H  H40  1  0.539400  0.375700  0.372700  1.0  0.098
  H  H41  1  0.460600  0.375700  0.872700  1.0  0.0973
  H  H42  1  0.539400  0.624300  0.872700  1.0  0.0979
  H  H43  1  0.539400  0.375700  0.627300  1.0  0.0977
  H  H44  1  0.460600  0.624300  0.627300  1.0  0.0977
  H  H45  1  0.142500  0.998000  0.200800  1.0  0.0761
  H  H46  1  0.857500  0.002000  0.200800  1.0  0.0772
  H  H47  1  0.857500  0.998000  0.299200  1.0  0.0766
  H  H48  1  0.142500  0.002000  0.299200  1.0  0.0767
  H  H49  1  0.857500  0.002000  0.799200  1.0  0.0772
  H  H50  1  0.142500  0.998000  0.799200  1.0  0.0758
  H  H51  1  0.142500  0.002000  0.700800  1.0  0.0765
  H  H52  1  0.857500  0.998000  0.700800  1.0  0.0764
  H  H53  1  0.642500  0.498000  0.200800  1.0  0.0761
  H  H54  1  0.357500  0.502000  0.200800  1.0  0.0772
  H  H55  1  0.357500  0.498000  0.299200  1.0  0.0766
  H  H56  1  0.642500  0.502000  0.299200  1.0  0.0765
  H  H57  1  0.357500  0.502000  0.799200  1.0  0.0772
  H  H58  1  0.642500  0.498000  0.799200  1.0  0.0758
  H  H59  1  0.642500  0.502000  0.700800  1.0  0.0765
  H  H60  1  0.357500  0.498000  0.700800  1.0  0.0764
  H  H61  1  0.201900  0.039000  0.135600  1.0  0.0909
  H  H62  1  0.798100  0.961000  0.135600  1.0  0.0908
  H  H63  1  0.798100  0.039000  0.364400  1.0  0.0906
  H  H64  1  0.201900  0.961000  0.364400  1.0  0.0906
  H  H65  1  0.798100  0.961000  0.864400  1.0  0.0905
  H  H66  1  0.201900  0.039000  0.864400  1.0  0.0907
  H  H67  1  0.201900  0.961000  0.635600  1.0  0.091
  H  H68  1  0.798100  0.039000  0.635600  1.0  0.0907
  H  H69  1  0.701900  0.539000  0.135600  1.0  0.0909
  H  H70  1  0.298100  0.461000  0.135600  1.0  0.0908
  H  H71  1  0.298100  0.539000  0.364400  1.0  0.0906
  H  H72  1  0.701900  0.461000  0.364400  1.0  0.0906
  H  H73  1  0.298100  0.461000  0.864400  1.0  0.0905
  H  H74  1  0.701900  0.539000  0.864400  1.0  0.0907
  H  H75  1  0.701900  0.461000  0.635600  1.0  0.091
  H  H76  1  0.298100  0.539000  0.635600  1.0  0.0907
  H  H77  1  0.981400  0.084900  0.194300  1.0  0.09
  H  H78  1  0.018600  0.915100  0.194300  1.0  0.0917
  H  H79  1  0.018600  0.084900  0.305700  1.0  0.092
  H  H80  1  0.981400  0.915100  0.305700  1.0  0.092
  H  H81  1  0.018600  0.915100  0.805700  1.0  0.0919
  H  H82  1  0.981400  0.084900  0.805700  1.0  0.0903
  H  H83  1  0.981400  0.915100  0.694300  1.0  0.0918
  H  H84  1  0.018600  0.084900  0.694300  1.0  0.0918
  H  H85  1  0.481400  0.584900  0.194300  1.0  0.09
  H  H86  1  0.518600  0.415100  0.194300  1.0  0.0917
  H  H87  1  0.518600  0.584900  0.305700  1.0  0.091
  H  H88  1  0.481400  0.415100  0.305700  1.0  0.091
  H  H89  1  0.518600  0.415100  0.805700  1.0  0.0919
  H  H90  1  0.481400  0.584900  0.805700  1.0  0.0903
  H  H91  1  0.481400  0.415100  0.694300  1.0  0.0908
  H  H92  1  0.518600  0.584900  0.694300  1.0  0.0908
  H  H93  1  0.065600  0.259600  0.868600  1.0  0.0927
  H  H94  1  0.934400  0.740400  0.868600  1.0  0.093
  H  H95  1  0.934400  0.259600  0.631400  1.0  0.0929
  H  H96  1  0.065600  0.740400  0.631400  1.0  0.0931
  H  H97  1  0.934400  0.740400  0.131400  1.0  0.0931
  H  H98  1  0.065600  0.259600  0.131400  1.0  0.0927
  H  H99  1  0.065600  0.740400  0.368600  1.0  0.0931
  H  H100  1  0.934400  0.259600  0.368600  1.0  0.0927
  H  H101  1  0.565600  0.759600  0.868600  1.0  0.0927
  H  H102  1  0.434400  0.240400  0.868600  1.0  0.093
  H  H103  1  0.434400  0.759600  0.631400  1.0  0.0929
  H  H104  1  0.565600  0.240400  0.631400  1.0  0.0931
  H  H105  1  0.434400  0.240400  0.131400  1.0  0.0931
  H  H106  1  0.565600  0.759600  0.131400  1.0  0.0927
  H  H107  1  0.565600  0.240400  0.368600  1.0  0.0931
  H  H108  1  0.434400  0.759600  0.368600  1.0  0.0927
  H  H109  1  0.000000  0.293500  0.801300  1.0  0.0949
  H  H110  1  0.000000  0.706500  0.801300  1.0  0.095
  H  H111  1  0.000000  0.293500  0.698700  1.0  0.0959
  H  H112  1  0.000000  0.706500  0.698700  1.0  0.095
  H  H113  1  0.000000  0.706500  0.198700  1.0  0.0952
  H  H114  1  0.000000  0.293500  0.198700  1.0  0.0951
  H  H115  1  0.000000  0.706500  0.301300  1.0  0.0949
  H  H116  1  0.000000  0.293500  0.301300  1.0  0.0955
  H  H117  1  0.500000  0.793500  0.801300  1.0  0.0949
  H  H118  1  0.500000  0.206500  0.801300  1.0  0.095
  H  H119  1  0.500000  0.793500  0.698700  1.0  0.0959
  H  H120  1  0.500000  0.206500  0.698700  1.0  0.095
  H  H121  1  0.500000  0.206500  0.198700  1.0  0.0952
  H  H122  1  0.500000  0.793500  0.198700  1.0  0.0951
  H  H123  1  0.500000  0.206500  0.301300  1.0  0.0949
  H  H124  1  0.500000  0.793500  0.301300  1.0  0.0955
  H  H125  1  0.127800  0.399200  0.807000  1.0  0.0805
  H  H126  1  0.872200  0.600800  0.807000  1.0  0.0805
  H  H127  1  0.872200  0.399200  0.693000  1.0  0.0803
  H  H128  1  0.127800  0.600800  0.693000  1.0  0.0796
  H  H129  1  0.872200  0.600800  0.193000  1.0  0.0801
  H  H130  1  0.127800  0.399200  0.193000  1.0  0.0795
  H  H131  1  0.127800  0.600800  0.307000  1.0  0.0804
  H  H132  1  0.872200  0.399200  0.307000  1.0  0.0808
  H  H133  1  0.627800  0.899200  0.807000  1.0  0.0805
  H  H134  1  0.372200  0.100800  0.807000  1.0  0.0805
  H  H135  1  0.372200  0.899200  0.693000  1.0  0.0803
  H  H136  1  0.627800  0.100800  0.693000  1.0  0.0796
  H  H137  1  0.372200  0.100800  0.193000  1.0  0.0801
  H  H138  1  0.627800  0.899200  0.193000  1.0  0.0795
  H  H139  1  0.627800  0.100800  0.307000  1.0  0.0804
  H  H140  1  0.372200  0.899200  0.307000  1.0  0.0808
  H  H141  1  0.193600  0.366500  0.874500  1.0  0.1008
  H  H142  1  0.806400  0.633500  0.874500  1.0  0.1002
  H  H143  1  0.806400  0.366500  0.625500  1.0  0.101
  H  H144  1  0.193600  0.633500  0.625500  1.0  0.1007
  H  H145  1  0.806400  0.633500  0.125500  1.0  0.1007
  H  H146  1  0.193600  0.366500  0.125500  1.0  0.1006
  H  H147  1  0.193600  0.633500  0.374500  1.0  0.1003
  H  H148  1  0.806400  0.366500  0.374500  1.0  0.1007
  H  H149  1  0.693600  0.866500  0.874500  1.0  0.1008
  H  H150  1  0.306400  0.133500  0.874500  1.0  0.1002
  H  H151  1  0.306400  0.866500  0.625500  1.0  0.101
  H  H152  1  0.693600  0.133500  0.625500  1.0  0.1007
  H  H153  1  0.306400  0.133500  0.125500  1.0  0.1007
  H  H154  1  0.693600  0.866500  0.125500  1.0  0.1006
  H  H155  1  0.693600  0.133500  0.374500  1.0  0.1003
  H  H156  1  0.306400  0.866500  0.374500  1.0  0.1007
  H  H157  1  0.473280  0.868050  0.140310  1.0  0.0932
  H  H158  1  0.526720  0.131950  0.140310  1.0  0.0929
  H  H159  1  0.526720  0.868050  0.359690  1.0  0.0924
  H  H160  1  0.473280  0.131950  0.359690  1.0  0.0933
  H  H161  1  0.526720  0.131950  0.859690  1.0  0.0941
  H  H162  1  0.473280  0.868050  0.859690  1.0  0.0931
  H  H163  1  0.473280  0.131950  0.640310  1.0  0.0936
  H  H164  1  0.526720  0.868050  0.640310  1.0  0.0936
  H  H165  1  0.973280  0.368050  0.140310  1.0  0.0932
  H  H166  1  0.026720  0.631950  0.140310  1.0  0.0932
  H  H167  1  0.026720  0.368050  0.359690  1.0  0.093
  H  H168  1  0.973280  0.631950  0.359690  1.0  0.0933
  H  H169  1  0.026720  0.631950  0.859690  1.0  0.0942
  H  H170  1  0.973280  0.368050  0.859690  1.0  0.0931
  H  H171  1  0.973280  0.631950  0.640310  1.0  0.0936
  H  H172  1  0.026720  0.368050  0.640310  1.0  0.0936
  H  H173  1  0.410720  0.914530  0.067530  1.0  0.0996
  H  H174  1  0.589280  0.085470  0.067530  1.0  0.0995
  H  H175  1  0.589280  0.914530  0.432470  1.0  0.099
  H  H176  1  0.410720  0.085470  0.432470  1.0  0.0996
  H  H177  1  0.589280  0.085470  0.932470  1.0  0.0998
  H  H178  1  0.410720  0.914530  0.932470  1.0  0.0993
  H  H179  1  0.410720  0.085470  0.567530  1.0  0.0995
  H  H180  1  0.589280  0.914530  0.567530  1.0  0.0993
  H  H181  1  0.910720  0.414530  0.067530  1.0  0.0996
  H  H182  1  0.089280  0.585470  0.067530  1.0  0.0995
  H  H183  1  0.089280  0.414530  0.432470  1.0  0.099
  H  H184  1  0.910720  0.585470  0.432470  1.0  0.0996
  H  H185  1  0.089280  0.585470  0.932470  1.0  0.0998
  H  H186  1  0.910720  0.414530  0.932470  1.0  0.0993
  H  H187  1  0.910720  0.585470  0.567530  1.0  0.0995
  H  H188  1  0.089280  0.414530  0.567530  1.0  0.0993
  H  H189  1  0.337740  0.004670  0.196050  1.0  0.1285
  H  H190  1  0.662260  0.995330  0.196050  1.0  0.125
  H  H191  1  0.662260  0.004670  0.303950  1.0  0.1261
  H  H192  1  0.337740  0.995330  0.303950  1.0  0.1286
  H  H193  1  0.662260  0.995330  0.803950  1.0  0.1255
  H  H194  1  0.337740  0.004670  0.803950  1.0  0.1289
  H  H195  1  0.337740  0.995330  0.696050  1.0  0.128
  H  H196  1  0.662260  0.004670  0.696050  1.0  0.1261
  H  H197  1  0.837740  0.504670  0.196050  1.0  0.1285
  H  H198  1  0.162260  0.495330  0.196050  1.0  0.125
  H  H199  1  0.162260  0.504670  0.303950  1.0  0.1261
  H  H200  1  0.837740  0.495330  0.303950  1.0  0.1286
  H  H201  1  0.162260  0.495330  0.803950  1.0  0.1255
  H  H202  1  0.837740  0.504670  0.803950  1.0  0.1289
  H  H203  1  0.837740  0.495330  0.696050  1.0  0.128
  H  H204  1  0.162260  0.504670  0.696050  1.0  0.1261
  H  H205  1  0.402760  0.963210  0.260380  1.0  0.1157
  H  H206  1  0.597240  0.036790  0.260380  1.0  0.1143
  H  H207  1  0.597240  0.963210  0.239620  1.0  0.1102
  H  H208  1  0.402760  0.036790  0.239620  1.0  0.1132
  H  H209  1  0.597240  0.036790  0.739620  1.0  0.1119
  H  H210  1  0.402760  0.963210  0.739620  1.0  0.1149
  H  H211  1  0.402760  0.036790  0.760380  1.0  0.116
  H  H212  1  0.597240  0.963210  0.760380  1.0  0.1153
  H  H213  1  0.902760  0.463210  0.260380  1.0  0.1152
  H  H214  1  0.097240  0.536790  0.260380  1.0  0.1147
  H  H215  1  0.097240  0.463210  0.239620  1.0  0.1115
  H  H216  1  0.902760  0.536790  0.239620  1.0  0.1153
  H  H217  1  0.097240  0.536790  0.739620  1.0  0.1107
  H  H218  1  0.902760  0.463210  0.739620  1.0  0.1124
  H  H219  1  0.902760  0.536790  0.760380  1.0  0.1142
  H  H220  1  0.097240  0.463210  0.760380  1.0  0.1144
  C  C221  1  0.161000  0.108000  0.077800  1.0  0.7347
  C  C222  1  0.839000  0.892000  0.077800  1.0  0.7509
  C  C223  1  0.839000  0.108000  0.422200  1.0  0.7539
  C  C224  1  0.161000  0.892000  0.422200  1.0  0.7532
  C  C225  1  0.839000  0.892000  0.922200  1.0  0.7539
  C  C226  1  0.161000  0.108000  0.922200  1.0  0.7376
  C  C227  1  0.161000  0.892000  0.577800  1.0  0.7505
  C  C228  1  0.839000  0.108000  0.577800  1.0  0.7511
  C  C229  1  0.661000  0.608000  0.077800  1.0  0.7347
  C  C230  1  0.339000  0.392000  0.077800  1.0  0.7509
  C  C231  1  0.339000  0.608000  0.422200  1.0  0.7539
  C  C232  1  0.661000  0.392000  0.422200  1.0  0.7532
  C  C233  1  0.339000  0.392000  0.922200  1.0  0.7539
  C  C234  1  0.661000  0.608000  0.922200  1.0  0.7376
  C  C235  1  0.661000  0.392000  0.577800  1.0  0.7505
  C  C236  1  0.339000  0.608000  0.577800  1.0  0.7511
  C  C237  1  0.125400  0.084660  0.123720  1.0  -0.1331
  C  C238  1  0.874600  0.915340  0.123720  1.0  -0.1331
  C  C239  1  0.874600  0.084660  0.376280  1.0  -0.1331
  C  C240  1  0.125400  0.915340  0.376280  1.0  -0.1326
  C  C241  1  0.874600  0.915340  0.876280  1.0  -0.1324
  C  C242  1  0.125400  0.084660  0.876280  1.0  -0.1333
  C  C243  1  0.125400  0.915340  0.623720  1.0  -0.1331
  C  C244  1  0.874600  0.084660  0.623720  1.0  -0.1332
  C  C245  1  0.625400  0.584660  0.123720  1.0  -0.1331
  C  C246  1  0.374600  0.415340  0.123720  1.0  -0.1331
  C  C247  1  0.374600  0.584660  0.376280  1.0  -0.1331
  C  C248  1  0.625400  0.415340  0.376280  1.0  -0.1326
  C  C249  1  0.374600  0.415340  0.876280  1.0  -0.1324
  C  C250  1  0.625400  0.584660  0.876280  1.0  -0.1333
  C  C251  1  0.625400  0.415340  0.623720  1.0  -0.1331
  C  C252  1  0.374600  0.584660  0.623720  1.0  -0.1332
  C  C253  1  0.054500  0.036090  0.205010  1.0  -0.279
  C  C254  1  0.945500  0.963910  0.205010  1.0  -0.2805
  C  C255  1  0.945500  0.036090  0.294990  1.0  -0.2809
  C  C256  1  0.054500  0.963910  0.294990  1.0  -0.2808
  C  C257  1  0.945500  0.963910  0.794990  1.0  -0.2805
  C  C258  1  0.054500  0.036090  0.794990  1.0  -0.2791
  C  C259  1  0.054500  0.963910  0.705010  1.0  -0.2811
  C  C260  1  0.945500  0.036090  0.705010  1.0  -0.2804
  C  C261  1  0.554500  0.536090  0.205010  1.0  -0.279
  C  C262  1  0.445500  0.463910  0.205010  1.0  -0.2786
  C  C263  1  0.445500  0.536090  0.294990  1.0  -0.2789
  C  C264  1  0.554500  0.463910  0.294990  1.0  -0.2789
  C  C265  1  0.445500  0.463910  0.794990  1.0  -0.2784
  C  C266  1  0.554500  0.536090  0.794990  1.0  -0.2791
  C  C267  1  0.554500  0.463910  0.705010  1.0  -0.2793
  C  C268  1  0.445500  0.536090  0.705010  1.0  -0.2786
  C  C269  1  0.060400  0.098670  0.141900  1.0  -0.0595
  C  C270  1  0.939600  0.901330  0.141900  1.0  -0.0605
  C  C271  1  0.939600  0.098670  0.358100  1.0  -0.06
  C  C272  1  0.060400  0.901330  0.358100  1.0  -0.0598
  C  C273  1  0.939600  0.901330  0.858100  1.0  -0.0606
  C  C274  1  0.060400  0.098670  0.858100  1.0  -0.0591
  C  C275  1  0.060400  0.901330  0.641900  1.0  -0.0596
  C  C276  1  0.939600  0.098670  0.641900  1.0  -0.0604
  C  C277  1  0.560400  0.598670  0.141900  1.0  -0.0595
  C  C278  1  0.439600  0.401330  0.141900  1.0  -0.0605
  C  C279  1  0.439600  0.598670  0.358100  1.0  -0.06
  C  C280  1  0.560400  0.401330  0.358100  1.0  -0.0598
  C  C281  1  0.439600  0.401330  0.858100  1.0  -0.0606
  C  C282  1  0.560400  0.598670  0.858100  1.0  -0.0591
  C  C283  1  0.560400  0.401330  0.641900  1.0  -0.0596
  C  C284  1  0.439600  0.598670  0.641900  1.0  -0.0604
  C  C285  1  0.120900  0.023510  0.186400  1.0  -0.0629
  C  C286  1  0.879100  0.976490  0.186400  1.0  -0.0646
  C  C287  1  0.879100  0.023510  0.313600  1.0  -0.0632
  C  C288  1  0.120900  0.976490  0.313600  1.0  -0.0643
  C  C289  1  0.879100  0.976490  0.813600  1.0  -0.0641
  C  C290  1  0.120900  0.023510  0.813600  1.0  -0.0634
  C  C291  1  0.120900  0.976490  0.686400  1.0  -0.0647
  C  C292  1  0.879100  0.023510  0.686400  1.0  -0.0626
  C  C293  1  0.620900  0.523510  0.186400  1.0  -0.0629
  C  C294  1  0.379100  0.476490  0.186400  1.0  -0.0646
  C  C295  1  0.379100  0.523510  0.313600  1.0  -0.0632
  C  C296  1  0.620900  0.476490  0.313600  1.0  -0.0643
  C  C297  1  0.379100  0.476490  0.813600  1.0  -0.0641
  C  C298  1  0.620900  0.523510  0.813600  1.0  -0.0634
  C  C299  1  0.620900  0.476490  0.686400  1.0  -0.0647
  C  C300  1  0.379100  0.523510  0.686400  1.0  -0.0626
  C  C301  1  0.156700  0.047880  0.146600  1.0  -0.0744
  C  C302  1  0.843300  0.952120  0.146600  1.0  -0.0753
  C  C303  1  0.843300  0.047880  0.353400  1.0  -0.0751
  C  C304  1  0.156700  0.952120  0.353400  1.0  -0.0743
  C  C305  1  0.843300  0.952120  0.853400  1.0  -0.0751
  C  C306  1  0.156700  0.047880  0.853400  1.0  -0.0747
  C  C307  1  0.156700  0.952120  0.646600  1.0  -0.0743
  C  C308  1  0.843300  0.047880  0.646600  1.0  -0.0751
  C  C309  1  0.656700  0.547880  0.146600  1.0  -0.0744
  C  C310  1  0.343300  0.452120  0.146600  1.0  -0.0753
  C  C311  1  0.343300  0.547880  0.353400  1.0  -0.0751
  C  C312  1  0.656700  0.452120  0.353400  1.0  -0.0743
  C  C313  1  0.343300  0.452120  0.853400  1.0  -0.0751
  C  C314  1  0.656700  0.547880  0.853400  1.0  -0.0747
  C  C315  1  0.656700  0.452120  0.646600  1.0  -0.0743
  C  C316  1  0.343300  0.547880  0.646600  1.0  -0.0751
  C  C317  1  0.025500  0.074730  0.182200  1.0  -0.0623
  C  C318  1  0.974500  0.925270  0.182200  1.0  -0.0601
  C  C319  1  0.974500  0.074730  0.317800  1.0  -0.0623
  C  C320  1  0.025500  0.925270  0.317800  1.0  -0.061
  C  C321  1  0.974500  0.925270  0.817800  1.0  -0.0604
  C  C322  1  0.025500  0.074730  0.817800  1.0  -0.0627
  C  C323  1  0.025500  0.925270  0.682200  1.0  -0.0612
  C  C324  1  0.974500  0.074730  0.682200  1.0  -0.0618
  C  C325  1  0.525500  0.574730  0.182200  1.0  -0.0623
  C  C326  1  0.474500  0.425270  0.182200  1.0  -0.0601
  C  C327  1  0.474500  0.574730  0.317800  1.0  -0.0623
  C  C328  1  0.525500  0.425270  0.317800  1.0  -0.061
  C  C329  1  0.474500  0.425270  0.817800  1.0  -0.0604
  C  C330  1  0.525500  0.574730  0.817800  1.0  -0.0627
  C  C331  1  0.525500  0.425270  0.682200  1.0  -0.0612
  C  C332  1  0.474500  0.574730  0.682200  1.0  -0.0618
  C  C333  1  0.177900  0.288590  0.925000  1.0  0.7604
  C  C334  1  0.822100  0.711410  0.925000  1.0  0.7602
  C  C335  1  0.822100  0.288590  0.575000  1.0  0.759
  C  C336  1  0.177900  0.711410  0.575000  1.0  0.7605
  C  C337  1  0.822100  0.711410  0.075000  1.0  0.7597
  C  C338  1  0.177900  0.288590  0.075000  1.0  0.7598
  C  C339  1  0.177900  0.711410  0.425000  1.0  0.7609
  C  C340  1  0.822100  0.288590  0.425000  1.0  0.7598
  C  C341  1  0.677900  0.788590  0.925000  1.0  0.7604
  C  C342  1  0.322100  0.211410  0.925000  1.0  0.7602
  C  C343  1  0.322100  0.788590  0.575000  1.0  0.759
  C  C344  1  0.677900  0.211410  0.575000  1.0  0.7605
  C  C345  1  0.322100  0.211410  0.075000  1.0  0.7597
  C  C346  1  0.677900  0.788590  0.075000  1.0  0.7598
  C  C347  1  0.677900  0.211410  0.425000  1.0  0.7609
  C  C348  1  0.322100  0.788590  0.425000  1.0  0.7598
  C  C349  1  0.136200  0.309280  0.879020  1.0  -0.1573
  C  C350  1  0.863800  0.690720  0.879020  1.0  -0.157
  C  C351  1  0.863800  0.309280  0.620980  1.0  -0.1581
  C  C352  1  0.136200  0.690720  0.620980  1.0  -0.1568
  C  C353  1  0.863800  0.690720  0.120980  1.0  -0.1568
  C  C354  1  0.136200  0.309280  0.120980  1.0  -0.1575
  C  C355  1  0.136200  0.690720  0.379020  1.0  -0.1571
  C  C356  1  0.863800  0.309280  0.379020  1.0  -0.1576
  C  C357  1  0.636200  0.809280  0.879020  1.0  -0.1573
  C  C358  1  0.363800  0.190720  0.879020  1.0  -0.157
  C  C359  1  0.363800  0.809280  0.620980  1.0  -0.1581
  C  C360  1  0.636200  0.190720  0.620980  1.0  -0.1568
  C  C361  1  0.363800  0.190720  0.120980  1.0  -0.1568
  C  C362  1  0.636200  0.809280  0.120980  1.0  -0.1575
  C  C363  1  0.636200  0.190720  0.379020  1.0  -0.1571
  C  C364  1  0.363800  0.809280  0.379020  1.0  -0.1576
  C  C365  1  0.058200  0.349750  0.795630  1.0  -0.0701
  C  C366  1  0.941800  0.650250  0.795630  1.0  -0.0688
  C  C367  1  0.941800  0.349750  0.704370  1.0  -0.0695
  C  C368  1  0.058200  0.650250  0.704370  1.0  -0.0695
  C  C369  1  0.941800  0.650250  0.204370  1.0  -0.0683
  C  C370  1  0.058200  0.349750  0.204370  1.0  -0.0711
  C  C371  1  0.058200  0.650250  0.295630  1.0  -0.0688
  C  C372  1  0.941800  0.349750  0.295630  1.0  -0.0696
  C  C373  1  0.558200  0.849750  0.795630  1.0  -0.0701
  C  C374  1  0.441800  0.150250  0.795630  1.0  -0.0688
  C  C375  1  0.441800  0.849750  0.704370  1.0  -0.0695
  C  C376  1  0.558200  0.150250  0.704370  1.0  -0.0695
  C  C377  1  0.441800  0.150250  0.204370  1.0  -0.0683
  C  C378  1  0.558200  0.849750  0.204370  1.0  -0.0711
  C  C379  1  0.558200  0.150250  0.295630  1.0  -0.0688
  C  C380  1  0.441800  0.849750  0.295630  1.0  -0.0696
  C  C381  1  0.078700  0.287990  0.856400  1.0  -0.0619
  C  C382  1  0.921300  0.712010  0.856400  1.0  -0.0644
  C  C383  1  0.921300  0.287990  0.643600  1.0  -0.0636
  C  C384  1  0.078700  0.712010  0.643600  1.0  -0.0592
  C  C385  1  0.921300  0.712010  0.143600  1.0  -0.0651
  C  C386  1  0.078700  0.287990  0.143600  1.0  -0.0573
  C  C387  1  0.078700  0.712010  0.356400  1.0  -0.0639
  C  C388  1  0.921300  0.287990  0.356400  1.0  -0.0627
  C  C389  1  0.578700  0.787990  0.856400  1.0  -0.0619
  C  C390  1  0.421300  0.212010  0.856400  1.0  -0.0644
  C  C391  1  0.421300  0.787990  0.643600  1.0  -0.0628
  C  C392  1  0.578700  0.212010  0.643600  1.0  -0.0592
  C  C393  1  0.421300  0.212010  0.143600  1.0  -0.0643
  C  C394  1  0.578700  0.787990  0.143600  1.0  -0.0573
  C  C395  1  0.578700  0.212010  0.356400  1.0  -0.0639
  C  C396  1  0.421300  0.787990  0.356400  1.0  -0.0619
  C  C397  1  0.039500  0.308250  0.815400  1.0  -0.131
  C  C398  1  0.960500  0.691750  0.815400  1.0  -0.134
  C  C399  1  0.960500  0.308250  0.684600  1.0  -0.1328
  C  C400  1  0.039500  0.691750  0.684600  1.0  -0.1304
  C  C401  1  0.960500  0.691750  0.184600  1.0  -0.1325
  C  C402  1  0.039500  0.308250  0.184600  1.0  -0.1301
  C  C403  1  0.039500  0.691750  0.315400  1.0  -0.1323
  C  C404  1  0.960500  0.308250  0.315400  1.0  -0.1318
  C  C405  1  0.539500  0.808250  0.815400  1.0  -0.131
  C  C406  1  0.460500  0.191750  0.815400  1.0  -0.134
  C  C407  1  0.460500  0.808250  0.684600  1.0  -0.1328
  C  C408  1  0.539500  0.191750  0.684600  1.0  -0.1304
  C  C409  1  0.460500  0.191750  0.184600  1.0  -0.1325
  C  C410  1  0.539500  0.808250  0.184600  1.0  -0.1301
  C  C411  1  0.539500  0.191750  0.315400  1.0  -0.1323
  C  C412  1  0.460500  0.808250  0.315400  1.0  -0.1318
  C  C413  1  0.115100  0.370620  0.819100  1.0  -0.0789
  C  C414  1  0.884900  0.629380  0.819100  1.0  -0.0813
  C  C415  1  0.884900  0.370620  0.680900  1.0  -0.0821
  C  C416  1  0.115100  0.629380  0.680900  1.0  -0.0792
  C  C417  1  0.884900  0.629380  0.180900  1.0  -0.0816
  C  C418  1  0.115100  0.370620  0.180900  1.0  -0.0784
  C  C419  1  0.115100  0.629380  0.319100  1.0  -0.0781
  C  C420  1  0.884900  0.370620  0.319100  1.0  -0.0812
  C  C421  1  0.615100  0.870620  0.819100  1.0  -0.0789
  C  C422  1  0.384900  0.129380  0.819100  1.0  -0.0813
  C  C423  1  0.384900  0.870620  0.680900  1.0  -0.0821
  C  C424  1  0.615100  0.129380  0.680900  1.0  -0.0792
  C  C425  1  0.384900  0.129380  0.180900  1.0  -0.0816
  C  C426  1  0.615100  0.870620  0.180900  1.0  -0.0784
  C  C427  1  0.615100  0.129380  0.319100  1.0  -0.0781
  C  C428  1  0.384900  0.870620  0.319100  1.0  -0.0812
  C  C429  1  0.154800  0.351250  0.860000  1.0  -0.1018
  C  C430  1  0.845200  0.648750  0.860000  1.0  -0.1016
  C  C431  1  0.845200  0.351250  0.640000  1.0  -0.101
  C  C432  1  0.154800  0.648750  0.640000  1.0  -0.1023
  C  C433  1  0.845200  0.648750  0.140000  1.0  -0.1016
  C  C434  1  0.154800  0.351250  0.140000  1.0  -0.102
  C  C435  1  0.154800  0.648750  0.360000  1.0  -0.1021
  C  C436  1  0.845200  0.351250  0.360000  1.0  -0.101
  C  C437  1  0.654800  0.851250  0.860000  1.0  -0.1018
  C  C438  1  0.345200  0.148750  0.860000  1.0  -0.1016
  C  C439  1  0.345200  0.851250  0.640000  1.0  -0.101
  C  C440  1  0.654800  0.148750  0.640000  1.0  -0.1023
  C  C441  1  0.345200  0.148750  0.140000  1.0  -0.1016
  C  C442  1  0.654800  0.851250  0.140000  1.0  -0.102
  C  C443  1  0.654800  0.148750  0.360000  1.0  -0.1021
  C  C444  1  0.345200  0.851250  0.360000  1.0  -0.101
  C  C445  1  0.054300  0.419400  0.703800  1.0  0.0583
  C  C446  1  0.945700  0.580600  0.703800  1.0  0.0562
  C  C447  1  0.945700  0.419400  0.796200  1.0  0.0592
  C  C448  1  0.054300  0.580600  0.796200  1.0  0.0591
  C  C449  1  0.945700  0.580600  0.296200  1.0  0.0588
  C  C450  1  0.054300  0.419400  0.296200  1.0  0.0599
  C  C451  1  0.054300  0.580600  0.203800  1.0  0.0573
  C  C452  1  0.945700  0.419400  0.203800  1.0  0.0575
  C  C453  1  0.554300  0.919400  0.703800  1.0  0.0583
  C  C454  1  0.445700  0.080600  0.703800  1.0  0.0562
  C  C455  1  0.445700  0.919400  0.796200  1.0  0.0592
  C  C456  1  0.554300  0.080600  0.796200  1.0  0.0591
  C  C457  1  0.445700  0.080600  0.296200  1.0  0.0588
  C  C458  1  0.554300  0.919400  0.296200  1.0  0.0599
  C  C459  1  0.554300  0.080600  0.203800  1.0  0.0573
  C  C460  1  0.445700  0.919400  0.203800  1.0  0.0575
  C  C461  1  0.169400  0.495200  0.583400  1.0  0.4401
  C  C462  1  0.830600  0.504800  0.583400  1.0  0.4353
  C  C463  1  0.830600  0.495200  0.916600  1.0  0.4389
  C  C464  1  0.169400  0.504800  0.916600  1.0  0.4408
  C  C465  1  0.830600  0.504800  0.416600  1.0  0.4384
  C  C466  1  0.169400  0.495200  0.416600  1.0  0.4416
  C  C467  1  0.169400  0.504800  0.083400  1.0  0.4395
  C  C468  1  0.830600  0.495200  0.083400  1.0  0.4359
  C  C469  1  0.669400  0.995200  0.583400  1.0  0.4401
  C  C470  1  0.330600  0.004800  0.583400  1.0  0.4353
  C  C471  1  0.330600  0.995200  0.916600  1.0  0.4389
  C  C472  1  0.669400  0.004800  0.916600  1.0  0.4408
  C  C473  1  0.330600  0.004800  0.416600  1.0  0.4384
  C  C474  1  0.669400  0.995200  0.416600  1.0  0.4416
  C  C475  1  0.669400  0.004800  0.083400  1.0  0.4395
  C  C476  1  0.330600  0.995200  0.083400  1.0  0.4359
  C  C477  1  0.128900  0.469600  0.625800  1.0  -0.051
  C  C478  1  0.871100  0.530400  0.625800  1.0  -0.0514
  C  C479  1  0.871100  0.469600  0.874200  1.0  -0.0497
  C  C480  1  0.128900  0.530400  0.874200  1.0  -0.0501
  C  C481  1  0.871100  0.530400  0.374200  1.0  -0.0501
  C  C482  1  0.128900  0.469600  0.374200  1.0  -0.0496
  C  C483  1  0.128900  0.530400  0.125800  1.0  -0.0513
  C  C484  1  0.871100  0.469600  0.125800  1.0  -0.051
  C  C485  1  0.628900  0.969600  0.625800  1.0  -0.051
  C  C486  1  0.371100  0.030400  0.625800  1.0  -0.0514
  C  C487  1  0.371100  0.969600  0.874200  1.0  -0.0497
  C  C488  1  0.628900  0.030400  0.874200  1.0  -0.0501
  C  C489  1  0.371100  0.030400  0.374200  1.0  -0.0501
  C  C490  1  0.628900  0.969600  0.374200  1.0  -0.0496
  C  C491  1  0.628900  0.030400  0.125800  1.0  -0.0513
  C  C492  1  0.371100  0.969600  0.125800  1.0  -0.051
  C  C493  1  0.054600  0.401300  0.649300  1.0  0.1457
  C  C494  1  0.945400  0.598700  0.649300  1.0  0.1482
  C  C495  1  0.945400  0.401300  0.850700  1.0  0.1488
  C  C496  1  0.054600  0.598700  0.850700  1.0  0.1482
  C  C497  1  0.945400  0.598700  0.350700  1.0  0.1489
  C  C498  1  0.054600  0.401300  0.350700  1.0  0.1474
  C  C499  1  0.054600  0.598700  0.149300  1.0  0.1467
  C  C500  1  0.945400  0.401300  0.149300  1.0  0.1474
  C  C501  1  0.554600  0.901300  0.649300  1.0  0.1457
  C  C502  1  0.445400  0.098700  0.649300  1.0  0.1482
  C  C503  1  0.445400  0.901300  0.850700  1.0  0.1488
  C  C504  1  0.554600  0.098700  0.850700  1.0  0.1482
  C  C505  1  0.445400  0.098700  0.350700  1.0  0.1489
  C  C506  1  0.554600  0.901300  0.350700  1.0  0.1474
  C  C507  1  0.554600  0.098700  0.149300  1.0  0.1467
  C  C508  1  0.445400  0.901300  0.149300  1.0  0.1474
  C  C509  1  0.089900  0.426600  0.611000  1.0  -0.0709
  C  C510  1  0.910100  0.573400  0.611000  1.0  -0.0697
  C  C511  1  0.910100  0.426600  0.889000  1.0  -0.0703
  C  C512  1  0.089900  0.573400  0.889000  1.0  -0.0689
  C  C513  1  0.910100  0.573400  0.389000  1.0  -0.0697
  C  C514  1  0.089900  0.426600  0.389000  1.0  -0.0697
  C  C515  1  0.089900  0.573400  0.111000  1.0  -0.0704
  C  C516  1  0.910100  0.426600  0.111000  1.0  -0.0697
  C  C517  1  0.589900  0.926600  0.611000  1.0  -0.0709
  C  C518  1  0.410100  0.073400  0.611000  1.0  -0.0697
  C  C519  1  0.410100  0.926600  0.889000  1.0  -0.0703
  C  C520  1  0.589900  0.073400  0.889000  1.0  -0.0689
  C  C521  1  0.410100  0.073400  0.389000  1.0  -0.0697
  C  C522  1  0.589900  0.926600  0.389000  1.0  -0.0697
  C  C523  1  0.589900  0.073400  0.111000  1.0  -0.0704
  C  C524  1  0.410100  0.926600  0.111000  1.0  -0.0697
  C  C525  1  0.129000  0.476300  0.678100  1.0  -0.0346
  C  C526  1  0.871000  0.523700  0.678100  1.0  -0.0371
  C  C527  1  0.871000  0.476300  0.821900  1.0  -0.0331
  C  C528  1  0.129000  0.523700  0.821900  1.0  -0.0358
  C  C529  1  0.871000  0.523700  0.321900  1.0  -0.0344
  C  C530  1  0.129000  0.476300  0.321900  1.0  -0.0358
  C  C531  1  0.129000  0.523700  0.178100  1.0  -0.0347
  C  C532  1  0.871000  0.476300  0.178100  1.0  -0.0352
  C  C533  1  0.629000  0.976300  0.678100  1.0  -0.0346
  C  C534  1  0.371000  0.023700  0.678100  1.0  -0.0371
  C  C535  1  0.371000  0.976300  0.821900  1.0  -0.0331
  C  C536  1  0.629000  0.023700  0.821900  1.0  -0.0358
  C  C537  1  0.371000  0.023700  0.321900  1.0  -0.0344
  C  C538  1  0.629000  0.976300  0.321900  1.0  -0.0358
  C  C539  1  0.629000  0.023700  0.178100  1.0  -0.0347
  C  C540  1  0.371000  0.976300  0.178100  1.0  -0.0352
  C  C541  1  0.092600  0.452600  0.716500  1.0  0.0206
  C  C542  1  0.907400  0.547400  0.716500  1.0  0.0186
  C  C543  1  0.907400  0.452600  0.783500  1.0  0.0178
  C  C544  1  0.092600  0.547400  0.783500  1.0  0.0195
  C  C545  1  0.907400  0.547400  0.283500  1.0  0.0176
  C  C546  1  0.092600  0.452600  0.283500  1.0  0.02
  C  C547  1  0.092600  0.547400  0.216500  1.0  0.0199
  C  C548  1  0.907400  0.452600  0.216500  1.0  0.0188
  C  C549  1  0.592600  0.952600  0.716500  1.0  0.0206
  C  C550  1  0.407400  0.047400  0.716500  1.0  0.0186
  C  C551  1  0.407400  0.952600  0.783500  1.0  0.0178
  C  C552  1  0.592600  0.047400  0.783500  1.0  0.0195
  C  C553  1  0.407400  0.047400  0.283500  1.0  0.0176
  C  C554  1  0.592600  0.952600  0.283500  1.0  0.02
  C  C555  1  0.592600  0.047400  0.216500  1.0  0.0199
  C  C556  1  0.407400  0.952600  0.216500  1.0  0.0188
  O  O557  1  0.213100  0.088850  0.057020  1.0  -0.7487
  O  O558  1  0.786900  0.911150  0.057020  1.0  -0.7465
  O  O559  1  0.786900  0.088850  0.442980  1.0  -0.7476
  O  O560  1  0.213100  0.911150  0.442980  1.0  -0.7492
  O  O561  1  0.786900  0.911150  0.942980  1.0  -0.7478
  O  O562  1  0.213100  0.088850  0.942980  1.0  -0.7489
  O  O563  1  0.213100  0.911150  0.557020  1.0  -0.7481
  O  O564  1  0.786900  0.088850  0.557020  1.0  -0.7473
  O  O565  1  0.713100  0.588850  0.057020  1.0  -0.7487
  O  O566  1  0.286900  0.411150  0.057020  1.0  -0.7465
  O  O567  1  0.286900  0.588850  0.442980  1.0  -0.7476
  O  O568  1  0.713100  0.411150  0.442980  1.0  -0.7492
  O  O569  1  0.286900  0.411150  0.942980  1.0  -0.7478
  O  O570  1  0.713100  0.588850  0.942980  1.0  -0.7489
  O  O571  1  0.713100  0.411150  0.557020  1.0  -0.7481
  O  O572  1  0.286900  0.588850  0.557020  1.0  -0.7473
  O  O573  1  0.134800  0.145080  0.063410  1.0  -0.6662
  O  O574  1  0.865200  0.854920  0.063410  1.0  -0.6639
  O  O575  1  0.865200  0.145080  0.436590  1.0  -0.6649
  O  O576  1  0.134800  0.854920  0.436590  1.0  -0.6647
  O  O577  1  0.865200  0.854920  0.936590  1.0  -0.6635
  O  O578  1  0.134800  0.145080  0.936590  1.0  -0.6659
  O  O579  1  0.134800  0.854920  0.563410  1.0  -0.6654
  O  O580  1  0.865200  0.145080  0.563410  1.0  -0.665
  O  O581  1  0.634800  0.645080  0.063410  1.0  -0.6662
  O  O582  1  0.365200  0.354920  0.063410  1.0  -0.6639
  O  O583  1  0.365200  0.645080  0.436590  1.0  -0.6649
  O  O584  1  0.634800  0.354920  0.436590  1.0  -0.6647
  O  O585  1  0.365200  0.354920  0.936590  1.0  -0.6635
  O  O586  1  0.634800  0.645080  0.936590  1.0  -0.6659
  O  O587  1  0.634800  0.354920  0.563410  1.0  -0.6654
  O  O588  1  0.365200  0.645080  0.563410  1.0  -0.665
  O  O589  1  0.157400  0.250730  0.940250  1.0  -0.7409
  O  O590  1  0.842600  0.749270  0.940250  1.0  -0.742
  O  O591  1  0.842600  0.250730  0.559750  1.0  -0.7407
  O  O592  1  0.157400  0.749270  0.559750  1.0  -0.7426
  O  O593  1  0.842600  0.749270  0.059750  1.0  -0.7419
  O  O594  1  0.157400  0.250730  0.059750  1.0  -0.7416
  O  O595  1  0.157400  0.749270  0.440250  1.0  -0.742
  O  O596  1  0.842600  0.250730  0.440250  1.0  -0.7408
  O  O597  1  0.657400  0.750730  0.940250  1.0  -0.7409
  O  O598  1  0.342600  0.249270  0.940250  1.0  -0.742
  O  O599  1  0.342600  0.750730  0.559750  1.0  -0.7407
  O  O600  1  0.657400  0.249270  0.559750  1.0  -0.7426
  O  O601  1  0.342600  0.249270  0.059750  1.0  -0.7419
  O  O602  1  0.657400  0.750730  0.059750  1.0  -0.7416
  O  O603  1  0.657400  0.249270  0.440250  1.0  -0.742
  O  O604  1  0.342600  0.750730  0.440250  1.0  -0.7408
  O  O605  1  0.227800  0.310930  0.945010  1.0  -0.7184
  O  O606  1  0.772200  0.689070  0.945010  1.0  -0.7182
  O  O607  1  0.772200  0.310930  0.554990  1.0  -0.7179
  O  O608  1  0.227800  0.689070  0.554990  1.0  -0.7177
  O  O609  1  0.772200  0.689070  0.054990  1.0  -0.7179
  O  O610  1  0.227800  0.310930  0.054990  1.0  -0.7179
  O  O611  1  0.227800  0.689070  0.445010  1.0  -0.718
  O  O612  1  0.772200  0.310930  0.445010  1.0  -0.7181
  O  O613  1  0.727800  0.810930  0.945010  1.0  -0.7184
  O  O614  1  0.272200  0.189070  0.945010  1.0  -0.7182
  O  O615  1  0.272200  0.810930  0.554990  1.0  -0.7179
  O  O616  1  0.727800  0.189070  0.554990  1.0  -0.7177
  O  O617  1  0.272200  0.189070  0.054990  1.0  -0.7179
  O  O618  1  0.727800  0.810930  0.054990  1.0  -0.7179
  O  O619  1  0.727800  0.189070  0.445010  1.0  -0.718
  O  O620  1  0.272200  0.810930  0.445010  1.0  -0.7181
  O  O621  1  0.166400  0.479800  0.537700  1.0  -0.6269
  O  O622  1  0.833600  0.520200  0.537700  1.0  -0.627
  O  O623  1  0.833600  0.479800  0.962300  1.0  -0.6257
  O  O624  1  0.166400  0.520200  0.962300  1.0  -0.6267
  O  O625  1  0.833600  0.520200  0.462300  1.0  -0.6284
  O  O626  1  0.166400  0.479800  0.462300  1.0  -0.6247
  O  O627  1  0.166400  0.520200  0.037700  1.0  -0.6269
  O  O628  1  0.833600  0.479800  0.037700  1.0  -0.6277
  O  O629  1  0.666400  0.979800  0.537700  1.0  -0.6268
  O  O630  1  0.333600  0.020200  0.537700  1.0  -0.627
  O  O631  1  0.333600  0.979800  0.962300  1.0  -0.6257
  O  O632  1  0.666400  0.020200  0.962300  1.0  -0.6267
  O  O633  1  0.333600  0.020200  0.462300  1.0  -0.6284
  O  O634  1  0.666400  0.979800  0.462300  1.0  -0.6247
  O  O635  1  0.666400  0.020200  0.037700  1.0  -0.6269
  O  O636  1  0.333600  0.979800  0.037700  1.0  -0.6277
  O  O637  1  0.136200  0.530200  0.558600  1.0  -0.6479
  O  O638  1  0.863800  0.469800  0.558600  1.0  -0.6488
  O  O639  1  0.863800  0.530200  0.941400  1.0  -0.6466
  O  O640  1  0.136200  0.469800  0.941400  1.0  -0.6494
  O  O641  1  0.863800  0.469800  0.441400  1.0  -0.6489
  O  O642  1  0.136200  0.530200  0.441400  1.0  -0.6473
  O  O643  1  0.136200  0.469800  0.058600  1.0  -0.6494
  O  O644  1  0.863800  0.530200  0.058600  1.0  -0.6468
  O  O645  1  0.636200  0.030200  0.558600  1.0  -0.6479
  O  O646  1  0.363800  0.969800  0.558600  1.0  -0.6488
  O  O647  1  0.363800  0.030200  0.941400  1.0  -0.6466
  O  O648  1  0.636200  0.969800  0.941400  1.0  -0.6494
  O  O649  1  0.363800  0.969800  0.441400  1.0  -0.6489
  O  O650  1  0.636200  0.030200  0.441400  1.0  -0.6473
  O  O651  1  0.636200  0.969800  0.058600  1.0  -0.6494
  O  O652  1  0.363800  0.030200  0.058600  1.0  -0.6468
