# generated using pymatgen
data_Eu4Si3H48(C7O2)12
_symmetry_space_group_name_H-M   'P 1'
_cell_length_a   17.77560000
_cell_length_b   17.77560000
_cell_length_c   24.83700000
_cell_angle_alpha   90.00000000
_cell_angle_beta   90.00000000
_cell_angle_gamma   116.39600000
_symmetry_Int_Tables_number   1
_chemical_formula_structural   Eu4Si3H48(C7O2)12
_chemical_formula_sum   'Eu8 Si6 H96 C168 O48'
_cell_volume   7029.60627060
_cell_formula_units_Z   2
loop_
 _symmetry_equiv_pos_site_id
 _symmetry_equiv_pos_as_xyz
  1  'x, y, z'
loop_
 _atom_site_type_symbol
 _atom_site_label
 _atom_site_symmetry_multiplicity
 _atom_site_fract_x
 _atom_site_fract_y
 _atom_site_fract_z
 _atom_site_occupancy
 _atom_site_charge
  Eu  Eu1  1  0.629390  0.017160  0.000000  1.0  2.1925
  Eu  Eu2  1  0.683460  0.771710  0.000000  1.0  2.0426
  Eu  Eu3  1  0.370610  0.982840  0.000000  1.0  2.1935
  Eu  Eu4  1  0.316540  0.228290  0.000000  1.0  2.0425
  Eu  Eu5  1  0.982840  0.370610  0.500000  1.0  2.1933
  Eu  Eu6  1  0.228290  0.316540  0.500000  1.0  2.0427
  Eu  Eu7  1  0.017160  0.629390  0.500000  1.0  2.1915
  Eu  Eu8  1  0.771710  0.683460  0.500000  1.0  2.0426
  Si  Si9  1  0.000000  0.000000  0.750000  1.0  0.9996
  Si  Si10  1  0.000000  0.000000  0.250000  1.0  0.9996
  Si  Si11  1  0.616190  0.383810  0.250000  1.0  0.9036
  Si  Si12  1  0.383810  0.616190  0.250000  1.0  0.9033
  Si  Si13  1  0.383810  0.616190  0.750000  1.0  0.9033
  Si  Si14  1  0.616190  0.383810  0.750000  1.0  0.9036
  H  H15  1  0.836300  0.084100  0.870100  1.0  0.098
  H  H16  1  0.858200  0.854200  0.800400  1.0  0.0982
  H  H17  1  0.800000  0.322200  0.366700  1.0  0.0978
  H  H18  1  0.763300  0.837100  0.867500  1.0  0.0883
  H  H19  1  0.702300  0.294100  0.299600  1.0  0.0894
  H  H20  1  0.735500  0.527100  0.305800  1.0  0.0708
  H  H21  1  0.931400  0.102800  0.802600  1.0  0.0913
  H  H22  1  0.830300  0.557100  0.374100  1.0  0.1077
  H  H23  1  0.777700  0.636900  0.140100  1.0  0.1043
  H  H24  1  0.759800  0.540400  0.205400  1.0  0.0811
  H  H25  1  0.514300  0.460300  0.197300  1.0  0.1069
  H  H26  1  0.535000  0.557000  0.130900  1.0  0.1042
  H  H27  1  0.163700  0.915900  0.870100  1.0  0.0981
  H  H28  1  0.141800  0.145800  0.800400  1.0  0.0989
  H  H29  1  0.200000  0.677800  0.366700  1.0  0.0979
  H  H30  1  0.236700  0.162900  0.867500  1.0  0.0887
  H  H31  1  0.297700  0.705900  0.299600  1.0  0.0903
  H  H32  1  0.264500  0.472900  0.305800  1.0  0.0692
  H  H33  1  0.068600  0.897200  0.802600  1.0  0.091
  H  H34  1  0.169700  0.442900  0.374100  1.0  0.1074
  H  H35  1  0.222300  0.363100  0.140100  1.0  0.1047
  H  H36  1  0.240200  0.459600  0.205400  1.0  0.0821
  H  H37  1  0.485700  0.539700  0.197300  1.0  0.1077
  H  H38  1  0.465000  0.443000  0.130900  1.0  0.1038
  H  H39  1  0.915900  0.163700  0.629900  1.0  0.0979
  H  H40  1  0.145800  0.141800  0.699600  1.0  0.0979
  H  H41  1  0.677800  0.200000  0.133300  1.0  0.0977
  H  H42  1  0.162900  0.236700  0.632500  1.0  0.0881
  H  H43  1  0.705900  0.297700  0.200400  1.0  0.0915
  H  H44  1  0.472900  0.264500  0.194200  1.0  0.0702
  H  H45  1  0.897200  0.068600  0.697400  1.0  0.0923
  H  H46  1  0.442900  0.169700  0.125900  1.0  0.1065
  H  H47  1  0.363100  0.222300  0.359900  1.0  0.1023
  H  H48  1  0.459600  0.240200  0.294600  1.0  0.0817
  H  H49  1  0.539700  0.485700  0.302700  1.0  0.1054
  H  H50  1  0.443000  0.465000  0.369100  1.0  0.1043
  H  H51  1  0.084100  0.836300  0.629900  1.0  0.0984
  H  H52  1  0.854200  0.858200  0.699600  1.0  0.0984
  H  H53  1  0.322200  0.800000  0.133300  1.0  0.0975
  H  H54  1  0.837100  0.763300  0.632500  1.0  0.0883
  H  H55  1  0.294100  0.702300  0.200400  1.0  0.0917
  H  H56  1  0.527100  0.735500  0.194200  1.0  0.0696
  H  H57  1  0.102800  0.931400  0.697400  1.0  0.0924
  H  H58  1  0.557100  0.830300  0.125900  1.0  0.1061
  H  H59  1  0.636900  0.777700  0.359900  1.0  0.1033
  H  H60  1  0.540400  0.759800  0.294600  1.0  0.0819
  H  H61  1  0.460300  0.514300  0.302700  1.0  0.1052
  H  H62  1  0.557000  0.535000  0.369100  1.0  0.1046
  H  H63  1  0.163700  0.915900  0.129900  1.0  0.0978
  H  H64  1  0.141800  0.145800  0.199600  1.0  0.0986
  H  H65  1  0.200000  0.677800  0.633300  1.0  0.098
  H  H66  1  0.236700  0.162900  0.132500  1.0  0.089
  H  H67  1  0.297700  0.705900  0.700400  1.0  0.0896
  H  H68  1  0.264500  0.472900  0.694200  1.0  0.0693
  H  H69  1  0.068600  0.897200  0.197400  1.0  0.0904
  H  H70  1  0.169700  0.442900  0.625900  1.0  0.1078
  H  H71  1  0.222300  0.363100  0.859900  1.0  0.1047
  H  H72  1  0.240200  0.459600  0.794600  1.0  0.0825
  H  H73  1  0.485700  0.539700  0.802700  1.0  0.106
  H  H74  1  0.465000  0.443000  0.869100  1.0  0.1046
  H  H75  1  0.836300  0.084100  0.129900  1.0  0.0979
  H  H76  1  0.858200  0.854200  0.199600  1.0  0.098
  H  H77  1  0.800000  0.322200  0.633300  1.0  0.0977
  H  H78  1  0.763300  0.837100  0.132500  1.0  0.0884
  H  H79  1  0.702300  0.294100  0.700400  1.0  0.089
  H  H80  1  0.735500  0.527100  0.694200  1.0  0.0707
  H  H81  1  0.931400  0.102800  0.197400  1.0  0.0906
  H  H82  1  0.830300  0.557100  0.625900  1.0  0.1081
  H  H83  1  0.777700  0.636900  0.859900  1.0  0.1039
  H  H84  1  0.759800  0.540400  0.794600  1.0  0.0816
  H  H85  1  0.514300  0.460300  0.802700  1.0  0.1053
  H  H86  1  0.535000  0.557000  0.869100  1.0  0.1049
  H  H87  1  0.084100  0.836300  0.370100  1.0  0.0984
  H  H88  1  0.854200  0.858200  0.300400  1.0  0.0983
  H  H89  1  0.322200  0.800000  0.866700  1.0  0.0973
  H  H90  1  0.837100  0.763300  0.367500  1.0  0.0887
  H  H91  1  0.294100  0.702300  0.799600  1.0  0.0919
  H  H92  1  0.527100  0.735500  0.805800  1.0  0.0695
  H  H93  1  0.102800  0.931400  0.302600  1.0  0.0929
  H  H94  1  0.557100  0.830300  0.874100  1.0  0.107
  H  H95  1  0.636900  0.777700  0.640100  1.0  0.1041
  H  H96  1  0.540400  0.759800  0.705400  1.0  0.0815
  H  H97  1  0.460300  0.514300  0.697300  1.0  0.1073
  H  H98  1  0.557000  0.535000  0.630900  1.0  0.1041
  H  H99  1  0.915900  0.163700  0.370100  1.0  0.0981
  H  H100  1  0.145800  0.141800  0.300400  1.0  0.0978
  H  H101  1  0.677800  0.200000  0.866700  1.0  0.0975
  H  H102  1  0.162900  0.236700  0.367500  1.0  0.0887
  H  H103  1  0.705900  0.297700  0.799600  1.0  0.092
  H  H104  1  0.472900  0.264500  0.805800  1.0  0.0702
  H  H105  1  0.897200  0.068600  0.302600  1.0  0.0927
  H  H106  1  0.442900  0.169700  0.874100  1.0  0.1074
  H  H107  1  0.363100  0.222300  0.640100  1.0  0.1024
  H  H108  1  0.459600  0.240200  0.705400  1.0  0.0814
  H  H109  1  0.539700  0.485700  0.697300  1.0  0.1073
  H  H110  1  0.443000  0.465000  0.630900  1.0  0.1042
  C  C111  1  0.886980  0.461020  0.423730  1.0  0.7591
  C  C112  1  0.826220  0.442780  0.377690  1.0  -0.1621
  C  C113  1  0.729870  0.948330  0.920360  1.0  0.739
  C  C114  1  0.789620  0.959180  0.875410  1.0  -0.1599
  C  C115  1  0.910050  0.981550  0.794720  1.0  -0.2908
  C  C116  1  0.707370  0.407630  0.295300  1.0  -0.0714
  C  C117  1  0.840680  0.037720  0.856100  1.0  -0.0422
  C  C118  1  0.855230  0.901170  0.814620  1.0  -0.057
  C  C119  1  0.787020  0.364580  0.354810  1.0  -0.0703
  C  C120  1  0.797470  0.890730  0.854530  1.0  -0.0688
  C  C121  1  0.728160  0.347840  0.314220  1.0  -0.0622
  C  C122  1  0.747740  0.484460  0.318360  1.0  -0.0619
  C  C123  1  0.898970  0.049030  0.815900  1.0  -0.058
  C  C124  1  0.805580  0.503420  0.359250  1.0  -0.1411
  C  C125  1  0.635860  0.474740  0.203780  1.0  -0.1376
  C  C126  1  0.674470  0.667130  0.086210  1.0  0.3972
  C  C127  1  0.662020  0.597980  0.126940  1.0  0.1407
  C  C128  1  0.723800  0.597400  0.149400  1.0  -0.1444
  C  C129  1  0.712200  0.537800  0.188300  1.0  -0.0677
  C  C130  1  0.568100  0.491100  0.183400  1.0  -0.0962
  C  C131  1  0.579700  0.549500  0.144800  1.0  -0.1394
  C  C132  1  0.113020  0.538980  0.423730  1.0  0.7595
  C  C133  1  0.173780  0.557220  0.377690  1.0  -0.1615
  C  C134  1  0.270130  0.051670  0.920360  1.0  0.7387
  C  C135  1  0.210380  0.040820  0.875410  1.0  -0.1607
  C  C136  1  0.089950  0.018450  0.794720  1.0  -0.2915
  C  C137  1  0.292630  0.592370  0.295300  1.0  -0.0725
  C  C138  1  0.159320  0.962280  0.856100  1.0  -0.042
  C  C139  1  0.144770  0.098830  0.814620  1.0  -0.0586
  C  C140  1  0.212980  0.635420  0.354810  1.0  -0.0701
  C  C141  1  0.202530  0.109270  0.854530  1.0  -0.069
  C  C142  1  0.271840  0.652160  0.314220  1.0  -0.0629
  C  C143  1  0.252260  0.515540  0.318360  1.0  -0.0624
  C  C144  1  0.101030  0.950970  0.815900  1.0  -0.0562
  C  C145  1  0.194420  0.496580  0.359250  1.0  -0.1404
  C  C146  1  0.364140  0.525260  0.203780  1.0  -0.1398
  C  C147  1  0.325530  0.332870  0.086210  1.0  0.3969
  C  C148  1  0.337980  0.402020  0.126940  1.0  0.1388
  C  C149  1  0.276200  0.402600  0.149400  1.0  -0.1457
  C  C150  1  0.287800  0.462200  0.188300  1.0  -0.0679
  C  C151  1  0.431900  0.508900  0.183400  1.0  -0.0954
  C  C152  1  0.420300  0.450500  0.144800  1.0  -0.1399
  C  C153  1  0.538980  0.113020  0.076270  1.0  0.7608
  C  C154  1  0.557220  0.173780  0.122310  1.0  -0.1599
  C  C155  1  0.051670  0.270130  0.579640  1.0  0.7406
  C  C156  1  0.040820  0.210380  0.624590  1.0  -0.1606
  C  C157  1  0.018450  0.089950  0.705280  1.0  -0.2917
  C  C158  1  0.592370  0.292630  0.204700  1.0  -0.0728
  C  C159  1  0.962280  0.159320  0.643900  1.0  -0.0402
  C  C160  1  0.098830  0.144770  0.685380  1.0  -0.0579
  C  C161  1  0.635420  0.212980  0.145190  1.0  -0.0656
  C  C162  1  0.109270  0.202530  0.645470  1.0  -0.0687
  C  C163  1  0.652160  0.271840  0.185780  1.0  -0.062
  C  C164  1  0.515540  0.252260  0.181640  1.0  -0.0634
  C  C165  1  0.950970  0.101030  0.684100  1.0  -0.0546
  C  C166  1  0.496580  0.194420  0.140750  1.0  -0.1405
  C  C167  1  0.525260  0.364140  0.296220  1.0  -0.1396
  C  C168  1  0.332870  0.325530  0.413790  1.0  0.3951
  C  C169  1  0.402020  0.337980  0.373060  1.0  0.1427
  C  C170  1  0.402600  0.276200  0.350600  1.0  -0.1413
  C  C171  1  0.462200  0.287800  0.311700  1.0  -0.0734
  C  C172  1  0.508900  0.431900  0.316600  1.0  -0.0979
  C  C173  1  0.450500  0.420300  0.355200  1.0  -0.1396
  C  C174  1  0.461020  0.886980  0.076270  1.0  0.7612
  C  C175  1  0.442780  0.826220  0.122310  1.0  -0.1597
  C  C176  1  0.948330  0.729870  0.579640  1.0  0.7398
  C  C177  1  0.959180  0.789620  0.624590  1.0  -0.1605
  C  C178  1  0.981550  0.910050  0.705280  1.0  -0.2926
  C  C179  1  0.407630  0.707370  0.204700  1.0  -0.0727
  C  C180  1  0.037720  0.840680  0.643900  1.0  -0.0398
  C  C181  1  0.901170  0.855230  0.685380  1.0  -0.0598
  C  C182  1  0.364580  0.787020  0.145190  1.0  -0.0663
  C  C183  1  0.890730  0.797470  0.645470  1.0  -0.0683
  C  C184  1  0.347840  0.728160  0.185780  1.0  -0.0619
  C  C185  1  0.484460  0.747740  0.181640  1.0  -0.0646
  C  C186  1  0.049030  0.898970  0.684100  1.0  -0.0544
  C  C187  1  0.503420  0.805580  0.140750  1.0  -0.1404
  C  C188  1  0.474740  0.635860  0.296220  1.0  -0.1401
  C  C189  1  0.667130  0.674470  0.413790  1.0  0.3971
  C  C190  1  0.597980  0.662020  0.373060  1.0  0.1445
  C  C191  1  0.597400  0.723800  0.350600  1.0  -0.1397
  C  C192  1  0.537800  0.712200  0.311700  1.0  -0.0744
  C  C193  1  0.491100  0.568100  0.316600  1.0  -0.1009
  C  C194  1  0.549500  0.579700  0.355200  1.0  -0.1369
  C  C195  1  0.113020  0.538980  0.576270  1.0  0.7595
  C  C196  1  0.173780  0.557220  0.622310  1.0  -0.1615
  C  C197  1  0.270130  0.051670  0.079640  1.0  0.7233
  C  C198  1  0.210380  0.040820  0.124590  1.0  -0.1606
  C  C199  1  0.089950  0.018450  0.205280  1.0  -0.2919
  C  C200  1  0.292630  0.592370  0.704700  1.0  -0.0738
  C  C201  1  0.159320  0.962280  0.143900  1.0  -0.0427
  C  C202  1  0.144770  0.098830  0.185380  1.0  -0.0592
  C  C203  1  0.212980  0.635420  0.645190  1.0  -0.0704
  C  C204  1  0.202530  0.109270  0.145470  1.0  -0.0695
  C  C205  1  0.271840  0.652160  0.685780  1.0  -0.0628
  C  C206  1  0.252260  0.515540  0.681640  1.0  -0.0624
  C  C207  1  0.101030  0.950970  0.184100  1.0  -0.0562
  C  C208  1  0.194420  0.496580  0.640750  1.0  -0.1405
  C  C209  1  0.364140  0.525260  0.796220  1.0  -0.1394
  C  C210  1  0.325530  0.332870  0.913790  1.0  0.3956
  C  C211  1  0.337980  0.402020  0.873060  1.0  0.1387
  C  C212  1  0.276200  0.402600  0.850600  1.0  -0.146
  C  C213  1  0.287800  0.462200  0.811700  1.0  -0.068
  C  C214  1  0.431900  0.508900  0.816600  1.0  -0.0953
  C  C215  1  0.420300  0.450500  0.855200  1.0  -0.1387
  C  C216  1  0.886980  0.461020  0.576270  1.0  0.7586
  C  C217  1  0.826220  0.442780  0.622310  1.0  -0.1616
  C  C218  1  0.729870  0.948330  0.079640  1.0  0.7244
  C  C219  1  0.789620  0.959180  0.124590  1.0  -0.1601
  C  C220  1  0.910050  0.981550  0.205280  1.0  -0.2911
  C  C221  1  0.707370  0.407630  0.704700  1.0  -0.0733
  C  C222  1  0.840680  0.037720  0.143900  1.0  -0.0433
  C  C223  1  0.855230  0.901170  0.185380  1.0  -0.0573
  C  C224  1  0.787020  0.364580  0.645190  1.0  -0.0702
  C  C225  1  0.797470  0.890730  0.145470  1.0  -0.0689
  C  C226  1  0.728160  0.347840  0.685780  1.0  -0.0621
  C  C227  1  0.747740  0.484460  0.681640  1.0  -0.062
  C  C228  1  0.898970  0.049030  0.184100  1.0  -0.0579
  C  C229  1  0.805580  0.503420  0.640750  1.0  -0.141
  C  C230  1  0.635860  0.474740  0.796220  1.0  -0.1372
  C  C231  1  0.674470  0.667130  0.913790  1.0  0.3961
  C  C232  1  0.662020  0.597980  0.873060  1.0  0.1373
  C  C233  1  0.723800  0.597400  0.850600  1.0  -0.1435
  C  C234  1  0.712200  0.537800  0.811700  1.0  -0.0683
  C  C235  1  0.568100  0.491100  0.816600  1.0  -0.0958
  C  C236  1  0.579700  0.549500  0.855200  1.0  -0.1394
  C  C237  1  0.461020  0.886980  0.923730  1.0  0.761
  C  C238  1  0.442780  0.826220  0.877690  1.0  -0.1601
  C  C239  1  0.948330  0.729870  0.420360  1.0  0.725
  C  C240  1  0.959180  0.789620  0.375410  1.0  -0.1609
  C  C241  1  0.981550  0.910050  0.294720  1.0  -0.2922
  C  C242  1  0.407630  0.707370  0.795300  1.0  -0.0712
  C  C243  1  0.037720  0.840680  0.356100  1.0  -0.0383
  C  C244  1  0.901170  0.855230  0.314620  1.0  -0.0598
  C  C245  1  0.364580  0.787020  0.854810  1.0  -0.0659
  C  C246  1  0.890730  0.797470  0.354530  1.0  -0.0676
  C  C247  1  0.347840  0.728160  0.814220  1.0  -0.0619
  C  C248  1  0.484460  0.747740  0.818360  1.0  -0.0647
  C  C249  1  0.049030  0.898970  0.315900  1.0  -0.0549
  C  C250  1  0.503420  0.805580  0.859250  1.0  -0.1406
  C  C251  1  0.474740  0.635860  0.703780  1.0  -0.1406
  C  C252  1  0.667130  0.674470  0.586210  1.0  0.3986
  C  C253  1  0.597980  0.662020  0.626940  1.0  0.1453
  C  C254  1  0.597400  0.723800  0.649400  1.0  -0.1393
  C  C255  1  0.537800  0.712200  0.688300  1.0  -0.0746
  C  C256  1  0.491100  0.568100  0.683400  1.0  -0.1022
  C  C257  1  0.549500  0.579700  0.644800  1.0  -0.1374
  C  C258  1  0.538980  0.113020  0.923730  1.0  0.7612
  C  C259  1  0.557220  0.173780  0.877690  1.0  -0.1595
  C  C260  1  0.051670  0.270130  0.420360  1.0  0.7246
  C  C261  1  0.040820  0.210380  0.375410  1.0  -0.1608
  C  C262  1  0.018450  0.089950  0.294720  1.0  -0.2919
  C  C263  1  0.592370  0.292630  0.795300  1.0  -0.0711
  C  C264  1  0.962280  0.159320  0.356100  1.0  -0.0396
  C  C265  1  0.098830  0.144770  0.314620  1.0  -0.0577
  C  C266  1  0.635420  0.212980  0.854810  1.0  -0.0652
  C  C267  1  0.109270  0.202530  0.354530  1.0  -0.0684
  C  C268  1  0.652160  0.271840  0.814220  1.0  -0.0622
  C  C269  1  0.515540  0.252260  0.818360  1.0  -0.0634
  C  C270  1  0.950970  0.101030  0.315900  1.0  -0.0547
  C  C271  1  0.496580  0.194420  0.859250  1.0  -0.1404
  C  C272  1  0.525260  0.364140  0.703780  1.0  -0.14
  C  C273  1  0.332870  0.325530  0.586210  1.0  0.3968
  C  C274  1  0.402020  0.337980  0.626940  1.0  0.1436
  C  C275  1  0.402600  0.276200  0.649400  1.0  -0.142
  C  C276  1  0.462200  0.287800  0.688300  1.0  -0.0733
  C  C277  1  0.508900  0.431900  0.683400  1.0  -0.0989
  C  C278  1  0.450500  0.420300  0.644800  1.0  -0.1403
  O  O279  1  0.692980  0.877620  0.941590  1.0  -0.7778
  O  O280  1  0.720050  0.008730  0.934100  1.0  -0.6683
  O  O281  1  0.900470  0.402270  0.439290  1.0  -0.737
  O  O282  1  0.920180  0.531260  0.442500  1.0  -0.6999
  O  O283  1  0.602600  0.668800  0.064000  1.0  -0.6888
  O  O284  1  0.682100  0.642900  0.038700  1.0  -0.5813
  O  O285  1  0.307020  0.122380  0.941590  1.0  -0.7797
  O  O286  1  0.279950  0.991270  0.934100  1.0  -0.6676
  O  O287  1  0.099530  0.597730  0.439290  1.0  -0.7369
  O  O288  1  0.079820  0.468740  0.442500  1.0  -0.6981
  O  O289  1  0.397400  0.331200  0.064000  1.0  -0.6919
  O  O290  1  0.317900  0.357100  0.038700  1.0  -0.583
  O  O291  1  0.122380  0.307020  0.558410  1.0  -0.7755
  O  O292  1  0.991270  0.279950  0.565900  1.0  -0.6714
  O  O293  1  0.597730  0.099530  0.060710  1.0  -0.7363
  O  O294  1  0.468740  0.079820  0.057500  1.0  -0.6986
  O  O295  1  0.331200  0.397400  0.436000  1.0  -0.6936
  O  O296  1  0.357100  0.317900  0.461300  1.0  -0.5777
  O  O297  1  0.877620  0.692980  0.558410  1.0  -0.7753
  O  O298  1  0.008730  0.720050  0.565900  1.0  -0.6688
  O  O299  1  0.402270  0.900470  0.060710  1.0  -0.7357
  O  O300  1  0.531260  0.920180  0.057500  1.0  -0.6984
  O  O301  1  0.668800  0.602600  0.436000  1.0  -0.6927
  O  O302  1  0.642900  0.682100  0.461300  1.0  -0.5815
  O  O303  1  0.307020  0.122380  0.058410  1.0  -0.7801
  O  O304  1  0.279950  0.991270  0.065900  1.0  -0.6679
  O  O305  1  0.099530  0.597730  0.560710  1.0  -0.7375
  O  O306  1  0.079820  0.468740  0.557500  1.0  -0.6977
  O  O307  1  0.397400  0.331200  0.936000  1.0  -0.6918
  O  O308  1  0.317900  0.357100  0.961300  1.0  -0.5823
  O  O309  1  0.692980  0.877620  0.058410  1.0  -0.7781
  O  O310  1  0.720050  0.008730  0.065900  1.0  -0.6689
  O  O311  1  0.900470  0.402270  0.560710  1.0  -0.7372
  O  O312  1  0.920180  0.531260  0.557500  1.0  -0.6997
  O  O313  1  0.602600  0.668800  0.936000  1.0  -0.6891
  O  O314  1  0.682100  0.642900  0.961300  1.0  -0.5787
  O  O315  1  0.877620  0.692980  0.441590  1.0  -0.7756
  O  O316  1  0.008730  0.720050  0.434100  1.0  -0.6692
  O  O317  1  0.402270  0.900470  0.939290  1.0  -0.7358
  O  O318  1  0.531260  0.920180  0.942500  1.0  -0.6976
  O  O319  1  0.668800  0.602600  0.564000  1.0  -0.6935
  O  O320  1  0.642900  0.682100  0.538700  1.0  -0.5828
  O  O321  1  0.122380  0.307020  0.441590  1.0  -0.7755
  O  O322  1  0.991270  0.279950  0.434100  1.0  -0.6713
  O  O323  1  0.597730  0.099530  0.939290  1.0  -0.7373
  O  O324  1  0.468740  0.079820  0.942500  1.0  -0.6979
  O  O325  1  0.331200  0.397400  0.564000  1.0  -0.6954
  O  O326  1  0.357100  0.317900  0.538700  1.0  -0.5808
