# generated using pymatgen
data_CdH26(C11O4)3
_symmetry_space_group_name_H-M   'P 1'
_cell_length_a   16.28450000
_cell_length_b   16.28450000
_cell_length_c   27.63900000
_cell_angle_alpha   85.56360000
_cell_angle_beta   85.56360000
_cell_angle_gamma   71.75330000
_symmetry_Int_Tables_number   1
_chemical_formula_structural   CdH26(C11O4)3
_chemical_formula_sum   'Cd4 H104 C132 O48'
_cell_volume   6929.11008604
_cell_formula_units_Z   4
loop_
 _symmetry_equiv_pos_site_id
 _symmetry_equiv_pos_as_xyz
  1  'x, y, z'
loop_
 _atom_site_type_symbol
 _atom_site_label
 _atom_site_symmetry_multiplicity
 _atom_site_fract_x
 _atom_site_fract_y
 _atom_site_fract_z
 _atom_site_occupancy
 _atom_site_charge
  Cd  Cd1  1  0.337850  0.911270  0.189040  1.0  0.9632
  Cd  Cd2  1  0.088730  0.662150  0.310960  1.0  0.963
  Cd  Cd3  1  0.662150  0.088730  0.810960  1.0  0.9638
  Cd  Cd4  1  0.911270  0.337850  0.689040  1.0  0.9623
  H  H5  1  0.287900  0.702700  0.078900  1.0  0.1017
  H  H6  1  0.285000  0.647000  0.005200  1.0  0.1447
  H  H7  1  0.407400  0.812600  0.942700  1.0  0.1411
  H  H8  1  0.404900  0.867100  0.018000  1.0  0.122
  H  H9  1  0.248800  0.650000  0.928600  1.0  0.0742
  H  H10  1  0.341300  0.581700  0.921900  1.0  0.0828
  H  H11  1  0.372300  0.634300  0.794300  1.0  0.0769
  H  H12  1  0.400900  0.680300  0.835100  1.0  0.0763
  H  H13  1  0.517200  0.631200  0.775900  1.0  0.1297
  H  H14  1  0.645800  0.570800  0.734800  1.0  0.1235
  H  H15  1  0.682600  0.351200  0.818100  1.0  0.1182
  H  H16  1  0.550000  0.410200  0.857400  1.0  0.1306
  H  H17  1  0.253700  0.776100  0.848200  1.0  0.077
  H  H18  1  0.225500  0.732700  0.806100  1.0  0.083
  H  H19  1  0.124600  0.873000  0.803400  1.0  0.1347
  H  H20  1  0.988500  0.971100  0.788100  1.0  0.1036
  H  H21  1  0.871000  0.846800  0.882600  1.0  0.1341
  H  H22  1  0.008200  0.747200  0.900100  1.0  0.1276
  H  H23  1  0.302100  0.512900  0.854300  1.0  0.0827
  H  H24  1  0.207100  0.572100  0.867400  1.0  0.0752
  H  H25  1  0.172000  0.610200  0.717700  1.0  0.1343
  H  H26  1  0.085900  0.541900  0.683900  1.0  0.1281
  H  H27  1  0.100100  0.383500  0.806700  1.0  0.1372
  H  H28  1  0.192700  0.453300  0.837600  1.0  0.1207
  H  H29  1  0.808500  0.498900  0.724200  1.0  0.2627
  H  H30  1  0.748300  0.933700  0.835600  1.0  0.2089
  H  H31  1  0.297300  0.712100  0.421100  1.0  0.1015
  H  H32  1  0.353000  0.715000  0.494800  1.0  0.1449
  H  H33  1  0.187400  0.592600  0.557300  1.0  0.1406
  H  H34  1  0.132900  0.595100  0.482000  1.0  0.1209
  H  H35  1  0.350000  0.751200  0.571400  1.0  0.0752
  H  H36  1  0.418300  0.658700  0.578100  1.0  0.0861
  H  H37  1  0.365700  0.627700  0.705700  1.0  0.0766
  H  H38  1  0.319700  0.599100  0.664900  1.0  0.0771
  H  H39  1  0.368800  0.482800  0.724100  1.0  0.129
  H  H40  1  0.429200  0.354200  0.765200  1.0  0.1227
  H  H41  1  0.648800  0.317400  0.681900  1.0  0.1169
  H  H42  1  0.589800  0.450000  0.642600  1.0  0.1297
  H  H43  1  0.223900  0.746300  0.651800  1.0  0.0781
  H  H44  1  0.267300  0.774500  0.693900  1.0  0.0819
  H  H45  1  0.127000  0.875400  0.696600  1.0  0.1334
  H  H46  1  0.028900  0.011500  0.711900  1.0  0.1017
  H  H47  1  0.153200  0.129000  0.617400  1.0  0.1352
  H  H48  1  0.252800  0.991800  0.599900  1.0  0.1255
  H  H49  1  0.487100  0.697900  0.645700  1.0  0.0838
  H  H50  1  0.427900  0.792900  0.632600  1.0  0.076
  H  H51  1  0.389800  0.828000  0.782300  1.0  0.1314
  H  H52  1  0.458100  0.914100  0.816100  1.0  0.1278
  H  H53  1  0.616500  0.899900  0.693300  1.0  0.1369
  H  H54  1  0.546700  0.807300  0.662400  1.0  0.1231
  H  H55  1  0.501100  0.191500  0.775800  1.0  0.2637
  H  H56  1  0.066300  0.251700  0.664400  1.0  0.2091
  H  H57  1  0.712100  0.297300  0.921100  1.0  0.1019
  H  H58  1  0.715000  0.353000  0.994800  1.0  0.1453
  H  H59  1  0.592600  0.187400  0.057300  1.0  0.1404
  H  H60  1  0.595100  0.132900  0.982000  1.0  0.1216
  H  H61  1  0.751200  0.350000  0.071400  1.0  0.0724
  H  H62  1  0.658700  0.418300  0.078100  1.0  0.0852
  H  H63  1  0.627700  0.365700  0.205700  1.0  0.076
  H  H64  1  0.599100  0.319700  0.164900  1.0  0.077
  H  H65  1  0.482800  0.368800  0.224100  1.0  0.1284
  H  H66  1  0.354200  0.429200  0.265200  1.0  0.1227
  H  H67  1  0.317400  0.648800  0.181900  1.0  0.1181
  H  H68  1  0.450000  0.589800  0.142600  1.0  0.1297
  H  H69  1  0.746300  0.223900  0.151800  1.0  0.0767
  H  H70  1  0.774500  0.267300  0.193900  1.0  0.0819
  H  H71  1  0.875400  0.127000  0.196600  1.0  0.135
  H  H72  1  0.011500  0.028900  0.211900  1.0  0.103
  H  H73  1  0.129000  0.153200  0.117400  1.0  0.1348
  H  H74  1  0.991800  0.252800  0.099900  1.0  0.1276
  H  H75  1  0.697900  0.487100  0.145700  1.0  0.082
  H  H76  1  0.792900  0.427900  0.132600  1.0  0.0756
  H  H77  1  0.828000  0.389800  0.282300  1.0  0.1334
  H  H78  1  0.914100  0.458100  0.316100  1.0  0.1277
  H  H79  1  0.899900  0.616500  0.193300  1.0  0.1375
  H  H80  1  0.807300  0.546700  0.162400  1.0  0.1221
  H  H81  1  0.191500  0.501100  0.275800  1.0  0.2609
  H  H82  1  0.251700  0.066300  0.164400  1.0  0.2075
  H  H83  1  0.702700  0.287900  0.578900  1.0  0.1012
  H  H84  1  0.647000  0.285000  0.505200  1.0  0.1453
  H  H85  1  0.812600  0.407400  0.442700  1.0  0.1408
  H  H86  1  0.867100  0.404900  0.518000  1.0  0.1212
  H  H87  1  0.650000  0.248800  0.428600  1.0  0.0768
  H  H88  1  0.581700  0.341300  0.421900  1.0  0.0869
  H  H89  1  0.634300  0.372300  0.294300  1.0  0.0786
  H  H90  1  0.680300  0.400900  0.335100  1.0  0.0756
  H  H91  1  0.631200  0.517200  0.275900  1.0  0.1295
  H  H92  1  0.570800  0.645800  0.234800  1.0  0.1233
  H  H93  1  0.351200  0.682600  0.318100  1.0  0.1173
  H  H94  1  0.410200  0.550000  0.357400  1.0  0.1294
  H  H95  1  0.776100  0.253700  0.348200  1.0  0.077
  H  H96  1  0.732700  0.225500  0.306100  1.0  0.0833
  H  H97  1  0.873000  0.124600  0.303400  1.0  0.1343
  H  H98  1  0.971100  0.988500  0.288100  1.0  0.1024
  H  H99  1  0.846800  0.871000  0.382600  1.0  0.134
  H  H100  1  0.747200  0.008200  0.400100  1.0  0.1258
  H  H101  1  0.512900  0.302100  0.354300  1.0  0.0834
  H  H102  1  0.572100  0.207100  0.367400  1.0  0.0768
  H  H103  1  0.610200  0.172000  0.217700  1.0  0.135
  H  H104  1  0.541900  0.085900  0.183900  1.0  0.128
  H  H105  1  0.383500  0.100100  0.306700  1.0  0.1372
  H  H106  1  0.453300  0.192700  0.337600  1.0  0.1236
  H  H107  1  0.498900  0.808500  0.224200  1.0  0.2645
  H  H108  1  0.933700  0.748300  0.335600  1.0  0.2103
  C  C109  1  0.342500  0.826900  0.103800  1.0  0.724
  C  C110  1  0.343900  0.790700  0.056500  1.0  -0.1173
  C  C111  1  0.310700  0.725900  0.051200  1.0  -0.0142
  C  C112  1  0.308600  0.691600  0.007100  1.0  -0.2567
  C  C113  1  0.343100  0.726300  0.966000  1.0  0.2616
  C  C114  1  0.381600  0.791200  0.970000  1.0  -0.2123
  C  C115  1  0.380500  0.823100  0.015200  1.0  -1e-04
  C  C116  1  0.304760  0.638360  0.910950  1.0  0.1032
  C  C117  1  0.294400  0.642000  0.857030  1.0  -0.0035
  C  C118  1  0.379600  0.633000  0.828890  1.0  0.0958
  C  C119  1  0.519100  0.524300  0.820000  1.0  0.3263
  C  C120  1  0.549900  0.574300  0.783600  1.0  -0.2727
  C  C121  1  0.627000  0.539000  0.760100  1.0  -0.0156
  C  C122  1  0.679600  0.455000  0.773100  1.0  -0.0983
  C  C123  1  0.649200  0.407400  0.809400  1.0  -0.0352
  C  C124  1  0.569700  0.442500  0.832600  1.0  -0.1754
  C  C125  1  0.764000  0.415200  0.744200  1.0  0.701
  C  C126  1  0.231900  0.729700  0.840800  1.0  0.0873
  C  C127  1  0.078900  0.801500  0.853000  1.0  0.2909
  C  C128  1  0.074900  0.866500  0.819900  1.0  -0.2073
  C  C129  1  0.992200  0.925000  0.810800  1.0  -0.0431
  C  C130  1  0.918300  0.917300  0.833400  1.0  -0.0297
  C  C131  1  0.921400  0.852800  0.866500  1.0  -0.1019
  C  C132  1  0.004600  0.792600  0.877000  1.0  -0.2104
  C  C133  1  0.835900  0.982100  0.819500  1.0  0.5103
  C  C134  1  0.259600  0.568600  0.847350  1.0  0.0615
  C  C135  1  0.189300  0.534100  0.781200  1.0  0.2616
  C  C136  1  0.158000  0.564200  0.734500  1.0  -0.1147
  C  C137  1  0.106800  0.524000  0.714600  1.0  -0.0404
  C  C138  1  0.086600  0.456600  0.741200  1.0  -0.1189
  C  C139  1  0.115700  0.427500  0.788700  1.0  -0.0629
  C  C140  1  0.170500  0.470500  0.807200  1.0  -0.1929
  C  C141  1  0.023900  0.412500  0.722100  1.0  0.6844
  C  C142  1  0.173100  0.657500  0.396200  1.0  0.7267
  C  C143  1  0.209300  0.656100  0.443500  1.0  -0.1184
  C  C144  1  0.274100  0.689300  0.448800  1.0  -0.0165
  C  C145  1  0.308400  0.691400  0.492900  1.0  -0.2543
  C  C146  1  0.273700  0.656900  0.534000  1.0  0.2628
  C  C147  1  0.208800  0.618400  0.530000  1.0  -0.2131
  C  C148  1  0.176900  0.619500  0.484800  1.0  0.0044
  C  C149  1  0.361640  0.695240  0.589050  1.0  0.1041
  C  C150  1  0.358000  0.705600  0.642970  1.0  -0.0034
  C  C151  1  0.367000  0.620400  0.671110  1.0  0.1001
  C  C152  1  0.475700  0.480900  0.680000  1.0  0.3213
  C  C153  1  0.425700  0.450100  0.716400  1.0  -0.2731
  C  C154  1  0.461000  0.373000  0.739900  1.0  -0.0151
  C  C155  1  0.545000  0.320400  0.726900  1.0  -0.0967
  C  C156  1  0.592600  0.350800  0.690600  1.0  -0.0375
  C  C157  1  0.557500  0.430300  0.667400  1.0  -0.1739
  C  C158  1  0.584800  0.236000  0.755800  1.0  0.6999
  C  C159  1  0.270300  0.768100  0.659200  1.0  0.0834
  C  C160  1  0.198500  0.921100  0.647000  1.0  0.2906
  C  C161  1  0.133500  0.925100  0.680100  1.0  -0.2088
  C  C162  1  0.075000  0.007800  0.689200  1.0  -0.0407
  C  C163  1  0.082700  0.081700  0.666667  1.0  -0.0363
  C  C164  1  0.147200  0.078600  0.633500  1.0  -0.1057
  C  C165  1  0.207400  0.995400  0.623000  1.0  -0.1981
  C  C166  1  0.017900  0.164100  0.680500  1.0  0.5096
  C  C167  1  0.431400  0.740400  0.652650  1.0  0.0613
  C  C168  1  0.465900  0.810700  0.718800  1.0  0.2627
  C  C169  1  0.435800  0.842000  0.765500  1.0  -0.1143
  C  C170  1  0.476000  0.893200  0.785400  1.0  -0.0407
  C  C171  1  0.543400  0.913400  0.758800  1.0  -0.1191
  C  C172  1  0.572500  0.884300  0.711300  1.0  -0.0619
  C  C173  1  0.529500  0.829500  0.692800  1.0  -0.191
  C  C174  1  0.587500  0.976100  0.777900  1.0  0.6825
  C  C175  1  0.657500  0.173100  0.896200  1.0  0.7235
  C  C176  1  0.656100  0.209300  0.943500  1.0  -0.1178
  C  C177  1  0.689300  0.274100  0.948800  1.0  -0.0158
  C  C178  1  0.691400  0.308400  0.992900  1.0  -0.2551
  C  C179  1  0.656900  0.273700  0.034000  1.0  0.2626
  C  C180  1  0.618400  0.208800  0.030000  1.0  -0.2136
  C  C181  1  0.619500  0.176900  0.984800  1.0  0.0002
  C  C182  1  0.695240  0.361640  0.089050  1.0  0.1053
  C  C183  1  0.705600  0.358000  0.142970  1.0  -0.0034
  C  C184  1  0.620400  0.367000  0.171110  1.0  0.0983
  C  C185  1  0.480900  0.475700  0.180000  1.0  0.3228
  C  C186  1  0.450100  0.425700  0.216400  1.0  -0.2728
  C  C187  1  0.373000  0.461000  0.239900  1.0  -0.0171
  C  C188  1  0.320400  0.545000  0.226900  1.0  -0.0973
  C  C189  1  0.350800  0.592600  0.190600  1.0  -0.0334
  C  C190  1  0.430300  0.557500  0.167400  1.0  -0.1734
  C  C191  1  0.236000  0.584800  0.255800  1.0  0.6995
  C  C192  1  0.768100  0.270300  0.159200  1.0  0.0866
  C  C193  1  0.921100  0.198500  0.147000  1.0  0.2897
  C  C194  1  0.925100  0.133500  0.180100  1.0  -0.2086
  C  C195  1  0.007800  0.075000  0.189200  1.0  -0.0434
  C  C196  1  0.081700  0.082700  0.166600  1.0  -0.0307
  C  C197  1  0.078600  0.147200  0.133500  1.0  -0.1011
  C  C198  1  0.995400  0.207400  0.123000  1.0  -0.2126
  C  C199  1  0.164100  0.017900  0.180500  1.0  0.5095
  C  C200  1  0.740400  0.431400  0.152650  1.0  0.0619
  C  C201  1  0.810700  0.465900  0.218800  1.0  0.2628
  C  C202  1  0.842000  0.435800  0.265500  1.0  -0.1123
  C  C203  1  0.893200  0.476000  0.285400  1.0  -0.0401
  C  C204  1  0.913400  0.543400  0.258800  1.0  -0.1182
  C  C205  1  0.884300  0.572500  0.211300  1.0  -0.0641
  C  C206  1  0.829500  0.529500  0.192800  1.0  -0.1922
  C  C207  1  0.976100  0.587500  0.277900  1.0  0.6835
  C  C208  1  0.826900  0.342500  0.603800  1.0  0.7253
  C  C209  1  0.790700  0.343900  0.556500  1.0  -0.1182
  C  C210  1  0.725900  0.310700  0.551200  1.0  -0.016
  C  C211  1  0.691600  0.308600  0.507100  1.0  -0.2573
  C  C212  1  0.726300  0.343100  0.466000  1.0  0.262
  C  C213  1  0.791200  0.381600  0.470000  1.0  -0.2107
  C  C214  1  0.823100  0.380500  0.515200  1.0  0.0047
  C  C215  1  0.638360  0.304760  0.410950  1.0  0.1033
  C  C216  1  0.642000  0.294400  0.357030  1.0  -0.0042
  C  C217  1  0.633000  0.379600  0.328890  1.0  0.0982
  C  C218  1  0.524300  0.519100  0.320000  1.0  0.3258
  C  C219  1  0.574300  0.549900  0.283600  1.0  -0.2737
  C  C220  1  0.539000  0.627000  0.260100  1.0  -0.0133
  C  C221  1  0.455000  0.679600  0.273100  1.0  -0.0955
  C  C222  1  0.407400  0.649200  0.309400  1.0  -0.0351
  C  C223  1  0.442500  0.569700  0.332600  1.0  -0.1755
  C  C224  1  0.415200  0.764000  0.244200  1.0  0.6993
  C  C225  1  0.729700  0.231900  0.340800  1.0  0.0851
  C  C226  1  0.801500  0.078900  0.353000  1.0  0.2908
  C  C227  1  0.866500  0.074900  0.319900  1.0  -0.2089
  C  C228  1  0.925000  0.992200  0.310800  1.0  -0.0422
  C  C229  1  0.917300  0.918300  0.333400  1.0  -0.0298
  C  C230  1  0.852800  0.921400  0.366500  1.0  -0.1056
  C  C231  1  0.792600  0.004600  0.377000  1.0  -0.2138
  C  C232  1  0.982100  0.835900  0.319500  1.0  0.5112
  C  C233  1  0.568600  0.259600  0.347350  1.0  0.06
  C  C234  1  0.534100  0.189300  0.281200  1.0  0.2613
  C  C235  1  0.564200  0.158000  0.234500  1.0  -0.113
  C  C236  1  0.524000  0.106800  0.214600  1.0  -0.0407
  C  C237  1  0.456600  0.086600  0.241200  1.0  -0.1198
  C  C238  1  0.427500  0.115700  0.288700  1.0  -0.0612
  C  C239  1  0.470500  0.170500  0.307200  1.0  -0.1931
  C  C240  1  0.412500  0.023900  0.222100  1.0  0.6829
  O  O241  1  0.385360  0.878560  0.107810  1.0  -0.5858
  O  O242  1  0.296140  0.807740  0.138690  1.0  -0.6249
  O  O243  1  0.343670  0.703270  0.918990  1.0  -0.2635
  O  O244  1  0.439010  0.552610  0.844340  1.0  -0.255
  O  O245  1  0.805120  0.337920  0.753570  1.0  -0.5974
  O  O246  1  0.788640  0.461120  0.710380  1.0  -0.595
  O  O247  1  0.152000  0.737400  0.866330  1.0  -0.2511
  O  O248  1  0.769010  0.972210  0.846100  1.0  -0.6068
  O  O249  1  0.826680  0.038280  0.789540  1.0  -0.6079
  O  O250  1  0.241500  0.580100  0.795660  1.0  -0.2857
  O  O251  1  0.002000  0.358600  0.749000  1.0  -0.6228
  O  O252  1  0.998910  0.435910  0.680400  1.0  -0.583
  O  O253  1  0.121440  0.614640  0.392190  1.0  -0.5849
  O  O254  1  0.192260  0.703860  0.361310  1.0  -0.6217
  O  O255  1  0.296730  0.656330  0.581010  1.0  -0.2634
  O  O256  1  0.447390  0.560990  0.655660  1.0  -0.256
  O  O257  1  0.662080  0.194880  0.746430  1.0  -0.5981
  O  O258  1  0.538880  0.211360  0.789620  1.0  -0.5918
  O  O259  1  0.262600  0.848000  0.633670  1.0  -0.2508
  O  O260  1  0.027790  0.230990  0.653900  1.0  -0.6101
  O  O261  1  0.961720  0.173320  0.710460  1.0  -0.609
  O  O262  1  0.419900  0.758500  0.704340  1.0  -0.2875
  O  O263  1  0.641400  0.998000  0.751000  1.0  -0.626
  O  O264  1  0.564090  0.001090  0.819600  1.0  -0.5826
  O  O265  1  0.614640  0.121440  0.892190  1.0  -0.5852
  O  O266  1  0.703860  0.192260  0.861310  1.0  -0.6256
  O  O267  1  0.656330  0.296730  0.081010  1.0  -0.263
  O  O268  1  0.560990  0.447390  0.155660  1.0  -0.2532
  O  O269  1  0.194880  0.662080  0.246430  1.0  -0.5995
  O  O270  1  0.211360  0.538880  0.289620  1.0  -0.593
  O  O271  1  0.848000  0.262600  0.133670  1.0  -0.2509
  O  O272  1  0.230990  0.027790  0.153900  1.0  -0.6078
  O  O273  1  0.173320  0.961720  0.210460  1.0  -0.6077
  O  O274  1  0.758500  0.419900  0.204340  1.0  -0.2853
  O  O275  1  0.998000  0.641400  0.251000  1.0  -0.6229
  O  O276  1  0.001090  0.564090  0.319600  1.0  -0.5825
  O  O277  1  0.878560  0.385360  0.607810  1.0  -0.586
  O  O278  1  0.807740  0.296140  0.638690  1.0  -0.6237
  O  O279  1  0.703270  0.343670  0.418990  1.0  -0.2633
  O  O280  1  0.552610  0.439010  0.344340  1.0  -0.2552
  O  O281  1  0.337920  0.805120  0.253570  1.0  -0.5963
  O  O282  1  0.461120  0.788640  0.210380  1.0  -0.5948
  O  O283  1  0.737400  0.152000  0.366330  1.0  -0.2524
  O  O284  1  0.972210  0.769010  0.346100  1.0  -0.6063
  O  O285  1  0.038280  0.826680  0.289540  1.0  -0.6104
  O  O286  1  0.580100  0.241500  0.295660  1.0  -0.2863
  O  O287  1  0.358600  0.002000  0.249000  1.0  -0.6248
  O  O288  1  0.435910  0.998910  0.180400  1.0  -0.5825
