# generated using pymatgen
data_Co2H34C45(NO6)2
_symmetry_space_group_name_H-M   'P 1'
_cell_length_a   16.03460000
_cell_length_b   16.03460000
_cell_length_c   26.47100000
_cell_angle_alpha   84.31170000
_cell_angle_beta   84.31170000
_cell_angle_gamma   84.36830000
_symmetry_Int_Tables_number   1
_chemical_formula_structural   Co2H34C45(NO6)2
_chemical_formula_sum   'Co8 H136 C180 N8 O48'
_cell_volume   6712.19947612
_cell_formula_units_Z   4
loop_
 _symmetry_equiv_pos_site_id
 _symmetry_equiv_pos_as_xyz
  1  'x, y, z'
loop_
 _atom_site_type_symbol
 _atom_site_label
 _atom_site_symmetry_multiplicity
 _atom_site_fract_x
 _atom_site_fract_y
 _atom_site_fract_z
 _atom_site_occupancy
 _atom_site_charge
  Co  Co1  1  0.727220  0.321220  0.493490  1.0  0.9248
  Co  Co2  1  0.897540  0.306180  0.470330  1.0  0.9313
  Co  Co3  1  0.321220  0.727220  0.993490  1.0  0.9247
  Co  Co4  1  0.306180  0.897540  0.970330  1.0  0.9313
  Co  Co5  1  0.678780  0.272780  0.006510  1.0  0.924
  Co  Co6  1  0.693820  0.102460  0.029670  1.0  0.9293
  Co  Co7  1  0.272780  0.678780  0.506510  1.0  0.9238
  Co  Co8  1  0.102460  0.693820  0.529670  1.0  0.9296
  H  H9  1  0.678000  0.559200  0.394100  1.0  0.0971
  H  H10  1  0.675900  0.686900  0.344600  1.0  0.1222
  H  H11  1  0.925800  0.664600  0.329400  1.0  0.1214
  H  H12  1  0.927900  0.538100  0.377400  1.0  0.0998
  H  H13  1  0.697600  0.823200  0.299600  1.0  0.0729
  H  H14  1  0.714300  0.750500  0.263000  1.0  0.0562
  H  H15  1  0.646800  0.920400  0.221400  1.0  0.0751
  H  H16  1  0.708500  0.927100  0.171200  1.0  0.0671
  H  H17  1  0.600700  0.698500  0.163200  1.0  0.1332
  H  H18  1  0.494000  0.692000  0.111500  1.0  0.1046
  H  H19  1  0.469400  0.940800  0.088700  1.0  0.0998
  H  H20  1  0.574400  0.948200  0.142500  1.0  0.125
  H  H21  1  0.850600  0.914000  0.273800  1.0  0.0788
  H  H22  1  0.823500  0.973300  0.226100  1.0  0.0712
  H  H23  1  0.648300  0.052900  0.344100  1.0  0.1361
  H  H24  1  0.674400  0.158600  0.391000  1.0  0.0977
  H  H25  1  0.918200  0.132600  0.343300  1.0  0.0984
  H  H26  1  0.890300  0.030700  0.290700  1.0  0.1263
  H  H27  1  0.886600  0.796000  0.217000  1.0  0.0706
  H  H28  1  0.819500  0.768300  0.184100  1.0  0.0684
  H  H29  1  0.961500  0.732100  0.153500  1.0  0.1221
  H  H30  1  0.087200  0.710200  0.100800  1.0  0.1019
  H  H31  1  0.068700  0.950500  0.049600  1.0  0.1069
  H  H32  1  0.939800  0.970600  0.095700  1.0  0.1167
  H  H33  1  0.025800  0.393200  0.515100  1.0  0.0753
  H  H34  1  0.167700  0.390300  0.517500  1.0  0.105
  H  H35  1  0.197300  0.205900  0.426800  1.0  0.1087
  H  H36  1  0.052700  0.211500  0.427500  1.0  0.0755
  H  H37  1  0.321900  0.249900  0.455700  1.0  0.088
  H  H38  1  0.302000  0.379600  0.512100  1.0  0.0939
  H  H39  1  0.435100  0.456700  0.504800  1.0  0.1348
  H  H40  1  0.575100  0.440700  0.518100  1.0  0.1365
  H  H41  1  0.591200  0.208400  0.490500  1.0  0.0868
  H  H42  1  0.447900  0.215700  0.482100  1.0  0.1198
  H  H43  1  0.559200  0.678000  0.894100  1.0  0.0978
  H  H44  1  0.686900  0.675900  0.844600  1.0  0.1229
  H  H45  1  0.664600  0.925800  0.829400  1.0  0.1217
  H  H46  1  0.538100  0.927900  0.877400  1.0  0.1002
  H  H47  1  0.823200  0.697600  0.799600  1.0  0.0727
  H  H48  1  0.750500  0.714300  0.763000  1.0  0.0562
  H  H49  1  0.920400  0.646800  0.721400  1.0  0.0749
  H  H50  1  0.927100  0.708500  0.671200  1.0  0.0659
  H  H51  1  0.698500  0.600700  0.663200  1.0  0.1326
  H  H52  1  0.692000  0.494000  0.611500  1.0  0.1047
  H  H53  1  0.940800  0.469400  0.588700  1.0  0.0995
  H  H54  1  0.948200  0.574400  0.642500  1.0  0.1245
  H  H55  1  0.914000  0.850600  0.773800  1.0  0.0767
  H  H56  1  0.973300  0.823500  0.726100  1.0  0.0713
  H  H57  1  0.052900  0.648300  0.844100  1.0  0.1345
  H  H58  1  0.158600  0.674400  0.891000  1.0  0.0988
  H  H59  1  0.132600  0.918200  0.843300  1.0  0.0989
  H  H60  1  0.030700  0.890300  0.790700  1.0  0.1266
  H  H61  1  0.796000  0.886600  0.717000  1.0  0.0707
  H  H62  1  0.768300  0.819500  0.684100  1.0  0.0687
  H  H63  1  0.732100  0.961500  0.653500  1.0  0.1252
  H  H64  1  0.710200  0.087200  0.600800  1.0  0.1014
  H  H65  1  0.950500  0.068700  0.549600  1.0  0.1063
  H  H66  1  0.970600  0.939800  0.595700  1.0  0.1166
  H  H67  1  0.393200  0.025800  0.015100  1.0  0.0753
  H  H68  1  0.390300  0.167700  0.017500  1.0  0.1042
  H  H69  1  0.205900  0.197300  0.926800  1.0  0.1089
  H  H70  1  0.211500  0.052700  0.927500  1.0  0.0758
  H  H71  1  0.249900  0.321900  0.955700  1.0  0.0913
  H  H72  1  0.379600  0.302000  0.012100  1.0  0.095
  H  H73  1  0.456700  0.435100  0.004800  1.0  0.1354
  H  H74  1  0.440700  0.575100  0.018100  1.0  0.1374
  H  H75  1  0.208400  0.591200  0.990500  1.0  0.0861
  H  H76  1  0.215700  0.447900  0.982100  1.0  0.1182
  H  H77  1  0.440800  0.322000  0.105900  1.0  0.0978
  H  H78  1  0.313100  0.324100  0.155400  1.0  0.1223
  H  H79  1  0.335400  0.074200  0.170600  1.0  0.1214
  H  H80  1  0.461900  0.072100  0.122600  1.0  0.1004
  H  H81  1  0.176800  0.302400  0.200400  1.0  0.0727
  H  H82  1  0.249500  0.285700  0.237000  1.0  0.0563
  H  H83  1  0.079600  0.353200  0.278600  1.0  0.0737
  H  H84  1  0.072900  0.291500  0.328800  1.0  0.0667
  H  H85  1  0.301500  0.399300  0.336800  1.0  0.1326
  H  H86  1  0.308000  0.506000  0.388500  1.0  0.1046
  H  H87  1  0.059200  0.530600  0.411300  1.0  0.0986
  H  H88  1  0.051800  0.425600  0.357500  1.0  0.1243
  H  H89  1  0.086000  0.149400  0.226200  1.0  0.0781
  H  H90  1  0.026700  0.176500  0.273900  1.0  0.072
  H  H91  1  0.947100  0.351700  0.155900  1.0  0.1343
  H  H92  1  0.841400  0.325600  0.109000  1.0  0.0987
  H  H93  1  0.867400  0.081800  0.156700  1.0  0.0978
  H  H94  1  0.969300  0.109700  0.209300  1.0  0.1264
  H  H95  1  0.204000  0.113400  0.283000  1.0  0.0712
  H  H96  1  0.231700  0.180500  0.315900  1.0  0.0669
  H  H97  1  0.267900  0.038500  0.346500  1.0  0.1251
  H  H98  1  0.289800  0.912800  0.399200  1.0  0.1013
  H  H99  1  0.049500  0.931300  0.450400  1.0  0.1067
  H  H100  1  0.029400  0.060200  0.404300  1.0  0.116
  H  H101  1  0.606800  0.974200  0.984900  1.0  0.0747
  H  H102  1  0.609700  0.832300  0.982500  1.0  0.1046
  H  H103  1  0.794100  0.802700  0.073200  1.0  0.1087
  H  H104  1  0.788500  0.947300  0.072500  1.0  0.076
  H  H105  1  0.750100  0.678100  0.044300  1.0  0.0889
  H  H106  1  0.620400  0.698000  0.987900  1.0  0.0952
  H  H107  1  0.543300  0.564900  0.995200  1.0  0.1315
  H  H108  1  0.559300  0.424900  0.981900  1.0  0.1363
  H  H109  1  0.791600  0.408800  0.009500  1.0  0.0859
  H  H110  1  0.784300  0.552100  0.017900  1.0  0.1189
  H  H111  1  0.322000  0.440800  0.605900  1.0  0.0964
  H  H112  1  0.324100  0.313100  0.655400  1.0  0.1227
  H  H113  1  0.074200  0.335400  0.670600  1.0  0.1216
  H  H114  1  0.072100  0.461900  0.622600  1.0  0.0993
  H  H115  1  0.302400  0.176800  0.700400  1.0  0.0742
  H  H116  1  0.285700  0.249500  0.737000  1.0  0.0554
  H  H117  1  0.353200  0.079600  0.778600  1.0  0.0749
  H  H118  1  0.291500  0.072900  0.828800  1.0  0.0677
  H  H119  1  0.399300  0.301500  0.836800  1.0  0.1333
  H  H120  1  0.506000  0.308000  0.888500  1.0  0.1041
  H  H121  1  0.530600  0.059200  0.911300  1.0  0.0989
  H  H122  1  0.425600  0.051800  0.857500  1.0  0.1254
  H  H123  1  0.149400  0.086000  0.726200  1.0  0.0783
  H  H124  1  0.176500  0.026700  0.773900  1.0  0.0711
  H  H125  1  0.351700  0.947100  0.655900  1.0  0.1334
  H  H126  1  0.325600  0.841400  0.609000  1.0  0.0979
  H  H127  1  0.081800  0.867400  0.656700  1.0  0.0984
  H  H128  1  0.109700  0.969300  0.709300  1.0  0.1259
  H  H129  1  0.113400  0.204000  0.783000  1.0  0.0707
  H  H130  1  0.180500  0.231700  0.815900  1.0  0.0691
  H  H131  1  0.038500  0.267900  0.846500  1.0  0.1236
  H  H132  1  0.912800  0.289800  0.899200  1.0  0.1022
  H  H133  1  0.931300  0.049500  0.950400  1.0  0.1065
  H  H134  1  0.060200  0.029400  0.904300  1.0  0.117
  H  H135  1  0.974200  0.606800  0.484900  1.0  0.0752
  H  H136  1  0.832300  0.609700  0.482500  1.0  0.1054
  H  H137  1  0.802700  0.794100  0.573200  1.0  0.1086
  H  H138  1  0.947300  0.788500  0.572500  1.0  0.0756
  H  H139  1  0.678100  0.750100  0.544300  1.0  0.0884
  H  H140  1  0.698000  0.620400  0.487900  1.0  0.0945
  H  H141  1  0.564900  0.543300  0.495200  1.0  0.1333
  H  H142  1  0.424900  0.559300  0.481900  1.0  0.1356
  H  H143  1  0.408800  0.791600  0.509500  1.0  0.087
  H  H144  1  0.552100  0.784300  0.517900  1.0  0.1192
  C  C145  1  0.806120  0.453040  0.422860  1.0  0.6776
  C  C146  1  0.803410  0.534790  0.390450  1.0  -0.1605
  C  C147  1  0.728360  0.580120  0.380640  1.0  -0.0025
  C  C148  1  0.726860  0.656680  0.350930  1.0  -0.2732
  C  C149  1  0.801090  0.687290  0.331000  1.0  0.2763
  C  C150  1  0.875220  0.643020  0.341890  1.0  -0.1855
  C  C151  1  0.876510  0.567550  0.370880  1.0  -0.0406
  C  C152  1  0.739500  0.795480  0.276290  1.0  0.0696
  C  C153  1  0.767780  0.858400  0.232690  1.0  -0.0438
  C  C154  1  0.690930  0.890230  0.200810  1.0  0.0763
  C  C155  1  0.597940  0.824140  0.156370  1.0  0.3168
  C  C156  1  0.574350  0.747630  0.148100  1.0  -0.2804
  C  C157  1  0.510610  0.744110  0.116940  1.0  0.0035
  C  C158  1  0.471620  0.815500  0.094100  1.0  -0.0921
  C  C159  1  0.495640  0.891460  0.103660  1.0  -0.0214
  C  C160  1  0.559180  0.896180  0.135630  1.0  -0.2648
  C  C161  1  0.408810  0.810270  0.056600  1.0  0.6708
  C  C162  1  0.803610  0.934330  0.254090  1.0  0.0739
  C  C163  1  0.766570  0.035570  0.312070  1.0  0.253
  C  C164  1  0.702130  0.070530  0.342720  1.0  -0.2584
  C  C165  1  0.718570  0.132370  0.371310  1.0  -0.0144
  C  C166  1  0.799050  0.157550  0.372030  1.0  -0.1035
  C  C167  1  0.863480  0.118380  0.342660  1.0  -0.0559
  C  C168  1  0.847050  0.056510  0.311350  1.0  -0.2288
  C  C169  1  0.814630  0.220310  0.407520  1.0  0.6699
  C  C170  1  0.839250  0.816190  0.197560  1.0  0.0679
  C  C171  1  0.939260  0.854260  0.129210  1.0  0.3243
  C  C172  1  0.982210  0.776010  0.131790  1.0  -0.2206
  C  C173  1  0.058830  0.763610  0.100700  1.0  -0.0474
  C  C174  1  0.091330  0.828530  0.070830  1.0  -0.1518
  C  C175  1  0.046910  0.905510  0.069770  1.0  -0.0175
  C  C176  1  0.970090  0.918070  0.098130  1.0  -0.2481
  C  C177  1  0.174940  0.816540  0.040730  1.0  0.6871
  C  C178  1  0.060500  0.353960  0.497300  1.0  0.1818
  C  C179  1  0.146050  0.352450  0.498880  1.0  -0.1925
  C  C180  1  0.200190  0.295490  0.473280  1.0  0.0928
  C  C181  1  0.163670  0.244190  0.445900  1.0  -0.1879
  C  C182  1  0.075940  0.248320  0.446090  1.0  0.1676
  C  C183  1  0.291160  0.291880  0.473250  1.0  -0.0901
  C  C184  1  0.332900  0.338500  0.493950  1.0  -0.1458
  C  C185  1  0.425100  0.336300  0.493200  1.0  0.091
  C  C186  1  0.465600  0.404800  0.502000  1.0  -0.1483
  C  C187  1  0.550200  0.396800  0.506700  1.0  0.0442
  C  C188  1  0.559400  0.260200  0.491200  1.0  0.1511
  C  C189  1  0.472600  0.263600  0.487900  1.0  -0.1858
  C  C190  1  0.453040  0.806120  0.922860  1.0  0.6785
  C  C191  1  0.534790  0.803410  0.890450  1.0  -0.1599
  C  C192  1  0.580120  0.728360  0.880640  1.0  -0.0108
  C  C193  1  0.656680  0.726860  0.850930  1.0  -0.2775
  C  C194  1  0.687290  0.801090  0.831000  1.0  0.2761
  C  C195  1  0.643020  0.875220  0.841890  1.0  -0.1883
  C  C196  1  0.567550  0.876510  0.870880  1.0  -0.0424
  C  C197  1  0.795480  0.739500  0.776290  1.0  0.0696
  C  C198  1  0.858400  0.767780  0.732690  1.0  -0.0435
  C  C199  1  0.890230  0.690930  0.700810  1.0  0.0755
  C  C200  1  0.824140  0.597940  0.656370  1.0  0.3157
  C  C201  1  0.747630  0.574350  0.648100  1.0  -0.2798
  C  C202  1  0.744110  0.510610  0.616940  1.0  0.0082
  C  C203  1  0.815500  0.471620  0.594100  1.0  -0.0934
  C  C204  1  0.891460  0.495640  0.603660  1.0  -0.0201
  C  C205  1  0.896180  0.559180  0.635630  1.0  -0.2674
  C  C206  1  0.810270  0.408810  0.556600  1.0  0.6679
  C  C207  1  0.934330  0.803610  0.754090  1.0  0.0737
  C  C208  1  0.035570  0.766570  0.812070  1.0  0.2505
  C  C209  1  0.070530  0.702130  0.842720  1.0  -0.2605
  C  C210  1  0.132370  0.718570  0.871310  1.0  -0.0172
  C  C211  1  0.157550  0.799050  0.872030  1.0  -0.104
  C  C212  1  0.118380  0.863480  0.842660  1.0  -0.0562
  C  C213  1  0.056510  0.847050  0.811350  1.0  -0.2289
  C  C214  1  0.220310  0.814630  0.907520  1.0  0.6681
  C  C215  1  0.816190  0.839250  0.697560  1.0  0.0683
  C  C216  1  0.854260  0.939260  0.629210  1.0  0.3227
  C  C217  1  0.776010  0.982210  0.631790  1.0  -0.222
  C  C218  1  0.763610  0.058830  0.600700  1.0  -0.0471
  C  C219  1  0.828530  0.091330  0.570830  1.0  -0.1532
  C  C220  1  0.905510  0.046910  0.569770  1.0  -0.0162
  C  C221  1  0.918070  0.970090  0.598130  1.0  -0.2486
  C  C222  1  0.816540  0.174940  0.540730  1.0  0.688
  C  C223  1  0.353960  0.060500  0.997300  1.0  0.1835
  C  C224  1  0.352450  0.146050  0.998880  1.0  -0.1919
  C  C225  1  0.295490  0.200190  0.973280  1.0  0.0923
  C  C226  1  0.244190  0.163670  0.945900  1.0  -0.1855
  C  C227  1  0.248320  0.075940  0.946090  1.0  0.1681
  C  C228  1  0.291880  0.291160  0.973250  1.0  -0.0934
  C  C229  1  0.338500  0.332900  0.993950  1.0  -0.1437
  C  C230  1  0.336300  0.425100  0.993200  1.0  0.0901
  C  C231  1  0.404800  0.465600  0.002000  1.0  -0.1463
  C  C232  1  0.396800  0.550200  0.006700  1.0  0.0414
  C  C233  1  0.260200  0.559400  0.991200  1.0  0.1537
  C  C234  1  0.263600  0.472600  0.987900  1.0  -0.1823
  C  C235  1  0.546960  0.193880  0.077140  1.0  0.6761
  C  C236  1  0.465210  0.196590  0.109550  1.0  -0.1587
  C  C237  1  0.419880  0.271640  0.119360  1.0  -0.0106
  C  C238  1  0.343320  0.273140  0.149070  1.0  -0.2777
  C  C239  1  0.312710  0.198910  0.169000  1.0  0.2767
  C  C240  1  0.356980  0.124780  0.158110  1.0  -0.1877
  C  C241  1  0.432450  0.123490  0.129120  1.0  -0.0409
  C  C242  1  0.204520  0.260500  0.223710  1.0  0.0669
  C  C243  1  0.141600  0.232220  0.267310  1.0  -0.0448
  C  C244  1  0.109770  0.309070  0.299190  1.0  0.0743
  C  C245  1  0.175860  0.402060  0.343630  1.0  0.3155
  C  C246  1  0.252370  0.425650  0.351900  1.0  -0.279
  C  C247  1  0.255890  0.489390  0.383060  1.0  0.0093
  C  C248  1  0.184500  0.528380  0.405900  1.0  -0.0945
  C  C249  1  0.108540  0.504360  0.396340  1.0  -0.0209
  C  C250  1  0.103820  0.440820  0.364370  1.0  -0.2674
  C  C251  1  0.189730  0.591190  0.443400  1.0  0.6702
  C  C252  1  0.065670  0.196390  0.245910  1.0  0.073
  C  C253  1  0.964430  0.233430  0.187930  1.0  0.25
  C  C254  1  0.929470  0.297870  0.157280  1.0  -0.2581
  C  C255  1  0.867630  0.281430  0.128690  1.0  -0.0194
  C  C256  1  0.842450  0.200950  0.127970  1.0  -0.103
  C  C257  1  0.881620  0.136520  0.157340  1.0  -0.0561
  C  C258  1  0.943490  0.152950  0.188650  1.0  -0.2296
  C  C259  1  0.779690  0.185370  0.092480  1.0  0.6681
  C  C260  1  0.183810  0.160750  0.302440  1.0  0.0684
  C  C261  1  0.145740  0.060740  0.370790  1.0  0.3236
  C  C262  1  0.223990  0.017790  0.368210  1.0  -0.2196
  C  C263  1  0.236390  0.941170  0.399300  1.0  -0.0456
  C  C264  1  0.171470  0.908670  0.429170  1.0  -0.1521
  C  C265  1  0.094490  0.953090  0.430230  1.0  -0.0157
  C  C266  1  0.081930  0.029910  0.401870  1.0  -0.2494
  C  C267  1  0.183460  0.825060  0.459270  1.0  0.6887
  C  C268  1  0.646040  0.939500  0.002700  1.0  0.183
  C  C269  1  0.647550  0.853950  0.001120  1.0  -0.1907
  C  C270  1  0.704510  0.799810  0.026720  1.0  0.0908
  C  C271  1  0.755810  0.836330  0.054100  1.0  -0.1855
  C  C272  1  0.751680  0.924060  0.053910  1.0  0.17
  C  C273  1  0.708120  0.708840  0.026750  1.0  -0.0915
  C  C274  1  0.661500  0.667100  0.006050  1.0  -0.1447
  C  C275  1  0.663700  0.574900  0.006800  1.0  0.0921
  C  C276  1  0.595200  0.534400  0.998000  1.0  -0.1452
  C  C277  1  0.603200  0.449800  0.993300  1.0  0.0431
  C  C278  1  0.739800  0.440600  0.008800  1.0  0.1548
  C  C279  1  0.736400  0.527400  0.012100  1.0  -0.1793
  C  C280  1  0.193880  0.546960  0.577140  1.0  0.6773
  C  C281  1  0.196590  0.465210  0.609550  1.0  -0.1571
  C  C282  1  0.271640  0.419880  0.619360  1.0  -0.0046
  C  C283  1  0.273140  0.343320  0.649070  1.0  -0.2746
  C  C284  1  0.198910  0.312710  0.669000  1.0  0.2766
  C  C285  1  0.124780  0.356980  0.658110  1.0  -0.1847
  C  C286  1  0.123490  0.432450  0.629120  1.0  -0.0409
  C  C287  1  0.260500  0.204520  0.723710  1.0  0.069
  C  C288  1  0.232220  0.141600  0.767310  1.0  -0.045
  C  C289  1  0.309070  0.109770  0.799190  1.0  0.0734
  C  C290  1  0.402060  0.175860  0.843630  1.0  0.3166
  C  C291  1  0.425650  0.252370  0.851900  1.0  -0.2776
  C  C292  1  0.489390  0.255890  0.883060  1.0  0.0009
  C  C293  1  0.528380  0.184500  0.905900  1.0  -0.0943
  C  C294  1  0.504360  0.108540  0.896340  1.0  -0.0192
  C  C295  1  0.440820  0.103820  0.864370  1.0  -0.2631
  C  C296  1  0.591190  0.189730  0.943400  1.0  0.6712
  C  C297  1  0.196390  0.065670  0.745910  1.0  0.0741
  C  C298  1  0.233430  0.964430  0.687930  1.0  0.2524
  C  C299  1  0.297870  0.929470  0.657280  1.0  -0.2549
  C  C300  1  0.281430  0.867630  0.628690  1.0  -0.0154
  C  C301  1  0.200950  0.842450  0.627970  1.0  -0.1041
  C  C302  1  0.136520  0.881620  0.657340  1.0  -0.0549
  C  C303  1  0.152950  0.943490  0.688650  1.0  -0.2284
  C  C304  1  0.185370  0.779690  0.592480  1.0  0.6688
  C  C305  1  0.160750  0.183810  0.802440  1.0  0.0686
  C  C306  1  0.060740  0.145740  0.870790  1.0  0.3235
  C  C307  1  0.017790  0.223990  0.868210  1.0  -0.2219
  C  C308  1  0.941170  0.236390  0.899300  1.0  -0.0468
  C  C309  1  0.908670  0.171470  0.929170  1.0  -0.1514
  C  C310  1  0.953090  0.094490  0.930230  1.0  -0.017
  C  C311  1  0.029910  0.081930  0.901870  1.0  -0.2476
  C  C312  1  0.825060  0.183460  0.959270  1.0  0.6876
  C  C313  1  0.939500  0.646040  0.502700  1.0  0.1818
  C  C314  1  0.853950  0.647550  0.501120  1.0  -0.1934
  C  C315  1  0.799810  0.704510  0.526720  1.0  0.0953
  C  C316  1  0.836330  0.755810  0.554100  1.0  -0.1871
  C  C317  1  0.924060  0.751680  0.553910  1.0  0.1685
  C  C318  1  0.708840  0.708120  0.526750  1.0  -0.0921
  C  C319  1  0.667100  0.661500  0.506050  1.0  -0.1451
  C  C320  1  0.574900  0.663700  0.506800  1.0  0.0908
  C  C321  1  0.534400  0.595200  0.498000  1.0  -0.1477
  C  C322  1  0.449800  0.603200  0.493300  1.0  0.0431
  C  C323  1  0.440600  0.739800  0.508800  1.0  0.152
  C  C324  1  0.527400  0.736400  0.512100  1.0  -0.1835
  N  N325  1  0.597000  0.327000  0.495000  1.0  -0.3053
  N  N326  1  0.025130  0.302090  0.471470  1.0  -0.3222
  N  N327  1  0.327000  0.597000  0.995000  1.0  -0.3108
  N  N328  1  0.302090  0.025130  0.971470  1.0  -0.3241
  N  N329  1  0.673000  0.403000  0.005000  1.0  -0.3103
  N  N330  1  0.697910  0.974870  0.028530  1.0  -0.3246
  N  N331  1  0.403000  0.673000  0.505000  1.0  -0.304
  N  N332  1  0.974870  0.697910  0.528530  1.0  -0.3217
  O  O333  1  0.737180  0.428760  0.443810  1.0  -0.593
  O  O334  1  0.877110  0.414190  0.427200  1.0  -0.5682
  O  O335  1  0.808520  0.762380  0.301980  1.0  -0.2734
  O  O336  1  0.663520  0.817580  0.186380  1.0  -0.2659
  O  O337  1  0.391140  0.736980  0.050140  1.0  -0.5983
  O  O338  1  0.378870  0.876210  0.033680  1.0  -0.5909
  O  O339  1  0.741040  0.974000  0.284240  1.0  -0.2929
  O  O340  1  0.889200  0.235160  0.411670  1.0  -0.5872
  O  O341  1  0.750630  0.252410  0.433080  1.0  -0.6379
  O  O342  1  0.864530  0.874030  0.157700  1.0  -0.264
  O  O343  1  0.211420  0.744220  0.038620  1.0  -0.5795
  O  O344  1  0.202840  0.882680  0.017990  1.0  -0.599
  O  O345  1  0.428760  0.737180  0.943810  1.0  -0.5931
  O  O346  1  0.414190  0.877110  0.927200  1.0  -0.5693
  O  O347  1  0.762380  0.808520  0.801980  1.0  -0.2718
  O  O348  1  0.817580  0.663520  0.686380  1.0  -0.2683
  O  O349  1  0.736980  0.391140  0.550140  1.0  -0.596
  O  O350  1  0.876210  0.378870  0.533680  1.0  -0.5906
  O  O351  1  0.974000  0.741040  0.784240  1.0  -0.2913
  O  O352  1  0.235160  0.889200  0.911670  1.0  -0.5869
  O  O353  1  0.252410  0.750630  0.933080  1.0  -0.6396
  O  O354  1  0.874030  0.864530  0.657700  1.0  -0.2624
  O  O355  1  0.744220  0.211420  0.538620  1.0  -0.5773
  O  O356  1  0.882680  0.202840  0.517990  1.0  -0.598
  O  O357  1  0.571240  0.262820  0.056190  1.0  -0.5936
  O  O358  1  0.585810  0.122890  0.072800  1.0  -0.5691
  O  O359  1  0.237620  0.191480  0.198020  1.0  -0.2729
  O  O360  1  0.182420  0.336480  0.313620  1.0  -0.2666
  O  O361  1  0.263020  0.608860  0.449860  1.0  -0.5965
  O  O362  1  0.123790  0.621130  0.466320  1.0  -0.5904
  O  O363  1  0.026000  0.258960  0.215760  1.0  -0.2899
  O  O364  1  0.764840  0.110800  0.088330  1.0  -0.5848
  O  O365  1  0.747590  0.249370  0.066920  1.0  -0.6389
  O  O366  1  0.125970  0.135470  0.342300  1.0  -0.2623
  O  O367  1  0.255780  0.788580  0.461380  1.0  -0.5759
  O  O368  1  0.117320  0.797160  0.482010  1.0  -0.5972
  O  O369  1  0.262820  0.571240  0.556190  1.0  -0.5929
  O  O370  1  0.122890  0.585810  0.572800  1.0  -0.5682
  O  O371  1  0.191480  0.237620  0.698020  1.0  -0.2722
  O  O372  1  0.336480  0.182420  0.813620  1.0  -0.2638
  O  O373  1  0.608860  0.263020  0.949860  1.0  -0.5975
  O  O374  1  0.621130  0.123790  0.966320  1.0  -0.5912
  O  O375  1  0.258960  0.026000  0.715760  1.0  -0.2907
  O  O376  1  0.110800  0.764840  0.588330  1.0  -0.5864
  O  O377  1  0.249370  0.747590  0.566920  1.0  -0.6375
  O  O378  1  0.135470  0.125970  0.842300  1.0  -0.2648
  O  O379  1  0.788580  0.255780  0.961380  1.0  -0.5798
  O  O380  1  0.797160  0.117320  0.982010  1.0  -0.598
