# generated using pymatgen
data_Mn3Mo4(PO7)4
_symmetry_space_group_name_H-M   'P 1'
_cell_length_a   17.24700000
_cell_length_b   17.24700000
_cell_length_c   10.83170000
_cell_angle_alpha   90.00000000
_cell_angle_beta   90.00000000
_cell_angle_gamma   90.00000000
_symmetry_Int_Tables_number   1
_chemical_formula_structural   Mn3Mo4(PO7)4
_chemical_formula_sum   'Mn12 Mo16 P16 O112'
_cell_volume   3221.98674779
_cell_formula_units_Z   4
loop_
 _symmetry_equiv_pos_site_id
 _symmetry_equiv_pos_as_xyz
  1  'x, y, z'
loop_
 _atom_site_type_symbol
 _atom_site_label
 _atom_site_symmetry_multiplicity
 _atom_site_fract_x
 _atom_site_fract_y
 _atom_site_fract_z
 _atom_site_occupancy
 _atom_site_charge
  Mn  Mn1  1  0.500000  0.250000  0.875000  1.0  1.098
  Mn  Mn2  1  0.000000  0.750000  0.375000  1.0  1.098
  Mn  Mn3  1  0.500000  0.750000  0.125000  1.0  1.098
  Mn  Mn4  1  0.000000  0.250000  0.625000  1.0  1.098
  Mn  Mn5  1  0.750000  0.250000  0.250000  1.0  1.139
  Mn  Mn6  1  0.750000  0.750000  0.750000  1.0  1.139
  Mn  Mn7  1  0.500000  0.000000  0.500000  1.0  1.1399
  Mn  Mn8  1  0.000000  0.500000  0.000000  1.0  1.1399
  Mn  Mn9  1  0.000000  0.000000  0.000000  1.0  1.1399
  Mn  Mn10  1  0.500000  0.500000  0.500000  1.0  1.1399
  Mn  Mn11  1  0.250000  0.750000  0.750000  1.0  1.139
  Mn  Mn12  1  0.250000  0.250000  0.250000  1.0  1.139
  Mo  Mo13  1  0.808360  0.411750  0.058600  1.0  2.167
  Mo  Mo14  1  0.308360  0.911750  0.558600  1.0  2.167
  Mo  Mo15  1  0.691640  0.588250  0.558600  1.0  2.1675
  Mo  Mo16  1  0.191640  0.088250  0.058600  1.0  2.1675
  Mo  Mo17  1  0.338250  0.058360  0.308600  1.0  2.1645
  Mo  Mo18  1  0.838250  0.558360  0.808600  1.0  2.1645
  Mo  Mo19  1  0.161750  0.941640  0.808600  1.0  2.1674
  Mo  Mo20  1  0.661750  0.441640  0.308600  1.0  2.1674
  Mo  Mo21  1  0.191640  0.588250  0.941400  1.0  2.1683
  Mo  Mo22  1  0.691640  0.088250  0.441400  1.0  2.1683
  Mo  Mo23  1  0.308360  0.411750  0.441400  1.0  2.1676
  Mo  Mo24  1  0.808360  0.911750  0.941400  1.0  2.1676
  Mo  Mo25  1  0.661750  0.941640  0.691400  1.0  2.1681
  Mo  Mo26  1  0.161750  0.441640  0.191400  1.0  2.1681
  Mo  Mo27  1  0.838250  0.058360  0.191400  1.0  2.1651
  Mo  Mo28  1  0.338250  0.558360  0.691400  1.0  2.1651
  P  P29  1  0.634100  0.335500  0.053500  1.0  1.7769
  P  P30  1  0.134100  0.835500  0.553500  1.0  1.7769
  P  P31  1  0.865900  0.664500  0.553500  1.0  1.778
  P  P32  1  0.365900  0.164500  0.053500  1.0  1.778
  P  P33  1  0.414500  0.884100  0.303500  1.0  1.7785
  P  P34  1  0.914500  0.384100  0.803500  1.0  1.7785
  P  P35  1  0.085500  0.115900  0.803500  1.0  1.7788
  P  P36  1  0.585500  0.615900  0.303500  1.0  1.7788
  P  P37  1  0.365900  0.664500  0.946500  1.0  1.7777
  P  P38  1  0.865900  0.164500  0.446500  1.0  1.7777
  P  P39  1  0.134100  0.335500  0.446500  1.0  1.7771
  P  P40  1  0.634100  0.835500  0.946500  1.0  1.7771
  P  P41  1  0.585500  0.115900  0.696500  1.0  1.7783
  P  P42  1  0.085500  0.615900  0.196500  1.0  1.7783
  P  P43  1  0.914500  0.884100  0.196500  1.0  1.7788
  P  P44  1  0.414500  0.384100  0.696500  1.0  1.7788
  O  O45  1  0.703100  0.369500  0.978400  1.0  -0.6736
  O  O46  1  0.658300  0.259600  0.115900  1.0  -0.6722
  O  O47  1  0.566100  0.326000  0.966100  1.0  -0.7081
  O  O48  1  0.608200  0.396500  0.150200  1.0  -0.6913
  O  O49  1  0.750400  0.464600  0.169700  1.0  -0.7099
  O  O50  1  0.897400  0.457500  0.085200  1.0  -0.6802
  O  O51  1  0.820900  0.324600  0.140500  1.0  -0.6478
  O  O52  1  0.203100  0.869500  0.478400  1.0  -0.6736
  O  O53  1  0.158300  0.759600  0.615900  1.0  -0.6722
  O  O54  1  0.066100  0.826000  0.466100  1.0  -0.7081
  O  O55  1  0.108200  0.896500  0.650200  1.0  -0.6913
  O  O56  1  0.250400  0.964600  0.669700  1.0  -0.7099
  O  O57  1  0.397400  0.957500  0.585200  1.0  -0.6802
  O  O58  1  0.320900  0.824600  0.640500  1.0  -0.6478
  O  O59  1  0.796900  0.630500  0.478400  1.0  -0.675
  O  O60  1  0.841700  0.740400  0.615900  1.0  -0.6719
  O  O61  1  0.933900  0.674000  0.466100  1.0  -0.7108
  O  O62  1  0.891800  0.603500  0.650200  1.0  -0.6919
  O  O63  1  0.749600  0.535400  0.669700  1.0  -0.71
  O  O64  1  0.602600  0.542500  0.585200  1.0  -0.6816
  O  O65  1  0.679100  0.675400  0.640500  1.0  -0.6492
  O  O66  1  0.296900  0.130500  0.978400  1.0  -0.675
  O  O67  1  0.341700  0.240400  0.115900  1.0  -0.6719
  O  O68  1  0.433900  0.174000  0.966100  1.0  -0.7108
  O  O69  1  0.391800  0.103500  0.150200  1.0  -0.6919
  O  O70  1  0.249600  0.035400  0.169700  1.0  -0.71
  O  O71  1  0.102600  0.042500  0.085200  1.0  -0.6816
  O  O72  1  0.179100  0.175400  0.140500  1.0  -0.6492
  O  O73  1  0.380500  0.953100  0.228400  1.0  -0.6746
  O  O74  1  0.490400  0.908300  0.365900  1.0  -0.6719
  O  O75  1  0.424000  0.816100  0.216100  1.0  -0.711
  O  O76  1  0.353500  0.858200  0.400200  1.0  -0.6924
  O  O77  1  0.285400  0.000400  0.419700  1.0  -0.7078
  O  O78  1  0.292500  0.147400  0.335200  1.0  -0.6827
  O  O79  1  0.425400  0.070900  0.390500  1.0  -0.6502
  O  O80  1  0.880500  0.453100  0.728400  1.0  -0.6746
  O  O81  1  0.990400  0.408300  0.865900  1.0  -0.6719
  O  O82  1  0.924000  0.316100  0.716100  1.0  -0.711
  O  O83  1  0.853500  0.358200  0.900200  1.0  -0.6924
  O  O84  1  0.785400  0.500400  0.919700  1.0  -0.7078
  O  O85  1  0.792500  0.647400  0.835200  1.0  -0.6827
  O  O86  1  0.925400  0.570900  0.890500  1.0  -0.6502
  O  O87  1  0.119500  0.046900  0.728400  1.0  -0.675
  O  O88  1  0.009600  0.091700  0.865900  1.0  -0.6709
  O  O89  1  0.076000  0.183900  0.716100  1.0  -0.7111
  O  O90  1  0.146500  0.141800  0.900200  1.0  -0.6911
  O  O91  1  0.214600  0.999600  0.919700  1.0  -0.7075
  O  O92  1  0.207500  0.852600  0.835200  1.0  -0.6827
  O  O93  1  0.074600  0.929100  0.890500  1.0  -0.6503
  O  O94  1  0.619500  0.546900  0.228400  1.0  -0.675
  O  O95  1  0.509600  0.591700  0.365900  1.0  -0.6709
  O  O96  1  0.576000  0.683900  0.216100  1.0  -0.7111
  O  O97  1  0.646500  0.641800  0.400200  1.0  -0.6911
  O  O98  1  0.714600  0.499600  0.419700  1.0  -0.7075
  O  O99  1  0.707500  0.352600  0.335200  1.0  -0.6827
  O  O100  1  0.574600  0.429100  0.390500  1.0  -0.6503
  O  O101  1  0.296900  0.630500  0.021600  1.0  -0.6746
  O  O102  1  0.341700  0.740400  0.884100  1.0  -0.6717
  O  O103  1  0.433900  0.674000  0.033900  1.0  -0.7103
  O  O104  1  0.391800  0.603500  0.849800  1.0  -0.6914
  O  O105  1  0.249600  0.535400  0.830300  1.0  -0.7094
  O  O106  1  0.102600  0.542500  0.914800  1.0  -0.6846
  O  O107  1  0.179100  0.675400  0.859500  1.0  -0.6489
  O  O108  1  0.796900  0.130500  0.521600  1.0  -0.6746
  O  O109  1  0.841700  0.240400  0.384100  1.0  -0.6717
  O  O110  1  0.933900  0.174000  0.533900  1.0  -0.7103
  O  O111  1  0.891800  0.103500  0.349800  1.0  -0.6914
  O  O112  1  0.749600  0.035400  0.330300  1.0  -0.7094
  O  O113  1  0.602600  0.042500  0.414800  1.0  -0.6846
  O  O114  1  0.679100  0.175400  0.359500  1.0  -0.6489
  O  O115  1  0.203100  0.369500  0.521600  1.0  -0.6741
  O  O116  1  0.158300  0.259600  0.384100  1.0  -0.6716
  O  O117  1  0.066100  0.326000  0.533900  1.0  -0.7105
  O  O118  1  0.108200  0.396500  0.349800  1.0  -0.6909
  O  O119  1  0.250400  0.464600  0.330300  1.0  -0.7094
  O  O120  1  0.397400  0.457500  0.414800  1.0  -0.6841
  O  O121  1  0.320900  0.324600  0.359500  1.0  -0.6475
  O  O122  1  0.703100  0.869500  0.021600  1.0  -0.6741
  O  O123  1  0.658300  0.759600  0.884100  1.0  -0.6716
  O  O124  1  0.566100  0.826000  0.033900  1.0  -0.7105
  O  O125  1  0.608200  0.896500  0.849800  1.0  -0.6909
  O  O126  1  0.750400  0.964600  0.830300  1.0  -0.7094
  O  O127  1  0.897400  0.957500  0.914800  1.0  -0.6841
  O  O128  1  0.820900  0.824600  0.859500  1.0  -0.6475
  O  O129  1  0.619500  0.046900  0.771600  1.0  -0.6751
  O  O130  1  0.509600  0.091700  0.634100  1.0  -0.6705
  O  O131  1  0.576000  0.183900  0.783900  1.0  -0.7114
  O  O132  1  0.646500  0.141800  0.599800  1.0  -0.6911
  O  O133  1  0.714600  0.999600  0.580300  1.0  -0.7068
  O  O134  1  0.707500  0.852600  0.664800  1.0  -0.6858
  O  O135  1  0.574600  0.929100  0.609500  1.0  -0.6499
  O  O136  1  0.119500  0.546900  0.271600  1.0  -0.6751
  O  O137  1  0.009600  0.591700  0.134100  1.0  -0.6705
  O  O138  1  0.076000  0.683900  0.283900  1.0  -0.7114
  O  O139  1  0.146500  0.641800  0.099800  1.0  -0.6911
  O  O140  1  0.214600  0.499600  0.080300  1.0  -0.7068
  O  O141  1  0.207500  0.352600  0.164800  1.0  -0.6858
  O  O142  1  0.074600  0.429100  0.109500  1.0  -0.6499
  O  O143  1  0.880500  0.953100  0.271600  1.0  -0.6742
  O  O144  1  0.990400  0.908300  0.134100  1.0  -0.6715
  O  O145  1  0.924000  0.816100  0.283900  1.0  -0.7109
  O  O146  1  0.853500  0.858200  0.099800  1.0  -0.6918
  O  O147  1  0.785400  0.000400  0.080300  1.0  -0.7072
  O  O148  1  0.792500  0.147400  0.164800  1.0  -0.6859
  O  O149  1  0.925400  0.070900  0.109500  1.0  -0.6497
  O  O150  1  0.380500  0.453100  0.771600  1.0  -0.6742
  O  O151  1  0.490400  0.408300  0.634100  1.0  -0.6715
  O  O152  1  0.424000  0.316100  0.783900  1.0  -0.7109
  O  O153  1  0.353500  0.358200  0.599800  1.0  -0.6918
  O  O154  1  0.285400  0.500400  0.580300  1.0  -0.7072
  O  O155  1  0.292500  0.647400  0.664800  1.0  -0.6859
  O  O156  1  0.425400  0.570900  0.609500  1.0  -0.6497
