# generated using pymatgen
data_CoH5C9N7
_symmetry_space_group_name_H-M   'P 1'
_cell_length_a   17.58390000
_cell_length_b   18.27910000
_cell_length_c   18.27910000
_cell_angle_alpha   90.00000000
_cell_angle_beta   90.00000000
_cell_angle_gamma   90.00000000
_symmetry_Int_Tables_number   1
_chemical_formula_structural   CoH5C9N7
_chemical_formula_sum   'Co16 H80 C144 N112'
_cell_volume   5875.22932336
_cell_formula_units_Z   16
loop_
 _symmetry_equiv_pos_site_id
 _symmetry_equiv_pos_as_xyz
  1  'x, y, z'
loop_
 _atom_site_type_symbol
 _atom_site_label
 _atom_site_symmetry_multiplicity
 _atom_site_fract_x
 _atom_site_fract_y
 _atom_site_fract_z
 _atom_site_occupancy
 _atom_site_charge
  Co  Co1  1  0.665290  0.653670  0.066460  1.0  0.91
  Co  Co2  1  0.165290  0.346330  0.933540  1.0  0.91
  Co  Co3  1  0.415290  0.566460  0.846330  1.0  0.9096
  Co  Co4  1  0.000000  0.943190  0.943190  1.0  0.8943
  Co  Co5  1  0.000000  0.340720  0.340720  1.0  0.9753
  Co  Co6  1  0.084710  0.153670  0.433540  1.0  0.9101
  Co  Co7  1  0.334710  0.066460  0.653670  1.0  0.9101
  Co  Co8  1  0.500000  0.056810  0.056810  1.0  0.9009
  Co  Co9  1  0.500000  0.659280  0.659280  1.0  0.9764
  Co  Co10  1  0.750000  0.443190  0.556810  1.0  0.8944
  Co  Co11  1  0.250000  0.159280  0.840720  1.0  0.9761
  Co  Co12  1  0.915290  0.433540  0.153670  1.0  0.9122
  Co  Co13  1  0.250000  0.556810  0.443190  1.0  0.8987
  Co  Co14  1  0.834710  0.933540  0.346330  1.0  0.9128
  Co  Co15  1  0.750000  0.840720  0.159280  1.0  0.9755
  Co  Co16  1  0.584710  0.846330  0.566460  1.0  0.911
  H  H17  1  0.531300  0.155200  0.476400  1.0  0.0915
  H  H18  1  0.468700  0.476400  0.155200  1.0  0.0905
  H  H19  1  0.973900  0.312300  0.666400  1.0  0.0854
  H  H20  1  0.484800  0.063000  0.237900  1.0  0.103
  H  H21  1  0.949800  0.323200  0.787100  1.0  0.0983
  H  H22  1  0.699800  0.287100  0.176800  1.0  0.098
  H  H23  1  0.199800  0.712900  0.823200  1.0  0.0983
  H  H24  1  0.140800  0.274000  0.237200  1.0  0.0723
  H  H25  1  0.159800  0.386500  0.756900  1.0  0.0786
  H  H26  1  0.597900  0.320400  0.115700  1.0  0.0811
  H  H27  1  0.847900  0.384300  0.820400  1.0  0.0814
  H  H28  1  0.001900  0.725700  0.532500  1.0  0.1055
  H  H29  1  0.800200  0.823200  0.712900  1.0  0.097
  H  H30  1  0.347900  0.615700  0.179600  1.0  0.0824
  H  H31  1  0.890800  0.737200  0.226000  1.0  0.0741
  H  H32  1  0.652800  0.968900  0.816700  1.0  0.0986
  H  H33  1  0.248200  0.242500  0.451300  1.0  0.0656
  H  H34  1  0.359200  0.762800  0.726000  1.0  0.0741
  H  H35  1  0.251900  0.967500  0.225700  1.0  0.1052
  H  H36  1  0.473900  0.687700  0.333600  1.0  0.0864
  H  H37  1  0.026100  0.666400  0.312300  1.0  0.0855
  H  H38  1  0.847200  0.183300  0.031100  1.0  0.0948
  H  H39  1  0.515200  0.237900  0.063000  1.0  0.1042
  H  H40  1  0.031300  0.844800  0.523600  1.0  0.0906
  H  H41  1  0.998100  0.532500  0.725700  1.0  0.1083
  H  H42  1  0.902800  0.683300  0.468900  1.0  0.0978
  H  H43  1  0.498200  0.048700  0.742500  1.0  0.0656
  H  H44  1  0.347200  0.816700  0.968900  1.0  0.0956
  H  H45  1  0.152100  0.820400  0.384300  1.0  0.0785
  H  H46  1  0.050200  0.787100  0.323200  1.0  0.0978
  H  H47  1  0.718700  0.344800  0.976400  1.0  0.091
  H  H48  1  0.223900  0.833600  0.812300  1.0  0.0855
  H  H49  1  0.590200  0.886500  0.743100  1.0  0.0772
  H  H50  1  0.765200  0.437000  0.737900  1.0  0.1043
  H  H51  1  0.276100  0.187700  0.166400  1.0  0.0862
  H  H52  1  0.723900  0.166400  0.187700  1.0  0.0857
  H  H53  1  0.390800  0.262800  0.774000  1.0  0.0743
  H  H54  1  0.097900  0.679600  0.884300  1.0  0.0819
  H  H55  1  0.859200  0.237200  0.274000  1.0  0.0739
  H  H56  1  0.652100  0.179600  0.615700  1.0  0.079
  H  H57  1  0.781300  0.023600  0.655200  1.0  0.0907
  H  H58  1  0.840200  0.756900  0.386500  1.0  0.0783
  H  H59  1  0.449800  0.676800  0.212900  1.0  0.0967
  H  H60  1  0.152800  0.031100  0.183300  1.0  0.0983
  H  H61  1  0.501900  0.274300  0.467500  1.0  0.1032
  H  H62  1  0.097200  0.468900  0.683300  1.0  0.0952
  H  H63  1  0.402100  0.115700  0.320400  1.0  0.079
  H  H64  1  0.234800  0.737900  0.437000  1.0  0.1038
  H  H65  1  0.550200  0.212900  0.676800  1.0  0.0978
  H  H66  1  0.409800  0.743100  0.886500  1.0  0.0771
  H  H67  1  0.300200  0.176800  0.287100  1.0  0.097
  H  H68  1  0.109200  0.226000  0.737200  1.0  0.0744
  H  H69  1  0.902100  0.884300  0.679600  1.0  0.0796
  H  H70  1  0.734800  0.262100  0.563000  1.0  0.1022
  H  H71  1  0.218700  0.655200  0.023600  1.0  0.0913
  H  H72  1  0.909800  0.256900  0.113500  1.0  0.0785
  H  H73  1  0.597200  0.531100  0.316700  1.0  0.0962
  H  H74  1  0.748100  0.225700  0.967500  1.0  0.1076
  H  H75  1  0.251800  0.548700  0.757500  1.0  0.0646
  H  H76  1  0.001800  0.257500  0.951300  1.0  0.0653
  H  H77  1  0.340200  0.243100  0.613500  1.0  0.0766
  H  H78  1  0.751800  0.451300  0.242500  1.0  0.0659
  H  H79  1  0.248100  0.774300  0.032500  1.0  0.105
  H  H80  1  0.609200  0.774000  0.262800  1.0  0.0742
  H  H81  1  0.776100  0.812300  0.833600  1.0  0.0859
  H  H82  1  0.659800  0.613500  0.243100  1.0  0.0796
  H  H83  1  0.751900  0.032500  0.774300  1.0  0.1032
  H  H84  1  0.968700  0.523600  0.844800  1.0  0.0903
  H  H85  1  0.748200  0.757500  0.548700  1.0  0.0648
  H  H86  1  0.526100  0.333600  0.687700  1.0  0.0856
  H  H87  1  0.498100  0.467500  0.274300  1.0  0.1062
  H  H88  1  0.501800  0.742500  0.048700  1.0  0.0648
  H  H89  1  0.015200  0.762100  0.937000  1.0  0.1036
  H  H90  1  0.402800  0.316700  0.531100  1.0  0.0974
  H  H91  1  0.984800  0.937000  0.762100  1.0  0.1021
  H  H92  1  0.281300  0.976400  0.344800  1.0  0.0903
  H  H93  1  0.640800  0.726000  0.762800  1.0  0.075
  H  H94  1  0.998200  0.951300  0.257500  1.0  0.0649
  H  H95  1  0.265200  0.563000  0.262100  1.0  0.1025
  H  H96  1  0.090200  0.113500  0.256900  1.0  0.0787
  C  C97  1  0.903700  0.898500  0.133400  1.0  0.3034
  C  C98  1  0.582300  0.247600  0.656000  1.0  -0.1003
  C  C99  1  0.358300  0.290600  0.802900  1.0  0.2825
  C  C100  1  0.879400  0.776500  0.414400  1.0  0.1195
  C  C101  1  0.192200  0.721100  0.411900  1.0  0.0926
  C  C102  1  0.667900  0.963400  0.768300  1.0  -0.0931
  C  C103  1  0.039500  0.226700  0.933200  1.0  0.2954
  C  C104  1  0.057800  0.778900  0.911900  1.0  0.0912
  C  C105  1  0.692200  0.278900  0.588100  1.0  0.0924
  C  C106  1  0.724600  0.001500  0.743700  1.0  -0.1293
  C  C107  1  0.721400  0.936500  0.550800  1.0  0.3061
  C  C108  1  0.278600  0.550800  0.936500  1.0  0.3022
  C  C109  1  0.210500  0.273300  0.433200  1.0  0.2965
  C  C110  1  0.332300  0.156000  0.252400  1.0  -0.1004
  C  C111  1  0.891700  0.209400  0.302900  1.0  0.282
  C  C112  1  0.624000  0.938800  0.119800  1.0  0.2469
  C  C113  1  0.645300  0.050600  0.134900  1.0  0.3009
  C  C114  1  0.431200  0.661800  0.318400  1.0  -0.0835
  C  C115  1  0.789500  0.433200  0.273300  1.0  0.2966
  C  C116  1  0.153700  0.366600  0.398500  1.0  0.3036
  C  C117  1  0.310000  0.378000  0.859300  1.0  0.2619
  C  C118  1  0.507700  0.505000  0.174100  1.0  -0.1047
  C  C119  1  0.876000  0.880200  0.061200  1.0  0.2463
  C  C120  1  0.129400  0.085600  0.276500  1.0  0.1185
  C  C121  1  0.120600  0.414400  0.776500  1.0  0.1189
  C  C122  1  0.874000  0.380200  0.438800  1.0  0.2467
  C  C123  1  0.795200  0.371800  0.052800  1.0  0.1282
  C  C124  1  0.940000  0.122000  0.359300  1.0  0.2627
  C  C125  1  0.115600  0.629300  0.369100  1.0  0.113
  C  C126  1  0.440000  0.878000  0.640700  1.0  0.263
  C  C127  1  0.290200  0.445800  0.896000  1.0  0.3134
  C  C128  1  0.858400  0.379500  0.770800  1.0  -0.099
  C  C129  1  0.960500  0.933200  0.226700  1.0  0.2972
  C  C130  1  0.807800  0.411900  0.721100  1.0  0.091
  C  C131  1  0.895300  0.365100  0.550600  1.0  0.3038
  C  C132  1  0.959800  0.054200  0.396000  1.0  0.3118
  C  C133  1  0.471400  0.050800  0.563500  1.0  0.304
  C  C134  1  0.615600  0.370700  0.630900  1.0  0.1129
  C  C135  1  0.858300  0.709400  0.197100  1.0  0.2827
  C  C136  1  0.082300  0.752400  0.344000  1.0  -0.1007
  C  C137  1  0.318800  0.161800  0.181600  1.0  -0.0852
  C  C138  1  0.974600  0.756300  0.501500  1.0  -0.1248
  C  C139  1  0.865600  0.869100  0.870700  1.0  0.1132
  C  C140  1  0.626000  0.561200  0.619800  1.0  0.2466
  C  C141  1  0.604700  0.449400  0.634900  1.0  0.2996
  C  C142  1  0.454800  0.128200  0.552800  1.0  0.1294
  C  C143  1  0.790200  0.554200  0.104000  1.0  0.3128
  C  C144  1  0.190000  0.140700  0.622000  1.0  0.2649
  C  C145  1  0.460500  0.066800  0.773300  1.0  0.2974
  C  C146  1  0.634400  0.129300  0.130900  1.0  0.114
  C  C147  1  0.374000  0.619800  0.561200  1.0  0.2462
  C  C148  1  0.539500  0.773300  0.066800  1.0  0.2971
  C  C149  1  0.832100  0.231700  0.036600  1.0  -0.0913
  C  C150  1  0.384400  0.630900  0.370700  1.0  0.1144
  C  C151  1  0.221400  0.063500  0.449200  1.0  0.3058
  C  C152  1  0.775400  0.256300  0.998500  1.0  -0.1248
  C  C153  1  0.365600  0.130900  0.129300  1.0  0.1141
  C  C154  1  0.257700  0.674100  0.995000  1.0  -0.1071
  C  C155  1  0.810000  0.622000  0.140700  1.0  0.263
  C  C156  1  0.942200  0.911900  0.778900  1.0  0.0927
  C  C157  1  0.307800  0.588100  0.278900  1.0  0.0914
  C  C158  1  0.108400  0.729200  0.879500  1.0  -0.1032
  C  C159  1  0.596300  0.866600  0.101500  1.0  0.304
  C  C160  1  0.608400  0.270800  0.120500  1.0  -0.1007
  C  C161  1  0.403700  0.101500  0.866600  1.0  0.3035
  C  C162  1  0.242300  0.005000  0.325900  1.0  -0.1014
  C  C163  1  0.757700  0.325900  0.005000  1.0  -0.1012
  C  C164  1  0.917700  0.344000  0.752400  1.0  -0.0985
  C  C165  1  0.346300  0.601500  0.633400  1.0  0.3039
  C  C166  1  0.474600  0.243700  0.498500  1.0  -0.1238
  C  C167  1  0.025400  0.501500  0.756300  1.0  -0.1297
  C  C168  1  0.417900  0.268300  0.536600  1.0  -0.0893
  C  C169  1  0.931200  0.338200  0.681600  1.0  -0.0834
  C  C170  1  0.442200  0.088100  0.221100  1.0  0.0927
  C  C171  1  0.358400  0.620500  0.229200  1.0  -0.0982
  C  C172  1  0.124000  0.061200  0.880200  1.0  0.2473
  C  C173  1  0.492300  0.174100  0.505000  1.0  -0.1021
  C  C174  1  0.870600  0.276500  0.085600  1.0  0.1198
  C  C175  1  0.141700  0.197100  0.709400  1.0  0.2825
  C  C176  1  0.370600  0.723500  0.914400  1.0  0.1204
  C  C177  1  0.040200  0.396000  0.054200  1.0  0.3115
  C  C178  1  0.141600  0.770800  0.379500  1.0  -0.0941
  C  C179  1  0.395300  0.634900  0.449400  1.0  0.3035
  C  C180  1  0.209800  0.104000  0.554200  1.0  0.3118
  C  C181  1  0.917900  0.731700  0.463400  1.0  -0.0887
  C  C182  1  0.045200  0.447200  0.871800  1.0  0.1292
  C  C183  1  0.891600  0.879500  0.729200  1.0  -0.0918
  C  C184  1  0.354700  0.134900  0.050600  1.0  0.3019
  C  C185  1  0.557800  0.221100  0.088100  1.0  0.0921
  C  C186  1  0.653700  0.633400  0.601500  1.0  0.3026
  C  C187  1  0.391600  0.120500  0.270800  1.0  -0.0912
  C  C188  1  0.641600  0.229200  0.620500  1.0  -0.0975
  C  C189  1  0.560000  0.640700  0.878000  1.0  0.2624
  C  C190  1  0.204800  0.052800  0.371800  1.0  0.1306
  C  C191  1  0.690000  0.859300  0.378000  1.0  0.2628
  C  C192  1  0.608300  0.697100  0.790600  1.0  0.2823
  C  C193  1  0.710500  0.726700  0.566800  1.0  0.2959
  C  C194  1  0.289500  0.566800  0.726700  1.0  0.2971
  C  C195  1  0.667700  0.252400  0.156000  1.0  -0.0988
  C  C196  1  0.954800  0.871800  0.447200  1.0  0.1283
  C  C197  1  0.028600  0.436500  0.949200  1.0  0.3059
  C  C198  1  0.391700  0.790600  0.697100  1.0  0.2833
  C  C199  1  0.104700  0.550600  0.365100  1.0  0.2991
  C  C200  1  0.332100  0.768300  0.963400  1.0  -0.0891
  C  C201  1  0.818800  0.838200  0.818400  1.0  -0.0849
  C  C202  1  0.545200  0.552800  0.128200  1.0  0.1207
  C  C203  1  0.007700  0.495000  0.825900  1.0  -0.101
  C  C204  1  0.540200  0.604000  0.945800  1.0  0.3137
  C  C205  1  0.525400  0.498500  0.243700  1.0  -0.1316
  C  C206  1  0.528600  0.563500  0.050800  1.0  0.3052
  C  C207  1  0.134400  0.870700  0.869100  1.0  0.114
  C  C208  1  0.992300  0.825900  0.495000  1.0  -0.1037
  C  C209  1  0.459800  0.945800  0.604000  1.0  0.314
  C  C210  1  0.108300  0.302900  0.209400  1.0  0.2826
  C  C211  1  0.096300  0.133400  0.898500  1.0  0.3038
  C  C212  1  0.568800  0.318400  0.661800  1.0  -0.085
  C  C213  1  0.181200  0.818400  0.838200  1.0  -0.083
  C  C214  1  0.275400  0.743700  0.001500  1.0  -0.128
  C  C215  1  0.224600  0.998500  0.256300  1.0  -0.131
  C  C216  1  0.971400  0.949200  0.436500  1.0  0.3024
  C  C217  1  0.167900  0.036600  0.231700  1.0  -0.0906
  C  C218  1  0.709800  0.896000  0.445800  1.0  0.3117
  C  C219  1  0.641700  0.802900  0.290600  1.0  0.283
  C  C220  1  0.060000  0.359300  0.122000  1.0  0.2647
  C  C221  1  0.629400  0.914400  0.723500  1.0  0.1178
  C  C222  1  0.379400  0.223500  0.585600  1.0  0.1204
  C  C223  1  0.167700  0.747600  0.844000  1.0  -0.099
  C  C224  1  0.704800  0.947200  0.628200  1.0  0.1231
  C  C225  1  0.376000  0.119800  0.938800  1.0  0.2465
  C  C226  1  0.846300  0.398500  0.366600  1.0  0.3048
  C  C227  1  0.681200  0.181600  0.161800  1.0  -0.0824
  C  C228  1  0.295200  0.628200  0.947200  1.0  0.1199
  C  C229  1  0.620600  0.585600  0.223500  1.0  0.1187
  C  C230  1  0.082100  0.463400  0.731700  1.0  -0.0928
  C  C231  1  0.582100  0.536600  0.268300  1.0  -0.0939
  C  C232  1  0.145300  0.949400  0.865100  1.0  0.3008
  C  C233  1  0.417700  0.656000  0.247600  1.0  -0.0969
  C  C234  1  0.884400  0.369100  0.629300  1.0  0.1139
  C  C235  1  0.778600  0.449200  0.063500  1.0  0.3022
  C  C236  1  0.742300  0.995000  0.674100  1.0  -0.102
  C  C237  1  0.126000  0.438800  0.380200  1.0  0.2465
  C  C238  1  0.854700  0.865100  0.949400  1.0  0.303
  C  C239  1  0.068800  0.681600  0.338200  1.0  -0.0838
  C  C240  1  0.832300  0.844000  0.747600  1.0  -0.0998
  N  N241  1  0.159100  0.505300  0.389100  1.0  -0.4399
  N  N242  1  0.071400  0.851300  0.906400  1.0  -0.3193
  N  N243  1  0.393150  0.087500  0.748700  1.0  -0.3177
  N  N244  1  0.909100  0.889100  0.994700  1.0  -0.4335
  N  N245  1  0.105330  0.312680  0.389080  1.0  -0.2784
  N  N246  1  0.879200  0.137600  0.318900  1.0  -0.5316
  N  N247  1  0.090900  0.994700  0.889100  1.0  -0.4323
  N  N248  1  0.103200  0.406800  0.844900  1.0  -0.3192
  N  N249  1  0.840900  0.389100  0.505300  1.0  -0.4412
  N  N250  1  0.220900  0.514400  0.966300  1.0  -0.3779
  N  N251  1  0.987400  0.178200  0.368940  1.0  -0.2678
  N  N252  1  0.355330  0.110920  0.812680  1.0  -0.2783
  N  N253  1  0.220600  0.345800  0.426300  1.0  -0.501
  N  N254  1  0.029100  0.985600  0.466300  1.0  -0.3727
  N  N255  1  0.177000  0.108140  0.489460  1.0  -0.4306
  N  N256  1  0.678600  0.351300  0.593600  1.0  -0.3178
  N  N257  1  0.571400  0.148700  0.093600  1.0  -0.3181
  N  N258  1  0.294700  0.264200  0.833000  1.0  -0.3197
  N  N259  1  0.692800  0.943600  0.147700  1.0  -0.2552
  N  N260  1  0.896800  0.844900  0.406800  1.0  -0.3186
  N  N261  1  0.307200  0.147700  0.943600  1.0  -0.2564
  N  N262  1  0.057200  0.443600  0.352300  1.0  -0.2543
  N  N263  1  0.603200  0.593200  0.155100  1.0  -0.3196
  N  N264  1  0.192800  0.056400  0.852300  1.0  -0.2544
  N  N265  1  0.379200  0.862400  0.681100  1.0  -0.5187
  N  N266  1  0.737400  0.868940  0.321800  1.0  -0.2675
  N  N267  1  0.396800  0.155100  0.593200  1.0  -0.319
  N  N268  1  0.853200  0.344900  0.093200  1.0  -0.3186
  N  N269  1  0.573000  0.608140  0.010540  1.0  -0.4329
  N  N270  1  0.807200  0.852300  0.056400  1.0  -0.256
  N  N271  1  0.178600  0.648700  0.406400  1.0  -0.3172
  N  N272  1  0.970600  0.926300  0.154200  1.0  -0.5033
  N  N273  1  0.957400  0.341100  0.516900  1.0  -0.3581
  N  N274  1  0.143150  0.248700  0.412500  1.0  -0.3161
  N  N275  1  0.659100  0.494700  0.610900  1.0  -0.4308
  N  N276  1  0.705300  0.833000  0.264200  1.0  -0.3188
  N  N277  1  0.409100  0.110900  0.005300  1.0  -0.4366
  N  N278  1  0.356850  0.587500  0.751300  1.0  -0.3169
  N  N279  1  0.427000  0.010540  0.608140  1.0  -0.4385
  N  N280  1  0.823000  0.489460  0.108140  1.0  -0.4252
  N  N281  1  0.707400  0.016900  0.158900  1.0  -0.3551
  N  N282  1  0.120800  0.318900  0.137600  1.0  -0.5197
  N  N283  1  0.942800  0.352300  0.443600  1.0  -0.2568
  N  N284  1  0.557200  0.556400  0.647700  1.0  -0.2543
  N  N285  1  0.455300  0.764200  0.667000  1.0  -0.3197
  N  N286  1  0.821400  0.406400  0.648700  1.0  -0.3191
  N  N287  1  0.620800  0.681100  0.862400  1.0  -0.5196
  N  N288  1  0.927000  0.989460  0.391860  1.0  -0.4261
  N  N289  1  0.529400  0.845800  0.073700  1.0  -0.4972
  N  N290  1  0.779100  0.966300  0.514400  1.0  -0.3669
  N  N291  1  0.779400  0.426300  0.345800  1.0  -0.5005
  N  N292  1  0.643150  0.751300  0.587500  1.0  -0.316
  N  N293  1  0.979800  0.439400  0.054300  1.0  -0.191
  N  N294  1  0.520200  0.945700  0.560600  1.0  -0.1876
  N  N295  1  0.487400  0.821800  0.631060  1.0  -0.2679
  N  N296  1  0.394670  0.610920  0.687320  1.0  -0.2749
  N  N297  1  0.029400  0.154200  0.926300  1.0  -0.4971
  N  N298  1  0.644670  0.812680  0.110920  1.0  -0.2777
  N  N299  1  0.457400  0.658900  0.483100  1.0  -0.3542
  N  N300  1  0.542600  0.483100  0.658900  1.0  -0.3595
  N  N301  1  0.856850  0.412500  0.248700  1.0  -0.3171
  N  N302  1  0.470600  0.073700  0.845800  1.0  -0.5033
  N  N303  1  0.646800  0.906800  0.655100  1.0  -0.3198
  N  N304  1  0.428600  0.093600  0.148700  1.0  -0.3182
  N  N305  1  0.207400  0.983100  0.841100  1.0  -0.3599
  N  N306  1  0.629200  0.818900  0.362400  1.0  -0.5197
  N  N307  1  0.512600  0.631060  0.821800  1.0  -0.2668
  N  N308  1  0.479800  0.560600  0.945700  1.0  -0.1922
  N  N309  1  0.292600  0.158900  0.016900  1.0  -0.3587
  N  N310  1  0.720600  0.654200  0.573700  1.0  -0.5015
  N  N311  1  0.955300  0.235800  0.333000  1.0  -0.3189
  N  N312  1  0.146800  0.093200  0.344900  1.0  -0.3203
  N  N313  1  0.855330  0.889080  0.187320  1.0  -0.2744
  N  N314  1  0.012600  0.368940  0.178200  1.0  -0.268
  N  N315  1  0.442800  0.647700  0.556400  1.0  -0.256
  N  N316  1  0.677000  0.891860  0.510540  1.0  -0.4345
  N  N317  1  0.205300  0.167000  0.735800  1.0  -0.3191
  N  N318  1  0.340900  0.610900  0.494700  1.0  -0.4333
  N  N319  1  0.370800  0.362400  0.818900  1.0  -0.5211
  N  N320  1  0.720900  0.485600  0.033700  1.0  -0.3766
  N  N321  1  0.321400  0.593600  0.351300  1.0  -0.3192
  N  N322  1  0.893150  0.912500  0.251300  1.0  -0.3178
  N  N323  1  0.762600  0.678200  0.131060  1.0  -0.2678
  N  N324  1  0.229800  0.445700  0.939400  1.0  -0.1879
  N  N325  1  0.270200  0.060600  0.554300  1.0  -0.1891
  N  N326  1  0.544700  0.667000  0.764200  1.0  -0.3194
  N  N327  1  0.770200  0.939400  0.445700  1.0  -0.1921
  N  N328  1  0.792600  0.841100  0.983100  1.0  -0.3604
  N  N329  1  0.729800  0.554300  0.060600  1.0  -0.1884
  N  N330  1  0.529100  0.014400  0.533700  1.0  -0.3745
  N  N331  1  0.129200  0.181100  0.637600  1.0  -0.5302
  N  N332  1  0.020200  0.054300  0.439400  1.0  -0.1892
  N  N333  1  0.970900  0.466300  0.985600  1.0  -0.3719
  N  N334  1  0.323000  0.510540  0.891860  1.0  -0.4341
  N  N335  1  0.894670  0.389080  0.312680  1.0  -0.2745
  N  N336  1  0.605330  0.687320  0.610920  1.0  -0.2763
  N  N337  1  0.279100  0.033700  0.485600  1.0  -0.3716
  N  N338  1  0.073000  0.391860  0.989460  1.0  -0.4335
  N  N339  1  0.470900  0.533700  0.014400  1.0  -0.3726
  N  N340  1  0.279400  0.573700  0.654200  1.0  -0.501
  N  N341  1  0.262600  0.321800  0.868940  1.0  -0.2666
  N  N342  1  0.606850  0.748700  0.087500  1.0  -0.3162
  N  N343  1  0.794700  0.735800  0.167000  1.0  -0.3191
  N  N344  1  0.106850  0.251300  0.912500  1.0  -0.3155
  N  N345  1  0.144670  0.187320  0.889080  1.0  -0.2762
  N  N346  1  0.870800  0.637600  0.181100  1.0  -0.5181
  N  N347  1  0.590900  0.005300  0.110900  1.0  -0.4395
  N  N348  1  0.928600  0.906400  0.851300  1.0  -0.3188
  N  N349  1  0.237400  0.131060  0.678200  1.0  -0.2669
  N  N350  1  0.353200  0.655100  0.906800  1.0  -0.3185
  N  N351  1  0.044700  0.333000  0.235800  1.0  -0.3194
  N  N352  1  0.042600  0.516900  0.341100  1.0  -0.3609
