# generated using pymatgen
data_Ce2H6C14S(NO6)2
_symmetry_space_group_name_H-M   'P 1'
_cell_length_a   26.21100000
_cell_length_b   13.52950000
_cell_length_c   6.74810000
_cell_angle_alpha   90.00000000
_cell_angle_beta   92.29400000
_cell_angle_gamma   90.00000000
_symmetry_Int_Tables_number   1
_chemical_formula_structural   Ce2H6C14S(NO6)2
_chemical_formula_sum   'Ce8 H24 C56 S4 N8 O48'
_cell_volume   2391.10507198
_cell_formula_units_Z   4
loop_
 _symmetry_equiv_pos_site_id
 _symmetry_equiv_pos_as_xyz
  1  'x, y, z'
loop_
 _atom_site_type_symbol
 _atom_site_label
 _atom_site_symmetry_multiplicity
 _atom_site_fract_x
 _atom_site_fract_y
 _atom_site_fract_z
 _atom_site_occupancy
 _atom_site_charge
  Ce  Ce1  1  0.103480  0.192840  0.509630  1.0  2.2159
  Ce  Ce2  1  0.603480  0.692840  0.509630  1.0  2.2159
  Ce  Ce3  1  0.896520  0.192840  0.990370  1.0  2.2152
  Ce  Ce4  1  0.396520  0.692840  0.990370  1.0  2.2152
  Ce  Ce5  1  0.896520  0.807160  0.490370  1.0  2.2149
  Ce  Ce6  1  0.396520  0.307160  0.490370  1.0  2.2149
  Ce  Ce7  1  0.103480  0.807160  0.009630  1.0  2.2159
  Ce  Ce8  1  0.603480  0.307160  0.009630  1.0  2.2159
  H  H9  1  0.226100  0.817400  0.365400  1.0  0.0877
  H  H10  1  0.357500  0.949300  0.450600  1.0  0.0913
  H  H11  1  0.230200  0.113300  0.411400  1.0  0.1126
  H  H12  1  0.726100  0.317400  0.365400  1.0  0.0877
  H  H13  1  0.857500  0.449300  0.450600  1.0  0.0913
  H  H14  1  0.730200  0.613300  0.411400  1.0  0.1126
  H  H15  1  0.773900  0.817400  0.134600  1.0  0.0872
  H  H16  1  0.642500  0.949300  0.049400  1.0  0.0922
  H  H17  1  0.769800  0.113300  0.088600  1.0  0.1122
  H  H18  1  0.273900  0.317400  0.134600  1.0  0.0872
  H  H19  1  0.142500  0.449300  0.049400  1.0  0.0922
  H  H20  1  0.269800  0.613300  0.088600  1.0  0.1122
  H  H21  1  0.773900  0.182600  0.634600  1.0  0.0868
  H  H22  1  0.642500  0.050700  0.549400  1.0  0.0926
  H  H23  1  0.769800  0.886700  0.588600  1.0  0.1116
  H  H24  1  0.273900  0.682600  0.634600  1.0  0.0868
  H  H25  1  0.142500  0.550700  0.549400  1.0  0.0926
  H  H26  1  0.269800  0.386700  0.588600  1.0  0.1116
  H  H27  1  0.226100  0.182600  0.865400  1.0  0.087
  H  H28  1  0.357500  0.050700  0.950600  1.0  0.0915
  H  H29  1  0.230200  0.886700  0.911400  1.0  0.1117
  H  H30  1  0.726100  0.682600  0.865400  1.0  0.087
  H  H31  1  0.857500  0.550700  0.950600  1.0  0.0915
  H  H32  1  0.730200  0.386700  0.911400  1.0  0.1117
  C  C33  1  0.161170  0.964200  0.362400  1.0  0.7452
  C  C34  1  0.218570  0.964900  0.387100  1.0  -0.1866
  C  C35  1  0.244750  0.875400  0.384600  1.0  0.2016
  C  C36  1  0.322210  0.953200  0.433200  1.0  0.2343
  C  C37  1  0.299410  0.046400  0.433800  1.0  -0.1851
  C  C38  1  0.246610  0.052400  0.410900  1.0  0.024
  C  C39  1  0.332330  0.137200  0.457200  1.0  0.6911
  C  C40  1  0.661170  0.464200  0.362400  1.0  0.7452
  C  C41  1  0.718570  0.464900  0.387100  1.0  -0.1866
  C  C42  1  0.744750  0.375400  0.384600  1.0  0.2016
  C  C43  1  0.822210  0.453200  0.433200  1.0  0.2343
  C  C44  1  0.799410  0.546400  0.433800  1.0  -0.1851
  C  C45  1  0.746610  0.552400  0.410900  1.0  0.024
  C  C46  1  0.832330  0.637200  0.457200  1.0  0.6911
  C  C47  1  0.838830  0.964200  0.137600  1.0  0.7462
  C  C48  1  0.781430  0.964900  0.112900  1.0  -0.1866
  C  C49  1  0.755250  0.875400  0.115400  1.0  0.201
  C  C50  1  0.677790  0.953200  0.066800  1.0  0.2328
  C  C51  1  0.700590  0.046400  0.066200  1.0  -0.1853
  C  C52  1  0.753390  0.052400  0.089100  1.0  0.0245
  C  C53  1  0.667670  0.137200  0.042800  1.0  0.6916
  C  C54  1  0.338830  0.464200  0.137600  1.0  0.7462
  C  C55  1  0.281430  0.464900  0.112900  1.0  -0.1866
  C  C56  1  0.255250  0.375400  0.115400  1.0  0.201
  C  C57  1  0.177790  0.453200  0.066800  1.0  0.2328
  C  C58  1  0.200590  0.546400  0.066200  1.0  -0.1853
  C  C59  1  0.253390  0.552400  0.089100  1.0  0.0245
  C  C60  1  0.167670  0.637200  0.042800  1.0  0.6916
  C  C61  1  0.838830  0.035800  0.637600  1.0  0.7462
  C  C62  1  0.781430  0.035100  0.612900  1.0  -0.1869
  C  C63  1  0.755250  0.124600  0.615400  1.0  0.1995
  C  C64  1  0.677790  0.046800  0.566800  1.0  0.2318
  C  C65  1  0.700590  0.953600  0.566200  1.0  -0.1856
  C  C66  1  0.753390  0.947600  0.589100  1.0  0.025
  C  C67  1  0.667670  0.862800  0.542800  1.0  0.6906
  C  C68  1  0.338830  0.535800  0.637600  1.0  0.7462
  C  C69  1  0.281430  0.535100  0.612900  1.0  -0.1869
  C  C70  1  0.255250  0.624600  0.615400  1.0  0.1995
  C  C71  1  0.177790  0.546800  0.566800  1.0  0.2318
  C  C72  1  0.200590  0.453600  0.566200  1.0  -0.1856
  C  C73  1  0.253390  0.447600  0.589100  1.0  0.025
  C  C74  1  0.167670  0.362800  0.542800  1.0  0.6906
  C  C75  1  0.161170  0.035800  0.862400  1.0  0.7453
  C  C76  1  0.218570  0.035100  0.887100  1.0  -0.1865
  C  C77  1  0.244750  0.124600  0.884600  1.0  0.1991
  C  C78  1  0.322210  0.046800  0.933200  1.0  0.2342
  C  C79  1  0.299410  0.953600  0.933800  1.0  -0.1851
  C  C80  1  0.246610  0.947600  0.910900  1.0  0.0245
  C  C81  1  0.332330  0.862800  0.957200  1.0  0.6927
  C  C82  1  0.661170  0.535800  0.862400  1.0  0.7453
  C  C83  1  0.718570  0.535100  0.887100  1.0  -0.1865
  C  C84  1  0.744750  0.624600  0.884600  1.0  0.1991
  C  C85  1  0.822210  0.546800  0.933200  1.0  0.2342
  C  C86  1  0.799410  0.453600  0.933800  1.0  -0.1851
  C  C87  1  0.746610  0.447600  0.910900  1.0  0.0245
  C  C88  1  0.832330  0.362800  0.957200  1.0  0.6927
  S  S89  1  0.000000  0.200650  0.250000  1.0  1.511
  S  S90  1  0.500000  0.700650  0.250000  1.0  1.511
  S  S91  1  0.000000  0.799350  0.750000  1.0  1.5116
  S  S92  1  0.500000  0.299350  0.750000  1.0  1.5116
  N  N93  1  0.295730  0.869000  0.408800  1.0  -0.4132
  N  N94  1  0.795730  0.369000  0.408800  1.0  -0.4132
  N  N95  1  0.704270  0.869000  0.091200  1.0  -0.4148
  N  N96  1  0.204270  0.369000  0.091200  1.0  -0.4148
  N  N97  1  0.704270  0.131000  0.591200  1.0  -0.4159
  N  N98  1  0.204270  0.631000  0.591200  1.0  -0.4159
  N  N99  1  0.295730  0.131000  0.908800  1.0  -0.4146
  N  N100  1  0.795730  0.631000  0.908800  1.0  -0.4146
  O  O101  1  0.313480  0.220890  0.425100  1.0  -0.6387
  O  O102  1  0.379240  0.126500  0.508700  1.0  -0.6751
  O  O103  1  0.137210  0.040840  0.401800  1.0  -0.7879
  O  O104  1  0.140230  0.884750  0.304500  1.0  -0.7172
  O  O105  1  0.016270  0.261000  0.422800  1.0  -0.7849
  O  O106  1  0.044630  0.139200  0.207000  1.0  -0.7711
  O  O107  1  0.813480  0.720890  0.425100  1.0  -0.6387
  O  O108  1  0.879240  0.626500  0.508700  1.0  -0.6751
  O  O109  1  0.637210  0.540840  0.401800  1.0  -0.7879
  O  O110  1  0.640230  0.384750  0.304500  1.0  -0.7172
  O  O111  1  0.516270  0.761000  0.422800  1.0  -0.7849
  O  O112  1  0.544630  0.639200  0.207000  1.0  -0.7711
  O  O113  1  0.686520  0.220890  0.074900  1.0  -0.642
  O  O114  1  0.620760  0.126500  0.991300  1.0  -0.6771
  O  O115  1  0.862790  0.040840  0.098200  1.0  -0.7845
  O  O116  1  0.859770  0.884750  0.195500  1.0  -0.7176
  O  O117  1  0.983730  0.261000  0.077200  1.0  -0.7777
  O  O118  1  0.955370  0.139200  0.293000  1.0  -0.7699
  O  O119  1  0.186520  0.720890  0.074900  1.0  -0.642
  O  O120  1  0.120760  0.626500  0.991300  1.0  -0.6771
  O  O121  1  0.362790  0.540840  0.098200  1.0  -0.7845
  O  O122  1  0.359770  0.384750  0.195500  1.0  -0.7176
  O  O123  1  0.483730  0.761000  0.077200  1.0  -0.7777
  O  O124  1  0.455370  0.639200  0.293000  1.0  -0.7699
  O  O125  1  0.686520  0.779110  0.574900  1.0  -0.6411
  O  O126  1  0.620760  0.873500  0.491300  1.0  -0.6774
  O  O127  1  0.862790  0.959160  0.598200  1.0  -0.7839
  O  O128  1  0.859770  0.115250  0.695500  1.0  -0.7163
  O  O129  1  0.983730  0.739000  0.577200  1.0  -0.7775
  O  O130  1  0.955370  0.860800  0.793000  1.0  -0.7684
  O  O131  1  0.186520  0.279110  0.574900  1.0  -0.6411
  O  O132  1  0.120760  0.373500  0.491300  1.0  -0.6774
  O  O133  1  0.362790  0.459160  0.598200  1.0  -0.7839
  O  O134  1  0.359770  0.615250  0.695500  1.0  -0.7163
  O  O135  1  0.483730  0.239000  0.577200  1.0  -0.7775
  O  O136  1  0.455370  0.360800  0.793000  1.0  -0.7684
  O  O137  1  0.313480  0.779110  0.925100  1.0  -0.6402
  O  O138  1  0.379240  0.873500  0.008700  1.0  -0.6754
  O  O139  1  0.137210  0.959160  0.901800  1.0  -0.7873
  O  O140  1  0.140230  0.115250  0.804500  1.0  -0.7185
  O  O141  1  0.016270  0.739000  0.922800  1.0  -0.784
  O  O142  1  0.044630  0.860800  0.707000  1.0  -0.7703
  O  O143  1  0.813480  0.279110  0.925100  1.0  -0.6402
  O  O144  1  0.879240  0.373500  0.008700  1.0  -0.6754
  O  O145  1  0.637210  0.459160  0.901800  1.0  -0.7873
  O  O146  1  0.640230  0.615250  0.804500  1.0  -0.7185
  O  O147  1  0.516270  0.239000  0.922800  1.0  -0.784
  O  O148  1  0.544630  0.360800  0.707000  1.0  -0.7703
