# generated using pymatgen
data_ZnH16(C17N5)2
_symmetry_space_group_name_H-M   'P 1'
_cell_length_a   11.36100000
_cell_length_b   12.64500000
_cell_length_c   14.77500000
_cell_angle_alpha   90.00000000
_cell_angle_beta   90.00000000
_cell_angle_gamma   90.00000000
_symmetry_Int_Tables_number   1
_chemical_formula_structural   ZnH16(C17N5)2
_chemical_formula_sum   'Zn2 H32 C68 N20'
_cell_volume   2122.57420987
_cell_formula_units_Z   2
loop_
 _symmetry_equiv_pos_site_id
 _symmetry_equiv_pos_as_xyz
  1  'x, y, z'
loop_
 _atom_site_type_symbol
 _atom_site_label
 _atom_site_symmetry_multiplicity
 _atom_site_fract_x
 _atom_site_fract_y
 _atom_site_fract_z
 _atom_site_occupancy
 _atom_site_charge
  Zn  Zn1  1  0.500000  0.000000  0.750000  1.0  0.8558
  Zn  Zn2  1  0.500000  0.000000  0.250000  1.0  0.8558
  H  H3  1  0.693800  0.716700  0.863000  1.0  0.1067
  H  H4  1  0.829600  0.579900  0.863300  1.0  0.1078
  H  H5  1  0.707800  0.848800  0.720800  1.0  0.0817
  H  H6  1  0.911700  0.843500  0.722000  1.0  0.1275
  H  H7  1  0.306200  0.283300  0.863000  1.0  0.1069
  H  H8  1  0.170400  0.420100  0.863300  1.0  0.1079
  H  H9  1  0.292200  0.151200  0.720800  1.0  0.082
  H  H10  1  0.088300  0.156500  0.722000  1.0  0.1278
  H  H11  1  0.306200  0.716700  0.637000  1.0  0.107
  H  H12  1  0.170400  0.579900  0.636700  1.0  0.1074
  H  H13  1  0.292200  0.848800  0.779200  1.0  0.082
  H  H14  1  0.088300  0.843500  0.778000  1.0  0.1275
  H  H15  1  0.693800  0.283300  0.637000  1.0  0.1074
  H  H16  1  0.829600  0.420100  0.636700  1.0  0.1076
  H  H17  1  0.707800  0.151200  0.779200  1.0  0.0822
  H  H18  1  0.911700  0.156500  0.778000  1.0  0.1275
  H  H19  1  0.306200  0.283300  0.137000  1.0  0.1069
  H  H20  1  0.170400  0.420100  0.136700  1.0  0.1073
  H  H21  1  0.292200  0.151200  0.279200  1.0  0.0821
  H  H22  1  0.088300  0.156500  0.278000  1.0  0.1276
  H  H23  1  0.693800  0.716700  0.137000  1.0  0.1072
  H  H24  1  0.829600  0.579900  0.136700  1.0  0.1077
  H  H25  1  0.707800  0.848800  0.279200  1.0  0.082
  H  H26  1  0.911700  0.843500  0.278000  1.0  0.1275
  H  H27  1  0.693800  0.283300  0.363000  1.0  0.1072
  H  H28  1  0.829600  0.420100  0.363300  1.0  0.1078
  H  H29  1  0.707800  0.151200  0.220800  1.0  0.082
  H  H30  1  0.911700  0.156500  0.222000  1.0  0.1277
  H  H31  1  0.306200  0.716700  0.363000  1.0  0.1066
  H  H32  1  0.170400  0.579900  0.363300  1.0  0.1079
  H  H33  1  0.292200  0.848800  0.220800  1.0  0.0818
  H  H34  1  0.088300  0.843500  0.222000  1.0  0.1275
  C  C35  1  0.536900  0.848000  0.919870  1.0  0.4328
  C  C36  1  0.719750  0.687890  0.918960  1.0  -0.1383
  C  C37  1  0.801130  0.607460  0.918970  1.0  -0.0821
  C  C38  1  0.919130  0.408930  0.919160  1.0  0.2954
  C  C39  1  0.750100  0.911920  0.733370  1.0  0.1568
  C  C40  1  0.871800  0.908170  0.733310  1.0  -0.1933
  C  C41  1  0.463100  0.152000  0.919870  1.0  0.4316
  C  C42  1  0.280250  0.312110  0.918960  1.0  -0.1365
  C  C43  1  0.198870  0.392540  0.918970  1.0  -0.0819
  C  C44  1  0.080870  0.591070  0.919160  1.0  0.2948
  C  C45  1  0.249900  0.088080  0.733370  1.0  0.1572
  C  C46  1  0.128200  0.091830  0.733310  1.0  -0.1943
  C  C47  1  0.463100  0.848000  0.580130  1.0  0.4322
  C  C48  1  0.280250  0.687890  0.581040  1.0  -0.143
  C  C49  1  0.198870  0.607460  0.581030  1.0  -0.0811
  C  C50  1  0.080870  0.408930  0.580840  1.0  0.2944
  C  C51  1  0.249900  0.911920  0.766630  1.0  0.163
  C  C52  1  0.128200  0.908170  0.766690  1.0  -0.1938
  C  C53  1  0.536900  0.152000  0.580130  1.0  0.4326
  C  C54  1  0.719750  0.312110  0.581040  1.0  -0.1434
  C  C55  1  0.801130  0.392540  0.581030  1.0  -0.0817
  C  C56  1  0.919130  0.591070  0.580840  1.0  0.2944
  C  C57  1  0.750100  0.088080  0.766630  1.0  0.1615
  C  C58  1  0.871800  0.091830  0.766690  1.0  -0.1949
  C  C59  1  0.463100  0.152000  0.080130  1.0  0.432
  C  C60  1  0.280250  0.312110  0.081040  1.0  -0.1409
  C  C61  1  0.198870  0.392540  0.081030  1.0  -0.0809
  C  C62  1  0.080870  0.591070  0.080840  1.0  0.2939
  C  C63  1  0.249900  0.088080  0.266630  1.0  0.1563
  C  C64  1  0.128200  0.091830  0.266690  1.0  -0.1947
  C  C65  1  0.536900  0.848000  0.080130  1.0  0.4325
  C  C66  1  0.719750  0.687890  0.081040  1.0  -0.1425
  C  C67  1  0.801130  0.607460  0.081030  1.0  -0.0817
  C  C68  1  0.919130  0.408930  0.080840  1.0  0.295
  C  C69  1  0.750100  0.911920  0.266630  1.0  0.1571
  C  C70  1  0.871800  0.908170  0.266690  1.0  -0.1939
  C  C71  1  0.536900  0.152000  0.419870  1.0  0.4324
  C  C72  1  0.719750  0.312110  0.418960  1.0  -0.1359
  C  C73  1  0.801130  0.392540  0.418970  1.0  -0.0822
  C  C74  1  0.919130  0.591070  0.419160  1.0  0.2953
  C  C75  1  0.750100  0.088080  0.233370  1.0  0.1625
  C  C76  1  0.871800  0.091830  0.233310  1.0  -0.1943
  C  C77  1  0.463100  0.848000  0.419870  1.0  0.4321
  C  C78  1  0.280250  0.687890  0.418960  1.0  -0.1353
  C  C79  1  0.198870  0.607460  0.418970  1.0  -0.0819
  C  C80  1  0.080870  0.408930  0.419160  1.0  0.2944
  C  C81  1  0.249900  0.911920  0.233370  1.0  0.1626
  C  C82  1  0.128200  0.908170  0.233310  1.0  -0.1936
  C  C83  1  0.934650  0.000000  0.750000  1.0  0.0973
  C  C84  1  0.065350  0.000000  0.750000  1.0  0.0968
  C  C85  1  0.065350  0.000000  0.250000  1.0  0.0968
  C  C86  1  0.934650  0.000000  0.250000  1.0  0.0973
  C  C87  1  0.582930  0.807640  0.000000  1.0  -0.4264
  C  C88  1  0.674430  0.728070  0.000000  1.0  0.1733
  C  C89  1  0.841700  0.565800  0.000000  1.0  -0.0727
  C  C90  1  0.933300  0.478060  0.000000  1.0  0.008
  C  C91  1  0.417070  0.192360  0.000000  1.0  -0.4279
  C  C92  1  0.325570  0.271930  0.000000  1.0  0.1727
  C  C93  1  0.158300  0.434200  0.000000  1.0  -0.0723
  C  C94  1  0.066700  0.521940  0.000000  1.0  0.0082
  C  C95  1  0.417070  0.807640  0.500000  1.0  -0.427
  C  C96  1  0.325570  0.728070  0.500000  1.0  0.1722
  C  C97  1  0.158300  0.565800  0.500000  1.0  -0.0728
  C  C98  1  0.066700  0.478060  0.500000  1.0  0.0086
  C  C99  1  0.582930  0.192360  0.500000  1.0  -0.4267
  C  C100  1  0.674430  0.271930  0.500000  1.0  0.1731
  C  C101  1  0.841700  0.434200  0.500000  1.0  -0.0721
  C  C102  1  0.933300  0.521940  0.500000  1.0  0.0076
  N  N103  1  0.500480  0.880250  0.852570  1.0  -0.4988
  N  N104  1  0.906300  0.358320  0.857310  1.0  -0.346
  N  N105  1  0.499520  0.119750  0.852570  1.0  -0.4997
  N  N106  1  0.093700  0.641680  0.857310  1.0  -0.3454
  N  N107  1  0.499520  0.880250  0.647430  1.0  -0.4993
  N  N108  1  0.093700  0.358320  0.642690  1.0  -0.3459
  N  N109  1  0.500480  0.119750  0.647430  1.0  -0.4993
  N  N110  1  0.906300  0.641680  0.642690  1.0  -0.3464
  N  N111  1  0.499520  0.119750  0.147430  1.0  -0.4998
  N  N112  1  0.093700  0.641680  0.142690  1.0  -0.3461
  N  N113  1  0.500480  0.880250  0.147430  1.0  -0.4988
  N  N114  1  0.906300  0.358320  0.142690  1.0  -0.3457
  N  N115  1  0.500480  0.119750  0.352570  1.0  -0.499
  N  N116  1  0.906300  0.641680  0.357310  1.0  -0.3459
  N  N117  1  0.499520  0.880250  0.352570  1.0  -0.4995
  N  N118  1  0.093700  0.358320  0.357310  1.0  -0.346
  N  N119  1  0.689460  0.000000  0.750000  1.0  -0.3072
  N  N120  1  0.310540  0.000000  0.750000  1.0  -0.307
  N  N121  1  0.310540  0.000000  0.250000  1.0  -0.307
  N  N122  1  0.689460  0.000000  0.250000  1.0  -0.3072
