# generated using pymatgen
data_Zn3H20C29N3O8
_symmetry_space_group_name_H-M   'P 1'
_cell_length_a   20.50400000
_cell_length_b   9.57760000
_cell_length_c   19.44400000
_cell_angle_alpha   90.00000000
_cell_angle_beta   103.73500000
_cell_angle_gamma   90.00000000
_symmetry_Int_Tables_number   1
_chemical_formula_structural   Zn3H20C29N3O8
_chemical_formula_sum   'Zn12 H80 C116 N12 O32'
_cell_volume   3709.20558962
_cell_formula_units_Z   4
loop_
 _symmetry_equiv_pos_site_id
 _symmetry_equiv_pos_as_xyz
  1  'x, y, z'
loop_
 _atom_site_type_symbol
 _atom_site_label
 _atom_site_symmetry_multiplicity
 _atom_site_fract_x
 _atom_site_fract_y
 _atom_site_fract_z
 _atom_site_occupancy
 _atom_site_charge
  Zn  Zn1  1  0.599110  0.915730  0.789590  1.0  0.9418
  Zn  Zn2  1  0.718630  0.862990  0.927540  1.0  0.9418
  Zn  Zn3  1  0.756960  0.980840  0.938700  1.0  0.9162
  Zn  Zn4  1  0.400890  0.415730  0.710410  1.0  0.9398
  Zn  Zn5  1  0.281370  0.362990  0.572460  1.0  0.9428
  Zn  Zn6  1  0.243040  0.480840  0.561300  1.0  0.92
  Zn  Zn7  1  0.400890  0.084270  0.210410  1.0  0.9394
  Zn  Zn8  1  0.281370  0.137010  0.072460  1.0  0.9425
  Zn  Zn9  1  0.243040  0.019160  0.061300  1.0  0.9225
  Zn  Zn10  1  0.599110  0.584270  0.289590  1.0  0.9417
  Zn  Zn11  1  0.718630  0.637010  0.427540  1.0  0.9417
  Zn  Zn12  1  0.756960  0.519160  0.438700  1.0  0.9206
  H  H13  1  0.518300  0.189300  0.569800  1.0  0.112
  H  H14  1  0.560000  0.149000  0.687600  1.0  0.0793
  H  H15  1  0.508600  0.777500  0.538800  1.0  0.1137
  H  H16  1  0.553700  0.748400  0.655800  1.0  0.0712
  H  H17  1  0.714300  0.736900  0.666300  1.0  0.0898
  H  H18  1  0.894100  0.677200  0.627200  1.0  0.1071
  H  H19  1  0.879000  0.795100  0.821100  1.0  0.1023
  H  H20  1  0.387400  0.618700  0.186000  1.0  0.1053
  H  H21  1  0.313800  0.765800  0.990500  1.0  0.0936
  H  H22  1  0.348200  0.356800  0.020300  1.0  0.0965
  H  H23  1  0.313600  0.446800  0.905200  1.0  0.2752
  H  H24  1  0.989600  0.682600  0.722100  1.0  0.2224
  H  H25  1  0.296800  0.598700  0.822600  1.0  0.0916
  H  H26  1  0.314500  0.716300  0.879800  1.0  0.0666
  H  H27  1  0.986400  0.723400  0.851600  1.0  0.0637
  H  H28  1  0.995400  0.869100  0.817700  1.0  0.0808
  H  H29  1  0.179800  0.480200  0.865300  1.0  0.0673
  H  H30  1  0.225800  0.873800  0.833500  1.0  0.1059
  H  H31  1  0.066200  0.531000  0.832200  1.0  0.1192
  H  H32  1  0.114300  0.930600  0.817700  1.0  0.0692
  H  H33  1  0.481700  0.689300  0.930200  1.0  0.1118
  H  H34  1  0.440000  0.649000  0.812400  1.0  0.0793
  H  H35  1  0.491400  0.277500  0.961200  1.0  0.1136
  H  H36  1  0.446300  0.248400  0.844200  1.0  0.0713
  H  H37  1  0.285700  0.236900  0.833700  1.0  0.0886
  H  H38  1  0.105900  0.177200  0.872800  1.0  0.1071
  H  H39  1  0.121000  0.295100  0.678900  1.0  0.1026
  H  H40  1  0.612600  0.118700  0.314000  1.0  0.105
  H  H41  1  0.686200  0.265800  0.509500  1.0  0.0938
  H  H42  1  0.651800  0.856800  0.479700  1.0  0.0962
  H  H43  1  0.686400  0.946800  0.594800  1.0  0.2751
  H  H44  1  0.010400  0.182600  0.777900  1.0  0.2218
  H  H45  1  0.703200  0.098700  0.677400  1.0  0.0895
  H  H46  1  0.685500  0.216300  0.620200  1.0  0.0663
  H  H47  1  0.013600  0.223400  0.648400  1.0  0.0633
  H  H48  1  0.004600  0.369100  0.682300  1.0  0.0816
  H  H49  1  0.820200  0.980200  0.634700  1.0  0.0671
  H  H50  1  0.774200  0.373800  0.666500  1.0  0.1057
  H  H51  1  0.933800  0.031000  0.667800  1.0  0.1193
  H  H52  1  0.885700  0.430600  0.682300  1.0  0.0691
  H  H53  1  0.481700  0.810700  0.430200  1.0  0.1118
  H  H54  1  0.440000  0.851000  0.312400  1.0  0.0796
  H  H55  1  0.491400  0.222500  0.461200  1.0  0.1138
  H  H56  1  0.446300  0.251600  0.344200  1.0  0.0701
  H  H57  1  0.285700  0.263100  0.333700  1.0  0.0893
  H  H58  1  0.105900  0.322800  0.372800  1.0  0.1071
  H  H59  1  0.121000  0.204900  0.178900  1.0  0.1024
  H  H60  1  0.612600  0.381300  0.814000  1.0  0.1053
  H  H61  1  0.686200  0.234200  0.009500  1.0  0.0933
  H  H62  1  0.651800  0.643200  0.979700  1.0  0.0964
  H  H63  1  0.686400  0.553200  0.094800  1.0  0.2752
  H  H64  1  0.010400  0.317400  0.277900  1.0  0.221
  H  H65  1  0.703200  0.401300  0.177400  1.0  0.09
  H  H66  1  0.685500  0.283700  0.120200  1.0  0.0671
  H  H67  1  0.013600  0.276600  0.148400  1.0  0.0635
  H  H68  1  0.004600  0.130900  0.182300  1.0  0.0787
  H  H69  1  0.820200  0.519800  0.134700  1.0  0.0673
  H  H70  1  0.774200  0.126200  0.166500  1.0  0.1056
  H  H71  1  0.933800  0.469000  0.167800  1.0  0.1193
  H  H72  1  0.885700  0.069400  0.182300  1.0  0.0689
  H  H73  1  0.518300  0.310700  0.069800  1.0  0.1121
  H  H74  1  0.560000  0.351000  0.187600  1.0  0.0797
  H  H75  1  0.508600  0.722500  0.038800  1.0  0.1143
  H  H76  1  0.553700  0.751600  0.155800  1.0  0.0697
  H  H77  1  0.714300  0.763100  0.166300  1.0  0.0901
  H  H78  1  0.894100  0.822800  0.127200  1.0  0.1068
  H  H79  1  0.879000  0.704900  0.321100  1.0  0.1025
  H  H80  1  0.387400  0.881300  0.686000  1.0  0.1054
  H  H81  1  0.313800  0.734200  0.490500  1.0  0.0929
  H  H82  1  0.348200  0.143200  0.520300  1.0  0.0966
  H  H83  1  0.313600  0.053200  0.405200  1.0  0.2757
  H  H84  1  0.989600  0.817400  0.222100  1.0  0.2221
  H  H85  1  0.296800  0.901300  0.322600  1.0  0.0913
  H  H86  1  0.314500  0.783700  0.379800  1.0  0.0679
  H  H87  1  0.986400  0.776600  0.351600  1.0  0.0641
  H  H88  1  0.995400  0.630900  0.317700  1.0  0.0792
  H  H89  1  0.179800  0.019800  0.365300  1.0  0.0674
  H  H90  1  0.225800  0.626200  0.333500  1.0  0.1056
  H  H91  1  0.066200  0.969000  0.332200  1.0  0.1192
  H  H92  1  0.114300  0.569400  0.317700  1.0  0.0686
  C  C93  1  0.512900  0.989400  0.538700  1.0  0.0636
  C  C94  1  0.525800  0.098000  0.586100  1.0  -0.1936
  C  C95  1  0.549400  0.073200  0.657100  1.0  0.1457
  C  C96  1  0.520500  0.855200  0.567800  1.0  -0.2215
  C  C97  1  0.545100  0.838700  0.638400  1.0  0.1595
  C  C98  1  0.388000  0.348400  0.158700  1.0  0.6702
  C  C99  1  0.763900  0.656800  0.563300  1.0  0.6611
  C  C100  1  0.747700  0.832500  0.795800  1.0  0.7034
  C  C101  1  0.760800  0.738200  0.681400  1.0  -0.1019
  C  C102  1  0.791100  0.781100  0.750100  1.0  -0.1737
  C  C103  1  0.798800  0.698300  0.636200  1.0  -0.0911
  C  C104  1  0.899400  0.734300  0.728400  1.0  0.212
  C  C105  1  0.868100  0.699700  0.658900  1.0  -0.1627
  C  C106  1  0.859200  0.773800  0.774100  1.0  -0.1255
  C  C107  1  0.371100  0.602600  0.137800  1.0  -0.0191
  C  C108  1  0.350300  0.712600  0.091900  1.0  -0.1561
  C  C109  1  0.328500  0.690300  0.020200  1.0  -0.1508
  C  C110  1  0.367300  0.469600  0.111400  1.0  -0.1603
  C  C111  1  0.351500  0.858400  0.117800  1.0  0.6793
  C  C112  1  0.347700  0.447100  0.037800  1.0  -0.1627
  C  C113  1  0.327900  0.556600  0.990800  1.0  0.1911
  C  C114  1  0.215700  0.670000  0.853700  1.0  0.0708
  C  C115  1  0.288100  0.632300  0.866700  1.0  -0.033
  C  C116  1  0.002300  0.769400  0.814300  1.0  0.033
  C  C117  1  0.166600  0.571600  0.853100  1.0  -0.1346
  C  C118  1  0.194700  0.804900  0.836800  1.0  -0.1569
  C  C119  1  0.097900  0.601600  0.835300  1.0  -0.2403
  C  C120  1  0.078800  0.737800  0.822700  1.0  0.0271
  C  C121  1  0.127300  0.837700  0.824700  1.0  -0.0555
  C  C122  1  0.487100  0.489400  0.961300  1.0  0.0628
  C  C123  1  0.474200  0.598000  0.913900  1.0  -0.1945
  C  C124  1  0.450600  0.573200  0.842900  1.0  0.1445
  C  C125  1  0.479500  0.355200  0.932200  1.0  -0.2226
  C  C126  1  0.454900  0.338700  0.861600  1.0  0.1591
  C  C127  1  0.612000  0.848400  0.341300  1.0  0.6705
  C  C128  1  0.236100  0.156800  0.936700  1.0  0.6611
  C  C129  1  0.252300  0.332500  0.704200  1.0  0.7031
  C  C130  1  0.239200  0.238200  0.818600  1.0  -0.1037
  C  C131  1  0.208900  0.281100  0.749900  1.0  -0.1753
  C  C132  1  0.201200  0.198300  0.863800  1.0  -0.0893
  C  C133  1  0.100600  0.234300  0.771600  1.0  0.2119
  C  C134  1  0.131900  0.199700  0.841100  1.0  -0.1616
  C  C135  1  0.140800  0.273800  0.725900  1.0  -0.1267
  C  C136  1  0.628900  0.102600  0.362200  1.0  -0.0183
  C  C137  1  0.649700  0.212600  0.408100  1.0  -0.1548
  C  C138  1  0.671500  0.190300  0.479800  1.0  -0.1505
  C  C139  1  0.632700  0.969600  0.388600  1.0  -0.1603
  C  C140  1  0.648500  0.358400  0.382200  1.0  0.679
  C  C141  1  0.652300  0.947100  0.462200  1.0  -0.1633
  C  C142  1  0.672100  0.056600  0.509200  1.0  0.192
  C  C143  1  0.784300  0.170000  0.646300  1.0  0.0713
  C  C144  1  0.711900  0.132300  0.633300  1.0  -0.0334
  C  C145  1  0.997700  0.269400  0.685700  1.0  0.0337
  C  C146  1  0.833400  0.071600  0.646900  1.0  -0.1351
  C  C147  1  0.805300  0.304900  0.663200  1.0  -0.1576
  C  C148  1  0.902100  0.101600  0.664700  1.0  -0.239
  C  C149  1  0.921200  0.237800  0.677300  1.0  0.0264
  C  C150  1  0.872700  0.337700  0.675300  1.0  -0.0544
  C  C151  1  0.487100  0.010600  0.461300  1.0  0.0628
  C  C152  1  0.474200  0.902000  0.413900  1.0  -0.1918
  C  C153  1  0.450600  0.926800  0.342900  1.0  0.1445
  C  C154  1  0.479500  0.144800  0.432200  1.0  -0.2234
  C  C155  1  0.454900  0.161300  0.361600  1.0  0.1597
  C  C156  1  0.612000  0.651600  0.841300  1.0  0.6706
  C  C157  1  0.236100  0.343200  0.436700  1.0  0.6612
  C  C158  1  0.252300  0.167500  0.204200  1.0  0.7022
  C  C159  1  0.239200  0.261800  0.318600  1.0  -0.1037
  C  C160  1  0.208900  0.218900  0.249900  1.0  -0.1755
  C  C161  1  0.201200  0.301700  0.363800  1.0  -0.0889
  C  C162  1  0.100600  0.265700  0.271600  1.0  0.2118
  C  C163  1  0.131900  0.300300  0.341100  1.0  -0.1617
  C  C164  1  0.140800  0.226200  0.225900  1.0  -0.1258
  C  C165  1  0.628900  0.397400  0.862200  1.0  -0.0182
  C  C166  1  0.649700  0.287400  0.908100  1.0  -0.1559
  C  C167  1  0.671500  0.309700  0.979800  1.0  -0.1496
  C  C168  1  0.632700  0.530400  0.888600  1.0  -0.159
  C  C169  1  0.648500  0.141600  0.882200  1.0  0.6786
  C  C170  1  0.652300  0.552900  0.962200  1.0  -0.1647
  C  C171  1  0.672100  0.443400  0.009200  1.0  0.1921
  C  C172  1  0.784300  0.330000  0.146300  1.0  0.0714
  C  C173  1  0.711900  0.367700  0.133300  1.0  -0.0336
  C  C174  1  0.997700  0.230600  0.185700  1.0  0.0339
  C  C175  1  0.833400  0.428400  0.146900  1.0  -0.1359
  C  C176  1  0.805300  0.195100  0.163200  1.0  -0.1568
  C  C177  1  0.902100  0.398400  0.164700  1.0  -0.2388
  C  C178  1  0.921200  0.262200  0.177300  1.0  0.0266
  C  C179  1  0.872700  0.162300  0.175300  1.0  -0.0542
  C  C180  1  0.512900  0.510600  0.038700  1.0  0.0636
  C  C181  1  0.525800  0.402000  0.086100  1.0  -0.1908
  C  C182  1  0.549400  0.426800  0.157100  1.0  0.1456
  C  C183  1  0.520500  0.644800  0.067800  1.0  -0.2241
  C  C184  1  0.545100  0.661300  0.138400  1.0  0.1604
  C  C185  1  0.388000  0.151600  0.658700  1.0  0.67
  C  C186  1  0.763900  0.843200  0.063300  1.0  0.6614
  C  C187  1  0.747700  0.667500  0.295800  1.0  0.7032
  C  C188  1  0.760800  0.761800  0.181400  1.0  -0.1034
  C  C189  1  0.791100  0.718900  0.250100  1.0  -0.1729
  C  C190  1  0.798800  0.801700  0.136200  1.0  -0.0903
  C  C191  1  0.899400  0.765700  0.228400  1.0  0.212
  C  C192  1  0.868100  0.800300  0.158900  1.0  -0.163
  C  C193  1  0.859200  0.726200  0.274100  1.0  -0.1254
  C  C194  1  0.371100  0.897400  0.637800  1.0  -0.019
  C  C195  1  0.350300  0.787400  0.591900  1.0  -0.156
  C  C196  1  0.328500  0.809700  0.520200  1.0  -0.1502
  C  C197  1  0.367300  0.030400  0.611400  1.0  -0.1605
  C  C198  1  0.351500  0.641600  0.617800  1.0  0.6799
  C  C199  1  0.347700  0.052900  0.537800  1.0  -0.162
  C  C200  1  0.327900  0.943400  0.490800  1.0  0.191
  C  C201  1  0.215700  0.830000  0.353700  1.0  0.0711
  C  C202  1  0.288100  0.867700  0.366700  1.0  -0.0337
  C  C203  1  0.002300  0.730600  0.314300  1.0  0.0331
  C  C204  1  0.166600  0.928400  0.353100  1.0  -0.1343
  C  C205  1  0.194700  0.695100  0.336800  1.0  -0.1565
  C  C206  1  0.097900  0.898400  0.335300  1.0  -0.2402
  C  C207  1  0.078800  0.762200  0.322700  1.0  0.0274
  C  C208  1  0.127300  0.662300  0.324700  1.0  -0.0555
  N  N209  1  0.557900  0.943800  0.684300  1.0  -0.3428
  N  N210  1  0.310500  0.531300  0.919000  1.0  -0.3471
  N  N211  1  0.968000  0.721500  0.749800  1.0  -0.3386
  N  N212  1  0.442100  0.443800  0.815700  1.0  -0.3454
  N  N213  1  0.689500  0.031300  0.581000  1.0  -0.3467
  N  N214  1  0.032000  0.221500  0.750200  1.0  -0.338
  N  N215  1  0.442100  0.056200  0.315700  1.0  -0.3444
  N  N216  1  0.689500  0.468700  0.081000  1.0  -0.3466
  N  N217  1  0.032000  0.278500  0.250200  1.0  -0.3377
  N  N218  1  0.557900  0.556200  0.184300  1.0  -0.3442
  N  N219  1  0.310500  0.968700  0.419000  1.0  -0.3468
  N  N220  1  0.968000  0.778500  0.249800  1.0  -0.338
  O  O221  1  0.385200  0.886300  0.177600  1.0  -0.5933
  O  O222  1  0.692400  0.879200  0.766100  1.0  -0.6009
  O  O223  1  0.377900  0.225500  0.131600  1.0  -0.7065
  O  O224  1  0.772000  0.824700  0.862100  1.0  -0.6695
  O  O225  1  0.412500  0.364100  0.221200  1.0  -0.6032
  O  O226  1  0.703900  0.654200  0.544500  1.0  -0.6113
  O  O227  1  0.316100  0.947600  0.077300  1.0  -0.7025
  O  O228  1  0.801400  0.639700  0.520200  1.0  -0.6908
  O  O229  1  0.614800  0.386300  0.322400  1.0  -0.5942
  O  O230  1  0.307600  0.379200  0.733900  1.0  -0.6016
  O  O231  1  0.622100  0.725500  0.368400  1.0  -0.7059
  O  O232  1  0.228000  0.324700  0.637900  1.0  -0.6727
  O  O233  1  0.587500  0.864100  0.278800  1.0  -0.6027
  O  O234  1  0.296100  0.154200  0.955500  1.0  -0.6109
  O  O235  1  0.683900  0.447600  0.422700  1.0  -0.7025
  O  O236  1  0.198600  0.139700  0.979800  1.0  -0.6915
  O  O237  1  0.614800  0.113700  0.822400  1.0  -0.5941
  O  O238  1  0.307600  0.120800  0.233900  1.0  -0.6016
  O  O239  1  0.622100  0.774500  0.868400  1.0  -0.7074
  O  O240  1  0.228000  0.175300  0.137900  1.0  -0.6716
  O  O241  1  0.587500  0.635900  0.778800  1.0  -0.6031
  O  O242  1  0.296100  0.345800  0.455500  1.0  -0.6105
  O  O243  1  0.683900  0.052400  0.922700  1.0  -0.7022
  O  O244  1  0.198600  0.360300  0.479800  1.0  -0.6922
  O  O245  1  0.385200  0.613700  0.677600  1.0  -0.5932
  O  O246  1  0.692400  0.620800  0.266100  1.0  -0.6011
  O  O247  1  0.377900  0.274500  0.631600  1.0  -0.7075
  O  O248  1  0.772000  0.675300  0.362100  1.0  -0.6693
  O  O249  1  0.412500  0.135900  0.721200  1.0  -0.6028
  O  O250  1  0.703900  0.845800  0.044500  1.0  -0.6122
  O  O251  1  0.316100  0.552400  0.577300  1.0  -0.7021
  O  O252  1  0.801400  0.860300  0.020200  1.0  -0.6918
