# generated using pymatgen
data_ZnH18C24N3O4
_symmetry_space_group_name_H-M   'P 1'
_cell_length_a   9.05310000
_cell_length_b   16.34200000
_cell_length_c   19.21800000
_cell_angle_alpha   90.00000000
_cell_angle_beta   90.00000000
_cell_angle_gamma   92.80400000
_symmetry_Int_Tables_number   1
_chemical_formula_structural   ZnH18C24N3O4
_chemical_formula_sum   'Zn4 H72 C96 N12 O16'
_cell_volume   2839.81750008
_cell_formula_units_Z   4
loop_
 _symmetry_equiv_pos_site_id
 _symmetry_equiv_pos_as_xyz
  1  'x, y, z'
loop_
 _atom_site_type_symbol
 _atom_site_label
 _atom_site_symmetry_multiplicity
 _atom_site_fract_x
 _atom_site_fract_y
 _atom_site_fract_z
 _atom_site_occupancy
 _atom_site_charge
  Zn  Zn1  1  0.632410  0.596950  0.685540  1.0  0.8675
  Zn  Zn2  1  0.367590  0.403050  0.314460  1.0  0.8685
  Zn  Zn3  1  0.132410  0.096950  0.814460  1.0  0.8683
  Zn  Zn4  1  0.867590  0.903050  0.185540  1.0  0.8673
  H  H5  1  0.837000  0.303500  0.402100  1.0  0.1056
  H  H6  1  0.914800  0.818700  0.731300  1.0  0.1014
  H  H7  1  0.079300  0.262400  0.757800  1.0  0.086
  H  H8  1  0.033400  0.372900  0.864000  1.0  0.1146
  H  H9  1  0.414800  0.318700  0.768700  1.0  0.0995
  H  H10  1  0.917900  0.331400  0.691300  1.0  0.1103
  H  H11  1  0.634000  0.473000  0.390400  1.0  0.0756
  H  H12  1  0.843500  0.500600  0.093700  1.0  0.1006
  H  H13  1  0.317400  0.566300  0.744500  1.0  0.073
  H  H14  1  0.582100  0.168600  0.191300  1.0  0.1095
  H  H15  1  0.817400  0.066300  0.755500  1.0  0.0729
  H  H16  1  0.715800  0.125300  0.102400  1.0  0.0975
  H  H17  1  0.290000  0.346800  0.459500  1.0  0.0775
  H  H18  1  0.215800  0.625300  0.397600  1.0  0.0976
  H  H19  1  0.466600  0.127100  0.364000  1.0  0.1135
  H  H20  1  0.398600  0.173900  0.426300  1.0  0.1341
  H  H21  1  0.420700  0.237600  0.257800  1.0  0.0846
  H  H22  1  0.533400  0.872900  0.636000  1.0  0.1139
  H  H23  1  0.585200  0.681300  0.231300  1.0  0.0995
  H  H24  1  0.366000  0.527000  0.609600  1.0  0.0758
  H  H25  1  0.966600  0.627100  0.136000  1.0  0.1137
  H  H26  1  0.349100  0.869000  0.313200  1.0  0.1088
  H  H27  1  0.784200  0.374700  0.602400  1.0  0.0983
  H  H28  1  0.734800  0.054000  0.990400  1.0  0.1308
  H  H29  1  0.153000  0.614500  0.975900  1.0  0.1037
  H  H30  1  0.182600  0.933700  0.244500  1.0  0.0727
  H  H31  1  0.210000  0.153200  0.959500  1.0  0.0769
  H  H32  1  0.395500  0.753100  0.564000  1.0  0.2551
  H  H33  1  0.265200  0.946000  0.009600  1.0  0.1311
  H  H34  1  0.082100  0.668600  0.308700  1.0  0.1102
  H  H35  1  0.579300  0.762400  0.742200  1.0  0.0857
  H  H36  1  0.604500  0.246900  0.436000  1.0  0.2535
  H  H37  1  0.150900  0.631000  0.813200  1.0  0.1086
  H  H38  1  0.101400  0.326100  0.926300  1.0  0.1321
  H  H39  1  0.656500  0.999400  0.593700  1.0  0.1008
  H  H40  1  0.653000  0.114500  0.524100  1.0  0.1034
  H  H41  1  0.710000  0.653200  0.540500  1.0  0.0768
  H  H42  1  0.347000  0.885500  0.475900  1.0  0.1034
  H  H43  1  0.688200  0.085200  0.329800  1.0  0.1062
  H  H44  1  0.590100  0.683000  0.440300  1.0  0.121
  H  H45  1  0.790000  0.846800  0.040500  1.0  0.0772
  H  H46  1  0.284200  0.874700  0.897600  1.0  0.0985
  H  H47  1  0.311800  0.914800  0.670200  1.0  0.1061
  H  H48  1  0.424200  0.749900  0.377600  1.0  0.1013
  H  H49  1  0.163000  0.696500  0.597900  1.0  0.1052
  H  H50  1  0.650900  0.131000  0.686800  1.0  0.1086
  H  H51  1  0.765200  0.446000  0.490400  1.0  0.1311
  H  H52  1  0.895500  0.253100  0.936000  1.0  0.2543
  H  H53  1  0.601400  0.826100  0.573700  1.0  0.1327
  H  H54  1  0.909900  0.817000  0.940300  1.0  0.12
  H  H55  1  0.898600  0.673900  0.073700  1.0  0.134
  H  H56  1  0.234800  0.554000  0.509600  1.0  0.1308
  H  H57  1  0.156500  0.499400  0.906300  1.0  0.1015
  H  H58  1  0.575800  0.250100  0.622400  1.0  0.1025
  H  H59  1  0.188200  0.585200  0.170200  1.0  0.1067
  H  H60  1  0.090100  0.183000  0.059700  1.0  0.1211
  H  H61  1  0.417900  0.831400  0.808700  1.0  0.1097
  H  H62  1  0.337000  0.803500  0.097900  1.0  0.106
  H  H63  1  0.075800  0.750100  0.877600  1.0  0.1028
  H  H64  1  0.866000  0.027000  0.890400  1.0  0.0756
  H  H65  1  0.920700  0.737600  0.242200  1.0  0.0846
  H  H66  1  0.409900  0.317000  0.559700  1.0  0.1203
  H  H67  1  0.682600  0.433700  0.255500  1.0  0.0727
  H  H68  1  0.104500  0.746900  0.064000  1.0  0.255
  H  H69  1  0.134000  0.973000  0.109600  1.0  0.0752
  H  H70  1  0.811800  0.414800  0.829800  1.0  0.1064
  H  H71  1  0.085200  0.181300  0.268700  1.0  0.1012
  H  H72  1  0.663000  0.196500  0.902100  1.0  0.1055
  H  H73  1  0.849100  0.369000  0.186800  1.0  0.1089
  H  H74  1  0.924200  0.249900  0.122400  1.0  0.1025
  H  H75  1  0.343500  0.000600  0.406300  1.0  0.1006
  H  H76  1  0.847000  0.385500  0.024100  1.0  0.1035
  C  C77  1  0.591900  0.450500  0.744100  1.0  0.6731
  C  C78  1  0.761400  0.341200  0.199900  1.0  -0.2142
  C  C79  1  0.160300  0.880000  0.258500  1.0  0.1772
  C  C80  1  0.350000  0.757500  0.125300  1.0  -0.1176
  C  C81  1  0.007500  0.764900  0.257100  1.0  0.1799
  C  C82  1  0.500900  0.315000  0.794700  1.0  0.0112
  C  C83  1  0.091100  0.568900  0.986200  1.0  -0.1448
  C  C84  1  0.499100  0.685000  0.205300  1.0  0.0122
  C  C85  1  0.388000  0.365500  0.464800  1.0  0.1665
  C  C86  1  0.410400  0.560500  0.575700  1.0  0.1508
  C  C87  1  0.888900  0.122600  0.291400  1.0  -0.1518
  C  C88  1  0.507500  0.264900  0.242900  1.0  0.1788
  C  C89  1  0.591100  0.068900  0.513800  1.0  -0.1461
  C  C90  1  0.502100  0.929700  0.542900  1.0  0.0664
  C  C91  1  0.831100  0.224200  0.128500  1.0  -0.1083
  C  C92  1  0.002100  0.429700  0.957100  1.0  0.0632
  C  C93  1  0.738600  0.158800  0.699900  1.0  -0.2121
  C  C94  1  0.150000  0.742500  0.625300  1.0  -0.1208
  C  C95  1  0.484800  0.145500  0.411300  1.0  -0.0993
  C  C96  1  0.839700  0.120000  0.741500  1.0  0.1756
  C  C97  1  0.997900  0.570300  0.042900  1.0  0.0636
  C  C98  1  0.092700  0.499300  0.944200  1.0  -0.0809
  C  C99  1  0.331100  0.724200  0.371500  1.0  -0.1091
  C  C100  1  0.091900  0.950500  0.755900  1.0  0.6725
  C  C101  1  0.408100  0.549500  0.255900  1.0  0.6727
  C  C102  1  0.089600  0.939500  0.075700  1.0  0.1491
  C  C103  1  0.910400  0.060500  0.924300  1.0  0.1513
  C  C104  1  0.492500  0.735100  0.757100  1.0  0.1804
  C  C105  1  0.040100  0.153300  0.024900  1.0  -0.2021
  C  C106  1  0.603900  0.223300  0.202400  1.0  -0.1877
  C  C107  1  0.760200  0.127800  0.331200  1.0  -0.1452
  C  C108  1  0.396100  0.776700  0.797600  1.0  -0.1879
  C  C109  1  0.106700  0.871600  0.966000  1.0  0.1005
  C  C110  1  0.698900  0.343300  0.591300  1.0  -0.1388
  C  C111  1  0.170300  0.922800  0.015800  1.0  -0.2489
  C  C112  1  0.893300  0.128400  0.034000  1.0  0.0998
  C  C113  1  0.908100  0.049500  0.244100  1.0  0.6718
  C  C114  1  0.592700  0.999300  0.555800  1.0  -0.0812
  C  C115  1  0.480500  0.752500  0.163300  1.0  -0.1555
  C  C116  1  0.301100  0.656700  0.408700  1.0  -0.1397
  C  C117  1  0.497900  0.070300  0.457100  1.0  0.0625
  C  C118  1  0.239000  0.695800  0.127200  1.0  0.261
  C  C119  1  0.329700  0.577200  0.515800  1.0  -0.2457
  C  C120  1  0.238600  0.658800  0.800100  1.0  -0.2223
  C  C121  1  0.992500  0.235100  0.742900  1.0  0.1823
  C  C122  1  0.908900  0.431100  0.013800  1.0  -0.147
  C  C123  1  0.907300  0.500700  0.055800  1.0  -0.0871
  C  C124  1  0.668900  0.275800  0.628500  1.0  -0.1083
  C  C125  1  0.767300  0.238100  0.677900  1.0  0.1307
  C  C126  1  0.339700  0.620000  0.758500  1.0  0.1792
  C  C127  1  0.984800  0.645500  0.088700  1.0  -0.1
  C  C128  1  0.540100  0.653300  0.475100  1.0  -0.2023
  C  C129  1  0.239800  0.872200  0.668800  1.0  -0.1436
  C  C130  1  0.097200  0.320900  0.342600  1.0  0.6892
  C  C131  1  0.612000  0.634500  0.535200  1.0  0.166
  C  C132  1  0.606700  0.371600  0.534000  1.0  0.1006
  C  C133  1  0.388900  0.622600  0.208600  1.0  -0.1516
  C  C134  1  0.111100  0.877400  0.708600  1.0  -0.1517
  C  C135  1  0.267300  0.738100  0.822100  1.0  0.1313
  C  C136  1  0.015200  0.354500  0.911300  1.0  -0.0982
  C  C137  1  0.589600  0.439500  0.424300  1.0  0.1504
  C  C138  1  0.260200  0.627800  0.168800  1.0  -0.1456
  C  C139  1  0.459900  0.346700  0.524900  1.0  -0.2028
  C  C140  1  0.902800  0.679100  0.657400  1.0  0.6899
  C  C141  1  0.896100  0.276700  0.702400  1.0  -0.1895
  C  C142  1  0.829700  0.077200  0.984200  1.0  -0.2471
  C  C143  1  0.168900  0.775800  0.871500  1.0  -0.1077
  C  C144  1  0.959900  0.846700  0.975100  1.0  -0.2029
  C  C145  1  0.261000  0.804200  0.627200  1.0  0.2611
  C  C146  1  0.261400  0.841200  0.300100  1.0  -0.2216
  C  C147  1  0.407300  0.000700  0.444200  1.0  -0.0872
  C  C148  1  0.519500  0.247500  0.836700  1.0  -0.1545
  C  C149  1  0.761000  0.304200  0.872800  1.0  0.261
  C  C150  1  0.402800  0.179100  0.842600  1.0  0.69
  C  C151  1  0.739800  0.372200  0.831200  1.0  -0.1433
  C  C152  1  0.019500  0.747500  0.663300  1.0  -0.1578
  C  C153  1  0.888000  0.865500  0.035200  1.0  0.1659
  C  C154  1  0.112000  0.134500  0.964800  1.0  0.166
  C  C155  1  0.739000  0.195800  0.372800  1.0  0.2607
  C  C156  1  0.650000  0.242500  0.874700  1.0  -0.1212
  C  C157  1  0.732700  0.261900  0.177900  1.0  0.131
  C  C158  1  0.198900  0.843300  0.908700  1.0  -0.1388
  C  C159  1  0.611100  0.377400  0.791400  1.0  -0.1515
  C  C160  1  0.999100  0.185000  0.294700  1.0  0.0114
  C  C161  1  0.597200  0.820900  0.157400  1.0  0.6891
  C  C162  1  0.850000  0.257500  0.374700  1.0  -0.1176
  C  C163  1  0.801100  0.156700  0.091300  1.0  -0.1389
  C  C164  1  0.980500  0.252500  0.336700  1.0  -0.1565
  C  C165  1  0.393300  0.628400  0.466000  1.0  0.0992
  C  C166  1  0.515200  0.854500  0.588700  1.0  -0.0981
  C  C167  1  0.660300  0.380000  0.241500  1.0  0.1764
  C  C168  1  0.000900  0.815000  0.705300  1.0  0.0115
  C  C169  1  0.232700  0.761900  0.322100  1.0  0.1315
  C  C170  1  0.408900  0.931100  0.486200  1.0  -0.1458
  C  C171  1  0.670300  0.422800  0.484200  1.0  -0.2464
  C  C172  1  0.103900  0.723300  0.297600  1.0  -0.1866
  N  N173  1  0.548300  0.590700  0.586460  1.0  -0.3348
  N  N174  1  0.466300  0.656200  0.738000  1.0  -0.3467
  N  N175  1  0.033700  0.843800  0.238000  1.0  -0.3436
  N  N176  1  0.889700  0.296300  0.910700  1.0  -0.4031
  N  N177  1  0.451700  0.409300  0.413540  1.0  -0.3372
  N  N178  1  0.533700  0.343800  0.262000  1.0  -0.3452
  N  N179  1  0.610300  0.203700  0.410700  1.0  -0.4031
  N  N180  1  0.951700  0.909300  0.086460  1.0  -0.337
  N  N181  1  0.110300  0.703700  0.089300  1.0  -0.4024
  N  N182  1  0.389700  0.796300  0.589300  1.0  -0.4026
  N  N183  1  0.048300  0.090700  0.913540  1.0  -0.3382
  N  N184  1  0.966300  0.156200  0.762000  1.0  -0.3458
  O  O185  1  0.301900  0.495400  0.259460  1.0  -0.6076
  O  O186  1  0.523800  0.543700  0.289660  1.0  -0.6136
  O  O187  1  0.577900  0.879800  0.119000  1.0  -0.5541
  O  O188  1  0.801900  0.995400  0.240540  1.0  -0.6069
  O  O189  1  0.922100  0.620200  0.619000  1.0  -0.5536
  O  O190  1  0.077900  0.379800  0.381000  1.0  -0.5531
  O  O191  1  0.198100  0.004600  0.759460  1.0  -0.6081
  O  O192  1  0.023800  0.043700  0.210340  1.0  -0.6136
  O  O193  1  0.284200  0.187100  0.807880  1.0  -0.6103
  O  O194  1  0.422100  0.120200  0.881000  1.0  -0.551
  O  O195  1  0.715800  0.812900  0.192120  1.0  -0.6091
  O  O196  1  0.784200  0.687100  0.692120  1.0  -0.6096
  O  O197  1  0.698100  0.504600  0.740540  1.0  -0.6075
  O  O198  1  0.215800  0.312900  0.307880  1.0  -0.6095
  O  O199  1  0.976200  0.956300  0.789660  1.0  -0.6125
  O  O200  1  0.476200  0.456300  0.710340  1.0  -0.6128
