# generated using pymatgen
data_ZnH16C24(NO4)2
_symmetry_space_group_name_H-M   'P 1'
_cell_length_a   16.31700000
_cell_length_b   13.02000000
_cell_length_c   13.59100000
_cell_angle_alpha   90.00000000
_cell_angle_beta   100.30300000
_cell_angle_gamma   90.00000000
_symmetry_Int_Tables_number   1
_chemical_formula_structural   ZnH16C24(NO4)2
_chemical_formula_sum   'Zn4 H64 C96 N8 O32'
_cell_volume   2840.81487530
_cell_formula_units_Z   4
loop_
 _symmetry_equiv_pos_site_id
 _symmetry_equiv_pos_as_xyz
  1  'x, y, z'
loop_
 _atom_site_type_symbol
 _atom_site_label
 _atom_site_symmetry_multiplicity
 _atom_site_fract_x
 _atom_site_fract_y
 _atom_site_fract_z
 _atom_site_occupancy
 _atom_site_charge
  Zn  Zn1  1  0.000000  0.336650  0.750000  1.0  0.9686
  Zn  Zn2  1  0.500000  0.836650  0.750000  1.0  0.9686
  Zn  Zn3  1  0.000000  0.663350  0.250000  1.0  0.9686
  Zn  Zn4  1  0.500000  0.163350  0.250000  1.0  0.9686
  H  H5  1  0.232000  0.043800  0.370500  1.0  0.3389
  H  H6  1  0.122600  0.185000  0.518200  1.0  0.137
  H  H7  1  0.319500  0.997100  0.525500  1.0  0.1378
  H  H8  1  0.242100  0.070000  0.781000  1.0  0.1543
  H  H9  1  0.205700  0.193600  0.288600  1.0  0.1519
  H  H10  1  0.183800  0.242100  0.385900  1.0  0.1244
  H  H11  1  0.070000  0.020500  0.288400  1.0  0.1191
  H  H12  1  0.068200  0.325800  0.289800  1.0  0.12
  H  H13  1  0.732000  0.543800  0.370500  1.0  0.3389
  H  H14  1  0.622600  0.685000  0.518200  1.0  0.137
  H  H15  1  0.819500  0.497100  0.525500  1.0  0.1378
  H  H16  1  0.742100  0.570000  0.781000  1.0  0.1543
  H  H17  1  0.705700  0.693600  0.288600  1.0  0.1519
  H  H18  1  0.683800  0.742100  0.385900  1.0  0.1244
  H  H19  1  0.570000  0.520500  0.288400  1.0  0.1191
  H  H20  1  0.568200  0.825800  0.289800  1.0  0.12
  H  H21  1  0.768000  0.043800  0.129500  1.0  0.3389
  H  H22  1  0.877400  0.185000  0.981800  1.0  0.1369
  H  H23  1  0.680500  0.997100  0.974500  1.0  0.1378
  H  H24  1  0.757900  0.070000  0.719000  1.0  0.1539
  H  H25  1  0.794300  0.193600  0.211400  1.0  0.1515
  H  H26  1  0.816200  0.242100  0.114100  1.0  0.1247
  H  H27  1  0.930000  0.020500  0.211600  1.0  0.1192
  H  H28  1  0.931800  0.325800  0.210200  1.0  0.1202
  H  H29  1  0.268000  0.543800  0.129500  1.0  0.3389
  H  H30  1  0.377400  0.685000  0.981800  1.0  0.1369
  H  H31  1  0.180500  0.497100  0.974500  1.0  0.1378
  H  H32  1  0.257900  0.570000  0.719000  1.0  0.1539
  H  H33  1  0.294300  0.693600  0.211400  1.0  0.1515
  H  H34  1  0.316200  0.742100  0.114100  1.0  0.1247
  H  H35  1  0.430000  0.520500  0.211600  1.0  0.1192
  H  H36  1  0.431800  0.825800  0.210200  1.0  0.1202
  H  H37  1  0.768000  0.956200  0.629500  1.0  0.3382
  H  H38  1  0.877400  0.815000  0.481800  1.0  0.137
  H  H39  1  0.680500  0.002900  0.474500  1.0  0.1356
  H  H40  1  0.757900  0.930000  0.219000  1.0  0.1533
  H  H41  1  0.794300  0.806400  0.711400  1.0  0.1517
  H  H42  1  0.816200  0.757900  0.614100  1.0  0.125
  H  H43  1  0.930000  0.979500  0.711600  1.0  0.119
  H  H44  1  0.931800  0.674200  0.710200  1.0  0.1201
  H  H45  1  0.268000  0.456200  0.629500  1.0  0.3382
  H  H46  1  0.377400  0.315000  0.481800  1.0  0.137
  H  H47  1  0.180500  0.502900  0.474500  1.0  0.1356
  H  H48  1  0.257900  0.430000  0.219000  1.0  0.1533
  H  H49  1  0.294300  0.306400  0.711400  1.0  0.1517
  H  H50  1  0.316200  0.257900  0.614100  1.0  0.125
  H  H51  1  0.430000  0.479500  0.711600  1.0  0.119
  H  H52  1  0.431800  0.174200  0.710200  1.0  0.1201
  H  H53  1  0.232000  0.956200  0.870500  1.0  0.3381
  H  H54  1  0.122600  0.815000  0.018200  1.0  0.1369
  H  H55  1  0.319500  0.002900  0.025500  1.0  0.1356
  H  H56  1  0.242100  0.930000  0.281000  1.0  0.1554
  H  H57  1  0.205700  0.806400  0.788600  1.0  0.1519
  H  H58  1  0.183800  0.757900  0.885900  1.0  0.1248
  H  H59  1  0.070000  0.979500  0.788400  1.0  0.1185
  H  H60  1  0.068200  0.674200  0.789800  1.0  0.1201
  H  H61  1  0.732000  0.456200  0.870500  1.0  0.3381
  H  H62  1  0.622600  0.315000  0.018200  1.0  0.1369
  H  H63  1  0.819500  0.502900  0.025500  1.0  0.1356
  H  H64  1  0.742100  0.430000  0.281000  1.0  0.1554
  H  H65  1  0.705700  0.306400  0.788600  1.0  0.1519
  H  H66  1  0.683800  0.257900  0.885900  1.0  0.1248
  H  H67  1  0.570000  0.479500  0.788400  1.0  0.1185
  H  H68  1  0.568200  0.174200  0.789800  1.0  0.1201
  C  C69  1  0.119400  0.196700  0.715500  1.0  0.7254
  C  C70  1  0.172800  0.136700  0.658900  1.0  -0.1432
  C  C71  1  0.164500  0.144300  0.553900  1.0  -0.1577
  C  C72  1  0.218500  0.091300  0.503500  1.0  0.2049
  C  C73  1  0.282400  0.031600  0.558500  1.0  -0.0799
  C  C74  1  0.290800  0.023600  0.663000  1.0  -0.1051
  C  C75  1  0.236500  0.075600  0.711800  1.0  -0.0811
  C  C76  1  0.363100  0.963600  0.721200  1.0  0.7059
  C  C77  1  0.175600  0.182000  0.343100  1.0  -0.0817
  C  C78  1  0.083000  0.173600  0.299100  1.0  0.0708
  C  C79  1  0.042100  0.082500  0.273900  1.0  -0.0839
  C  C80  1  0.041000  0.263500  0.274100  1.0  -0.083
  C  C81  1  0.619400  0.696700  0.715500  1.0  0.7254
  C  C82  1  0.672800  0.636700  0.658900  1.0  -0.1432
  C  C83  1  0.664500  0.644300  0.553900  1.0  -0.1577
  C  C84  1  0.718500  0.591300  0.503500  1.0  0.2049
  C  C85  1  0.782400  0.531600  0.558500  1.0  -0.0799
  C  C86  1  0.790800  0.523600  0.663000  1.0  -0.1051
  C  C87  1  0.736500  0.575600  0.711800  1.0  -0.0811
  C  C88  1  0.863100  0.463600  0.721200  1.0  0.7059
  C  C89  1  0.675600  0.682000  0.343100  1.0  -0.0817
  C  C90  1  0.583000  0.673600  0.299100  1.0  0.0708
  C  C91  1  0.542100  0.582500  0.273900  1.0  -0.0839
  C  C92  1  0.541000  0.763500  0.274100  1.0  -0.083
  C  C93  1  0.880600  0.196700  0.784500  1.0  0.7258
  C  C94  1  0.827200  0.136700  0.841100  1.0  -0.143
  C  C95  1  0.835500  0.144300  0.946100  1.0  -0.159
  C  C96  1  0.781500  0.091300  0.996500  1.0  0.2049
  C  C97  1  0.717600  0.031600  0.941500  1.0  -0.079
  C  C98  1  0.709200  0.023600  0.837000  1.0  -0.1056
  C  C99  1  0.763500  0.075600  0.788200  1.0  -0.0799
  C  C100  1  0.636900  0.963600  0.778800  1.0  0.7064
  C  C101  1  0.824400  0.182000  0.156900  1.0  -0.0807
  C  C102  1  0.917000  0.173600  0.200900  1.0  0.0713
  C  C103  1  0.957900  0.082500  0.226100  1.0  -0.0811
  C  C104  1  0.959000  0.263500  0.225900  1.0  -0.0739
  C  C105  1  0.380600  0.696700  0.784500  1.0  0.7258
  C  C106  1  0.327200  0.636700  0.841100  1.0  -0.143
  C  C107  1  0.335500  0.644300  0.946100  1.0  -0.159
  C  C108  1  0.281500  0.591300  0.996500  1.0  0.2049
  C  C109  1  0.217600  0.531600  0.941500  1.0  -0.079
  C  C110  1  0.209200  0.523600  0.837000  1.0  -0.1056
  C  C111  1  0.263500  0.575600  0.788200  1.0  -0.0799
  C  C112  1  0.136900  0.463600  0.778800  1.0  0.7064
  C  C113  1  0.324400  0.682000  0.156900  1.0  -0.0807
  C  C114  1  0.417000  0.673600  0.200900  1.0  0.0713
  C  C115  1  0.457900  0.582500  0.226100  1.0  -0.0811
  C  C116  1  0.459000  0.763500  0.225900  1.0  -0.0739
  C  C117  1  0.880600  0.803300  0.284500  1.0  0.7248
  C  C118  1  0.827200  0.863300  0.341100  1.0  -0.1431
  C  C119  1  0.835500  0.855700  0.446100  1.0  -0.1589
  C  C120  1  0.781500  0.908700  0.496500  1.0  0.2025
  C  C121  1  0.717600  0.968400  0.441500  1.0  -0.0804
  C  C122  1  0.709200  0.976400  0.337000  1.0  -0.1056
  C  C123  1  0.763500  0.924400  0.288200  1.0  -0.0801
  C  C124  1  0.636900  0.036400  0.278800  1.0  0.7066
  C  C125  1  0.824400  0.818000  0.656900  1.0  -0.0812
  C  C126  1  0.917000  0.826400  0.700900  1.0  0.0711
  C  C127  1  0.957900  0.917500  0.726100  1.0  -0.082
  C  C128  1  0.959000  0.736500  0.725900  1.0  -0.0817
  C  C129  1  0.380600  0.303300  0.284500  1.0  0.7248
  C  C130  1  0.327200  0.363300  0.341100  1.0  -0.1431
  C  C131  1  0.335500  0.355700  0.446100  1.0  -0.1589
  C  C132  1  0.281500  0.408700  0.496500  1.0  0.2025
  C  C133  1  0.217600  0.468400  0.441500  1.0  -0.0804
  C  C134  1  0.209200  0.476400  0.337000  1.0  -0.1056
  C  C135  1  0.263500  0.424400  0.288200  1.0  -0.0801
  C  C136  1  0.136900  0.536400  0.278800  1.0  0.7066
  C  C137  1  0.324400  0.318000  0.656900  1.0  -0.0812
  C  C138  1  0.417000  0.326400  0.700900  1.0  0.0711
  C  C139  1  0.457900  0.417500  0.726100  1.0  -0.082
  C  C140  1  0.459000  0.236500  0.725900  1.0  -0.0817
  C  C141  1  0.119400  0.803300  0.215500  1.0  0.7252
  C  C142  1  0.172800  0.863300  0.158900  1.0  -0.1426
  C  C143  1  0.164500  0.855700  0.053900  1.0  -0.1571
  C  C144  1  0.218500  0.908700  0.003500  1.0  0.2022
  C  C145  1  0.282400  0.968400  0.058500  1.0  -0.0794
  C  C146  1  0.290800  0.976400  0.163000  1.0  -0.1057
  C  C147  1  0.236500  0.924400  0.211800  1.0  -0.0811
  C  C148  1  0.363100  0.036400  0.221200  1.0  0.7056
  C  C149  1  0.175600  0.818000  0.843100  1.0  -0.0827
  C  C150  1  0.083000  0.826400  0.799100  1.0  0.0708
  C  C151  1  0.042100  0.917500  0.773900  1.0  -0.0806
  C  C152  1  0.041000  0.736500  0.774100  1.0  -0.0749
  C  C153  1  0.619400  0.303300  0.215500  1.0  0.7252
  C  C154  1  0.672800  0.363300  0.158900  1.0  -0.1426
  C  C155  1  0.664500  0.355700  0.053900  1.0  -0.1571
  C  C156  1  0.718500  0.408700  0.003500  1.0  0.2022
  C  C157  1  0.782400  0.468400  0.058500  1.0  -0.0794
  C  C158  1  0.790800  0.476400  0.163000  1.0  -0.1057
  C  C159  1  0.736500  0.424400  0.211800  1.0  -0.0811
  C  C160  1  0.863100  0.536400  0.221200  1.0  0.7056
  C  C161  1  0.675600  0.318000  0.843100  1.0  -0.0827
  C  C162  1  0.583000  0.326400  0.799100  1.0  0.0708
  C  C163  1  0.542100  0.417500  0.773900  1.0  -0.0806
  C  C164  1  0.541000  0.236500  0.774100  1.0  -0.0749
  N  N165  1  0.212800  0.094100  0.400700  1.0  -0.3988
  N  N166  1  0.712800  0.594100  0.400700  1.0  -0.3988
  N  N167  1  0.787200  0.094100  0.099300  1.0  -0.3983
  N  N168  1  0.287200  0.594100  0.099300  1.0  -0.3983
  N  N169  1  0.787200  0.905900  0.599300  1.0  -0.399
  N  N170  1  0.287200  0.405900  0.599300  1.0  -0.399
  N  N171  1  0.212800  0.905900  0.900700  1.0  -0.3988
  N  N172  1  0.712800  0.405900  0.900700  1.0  -0.3988
  O  O173  1  0.055360  0.242800  0.666667  1.0  -0.5795
  O  O174  1  0.139600  0.201300  0.808900  1.0  -0.5566
  O  O175  1  0.368600  0.956400  0.813400  1.0  -0.5416
  O  O176  1  0.415030  0.925700  0.670300  1.0  -0.5902
  O  O177  1  0.555360  0.742800  0.666667  1.0  -0.5797
  O  O178  1  0.639600  0.701300  0.808900  1.0  -0.5566
  O  O179  1  0.868600  0.456400  0.813400  1.0  -0.5416
  O  O180  1  0.915030  0.425700  0.670300  1.0  -0.5902
  O  O181  1  0.944640  0.242800  0.833400  1.0  -0.5787
  O  O182  1  0.860400  0.201300  0.691100  1.0  -0.5542
  O  O183  1  0.631400  0.956400  0.686600  1.0  -0.5408
  O  O184  1  0.584970  0.925700  0.829700  1.0  -0.5874
  O  O185  1  0.444640  0.742800  0.833400  1.0  -0.579
  O  O186  1  0.360400  0.701300  0.691100  1.0  -0.5542
  O  O187  1  0.131400  0.456400  0.686600  1.0  -0.5408
  O  O188  1  0.084970  0.425700  0.829700  1.0  -0.5874
  O  O189  1  0.944640  0.757200  0.333400  1.0  -0.5783
  O  O190  1  0.860400  0.798700  0.191100  1.0  -0.5542
  O  O191  1  0.631400  0.043600  0.186600  1.0  -0.5411
  O  O192  1  0.584970  0.074300  0.329700  1.0  -0.588
  O  O193  1  0.444640  0.257200  0.333400  1.0  -0.5785
  O  O194  1  0.360400  0.298700  0.191100  1.0  -0.5542
  O  O195  1  0.131400  0.543600  0.186600  1.0  -0.5411
  O  O196  1  0.084970  0.574300  0.329700  1.0  -0.588
  O  O197  1  0.055360  0.757200  0.166600  1.0  -0.5801
  O  O198  1  0.139600  0.798700  0.308900  1.0  -0.5561
  O  O199  1  0.368600  0.043600  0.313400  1.0  -0.5414
  O  O200  1  0.415030  0.074300  0.170300  1.0  -0.5904
  O  O201  1  0.555360  0.257200  0.166600  1.0  -0.5803
  O  O202  1  0.639600  0.298700  0.308900  1.0  -0.5561
  O  O203  1  0.868600  0.543600  0.313400  1.0  -0.5414
  O  O204  1  0.915030  0.574300  0.170300  1.0  -0.5904
