# generated using pymatgen
data_K4H18C28S2O13
_symmetry_space_group_name_H-M   'P 1'
_cell_length_a   13.35530000
_cell_length_b   14.56120000
_cell_length_c   23.34000000
_cell_angle_alpha   107.94600000
_cell_angle_beta   90.00000000
_cell_angle_gamma   117.29600000
_symmetry_Int_Tables_number   1
_chemical_formula_structural   K4H18C28S2O13
_chemical_formula_sum   'K16 H72 C112 S8 O52'
_cell_volume   3783.28303817
_cell_formula_units_Z   4
loop_
 _symmetry_equiv_pos_site_id
 _symmetry_equiv_pos_as_xyz
  1  'x, y, z'
loop_
 _atom_site_type_symbol
 _atom_site_label
 _atom_site_symmetry_multiplicity
 _atom_site_fract_x
 _atom_site_fract_y
 _atom_site_fract_z
 _atom_site_occupancy
 _atom_site_charge
  K  K1  1  0.127510  0.243540  0.930140  1.0  0.9357
  K  K2  1  0.188540  0.994880  0.870730  1.0  0.9266
  K  K3  1  0.985980  0.000000  0.750000  1.0  0.9223
  K  K4  1  0.871130  0.759880  0.820400  1.0  0.9529
  K  K5  1  0.000000  0.000000  0.500000  1.0  0.8823
  K  K6  1  0.888750  0.759880  0.320400  1.0  0.9528
  K  K7  1  0.872490  0.756460  0.069860  1.0  0.9349
  K  K8  1  0.193660  0.005120  0.629270  1.0  0.9262
  K  K9  1  0.014020  0.000000  0.250000  1.0  0.9218
  K  K10  1  0.116030  0.243540  0.430140  1.0  0.9352
  K  K11  1  0.000000  0.000000  0.000000  1.0  0.8823
  K  K12  1  0.811460  0.005120  0.129270  1.0  0.9258
  K  K13  1  0.111250  0.240120  0.679600  1.0  0.952
  K  K14  1  0.883970  0.756460  0.569860  1.0  0.9344
  K  K15  1  0.128870  0.240120  0.179600  1.0  0.9501
  K  K16  1  0.806340  0.994880  0.370730  1.0  0.926
  H  H17  1  0.893200  0.967600  0.888300  1.0  0.3838
  H  H18  1  0.074400  0.652800  0.492500  1.0  0.09
  H  H19  1  0.389400  0.522400  0.948700  1.0  0.1021
  H  H20  1  0.783800  0.361200  0.689400  1.0  0.1103
  H  H21  1  0.622300  0.477800  0.301700  1.0  0.1138
  H  H22  1  0.409200  0.354800  0.759700  1.0  0.0888
  H  H23  1  0.577400  0.361200  0.189400  1.0  0.1102
  H  H24  1  0.599400  0.744000  0.592300  1.0  0.0971
  H  H25  1  0.073800  0.643600  0.235700  1.0  0.0864
  H  H26  1  0.152400  0.764800  0.353300  1.0  0.0919
  H  H27  1  0.111300  0.007000  0.365100  1.0  0.3223
  H  H28  1  0.416900  0.366600  0.518100  1.0  0.0907
  H  H29  1  0.211600  0.640600  0.562900  1.0  0.1145
  H  H30  1  0.855400  0.256000  0.907700  1.0  0.0966
  H  H31  1  0.377700  0.522200  0.698300  1.0  0.1145
  H  H32  1  0.422600  0.638800  0.810600  1.0  0.1085
  H  H33  1  0.571000  0.359400  0.937100  1.0  0.1152
  H  H34  1  0.583600  0.360600  0.690500  1.0  0.1103
  H  H35  1  0.612400  0.764800  0.853300  1.0  0.0911
  H  H36  1  0.407300  0.623200  0.554000  1.0  0.1056
  H  H37  1  0.149900  0.758600  0.849300  1.0  0.069
  H  H38  1  0.391300  0.241400  0.650700  1.0  0.0692
  H  H39  1  0.120600  0.510400  0.942000  1.0  0.1051
  H  H40  1  0.895700  0.007000  0.865100  1.0  0.321
  H  H41  1  0.104300  0.993000  0.134900  1.0  0.3233
  H  H42  1  0.592700  0.376800  0.446000  1.0  0.1059
  H  H43  1  0.882600  0.481600  0.301600  1.0  0.1037
  H  H44  1  0.216200  0.638800  0.310600  1.0  0.1082
  H  H45  1  0.106800  0.032400  0.111700  1.0  0.3853
  H  H46  1  0.850100  0.241400  0.150700  1.0  0.0694
  H  H47  1  0.387600  0.235200  0.146700  1.0  0.0905
  H  H48  1  0.599000  0.481600  0.801600  1.0  0.1036
  H  H49  1  0.583100  0.633400  0.481900  1.0  0.0907
  H  H50  1  0.610200  0.489600  0.558000  1.0  0.1043
  H  H51  1  0.949700  0.366600  0.018100  1.0  0.0908
  H  H52  1  0.401000  0.518400  0.198400  1.0  0.1041
  H  H53  1  0.610600  0.477600  0.051300  1.0  0.1017
  H  H54  1  0.147500  0.766000  0.605300  1.0  0.0874
  H  H55  1  0.784100  0.376800  0.946000  1.0  0.1058
  H  H56  1  0.777000  0.360600  0.190500  1.0  0.1105
  H  H57  1  0.926200  0.356400  0.764300  1.0  0.0866
  H  H58  1  0.144600  0.744000  0.092300  1.0  0.097
  H  H59  1  0.430200  0.356400  0.264300  1.0  0.0865
  H  H60  1  0.400600  0.256000  0.407700  1.0  0.0964
  H  H61  1  0.381500  0.234000  0.894700  1.0  0.0867
  H  H62  1  0.888700  0.993000  0.634900  1.0  0.3211
  H  H63  1  0.788400  0.359400  0.437100  1.0  0.1152
  H  H64  1  0.578400  0.652800  0.992500  1.0  0.0898
  H  H65  1  0.215900  0.623200  0.054000  1.0  0.1055
  H  H66  1  0.416400  0.639400  0.309500  1.0  0.1095
  H  H67  1  0.429000  0.640600  0.062900  1.0  0.1145
  H  H68  1  0.117400  0.518400  0.698400  1.0  0.1041
  H  H69  1  0.925600  0.032400  0.611700  1.0  0.3863
  H  H70  1  0.925600  0.347200  0.507500  1.0  0.0893
  H  H71  1  0.867000  0.477600  0.551300  1.0  0.1017
  H  H72  1  0.223000  0.639400  0.809500  1.0  0.1093
  H  H73  1  0.074400  0.967600  0.388300  1.0  0.3841
  H  H74  1  0.050300  0.633400  0.981900  1.0  0.0906
  H  H75  1  0.569800  0.643600  0.735700  1.0  0.0863
  H  H76  1  0.852500  0.234000  0.394700  1.0  0.0867
  H  H77  1  0.054400  0.645200  0.740300  1.0  0.0891
  H  H78  1  0.608700  0.758600  0.349300  1.0  0.0689
  H  H79  1  0.133000  0.522400  0.448700  1.0  0.1021
  H  H80  1  0.879400  0.489600  0.058000  1.0  0.1043
  H  H81  1  0.421600  0.347200  0.007500  1.0  0.0893
  H  H82  1  0.144500  0.522200  0.198300  1.0  0.1146
  H  H83  1  0.590800  0.645200  0.240300  1.0  0.0891
  H  H84  1  0.945600  0.354800  0.259700  1.0  0.0888
  H  H85  1  0.618500  0.766000  0.105300  1.0  0.0868
  H  H86  1  0.389800  0.510400  0.442000  1.0  0.1053
  H  H87  1  0.847600  0.235200  0.646700  1.0  0.0916
  H  H88  1  0.855500  0.477800  0.801700  1.0  0.1138
  C  C89  1  0.558140  0.645080  0.205080  1.0  -0.0385
  C  C90  1  0.110460  0.724120  0.428430  1.0  -0.141
  C  C91  1  0.876060  0.431320  0.320100  1.0  -0.0266
  C  C92  1  0.549550  0.634700  0.447500  1.0  -0.0546
  C  C93  1  0.188110  0.562420  0.122640  1.0  -0.2145
  C  C94  1  0.377090  0.278980  0.821680  1.0  -0.1535
  C  C95  1  0.602410  0.431820  0.872960  1.0  -0.204
  C  C96  1  0.105010  0.707820  0.168730  1.0  -0.144
  C  C97  1  0.063840  0.808680  0.707040  1.0  0.7156
  C  C98  1  0.728080  0.793560  0.695300  1.0  0.7358
  C  C99  1  0.180340  0.641680  0.598600  1.0  -0.0967
  C  C100  1  0.449560  0.638320  0.344200  1.0  -0.0983
  C  C101  1  0.857230  0.282860  0.375500  1.0  -0.0087
  C  C102  1  0.187960  0.627720  0.090700  1.0  -0.0667
  C  C103  1  0.614510  0.434420  0.626890  1.0  -0.2144
  C  C104  1  0.936160  0.191320  0.292960  1.0  0.7141
  C  C105  1  0.435550  0.290500  0.631700  1.0  -0.0139
  C  C106  1  0.150520  0.717640  0.373100  1.0  -0.0128
  C  C107  1  0.374310  0.562420  0.622640  1.0  -0.2153
  C  C108  1  0.577880  0.432760  0.322760  1.0  -0.0487
  C  C109  1  0.123940  0.568680  0.679900  1.0  -0.0291
  C  C110  1  0.439760  0.627720  0.590700  1.0  -0.0665
  C  C111  1  0.566370  0.427740  0.069860  1.0  -0.0544
  C  C112  1  0.187780  0.641560  0.347100  1.0  -0.0906
  C  C113  1  0.086940  0.645080  0.705080  1.0  -0.0295
  C  C114  1  0.180090  0.565580  0.873110  1.0  -0.2145
  C  C115  1  0.567120  0.717640  0.873100  1.0  -0.0124
  C  C116  1  0.811240  0.361680  0.155800  1.0  -0.0973
  C  C117  1  0.397190  0.292180  0.331270  1.0  -0.1437
  C  C118  1  0.271920  0.206440  0.304700  1.0  0.7383
  C  C119  1  0.170590  0.568180  0.627040  1.0  -0.2042
  C  C120  1  0.098110  0.721020  0.678320  1.0  -0.1537
  C  C121  1  0.265310  0.186620  0.042100  1.0  0.7408
  C  C122  1  0.388200  0.570400  0.875990  1.0  -0.2064
  C  C123  1  0.127610  0.561220  0.923840  1.0  -0.0479
  C  C124  1  0.103170  0.650340  0.456130  1.0  -0.0536
  C  C125  1  0.817800  0.429600  0.624010  1.0  -0.2067
  C  C126  1  0.397590  0.568180  0.127040  1.0  -0.206
  C  C127  1  0.861370  0.427740  0.569860  1.0  -0.0573
  C  C128  1  0.463250  0.359900  0.300480  1.0  -0.034
  C  C129  1  0.574370  0.717140  0.124500  1.0  -0.0093
  C  C130  1  0.432880  0.282360  0.126900  1.0  -0.0133
  C  C131  1  0.425630  0.282860  0.875500  1.0  -0.0101
  C  C132  1  0.145050  0.709500  0.868300  1.0  -0.0147
  C  C133  1  0.914850  0.365300  0.052500  1.0  -0.0532
  C  C134  1  0.444740  0.568680  0.179900  1.0  -0.0333
  C  C135  1  0.854320  0.299840  0.886200  1.0  -0.0254
  C  C136  1  0.445520  0.299840  0.386200  1.0  -0.0261
  C  C137  1  0.546220  0.358440  0.152900  1.0  -0.0914
  C  C138  1  0.385490  0.565580  0.373110  1.0  -0.216
  C  C139  1  0.065480  0.793560  0.195300  1.0  0.7385
  C  C140  1  0.934520  0.206440  0.804700  1.0  0.7369
  C  C141  1  0.819910  0.434420  0.126890  1.0  -0.2161
  C  C142  1  0.560240  0.372280  0.409300  1.0  -0.0642
  C  C143  1  0.872390  0.438780  0.076160  1.0  -0.0438
  C  C144  1  0.819660  0.358320  0.401400  1.0  -0.0961
  C  C145  1  0.085150  0.634700  0.947500  1.0  -0.0529
  C  C146  1  0.849480  0.282360  0.626900  1.0  -0.0132
  C  C147  1  0.622910  0.721020  0.178320  1.0  -0.1547
  C  C148  1  0.142770  0.717140  0.624500  1.0  -0.0102
  C  C149  1  0.441860  0.354920  0.794920  1.0  -0.0282
  C  C150  1  0.947150  0.208100  0.053000  1.0  0.7047
  C  C151  1  0.905260  0.290720  0.080300  1.0  -0.145
  C  C152  1  0.094740  0.709280  0.919700  1.0  -0.1465
  C  C153  1  0.536750  0.640100  0.699520  1.0  -0.0331
  C  C154  1  0.255160  0.191320  0.792960  1.0  0.715
  C  C155  1  0.811890  0.437580  0.877360  1.0  -0.2149
  C  C156  1  0.894990  0.292180  0.831270  1.0  -0.143
  C  C157  1  0.921310  0.186620  0.542100  1.0  0.7406
  C  C158  1  0.613660  0.724120  0.928430  1.0  -0.1417
  C  C159  1  0.554480  0.700160  0.613800  1.0  -0.024
  C  C160  1  0.538660  0.358320  0.901400  1.0  -0.0989
  C  C161  1  0.854950  0.290500  0.131700  1.0  -0.0125
  C  C162  1  0.611800  0.429600  0.124010  1.0  -0.2054
  C  C163  1  0.138630  0.572260  0.430140  1.0  -0.054
  C  C164  1  0.896650  0.359900  0.800480  1.0  -0.0342
  C  C165  1  0.854880  0.432760  0.822760  1.0  -0.0494
  C  C166  1  0.450450  0.365300  0.552500  1.0  -0.0517
  C  C167  1  0.145680  0.700160  0.113800  1.0  -0.0255
  C  C168  1  0.566390  0.438780  0.576160  1.0  -0.047
  C  C169  1  0.385460  0.290720  0.580300  1.0  -0.1445
  C  C170  1  0.625690  0.437580  0.377360  1.0  -0.2142
  C  C171  1  0.433630  0.572260  0.930140  1.0  -0.0557
  C  C172  1  0.896830  0.349660  0.543870  1.0  -0.0584
  C  C173  1  0.812220  0.358440  0.652900  1.0  -0.0926
  C  C174  1  0.901890  0.278980  0.321680  1.0  -0.1537
  C  C175  1  0.739050  0.791900  0.447000  1.0  0.7051
  C  C176  1  0.260950  0.208100  0.553000  1.0  0.706
  C  C177  1  0.433610  0.561220  0.423840  1.0  -0.0462
  C  C178  1  0.734690  0.813380  0.957900  1.0  0.7414
  C  C179  1  0.188760  0.638320  0.844200  1.0  -0.1005
  C  C180  1  0.386340  0.275880  0.071570  1.0  -0.1396
  C  C181  1  0.614540  0.709280  0.419700  1.0  -0.147
  C  C182  1  0.812040  0.372280  0.909300  1.0  -0.0658
  C  C183  1  0.052850  0.791900  0.947000  1.0  0.7064
  C  C184  1  0.913060  0.354920  0.294920  1.0  -0.0301
  C  C185  1  0.103350  0.640100  0.199520  1.0  -0.0303
  C  C186  1  0.564450  0.709500  0.368300  1.0  -0.0137
  C  C187  1  0.422120  0.567240  0.677240  1.0  -0.048
  C  C188  1  0.461340  0.641680  0.098600  1.0  -0.0989
  C  C189  1  0.547170  0.650340  0.956130  1.0  -0.0599
  C  C190  1  0.145120  0.567240  0.177240  1.0  -0.049
  C  C191  1  0.182200  0.570400  0.375990  1.0  -0.2052
  C  C192  1  0.744840  0.808680  0.207040  1.0  0.7155
  C  C193  1  0.452830  0.349660  0.043870  1.0  -0.0585
  C  C194  1  0.078690  0.813380  0.457900  1.0  0.742
  C  C195  1  0.829410  0.431820  0.372960  1.0  -0.206
  C  C196  1  0.550440  0.361680  0.655800  1.0  -0.103
  C  C197  1  0.555260  0.431320  0.820100  1.0  -0.0291
  C  C198  1  0.453780  0.641560  0.847100  1.0  -0.0934
  C  C199  1  0.602810  0.707820  0.668730  1.0  -0.1436
  C  C200  1  0.889540  0.275880  0.571570  1.0  -0.14
  S  S201  1  0.251150  0.477300  0.096030  1.0  1.0796
  S  S202  1  0.226150  0.477300  0.596030  1.0  1.0795
  S  S203  1  0.237340  0.479640  0.345240  1.0  1.0595
  S  S204  1  0.748850  0.522700  0.903970  1.0  1.0799
  S  S205  1  0.762660  0.520360  0.654760  1.0  1.0595
  S  S206  1  0.773850  0.522700  0.403970  1.0  1.0797
  S  S207  1  0.242300  0.479640  0.845240  1.0  1.0593
  S  S208  1  0.757700  0.520360  0.154760  1.0  1.0598
  O  O209  1  0.206090  0.139580  0.075930  1.0  -0.7153
  O  O210  1  0.239420  0.446640  0.030520  1.0  -0.7048
  O  O211  1  0.770070  0.550340  0.220300  1.0  -0.7015
  O  O212  1  0.933490  0.139580  0.575930  1.0  -0.7159
  O  O213  1  0.050630  0.846860  0.914910  1.0  -0.7143
  O  O214  1  0.783400  0.843400  0.661430  1.0  -0.6919
  O  O215  1  0.046220  0.997840  0.124790  1.0  -0.6194
  O  O216  1  0.051880  0.827360  0.761740  1.0  -0.7075
  O  O217  1  0.774120  0.800040  0.498270  1.0  -0.6047
  O  O218  1  0.793910  0.860420  0.924070  1.0  -0.7136
  O  O219  1  0.948550  0.143100  0.326540  1.0  -0.7277
  O  O220  1  0.940000  0.156600  0.838570  1.0  -0.6921
  O  O221  1  0.194550  0.143100  0.826540  1.0  -0.7291
  O  O222  1  0.236670  0.192940  0.252270  1.0  -0.6249
  O  O223  1  0.949370  0.153140  0.085090  1.0  -0.7144
  O  O224  1  0.225880  0.199960  0.501730  1.0  -0.6087
  O  O225  1  0.235460  0.166520  0.986920  1.0  -0.7158
  O  O226  1  0.931060  0.166520  0.486920  1.0  -0.7163
  O  O227  1  0.790350  0.606900  0.877000  1.0  -0.655
  O  O228  1  0.183450  0.393100  0.623000  1.0  -0.6548
  O  O229  1  0.068940  0.833480  0.513080  1.0  -0.7155
  O  O230  1  0.203770  0.153140  0.585090  1.0  -0.7153
  O  O231  1  0.051450  0.856900  0.673460  1.0  -0.7275
  O  O232  1  0.948120  0.172640  0.238260  1.0  -0.708
  O  O233  1  0.805450  0.856900  0.173460  1.0  -0.7246
  O  O234  1  0.194820  0.395240  0.371960  1.0  -0.6482
  O  O235  1  0.229930  0.449660  0.779700  1.0  -0.7022
  O  O236  1  0.763330  0.807060  0.747730  1.0  -0.622
  O  O237  1  0.780270  0.550340  0.720300  1.0  -0.7017
  O  O238  1  0.816550  0.606900  0.377000  1.0  -0.655
  O  O239  1  0.956270  0.192940  0.752270  1.0  -0.6236
  O  O240  1  0.216600  0.156600  0.338570  1.0  -0.6918
  O  O241  1  0.219730  0.449660  0.279700  1.0  -0.7022
  O  O242  1  0.060000  0.843400  0.161430  1.0  -0.6919
  O  O243  1  0.974080  0.199960  0.001730  1.0  -0.6081
  O  O244  1  0.200420  0.395240  0.871960  1.0  -0.6482
  O  O245  1  0.224520  0.172640  0.738260  1.0  -0.7078
  O  O246  1  0.209650  0.393100  0.123000  1.0  -0.6547
  O  O247  1  0.775480  0.827360  0.261740  1.0  -0.7063
  O  O248  1  0.796230  0.846860  0.414910  1.0  -0.7142
  O  O249  1  0.207220  0.446640  0.530520  1.0  -0.7049
  O  O250  1  0.025920  0.800040  0.998270  1.0  -0.6058
  O  O251  1  0.760580  0.553360  0.969480  1.0  -0.7046
  O  O252  1  0.043730  0.807060  0.247730  1.0  -0.6219
  O  O253  1  0.799580  0.604760  0.128040  1.0  -0.6487
  O  O254  1  0.953780  0.002160  0.875210  1.0  -0.6146
  O  O255  1  0.805180  0.604760  0.628040  1.0  -0.6487
  O  O256  1  0.764540  0.833480  0.013080  1.0  -0.7156
  O  O257  1  0.951620  0.997840  0.624790  1.0  -0.6145
  O  O258  1  0.048380  0.002160  0.375210  1.0  -0.6184
  O  O259  1  0.066510  0.860420  0.424070  1.0  -0.7133
  O  O260  1  0.792780  0.553360  0.469480  1.0  -0.7046
