# generated using pymatgen
data_CsH8C14SO6
_symmetry_space_group_name_H-M   'P 1'
_cell_length_a   6.05440000
_cell_length_b   12.49910000
_cell_length_c   14.75390000
_cell_angle_alpha   114.46200000
_cell_angle_beta   93.21300000
_cell_angle_gamma   100.17700000
_symmetry_Int_Tables_number   1
_chemical_formula_structural   CsH8C14SO6
_chemical_formula_sum   'Cs2 H16 C28 S2 O12'
_cell_volume   989.82635185
_cell_formula_units_Z   2
loop_
 _symmetry_equiv_pos_site_id
 _symmetry_equiv_pos_as_xyz
  1  'x, y, z'
loop_
 _atom_site_type_symbol
 _atom_site_label
 _atom_site_symmetry_multiplicity
 _atom_site_fract_x
 _atom_site_fract_y
 _atom_site_fract_z
 _atom_site_occupancy
 _atom_site_charge
  Cs  Cs1  1  0.770780  0.693020  0.124050  1.0  0.9399
  Cs  Cs2  1  0.229220  0.306980  0.875950  1.0  0.9405
  H  H3  1  0.900200  0.145200  0.064800  1.0  0.112
  H  H4  1  0.367900  0.301200  0.126100  1.0  0.1197
  H  H5  1  0.740400  0.003800  0.119100  1.0  0.1366
  H  H6  1  0.211600  0.164200  0.186600  1.0  0.1232
  H  H7  1  0.741600  0.980100  0.321800  1.0  0.1197
  H  H8  1  0.888000  0.082300  0.491400  1.0  0.1094
  H  H9  1  0.340900  0.226300  0.549100  1.0  0.127
  H  H10  1  0.194200  0.126900  0.378900  1.0  0.1341
  H  H11  1  0.099800  0.854800  0.935200  1.0  0.1125
  H  H12  1  0.632100  0.698800  0.873900  1.0  0.1198
  H  H13  1  0.259600  0.996200  0.880900  1.0  0.1367
  H  H14  1  0.788400  0.835800  0.813400  1.0  0.1234
  H  H15  1  0.258400  0.019900  0.678200  1.0  0.1202
  H  H16  1  0.112000  0.917700  0.508600  1.0  0.1097
  H  H17  1  0.659100  0.773700  0.450900  1.0  0.1255
  H  H18  1  0.805800  0.873100  0.621100  1.0  0.135
  C  C19  1  0.767700  0.334460  0.061750  1.0  0.7121
  C  C20  1  0.653100  0.239270  0.092630  1.0  -0.1223
  C  C21  1  0.762000  0.148830  0.089250  1.0  -0.0081
  C  C22  1  0.444300  0.243060  0.126620  1.0  0.011
  C  C23  1  0.667700  0.064470  0.121700  1.0  -0.0317
  C  C24  1  0.461800  0.072010  0.158370  1.0  -0.1981
  C  C25  1  0.349000  0.160280  0.161520  1.0  -0.0611
  C  C26  1  0.453300  0.043520  0.335160  1.0  -0.1987
  C  C27  1  0.661900  0.029560  0.367370  1.0  -0.0312
  C  C28  1  0.748700  0.090800  0.468620  1.0  -0.0115
  C  C29  1  0.629700  0.164520  0.536320  1.0  -0.1214
  C  C30  1  0.421200  0.177500  0.503310  1.0  -0.0035
  C  C31  1  0.332500  0.117500  0.401770  1.0  -0.0193
  C  C32  1  0.734800  0.230800  0.644610  1.0  0.7222
  C  C33  1  0.232300  0.665540  0.938250  1.0  0.7218
  C  C34  1  0.346900  0.760730  0.907370  1.0  -0.1214
  C  C35  1  0.238000  0.851170  0.910750  1.0  -0.0067
  C  C36  1  0.555700  0.756940  0.873380  1.0  0.0101
  C  C37  1  0.332300  0.935530  0.878300  1.0  -0.032
  C  C38  1  0.538200  0.927990  0.841630  1.0  -0.1993
  C  C39  1  0.651000  0.839720  0.838480  1.0  -0.0608
  C  C40  1  0.546700  0.956480  0.664840  1.0  -0.1978
  C  C41  1  0.338100  0.970440  0.632630  1.0  -0.0289
  C  C42  1  0.251300  0.909200  0.531380  1.0  -0.0095
  C  C43  1  0.370300  0.835480  0.463680  1.0  -0.1199
  C  C44  1  0.578800  0.822500  0.496690  1.0  -0.0075
  C  C45  1  0.667500  0.882500  0.598230  1.0  -0.0205
  C  C46  1  0.265200  0.769200  0.355390  1.0  0.7223
  S  S47  1  0.344170  0.969190  0.205510  1.0  1.1648
  S  S48  1  0.655830  0.030810  0.794490  1.0  1.1628
  O  O49  1  0.102200  0.956500  0.195620  1.0  -0.5875
  O  O50  1  0.435600  0.863210  0.161770  1.0  -0.5954
  O  O51  1  0.649500  0.397510  0.043230  1.0  -0.6712
  O  O52  1  0.976800  0.344020  0.057810  1.0  -0.6414
  O  O53  1  0.611400  0.299630  0.702950  1.0  -0.6557
  O  O54  1  0.918100  0.221600  0.673430  1.0  -0.5845
  O  O55  1  0.897800  0.043500  0.804380  1.0  -0.5881
  O  O56  1  0.564400  0.136790  0.838230  1.0  -0.5947
  O  O57  1  0.350500  0.602490  0.956770  1.0  -0.6671
  O  O58  1  0.023200  0.655980  0.942190  1.0  -0.6383
  O  O59  1  0.388600  0.700370  0.297050  1.0  -0.653
  O  O60  1  0.081900  0.778400  0.326570  1.0  -0.5838
