# generated using pymatgen
data_Co7H39(C18O11)3
_symmetry_space_group_name_H-M   'P 1'
_cell_length_a   17.24540000
_cell_length_b   17.24540000
_cell_length_c   29.80990000
_cell_angle_alpha   73.18660000
_cell_angle_beta   73.18660000
_cell_angle_gamma   60.00000000
_symmetry_Int_Tables_number   1
_chemical_formula_structural   Co7H39(C18O11)3
_chemical_formula_sum   'Co28 H156 C216 O132'
_cell_volume   7236.89250580
_cell_formula_units_Z   4
loop_
 _symmetry_equiv_pos_site_id
 _symmetry_equiv_pos_as_xyz
  1  'x, y, z'
loop_
 _atom_site_type_symbol
 _atom_site_label
 _atom_site_symmetry_multiplicity
 _atom_site_fract_x
 _atom_site_fract_y
 _atom_site_fract_z
 _atom_site_occupancy
 _atom_site_charge
  Co  Co1  1  0.758910  0.441050  0.062370  1.0  1.0765
  Co  Co2  1  0.941050  0.258910  0.562370  1.0  1.0831
  Co  Co3  1  0.857990  0.040620  0.323210  1.0  1.0594
  Co  Co4  1  0.858920  0.858920  0.423240  1.0  0.6732
  Co  Co5  1  0.641080  0.641080  0.076760  1.0  0.6726
  Co  Co6  1  0.737670  0.758910  0.062370  1.0  1.078
  Co  Co7  1  0.142010  0.959380  0.676790  1.0  1.0603
  Co  Co8  1  0.762330  0.058950  0.437630  1.0  1.0814
  Co  Co9  1  0.959380  0.221820  0.676790  1.0  1.0603
  Co  Co10  1  0.221820  0.142010  0.676790  1.0  1.062
  Co  Co11  1  0.278180  0.540620  0.823210  1.0  1.0613
  Co  Co12  1  0.441050  0.737670  0.062370  1.0  1.0835
  Co  Co13  1  0.558950  0.262330  0.937630  1.0  1.0735
  Co  Co14  1  0.141080  0.141080  0.576760  1.0  0.6726
  Co  Co15  1  0.357990  0.278180  0.823210  1.0  1.0657
  Co  Co16  1  0.241090  0.558950  0.937630  1.0  1.0829
  Co  Co17  1  0.258910  0.237670  0.562370  1.0  1.0797
  Co  Co18  1  0.040620  0.778180  0.323210  1.0  1.0599
  Co  Co19  1  0.358920  0.358920  0.923240  1.0  0.6732
  Co  Co20  1  0.540620  0.357990  0.823210  1.0  1.0592
  Co  Co21  1  0.778180  0.857990  0.323210  1.0  1.0651
  Co  Co22  1  0.459380  0.642010  0.176790  1.0  1.0617
  Co  Co23  1  0.642010  0.721820  0.176790  1.0  1.0614
  Co  Co24  1  0.721820  0.459380  0.176790  1.0  1.0583
  Co  Co25  1  0.237670  0.941050  0.562370  1.0  1.0777
  Co  Co26  1  0.058950  0.741090  0.437630  1.0  1.0719
  Co  Co27  1  0.262330  0.241090  0.937630  1.0  1.0725
  Co  Co28  1  0.741090  0.762330  0.437630  1.0  1.0745
  H  H29  1  0.152700  0.203000  0.101400  1.0  0.104
  H  H30  1  0.703000  0.652700  0.601400  1.0  0.1042
  H  H31  1  0.440500  0.182500  0.125400  1.0  0.0932
  H  H32  1  0.377800  0.488800  0.880600  1.0  0.4658
  H  H33  1  0.877800  0.752800  0.380600  1.0  0.4634
  H  H34  1  0.952500  0.061100  0.170900  1.0  0.1058
  H  H35  1  0.666400  0.253400  0.728800  1.0  0.1246
  H  H36  1  0.940500  0.751600  0.625400  1.0  0.1015
  H  H37  1  0.561100  0.452500  0.670900  1.0  0.1068
  H  H38  1  0.989500  0.161800  0.970700  1.0  0.0811
  H  H39  1  0.833600  0.148600  0.771200  1.0  0.1241
  H  H40  1  0.011200  0.122200  0.619400  1.0  0.4641
  H  H41  1  0.652700  0.042900  0.601400  1.0  0.1052
  H  H42  1  0.561400  0.526200  0.514000  1.0  0.1771
  H  H43  1  0.973800  0.938600  0.986000  1.0  0.1698
  H  H44  1  0.045600  0.903200  0.530900  1.0  0.1146
  H  H45  1  0.438600  0.473800  0.486000  1.0  0.173
  H  H46  1  0.511200  0.747200  0.119400  1.0  0.4641
  H  H47  1  0.751600  0.682500  0.625400  1.0  0.098
  H  H48  1  0.547500  0.684500  0.329100  1.0  0.1069
  H  H49  1  0.061100  0.815500  0.170900  1.0  0.1079
  H  H50  1  0.974700  0.483900  0.153900  1.0  0.1263
  H  H51  1  0.317500  0.059500  0.374600  1.0  0.0986
  H  H52  1  0.042900  0.703000  0.601400  1.0  0.1009
  H  H53  1  0.457100  0.847300  0.898600  1.0  0.1034
  H  H54  1  0.351400  0.666400  0.728800  1.0  0.124
  H  H55  1  0.025300  0.516100  0.846100  1.0  0.1266
  H  H56  1  0.797000  0.457100  0.898600  1.0  0.1033
  H  H57  1  0.847300  0.797000  0.898600  1.0  0.1033
  H  H58  1  0.038000  0.065100  0.956900  1.0  0.1403
  H  H59  1  0.817500  0.748400  0.874600  1.0  0.103
  H  H60  1  0.983900  0.474700  0.653900  1.0  0.127
  H  H61  1  0.661800  0.489500  0.470700  1.0  0.0859
  H  H62  1  0.184500  0.047500  0.829100  1.0  0.1063
  H  H63  1  0.538000  0.440000  0.456900  1.0  0.1472
  H  H64  1  0.622000  0.338200  0.529300  1.0  0.0821
  H  H65  1  0.060000  0.962000  0.043100  1.0  0.1472
  H  H66  1  0.452500  0.315500  0.670900  1.0  0.1075
  H  H67  1  0.427100  0.682400  0.584500  1.0  0.1522
  H  H68  1  0.398400  0.561400  0.514000  1.0  0.177
  H  H69  1  0.096800  0.479700  0.469100  1.0  0.1147
  H  H70  1  0.182500  0.251600  0.125400  1.0  0.1021
  H  H71  1  0.253400  0.351400  0.728800  1.0  0.1234
  H  H72  1  0.940000  0.038000  0.956900  1.0  0.1452
  H  H73  1  0.306000  0.427100  0.584500  1.0  0.1551
  H  H74  1  0.559500  0.817500  0.874600  1.0  0.0938
  H  H75  1  0.315500  0.561100  0.670900  1.0  0.1056
  H  H76  1  0.166400  0.851400  0.228800  1.0  0.1243
  H  H77  1  0.545100  0.717600  0.941500  1.0  0.1146
  H  H78  1  0.815500  0.952500  0.170900  1.0  0.1058
  H  H79  1  0.684500  0.438900  0.329100  1.0  0.1068
  H  H80  1  0.954400  0.096800  0.469100  1.0  0.1145
  H  H81  1  0.072900  0.194000  0.915500  1.0  0.1546
  H  H82  1  0.525300  0.112500  0.346100  1.0  0.1253
  H  H83  1  0.434900  0.462000  0.543100  1.0  0.1397
  H  H84  1  0.516100  0.612500  0.846100  1.0  0.1261
  H  H85  1  0.704200  0.782400  0.558500  1.0  0.1149
  H  H86  1  0.479700  0.954400  0.469100  1.0  0.1155
  H  H87  1  0.047500  0.938900  0.829100  1.0  0.1057
  H  H88  1  0.545600  0.020300  0.030900  1.0  0.1142
  H  H89  1  0.403200  0.545600  0.030900  1.0  0.1145
  H  H90  1  0.753400  0.166400  0.228800  1.0  0.1243
  H  H91  1  0.887500  0.983900  0.653900  1.0  0.1258
  H  H92  1  0.565100  0.538000  0.456900  1.0  0.1403
  H  H93  1  0.338200  0.510500  0.529300  1.0  0.0837
  H  H94  1  0.454900  0.282400  0.058500  1.0  0.1149
  H  H95  1  0.297000  0.347300  0.398600  1.0  0.1045
  H  H96  1  0.112500  0.016100  0.346100  1.0  0.126
  H  H97  1  0.473800  0.601600  0.486000  1.0  0.1795
  H  H98  1  0.251600  0.440500  0.125400  1.0  0.1005
  H  H99  1  0.347300  0.957100  0.398600  1.0  0.104
  H  H100  1  0.746600  0.648600  0.271200  1.0  0.123
  H  H101  1  0.615300  0.017600  0.655400  1.0  0.139
  H  H102  1  0.601600  0.438600  0.486000  1.0  0.1776
  H  H103  1  0.194000  0.817600  0.915500  1.0  0.1519
  H  H104  1  0.378000  0.661800  0.470700  1.0  0.0808
  H  H105  1  0.682500  0.940500  0.625400  1.0  0.0978
  H  H106  1  0.295800  0.217600  0.441500  1.0  0.115
  H  H107  1  0.161800  0.878000  0.970700  1.0  0.0834
  H  H108  1  0.878000  0.989500  0.970700  1.0  0.0849
  H  H109  1  0.387500  0.974700  0.153900  1.0  0.1275
  H  H110  1  0.747200  0.622200  0.119400  1.0  0.464
  H  H111  1  0.938600  0.101600  0.986000  1.0  0.1756
  H  H112  1  0.026200  0.061400  0.014000  1.0  0.1713
  H  H113  1  0.065100  0.940000  0.956900  1.0  0.1417
  H  H114  1  0.474700  0.887500  0.653900  1.0  0.1267
  H  H115  1  0.384700  0.982400  0.344600  1.0  0.1395
  H  H116  1  0.288300  0.384700  0.344600  1.0  0.1408
  H  H117  1  0.122200  0.247200  0.619400  1.0  0.4633
  H  H118  1  0.898400  0.026200  0.014000  1.0  0.1763
  H  H119  1  0.752800  0.988800  0.380600  1.0  0.466
  H  H120  1  0.572900  0.317600  0.415500  1.0  0.1529
  H  H121  1  0.817600  0.072900  0.915500  1.0  0.1528
  H  H122  1  0.017600  0.711700  0.655400  1.0  0.1391
  H  H123  1  0.016100  0.525300  0.346100  1.0  0.1271
  H  H124  1  0.059500  0.248400  0.374600  1.0  0.1003
  H  H125  1  0.542900  0.152700  0.101400  1.0  0.1036
  H  H126  1  0.203000  0.542900  0.101400  1.0  0.1043
  H  H127  1  0.938900  0.184500  0.829100  1.0  0.1077
  H  H128  1  0.488800  0.252800  0.880600  1.0  0.4616
  H  H129  1  0.204200  0.454900  0.058500  1.0  0.1174
  H  H130  1  0.252800  0.377800  0.880600  1.0  0.4644
  H  H131  1  0.045100  0.295800  0.441500  1.0  0.1165
  H  H132  1  0.462000  0.560000  0.543100  1.0  0.1479
  H  H133  1  0.115300  0.211700  0.155400  1.0  0.1386
  H  H134  1  0.211700  0.517600  0.155400  1.0  0.1395
  H  H135  1  0.517600  0.115300  0.155400  1.0  0.1416
  H  H136  1  0.560000  0.434900  0.543100  1.0  0.1419
  H  H137  1  0.622200  0.511200  0.119400  1.0  0.4655
  H  H138  1  0.795800  0.545100  0.941500  1.0  0.1169
  H  H139  1  0.788300  0.482400  0.844600  1.0  0.1395
  H  H140  1  0.182400  0.927100  0.084500  1.0  0.1527
  H  H141  1  0.148600  0.246600  0.771200  1.0  0.1226
  H  H142  1  0.838200  0.122000  0.029300  1.0  0.08
  H  H143  1  0.101600  0.973800  0.986000  1.0  0.1841
  H  H144  1  0.217600  0.045100  0.441500  1.0  0.1153
  H  H145  1  0.454400  0.979700  0.969100  1.0  0.1146
  H  H146  1  0.122000  0.010500  0.029300  1.0  0.0866
  H  H147  1  0.851400  0.753400  0.228800  1.0  0.123
  H  H148  1  0.282400  0.204200  0.058500  1.0  0.1162
  H  H149  1  0.884700  0.788300  0.844600  1.0  0.1397
  H  H150  1  0.903200  0.520300  0.530900  1.0  0.115
  H  H151  1  0.061400  0.898400  0.014000  1.0  0.178
  H  H152  1  0.247200  0.011200  0.619400  1.0  0.4658
  H  H153  1  0.979700  0.596800  0.969100  1.0  0.1153
  H  H154  1  0.248400  0.317500  0.374600  1.0  0.0991
  H  H155  1  0.717600  0.795800  0.941500  1.0  0.1151
  H  H156  1  0.510500  0.622000  0.529300  1.0  0.0818
  H  H157  1  0.020300  0.403200  0.030900  1.0  0.1152
  H  H158  1  0.317600  0.694000  0.415500  1.0  0.153
  H  H159  1  0.694000  0.572900  0.415500  1.0  0.1547
  H  H160  1  0.612500  0.025300  0.846100  1.0  0.1262
  H  H161  1  0.482400  0.884700  0.844600  1.0  0.1406
  H  H162  1  0.438900  0.547500  0.329100  1.0  0.1074
  H  H163  1  0.982400  0.288300  0.344600  1.0  0.1392
  H  H164  1  0.954900  0.704200  0.558500  1.0  0.1169
  H  H165  1  0.520300  0.045600  0.530900  1.0  0.1147
  H  H166  1  0.596800  0.454400  0.969100  1.0  0.1146
  H  H167  1  0.806000  0.182400  0.084500  1.0  0.1527
  H  H168  1  0.748400  0.559500  0.874600  1.0  0.1019
  H  H169  1  0.483900  0.387500  0.153900  1.0  0.1262
  H  H170  1  0.246600  0.833600  0.771200  1.0  0.1231
  H  H171  1  0.526200  0.398400  0.514000  1.0  0.1739
  H  H172  1  0.927100  0.806000  0.084500  1.0  0.1556
  H  H173  1  0.489500  0.378000  0.470700  1.0  0.0839
  H  H174  1  0.648600  0.333600  0.271200  1.0  0.1234
  H  H175  1  0.934900  0.060000  0.043100  1.0  0.1402
  H  H176  1  0.988800  0.877800  0.380600  1.0  0.4642
  H  H177  1  0.333600  0.746600  0.271200  1.0  0.1237
  H  H178  1  0.782400  0.954900  0.558500  1.0  0.1158
  H  H179  1  0.957100  0.297000  0.398600  1.0  0.1011
  H  H180  1  0.010500  0.838200  0.029300  1.0  0.081
  H  H181  1  0.711700  0.615300  0.655400  1.0  0.1415
  H  H182  1  0.682400  0.306000  0.584500  1.0  0.1537
  H  H183  1  0.962000  0.934900  0.043100  1.0  0.1429
  H  H184  1  0.440000  0.565100  0.456900  1.0  0.1387
  C  C185  1  0.437950  0.684750  0.378750  1.0  0.2624
  C  C186  1  0.894990  0.968890  0.624830  1.0  -0.1163
  C  C187  1  0.500420  0.832920  0.869740  1.0  -0.0153
  C  C188  1  0.900410  0.678210  0.490070  1.0  0.7043
  C  C189  1  0.699330  0.565230  0.384810  1.0  -0.208
  C  C190  1  0.197730  0.986730  0.833210  1.0  -0.0847
  C  C191  1  0.931310  0.900410  0.490070  1.0  0.7038
  C  C192  1  0.531110  0.605010  0.875170  1.0  -0.1184
  C  C193  1  0.443080  0.731280  0.292860  1.0  -0.0735
  C  C194  1  0.668710  0.850710  0.932470  1.0  -0.1949
  C  C195  1  0.684750  0.498550  0.378750  1.0  0.2649
  C  C196  1  0.268710  0.481210  0.754570  1.0  0.6843
  C  C197  1  0.989230  0.921330  0.550910  1.0  -0.0006
  C  C198  1  0.988710  0.531110  0.875170  1.0  -0.111
  C  C199  1  0.495510  0.268710  0.754570  1.0  0.683
  C  C200  1  0.178210  0.400410  0.990070  1.0  0.7036
  C  C201  1  0.511290  0.894990  0.624830  1.0  -0.115
  C  C202  1  0.068690  0.099590  0.509930  1.0  0.7036
  C  C203  1  0.978390  0.943090  0.594830  1.0  -0.1247
  C  C204  1  0.703080  0.667080  0.630260  1.0  -0.0182
  C  C205  1  0.440890  0.104790  0.891730  1.0  0.7034
  C  C206  1  0.815250  0.062050  0.121250  1.0  0.2625
  C  C207  1  0.501450  0.562050  0.621250  1.0  0.2639
  C  C208  1  0.184750  0.937950  0.878750  1.0  0.2616
  C  C209  1  0.578670  0.510770  0.949090  1.0  0.0018
  C  C210  1  0.321790  0.068690  0.509930  1.0  0.7038
  C  C211  1  0.649290  0.831290  0.567530  1.0  -0.1941
  C  C212  1  0.519130  0.560530  0.538510  1.0  -0.1277
  C  C213  1  0.768710  0.995510  0.254570  1.0  0.6842
  C  C214  1  0.832920  0.796920  0.869740  1.0  -0.0193
  C  C215  1  0.622270  0.310070  0.345390  1.0  -0.0711
  C  C216  1  0.013270  0.017670  0.166790  1.0  -0.0633
  C  C217  1  0.559110  0.895210  0.108270  1.0  0.7035
  C  C218  1  0.434770  0.649370  0.615190  1.0  -0.2081
  C  C219  1  0.060530  0.019130  0.038510  1.0  -0.1302
  C  C220  1  0.149290  0.451890  0.067530  1.0  -0.1926
  C  C221  1  0.760960  0.143760  0.201620  1.0  -0.0699
  C  C222  1  0.239040  0.856240  0.798380  1.0  -0.0696
  C  C223  1  0.939470  0.980870  0.961490  1.0  -0.1275
  C  C224  1  0.106340  0.239040  0.798380  1.0  -0.07
  C  C225  1  0.722270  0.622270  0.345390  1.0  -0.0731
  C  C226  1  0.518790  0.504490  0.245430  1.0  0.6885
  C  C227  1  0.618170  0.480870  0.461490  1.0  -0.1265
  C  C228  1  0.850630  0.065230  0.884810  1.0  -0.2054
  C  C229  1  0.556920  0.268720  0.707140  1.0  -0.0755
  C  C230  1  0.688210  0.208610  0.354270  1.0  0.6848
  C  C231  1  0.480870  0.439470  0.461490  1.0  -0.1261
  C  C232  1  0.056920  0.967220  0.207140  1.0  -0.0758
  C  C233  1  0.850710  0.548110  0.932470  1.0  -0.1938
  C  C234  1  0.073350  0.379650  0.462950  1.0  -0.1427
  C  C235  1  0.751090  0.291390  0.145730  1.0  0.6843
  C  C236  1  0.499580  0.167080  0.130260  1.0  -0.0163
  C  C237  1  0.099590  0.321790  0.509930  1.0  0.7041
  C  C238  1  0.331290  0.149290  0.067530  1.0  -0.1957
  C  C239  1  0.231280  0.943080  0.792860  1.0  -0.0797
  C  C240  1  0.019130  0.881830  0.038510  1.0  -0.1241
  C  C241  1  0.251090  0.311790  0.645730  1.0  0.6848
  C  C242  1  0.905200  0.527600  0.888700  1.0  0.2308
  C  C243  1  0.556910  0.521610  0.905170  1.0  -0.1284
  C  C244  1  0.584050  0.879650  0.962950  1.0  -0.1423
  C  C245  1  0.302270  0.517670  0.666790  1.0  -0.0565
  C  C246  1  0.811790  0.751090  0.145730  1.0  0.6831
  C  C247  1  0.881830  0.060530  0.038510  1.0  -0.1207
  C  C248  1  0.248910  0.708610  0.854270  1.0  0.684
  C  C249  1  0.967220  0.768720  0.207140  1.0  -0.0749
  C  C250  1  0.937950  0.998550  0.878750  1.0  0.26
  C  C251  1  0.167080  0.203080  0.130260  1.0  -0.0178
  C  C252  1  0.486730  0.697730  0.333210  1.0  -0.0802
  C  C253  1  0.118170  0.939470  0.961490  1.0  -0.1206
  C  C254  1  0.443090  0.478390  0.094830  1.0  -0.1285
  C  C255  1  0.877730  0.777730  0.154610  1.0  -0.0762
  C  C256  1  0.800670  0.149370  0.115190  1.0  -0.2043
  C  C257  1  0.643760  0.260960  0.701620  1.0  -0.0719
  C  C258  1  0.065230  0.199330  0.884810  1.0  -0.2094
  C  C259  1  0.981210  0.768710  0.254570  1.0  0.6826
  C  C260  1  0.018790  0.231290  0.745430  1.0  0.686
  C  C261  1  0.105010  0.031110  0.375170  1.0  -0.1147
  C  C262  1  0.604790  0.940890  0.391730  1.0  0.7023
  C  C263  1  0.084050  0.073350  0.462950  1.0  -0.1432
  C  C264  1  0.149370  0.934770  0.115190  1.0  -0.2085
  C  C265  1  0.940890  0.062590  0.391730  1.0  0.7
  C  C266  1  0.189930  0.877730  0.154610  1.0  -0.073
  C  C267  1  0.504490  0.731290  0.245430  1.0  0.6863
  C  C268  1  0.731290  0.518790  0.245430  1.0  0.6827
  C  C269  1  0.332920  0.000420  0.369740  1.0  -0.0154
  C  C270  1  0.461470  0.010770  0.449090  1.0  0.0016
  C  C271  1  0.277730  0.377730  0.654610  1.0  -0.0741
  C  C272  1  0.482330  0.486730  0.333210  1.0  -0.0647
  C  C273  1  0.943090  0.483690  0.594830  1.0  -0.1299
  C  C274  1  0.731280  0.532780  0.292860  1.0  -0.0807
  C  C275  1  0.122270  0.222270  0.845390  1.0  -0.0736
  C  C276  1  0.968890  0.511290  0.624830  1.0  -0.1177
  C  C277  1  0.810070  0.122270  0.845390  1.0  -0.0728
  C  C278  1  0.568690  0.821790  0.009930  1.0  0.7042
  C  C279  1  0.689930  0.277730  0.654610  1.0  -0.0734
  C  C280  1  0.594800  0.821500  0.611300  1.0  0.2429
  C  C281  1  0.573350  0.584050  0.962950  1.0  -0.1439
  C  C282  1  0.483690  0.978390  0.594830  1.0  -0.1259
  C  C283  1  0.143760  0.893660  0.201620  1.0  -0.0688
  C  C284  1  0.426650  0.415950  0.037050  1.0  -0.1433
  C  C285  1  0.562050  0.315250  0.621250  1.0  0.2634
  C  C286  1  0.001450  0.815250  0.121250  1.0  0.2659
  C  C287  1  0.377730  0.689930  0.654610  1.0  -0.0682
  C  C288  1  0.467220  0.556920  0.707140  1.0  -0.0785
  C  C289  1  0.379650  0.084050  0.462950  1.0  -0.1435
  C  C290  1  0.199330  0.850630  0.884810  1.0  -0.2161
  C  C291  1  0.405200  0.178500  0.388700  1.0  0.2319
  C  C292  1  0.321500  0.094800  0.111300  1.0  0.2428
  C  C293  1  0.017670  0.802270  0.166790  1.0  -0.0591
  C  C294  1  0.879650  0.573350  0.962950  1.0  -0.1435
  C  C295  1  0.821500  0.972400  0.611300  1.0  0.245
  C  C296  1  0.104790  0.562590  0.891730  1.0  0.7012
  C  C297  1  0.972400  0.594800  0.611300  1.0  0.233
  C  C298  1  0.016310  0.556910  0.905170  1.0  -0.1277
  C  C299  1  0.516310  0.021610  0.405170  1.0  -0.1275
  C  C300  1  0.394990  0.011290  0.124830  1.0  -0.1201
  C  C301  1  0.062050  0.001450  0.121250  1.0  0.2647
  C  C302  1  0.678500  0.905200  0.888700  1.0  0.2441
  C  C303  1  0.649370  0.300670  0.615190  1.0  -0.2083
  C  C304  1  0.934770  0.800670  0.115190  1.0  -0.2049
  C  C305  1  0.980870  0.118170  0.961490  1.0  -0.1241
  C  C306  1  0.059110  0.937410  0.608270  1.0  0.6988
  C  C307  1  0.400410  0.431310  0.990070  1.0  0.705
  C  C308  1  0.821790  0.599590  0.009930  1.0  0.7038
  C  C309  1  0.998550  0.184750  0.878750  1.0  0.2643
  C  C310  1  0.606340  0.356240  0.298380  1.0  -0.071
  C  C311  1  0.791390  0.251090  0.645730  1.0  0.6828
  C  C312  1  0.120350  0.426650  0.037050  1.0  -0.1438
  C  C313  1  0.697730  0.482330  0.333210  1.0  -0.0598
  C  C314  1  0.548110  0.668710  0.932470  1.0  -0.1915
  C  C315  1  0.943080  0.032780  0.792860  1.0  -0.0806
  C  C316  1  0.032780  0.231280  0.792860  1.0  -0.073
  C  C317  1  0.708610  0.188210  0.854270  1.0  0.6841
  C  C318  1  0.315250  0.501450  0.621250  1.0  0.2638
  C  C319  1  0.481210  0.495510  0.754570  1.0  0.6887
  C  C320  1  0.961470  0.578670  0.949090  1.0  0.001
  C  C321  1  0.311790  0.791390  0.645730  1.0  0.6834
  C  C322  1  0.926650  0.620350  0.537050  1.0  -0.1433
  C  C323  1  0.921330  0.538530  0.550910  1.0  0.0008
  C  C324  1  0.350710  0.168710  0.432470  1.0  -0.1949
  C  C325  1  0.048110  0.350710  0.432470  1.0  -0.1947
  C  C326  1  0.498550  0.437950  0.378750  1.0  0.2584
  C  C327  1  0.395210  0.059110  0.608270  1.0  0.7029
  C  C328  1  0.222270  0.810070  0.845390  1.0  -0.0733
  C  C329  1  0.168710  0.048110  0.432470  1.0  -0.1921
  C  C330  1  0.605010  0.988710  0.875170  1.0  -0.1207
  C  C331  1  0.802270  0.013270  0.166790  1.0  -0.0809
  C  C332  1  0.777730  0.189930  0.154610  1.0  -0.071
  C  C333  1  0.532780  0.443080  0.292860  1.0  -0.0802
  C  C334  1  0.011290  0.468890  0.124830  1.0  -0.1183
  C  C335  1  0.431310  0.178210  0.990070  1.0  0.7042
  C  C336  1  0.078670  0.461470  0.449090  1.0  -0.0
  C  C337  1  0.208610  0.748910  0.354270  1.0  0.6824
  C  C338  1  0.437410  0.559110  0.108270  1.0  0.706
  C  C339  1  0.620350  0.915950  0.537050  1.0  -0.1435
  C  C340  1  0.599590  0.568690  0.009930  1.0  0.7044
  C  C341  1  0.667080  0.999580  0.630260  1.0  -0.0165
  C  C342  1  0.768720  0.056920  0.207140  1.0  -0.0799
  C  C343  1  0.056910  0.516310  0.405170  1.0  -0.1287
  C  C344  1  0.296920  0.332920  0.369740  1.0  -0.0175
  C  C345  1  0.010770  0.078670  0.449090  1.0  0.0011
  C  C346  1  0.895210  0.437410  0.108270  1.0  0.6989
  C  C347  1  0.831290  0.951890  0.567530  1.0  -0.1939
  C  C348  1  0.510770  0.961470  0.949090  1.0  0.0007
  C  C349  1  0.513270  0.302270  0.666790  1.0  -0.0804
  C  C350  1  0.488710  0.105010  0.375170  1.0  -0.1207
  C  C351  1  0.027600  0.405200  0.388700  1.0  0.2337
  C  C352  1  0.062590  0.604790  0.391730  1.0  0.7037
  C  C353  1  0.415950  0.120350  0.037050  1.0  -0.1429
  C  C354  1  0.489230  0.038530  0.050910  1.0  -0.0007
  C  C355  1  0.739040  0.606340  0.298380  1.0  -0.0703
  C  C356  1  0.188210  0.248910  0.854270  1.0  0.6812
  C  C357  1  0.094800  0.472400  0.111300  1.0  0.2314
  C  C358  1  0.983690  0.443090  0.094830  1.0  -0.1278
  C  C359  1  0.300670  0.434770  0.615190  1.0  -0.203
  C  C360  1  0.260960  0.393660  0.701620  1.0  -0.0696
  C  C361  1  0.678210  0.931310  0.490070  1.0  0.703
  C  C362  1  0.031110  0.488710  0.375170  1.0  -0.1152
  C  C363  1  0.937410  0.395210  0.608270  1.0  0.7033
  C  C364  1  0.796920  0.500420  0.869740  1.0  -0.0161
  C  C365  1  0.562590  0.440890  0.891730  1.0  0.7044
  C  C366  1  0.000420  0.296920  0.369740  1.0  -0.015
  C  C367  1  0.468890  0.394990  0.124830  1.0  -0.115
  C  C368  1  0.439470  0.618170  0.461490  1.0  -0.117
  C  C369  1  0.748910  0.688210  0.354270  1.0  0.6853
  C  C370  1  0.999580  0.703080  0.630260  1.0  -0.0135
  C  C371  1  0.350630  0.699330  0.384810  1.0  -0.2101
  C  C372  1  0.472400  0.321500  0.111300  1.0  0.2465
  C  C373  1  0.421330  0.489230  0.050910  1.0  0.0004
  C  C374  1  0.178500  0.027600  0.388700  1.0  0.245
  C  C375  1  0.231290  0.004490  0.745430  1.0  0.6821
  C  C376  1  0.521610  0.016310  0.905170  1.0  -0.1261
  C  C377  1  0.560530  0.381830  0.538510  1.0  -0.1164
  C  C378  1  0.268720  0.467220  0.707140  1.0  -0.0772
  C  C379  1  0.356240  0.739040  0.298380  1.0  -0.0715
  C  C380  1  0.038530  0.421330  0.050910  1.0  0.0014
  C  C381  1  0.986730  0.982330  0.833210  1.0  -0.0652
  C  C382  1  0.856240  0.106340  0.798380  1.0  -0.0702
  C  C383  1  0.538530  0.989230  0.550910  1.0  0.0008
  C  C384  1  0.915950  0.926650  0.537050  1.0  -0.1423
  C  C385  1  0.393660  0.643760  0.701620  1.0  -0.0724
  C  C386  1  0.381830  0.519130  0.538510  1.0  -0.1276
  C  C387  1  0.021610  0.056910  0.405170  1.0  -0.1244
  C  C388  1  0.310070  0.722270  0.345390  1.0  -0.0734
  C  C389  1  0.451890  0.331290  0.067530  1.0  -0.194
  C  C390  1  0.517670  0.513270  0.666790  1.0  -0.0626
  C  C391  1  0.995510  0.981210  0.254570  1.0  0.6893
  C  C392  1  0.527600  0.678500  0.888700  1.0  0.2462
  C  C393  1  0.203080  0.499580  0.130260  1.0  -0.0157
  C  C394  1  0.291390  0.811790  0.145730  1.0  0.684
  C  C395  1  0.004490  0.018790  0.745430  1.0  0.6886
  C  C396  1  0.951890  0.649290  0.567530  1.0  -0.1939
  C  C397  1  0.565230  0.350630  0.384810  1.0  -0.2049
  C  C398  1  0.893660  0.760960  0.201620  1.0  -0.0716
  C  C399  1  0.982330  0.197730  0.833210  1.0  -0.06
  C  C400  1  0.478390  0.983690  0.094830  1.0  -0.1263
  O  O401  1  0.340620  0.045530  0.644510  1.0  -0.6142
  O  O402  1  0.668700  0.176230  0.896660  1.0  -0.6003
  O  O403  1  0.469340  0.545530  0.144510  1.0  -0.6126
  O  O404  1  0.083250  0.208340  0.711200  1.0  -0.679
  O  O405  1  0.979400  0.945500  0.917900  1.0  -0.2681
  O  O406  1  0.831300  0.241590  0.603340  1.0  -0.6036
  O  O407  1  0.246210  0.676450  0.821870  1.0  -0.5844
  O  O408  1  0.583250  0.497210  0.211200  1.0  -0.6854
  O  O409  1  0.619640  0.741140  0.642980  1.0  -0.2766
  O  O410  1  0.700900  0.669490  0.115860  1.0  -0.9228
  O  O411  1  0.486250  0.299100  0.884140  1.0  -0.8784
  O  O412  1  0.497210  0.708340  0.211200  1.0  -0.6675
  O  O413  1  0.657200  0.445500  0.417900  1.0  -0.2824
  O  O414  1  0.561370  0.432600  0.758140  1.0  -0.5843
  O  O415  1  0.030660  0.659380  0.355490  1.0  -0.6145
  O  O416  1  0.045530  0.969340  0.644510  1.0  -0.6118
  O  O417  1  0.011710  0.850470  0.473000  1.0  -0.5992
  O  O418  1  0.861970  0.927860  0.471170  1.0  -0.6609
  O  O419  1  0.118660  0.597980  0.918490  1.0  -0.6135
  O  O420  1  0.402020  0.635130  0.081510  1.0  -0.6148
  O  O421  1  0.669490  0.513750  0.115860  1.0  -0.8823
  O  O422  1  0.746210  0.755470  0.321870  1.0  -0.5863
  O  O423  1  0.969340  0.340620  0.644510  1.0  -0.6147
  O  O424  1  0.176230  0.258410  0.896660  1.0  -0.6056
  O  O425  1  0.454470  0.159380  0.855490  1.0  -0.6138
  O  O426  1  0.747890  0.932600  0.258140  1.0  -0.5835
  O  O427  1  0.135130  0.902020  0.581510  1.0  -0.6128
  O  O428  1  0.753790  0.323550  0.178130  1.0  -0.5864
  O  O429  1  0.330510  0.486250  0.884140  1.0  -0.8807
  O  O430  1  0.864870  0.097980  0.418490  1.0  -0.6135
  O  O431  1  0.291660  0.416750  0.788800  1.0  -0.6796
  O  O432  1  0.208340  0.997210  0.711200  1.0  -0.6678
  O  O433  1  0.159380  0.530660  0.855490  1.0  -0.6145
  O  O434  1  0.253790  0.244530  0.678130  1.0  -0.5853
  O  O435  1  0.239000  0.427860  0.971170  1.0  -0.6428
  O  O436  1  0.932600  0.061370  0.258140  1.0  -0.5875
  O  O437  1  0.799100  0.986250  0.384140  1.0  -0.877
  O  O438  1  0.823770  0.741590  0.103340  1.0  -0.6048
  O  O439  1  0.364870  0.118660  0.918490  1.0  -0.6131
  O  O440  1  0.840620  0.469340  0.144510  1.0  -0.6141
  O  O441  1  0.241140  0.119640  0.142980  1.0  -0.2737
  O  O442  1  0.169490  0.200900  0.615860  1.0  -0.9248
  O  O443  1  0.020600  0.054500  0.082100  1.0  -0.2673
  O  O444  1  0.361970  0.239000  0.971170  1.0  -0.646
  O  O445  1  0.520600  0.342800  0.582100  1.0  -0.2726
  O  O446  1  0.758860  0.880360  0.857020  1.0  -0.2792
  O  O447  1  0.996240  0.619640  0.642980  1.0  -0.2724
  O  O448  1  0.067400  0.938630  0.741860  1.0  -0.5872
  O  O449  1  0.054500  0.842800  0.082100  1.0  -0.2826
  O  O450  1  0.530660  0.454470  0.855490  1.0  -0.6126
  O  O451  1  0.744530  0.753790  0.178130  1.0  -0.5832
  O  O452  1  0.072140  0.261000  0.528830  1.0  -0.6435
  O  O453  1  0.791660  0.002790  0.288800  1.0  -0.6686
  O  O454  1  0.200900  0.013750  0.615860  1.0  -0.8787
  O  O455  1  0.554500  0.520600  0.582100  1.0  -0.264
  O  O456  1  0.342800  0.554500  0.582100  1.0  -0.2863
  O  O457  1  0.755470  0.176450  0.321870  1.0  -0.5843
  O  O458  1  0.255470  0.246210  0.821870  1.0  -0.5842
  O  O459  1  0.649530  0.488290  0.027000  1.0  -0.5987
  O  O460  1  0.823550  0.253790  0.678130  1.0  -0.5864
  O  O461  1  0.479400  0.657200  0.417900  1.0  -0.268
  O  O462  1  0.635130  0.881340  0.081510  1.0  -0.6114
  O  O463  1  0.503760  0.758860  0.857020  1.0  -0.274
  O  O464  1  0.597980  0.364870  0.918490  1.0  -0.6136
  O  O465  1  0.013750  0.169490  0.615860  1.0  -0.8842
  O  O466  1  0.149530  0.335180  0.527000  1.0  -0.5987
  O  O467  1  0.097980  0.618660  0.418490  1.0  -0.6147
  O  O468  1  0.252110  0.067400  0.741860  1.0  -0.5834
  O  O469  1  0.676450  0.255470  0.821870  1.0  -0.5858
  O  O470  1  0.261000  0.138030  0.528830  1.0  -0.6466
  O  O471  1  0.761000  0.572140  0.028830  1.0  -0.6425
  O  O472  1  0.258410  0.668700  0.896660  1.0  -0.6034
  O  O473  1  0.438630  0.567400  0.241860  1.0  -0.5844
  O  O474  1  0.427860  0.361970  0.971170  1.0  -0.6623
  O  O475  1  0.513750  0.700900  0.115860  1.0  -0.88
  O  O476  1  0.938630  0.252110  0.741860  1.0  -0.5892
  O  O477  1  0.758410  0.676230  0.396660  1.0  -0.6052
  O  O478  1  0.739000  0.861970  0.471170  1.0  -0.6476
  O  O479  1  0.241590  0.323770  0.603340  1.0  -0.6038
  O  O480  1  0.927860  0.739000  0.471170  1.0  -0.6433
  O  O481  1  0.247890  0.561370  0.758140  1.0  -0.5882
  O  O482  1  0.002790  0.916750  0.288800  1.0  -0.685
  O  O483  1  0.119640  0.496240  0.142980  1.0  -0.2757
  O  O484  1  0.664820  0.011710  0.473000  1.0  -0.5983
  O  O485  1  0.902020  0.381340  0.581510  1.0  -0.6153
  O  O486  1  0.741590  0.331300  0.103340  1.0  -0.6024
  O  O487  1  0.258860  0.003760  0.357020  1.0  -0.2753
  O  O488  1  0.381340  0.135130  0.581510  1.0  -0.6133
  O  O489  1  0.842800  0.020600  0.082100  1.0  -0.2692
  O  O490  1  0.986250  0.830510  0.384140  1.0  -0.8829
  O  O491  1  0.880360  0.503760  0.857020  1.0  -0.2721
  O  O492  1  0.659380  0.954470  0.355490  1.0  -0.6142
  O  O493  1  0.168700  0.758410  0.396660  1.0  -0.6047
  O  O494  1  0.618660  0.864870  0.418490  1.0  -0.6127
  O  O495  1  0.997210  0.083250  0.711200  1.0  -0.6855
  O  O496  1  0.835180  0.649530  0.027000  1.0  -0.5996
  O  O497  1  0.003760  0.380360  0.357020  1.0  -0.2744
  O  O498  1  0.244530  0.823550  0.678130  1.0  -0.584
  O  O499  1  0.488290  0.835180  0.027000  1.0  -0.5999
  O  O500  1  0.916750  0.791660  0.288800  1.0  -0.6798
  O  O501  1  0.638030  0.761000  0.028830  1.0  -0.6477
  O  O502  1  0.138030  0.072140  0.528830  1.0  -0.6618
  O  O503  1  0.954470  0.030660  0.355490  1.0  -0.6133
  O  O504  1  0.323550  0.744530  0.178130  1.0  -0.5844
  O  O505  1  0.432600  0.247890  0.758140  1.0  -0.5886
  O  O506  1  0.157200  0.979400  0.917900  1.0  -0.2661
  O  O507  1  0.350470  0.511710  0.973000  1.0  -0.5977
  O  O508  1  0.380360  0.258860  0.357020  1.0  -0.2798
  O  O509  1  0.567400  0.752110  0.241860  1.0  -0.5878
  O  O510  1  0.299100  0.330510  0.884140  1.0  -0.9229
  O  O511  1  0.331300  0.823770  0.103340  1.0  -0.6029
  O  O512  1  0.445500  0.479400  0.417900  1.0  -0.2675
  O  O513  1  0.511710  0.164820  0.973000  1.0  -0.5997
  O  O514  1  0.830510  0.799100  0.384140  1.0  -0.9236
  O  O515  1  0.545530  0.840620  0.144510  1.0  -0.6141
  O  O516  1  0.741140  0.996240  0.642980  1.0  -0.2791
  O  O517  1  0.164820  0.350470  0.973000  1.0  -0.6009
  O  O518  1  0.752110  0.438630  0.241860  1.0  -0.5878
  O  O519  1  0.676230  0.168700  0.396660  1.0  -0.6017
  O  O520  1  0.323770  0.831300  0.603340  1.0  -0.6027
  O  O521  1  0.176450  0.746210  0.321870  1.0  -0.5849
  O  O522  1  0.061370  0.747890  0.258140  1.0  -0.5866
  O  O523  1  0.416750  0.502790  0.788800  1.0  -0.6847
  O  O524  1  0.572140  0.638030  0.028830  1.0  -0.6623
  O  O525  1  0.850470  0.664820  0.473000  1.0  -0.5999
  O  O526  1  0.708340  0.583250  0.211200  1.0  -0.6799
  O  O527  1  0.335180  0.988290  0.527000  1.0  -0.5989
  O  O528  1  0.502790  0.291660  0.788800  1.0  -0.6673
  O  O529  1  0.945500  0.157200  0.917900  1.0  -0.2836
  O  O530  1  0.881340  0.402020  0.081510  1.0  -0.6151
  O  O531  1  0.988290  0.149530  0.527000  1.0  -0.6001
  O  O532  1  0.496240  0.241140  0.142980  1.0  -0.2765
