# generated using pymatgen
data_Co5H38(C9O4)6
_symmetry_space_group_name_H-M   'P 1'
_cell_length_a   14.37470000
_cell_length_b   18.63300000
_cell_length_c   23.95700000
_cell_angle_alpha   90.00000000
_cell_angle_beta   90.00000000
_cell_angle_gamma   90.00000000
_symmetry_Int_Tables_number   1
_chemical_formula_structural   Co5H38(C9O4)6
_chemical_formula_sum   'Co20 H152 C216 O96'
_cell_volume   6416.73355964
_cell_formula_units_Z   4
loop_
 _symmetry_equiv_pos_site_id
 _symmetry_equiv_pos_as_xyz
  1  'x, y, z'
loop_
 _atom_site_type_symbol
 _atom_site_label
 _atom_site_symmetry_multiplicity
 _atom_site_fract_x
 _atom_site_fract_y
 _atom_site_fract_z
 _atom_site_occupancy
 _atom_site_charge
  Co  Co1  1  0.923170  0.200950  0.931640  1.0  1.1061
  Co  Co2  1  0.684670  0.824640  0.928870  1.0  1.0245
  Co  Co3  1  0.076830  0.700950  0.068360  1.0  1.1055
  Co  Co4  1  0.619750  0.264130  0.499110  1.0  1.0301
  Co  Co5  1  0.815330  0.324640  0.428870  1.0  1.0236
  Co  Co6  1  0.184670  0.824640  0.571130  1.0  1.0225
  Co  Co7  1  0.423170  0.200950  0.568360  1.0  1.1033
  Co  Co8  1  0.800860  0.317640  0.093160  1.0  1.0536
  Co  Co9  1  0.119750  0.264130  0.000890  1.0  1.0297
  Co  Co10  1  0.576830  0.700950  0.431640  1.0  1.1066
  Co  Co11  1  0.315330  0.324640  0.071130  1.0  1.023
  Co  Co12  1  0.380250  0.764130  0.500890  1.0  1.0295
  Co  Co13  1  0.699140  0.817640  0.593160  1.0  1.0536
  Co  Co14  1  0.556970  0.710780  0.093990  1.0  1.0257
  Co  Co15  1  0.056970  0.710780  0.406010  1.0  1.0262
  Co  Co16  1  0.880250  0.764130  0.999110  1.0  1.0301
  Co  Co17  1  0.443030  0.210780  0.906010  1.0  1.0243
  Co  Co18  1  0.943030  0.210780  0.593990  1.0  1.0252
  Co  Co19  1  0.199140  0.817640  0.906840  1.0  1.054
  Co  Co20  1  0.300860  0.317640  0.406840  1.0  1.0537
  H  H21  1  0.661100  0.398300  0.588500  1.0  0.1191
  H  H22  1  0.863300  0.176200  0.286800  1.0  0.137
  H  H23  1  0.103800  0.031400  0.203800  1.0  0.1327
  H  H24  1  0.688400  0.059200  0.166700  1.0  0.1294
  H  H25  1  0.909400  0.318300  0.721300  1.0  0.1445
  H  H26  1  0.480300  0.196700  0.799500  1.0  0.1541
  H  H27  1  0.701600  0.306800  0.268700  1.0  0.1269
  H  H28  1  0.369000  0.099000  0.124400  1.0  0.114
  H  H29  1  0.631000  0.599000  0.875600  1.0  0.1143
  H  H30  1  0.338900  0.898300  0.411500  1.0  0.119
  H  H31  1  0.039700  0.220100  0.768800  1.0  0.1318
  H  H32  1  0.086100  0.051200  0.311500  1.0  0.1278
  H  H33  1  0.478700  0.216900  0.341700  1.0  0.1179
  H  H34  1  0.752400  0.806600  0.320600  1.0  0.1268
  H  H35  1  0.138500  0.893900  0.280000  1.0  0.1399
  H  H36  1  0.378300  0.433400  0.875200  1.0  0.1104
  H  H37  1  0.152900  0.490200  0.792500  1.0  0.133
  H  H38  1  0.949700  0.978400  0.334000  1.0  0.1354
  H  H39  1  0.652300  0.477500  0.810900  1.0  0.128
  H  H40  1  0.259200  0.306400  0.847000  1.0  0.1173
  H  H41  1  0.201600  0.306800  0.231300  1.0  0.1267
  H  H42  1  0.646000  0.100900  0.323100  1.0  0.1333
  H  H43  1  0.234600  0.833800  0.799200  1.0  0.1575
  H  H44  1  0.489200  0.468700  0.481600  1.0  0.1318
  H  H45  1  0.759200  0.306400  0.653000  1.0  0.1178
  H  H46  1  0.539700  0.220100  0.731200  1.0  0.1321
  H  H47  1  0.387500  0.919500  0.318300  1.0  0.1251
  H  H48  1  0.869000  0.099000  0.375600  1.0  0.1142
  H  H49  1  0.827600  0.899400  0.433200  1.0  0.1284
  H  H50  1  0.172400  0.399400  0.566800  1.0  0.129
  H  H51  1  0.152300  0.477500  0.689100  1.0  0.129
  H  H52  1  0.347100  0.990200  0.292500  1.0  0.1335
  H  H53  1  0.747600  0.306600  0.820600  1.0  0.1273
  H  H54  1  0.969000  0.453900  0.467800  1.0  0.1184
  H  H55  1  0.861500  0.393900  0.720000  1.0  0.1396
  H  H56  1  0.450800  0.987600  0.312600  1.0  0.1286
  H  H57  1  0.629100  0.601500  0.636700  1.0  0.1105
  H  H58  1  0.245900  0.569700  0.473400  1.0  0.132
  H  H59  1  0.168100  0.712200  0.769300  1.0  0.1353
  H  H60  1  0.121900  0.919300  0.131200  1.0  0.1156
  H  H61  1  0.745900  0.569700  0.026600  1.0  0.131
  H  H62  1  0.883300  0.621300  0.657300  1.0  0.1354
  H  H63  1  0.090700  0.125400  0.087000  1.0  0.1265
  H  H64  1  0.831900  0.212200  0.230700  1.0  0.1349
  H  H65  1  0.378100  0.419300  0.631200  1.0  0.1154
  H  H66  1  0.252400  0.806600  0.179400  1.0  0.1274
  H  H67  1  0.798400  0.806800  0.768700  1.0  0.1259
  H  H68  1  0.550300  0.478400  0.834000  1.0  0.1359
  H  H69  1  0.247600  0.306600  0.679400  1.0  0.1274
  H  H70  1  0.293500  0.531100  0.681600  1.0  0.1361
  H  H71  1  0.121700  0.933400  0.375200  1.0  0.1104
  H  H72  1  0.019700  0.696700  0.299500  1.0  0.1541
  H  H73  1  0.409400  0.318300  0.778700  1.0  0.1439
  H  H74  1  0.361500  0.393900  0.780000  1.0  0.1399
  H  H75  1  0.621700  0.933400  0.124800  1.0  0.1108
  H  H76  1  0.049200  0.487600  0.812600  1.0  0.1291
  H  H77  1  0.847700  0.977500  0.310900  1.0  0.1285
  H  H78  1  0.519700  0.696700  0.200500  1.0  0.1563
  H  H79  1  0.363300  0.176200  0.213200  1.0  0.1378
  H  H80  1  0.136700  0.676200  0.713200  1.0  0.1373
  H  H81  1  0.090600  0.818300  0.278700  1.0  0.1435
  H  H82  1  0.050300  0.478400  0.666000  1.0  0.1362
  H  H83  1  0.590700  0.125400  0.413000  1.0  0.1266
  H  H84  1  0.116700  0.121300  0.342700  1.0  0.1353
  H  H85  1  0.613500  0.410900  0.843400  1.0  0.1298
  H  H86  1  0.240800  0.806400  0.347000  1.0  0.1172
  H  H87  1  0.021300  0.716900  0.841700  1.0  0.1178
  H  H88  1  0.590600  0.818300  0.221300  1.0  0.146
  H  H89  1  0.219200  0.559200  0.018500  1.0  0.123
  H  H90  1  0.370900  0.101500  0.363300  1.0  0.1108
  H  H91  1  0.058500  0.127900  0.435200  1.0  0.1287
  H  H92  1  0.989200  0.468700  0.018400  1.0  0.1287
  H  H93  1  0.505100  0.724200  0.824200  1.0  0.1211
  H  H94  1  0.280800  0.059200  0.518500  1.0  0.1227
  H  H95  1  0.558500  0.127900  0.064800  1.0  0.1286
  H  H96  1  0.206500  0.031100  0.181600  1.0  0.1378
  H  H97  1  0.121700  0.636000  0.770000  1.0  0.1337
  H  H98  1  0.460300  0.720100  0.268800  1.0  0.1326
  H  H99  1  0.621900  0.919300  0.368800  1.0  0.1153
  H  H100  1  0.298400  0.806800  0.731300  1.0  0.1254
  H  H101  1  0.780800  0.059200  0.981500  1.0  0.1224
  H  H102  1  0.265400  0.333800  0.299200  1.0  0.1575
  H  H103  1  0.131000  0.599000  0.624400  1.0  0.1142
  H  H104  1  0.449700  0.978400  0.166000  1.0  0.1354
  H  H105  1  0.706500  0.031100  0.318400  1.0  0.1376
  H  H106  1  0.909300  0.625400  0.913000  1.0  0.1267
  H  H107  1  0.347700  0.977500  0.189100  1.0  0.129
  H  H108  1  0.383300  0.621300  0.842700  1.0  0.1357
  H  H109  1  0.586100  0.051200  0.188500  1.0  0.1263
  H  H110  1  0.854000  0.600900  0.823100  1.0  0.1329
  H  H111  1  0.603800  0.031400  0.296200  1.0  0.1322
  H  H112  1  0.010800  0.968700  0.981600  1.0  0.131
  H  H113  1  0.413900  0.551200  0.811500  1.0  0.126
  H  H114  1  0.847100  0.990200  0.207500  1.0  0.1327
  H  H115  1  0.549200  0.487600  0.687400  1.0  0.1289
  H  H116  1  0.960300  0.720100  0.231200  1.0  0.1323
  H  H117  1  0.161100  0.398300  0.911500  1.0  0.1191
  H  H118  1  0.621700  0.636000  0.730000  1.0  0.133
  H  H119  1  0.811600  0.559200  0.666667  1.0  0.1302
  H  H120  1  0.409300  0.625400  0.587000  1.0  0.1266
  H  H121  1  0.719200  0.559200  0.481500  1.0  0.1227
  H  H122  1  0.950800  0.987600  0.187400  1.0  0.1291
  H  H123  1  0.396200  0.531400  0.703800  1.0  0.1317
  H  H124  1  0.494900  0.224200  0.175800  1.0  0.1229
  H  H125  1  0.896200  0.531400  0.796200  1.0  0.1311
  H  H126  1  0.652900  0.490200  0.707500  1.0  0.1325
  H  H127  1  0.980300  0.196700  0.700500  1.0  0.156
  H  H128  1  0.327600  0.899400  0.066800  1.0  0.1283
  H  H129  1  0.469000  0.453900  0.032200  1.0  0.1174
  H  H130  1  0.878300  0.136000  0.230000  1.0  0.1333
  H  H131  1  0.129100  0.601500  0.863300  1.0  0.1107
  H  H132  1  0.531000  0.953900  0.967800  1.0  0.1181
  H  H133  1  0.188400  0.059200  0.333333  1.0  0.1317
  H  H134  1  0.612500  0.419500  0.681700  1.0  0.1247
  H  H135  1  0.146000  0.100900  0.176900  1.0  0.132
  H  H136  1  0.765400  0.333800  0.200800  1.0  0.158
  H  H137  1  0.354000  0.600900  0.676900  1.0  0.1325
  H  H138  1  0.311600  0.559200  0.833300  1.0  0.1296
  H  H139  1  0.510800  0.968700  0.518400  1.0  0.1288
  H  H140  1  0.521300  0.716900  0.658300  1.0  0.1173
  H  H141  1  0.978700  0.216900  0.158300  1.0  0.1177
  H  H142  1  0.112500  0.419500  0.818300  1.0  0.125
  H  H143  1  0.740800  0.806400  0.153000  1.0  0.1178
  H  H144  1  0.638500  0.893900  0.220000  1.0  0.1394
  H  H145  1  0.793500  0.531100  0.818400  1.0  0.1364
  H  H146  1  0.878300  0.433400  0.624800  1.0  0.1109
  H  H147  1  0.005100  0.724200  0.675800  1.0  0.1219
  H  H148  1  0.878100  0.419300  0.868800  1.0  0.1148
  H  H149  1  0.617700  0.856600  0.277300  1.0  0.1438
  H  H150  1  0.331900  0.212200  0.269300  1.0  0.1346
  H  H151  1  0.113500  0.410900  0.656600  1.0  0.1292
  H  H152  1  0.636700  0.676200  0.786800  1.0  0.138
  H  H153  1  0.672400  0.399400  0.933200  1.0  0.1292
  H  H154  1  0.117700  0.856600  0.222700  1.0  0.1447
  H  H155  1  0.754100  0.069700  0.526600  1.0  0.1311
  H  H156  1  0.886500  0.910900  0.343400  1.0  0.1303
  H  H157  1  0.382300  0.356600  0.722700  1.0  0.1452
  H  H158  1  0.254100  0.069700  0.973400  1.0  0.1322
  H  H159  1  0.031000  0.953900  0.532200  1.0  0.1174
  H  H160  1  0.668100  0.712200  0.730700  1.0  0.1352
  H  H161  1  0.994900  0.224200  0.324200  1.0  0.1221
  H  H162  1  0.378300  0.136000  0.270000  1.0  0.1323
  H  H163  1  0.616700  0.121300  0.157300  1.0  0.1346
  H  H164  1  0.870900  0.101500  0.136700  1.0  0.1107
  H  H165  1  0.838900  0.898300  0.088500  1.0  0.1191
  H  H166  1  0.913900  0.551200  0.688500  1.0  0.1283
  H  H167  1  0.386500  0.910900  0.156600  1.0  0.1301
  H  H168  1  0.734600  0.833800  0.700800  1.0  0.1582
  H  H169  1  0.882300  0.356600  0.777300  1.0  0.1447
  H  H170  1  0.441500  0.627900  0.935200  1.0  0.1284
  H  H171  1  0.887500  0.919500  0.181700  1.0  0.1247
  H  H172  1  0.941500  0.627900  0.564800  1.0  0.1285
  C  C173  1  0.377900  0.182100  0.252000  1.0  -0.3751
  C  C174  1  0.139800  0.283200  0.130310  1.0  0.7288
  C  C175  1  0.986500  0.610160  0.012740  1.0  0.6869
  C  C176  1  0.326600  0.093080  0.443170  1.0  -0.147
  C  C177  1  0.460700  0.547500  0.991770  1.0  -0.1309
  C  C178  1  0.664900  0.447200  0.580840  1.0  -0.0825
  C  C179  1  0.228100  0.295400  0.814010  1.0  -0.0733
  C  C180  1  0.013500  0.110160  0.987260  1.0  0.6854
  C  C181  1  0.425400  0.431100  0.954650  1.0  -0.1536
  C  C182  1  0.584200  0.076800  0.420930  1.0  -0.0788
  C  C183  1  0.153800  0.568200  0.597100  1.0  -0.1195
  C  C184  1  0.403500  0.743900  0.267330  1.0  -0.0888
  C  C185  1  0.364200  0.761600  0.216130  1.0  -0.1188
  C  C186  1  0.564300  0.931300  0.445510  1.0  -0.1436
  C  C187  1  0.778700  0.050800  0.493880  1.0  0.0447
  C  C188  1  0.111200  0.471000  0.819970  1.0  -0.3635
  C  C189  1  0.643000  0.262400  0.683450  1.0  -0.1435
  C  C190  1  0.611200  0.471000  0.680030  1.0  -0.3639
  C  C191  1  0.972000  0.216400  0.242220  1.0  0.0643
  C  C192  1  0.602100  0.953600  0.394430  1.0  -0.0815
  C  C193  1  0.479800  0.734600  0.789390  1.0  -0.0725
  C  C194  1  0.144900  0.049400  0.175430  1.0  -0.3694
  C  C195  1  0.606600  0.268500  0.213790  1.0  -0.1176
  C  C196  1  0.046000  0.974600  0.498060  1.0  0.0076
  C  C197  1  0.164900  0.447200  0.919160  1.0  -0.082
  C  C198  1  0.673400  0.593080  0.556830  1.0  -0.1452
  C  C199  1  0.694400  0.469970  0.527540  1.0  -0.1429
  C  C200  1  0.178300  0.672400  0.955900  1.0  0.7083
  C  C201  1  0.842000  0.788800  0.662100  1.0  0.6881
  C  C202  1  0.047000  0.853200  0.043100  1.0  0.7048
  C  C203  1  0.877900  0.182100  0.248000  1.0  -0.377
  C  C204  1  0.077100  0.852000  0.461480  1.0  0.7207
  C  C205  1  0.084200  0.076800  0.079070  1.0  -0.082
  C  C206  1  0.228000  0.417200  0.013500  1.0  0.6627
  C  C207  1  0.711700  0.477100  0.987370  1.0  -0.1205
  C  C208  1  0.902700  0.765700  0.814090  1.0  -0.1358
  C  C209  1  0.788300  0.977100  0.487370  1.0  -0.12
  C  C210  1  0.912600  0.742200  0.336560  1.0  0.6993
  C  C211  1  0.323600  0.948800  0.062290  1.0  -0.0678
  C  C212  1  0.699000  0.543420  0.516280  1.0  0.0169
  C  C213  1  0.106600  0.268500  0.286210  1.0  -0.1184
  C  C214  1  0.899300  0.462300  0.595770  1.0  -0.0758
  C  C215  1  0.963400  0.482820  0.984520  1.0  0.0383
  C  C216  1  0.415800  0.576800  0.579070  1.0  -0.08
  C  C217  1  0.954000  0.474600  0.501940  1.0  0.0117
  C  C218  1  0.036600  0.982820  0.015480  1.0  0.0393
  C  C219  1  0.074600  0.931100  0.454650  1.0  -0.1528
  C  C220  1  0.193500  0.596400  0.549510  1.0  -0.1489
  C  C221  1  0.653800  0.568200  0.902900  1.0  -0.1189
  C  C222  1  0.597300  0.265700  0.314090  1.0  -0.136
  C  C223  1  0.806500  0.096400  0.450490  1.0  -0.1498
  C  C224  1  0.112700  0.462300  0.659080  1.0  -0.3691
  C  C225  1  0.135800  0.261600  0.716130  1.0  -0.1184
  C  C226  1  0.730600  0.812900  0.237500  1.0  0.1125
  C  C227  1  0.354600  0.068400  0.390590  1.0  -0.0596
  C  C228  1  0.510400  0.230600  0.309540  1.0  -0.087
  C  C229  1  0.301000  0.043420  0.483720  1.0  0.0157
  C  C230  1  0.096500  0.243900  0.767330  1.0  -0.0894
  C  C231  1  0.064300  0.931300  0.054490  1.0  -0.1439
  C  C232  1  0.728100  0.295400  0.685990  1.0  -0.0741
  C  C233  1  0.639800  0.283200  0.369690  1.0  0.729
  C  C234  1  0.635600  0.848700  0.239170  1.0  -0.3624
  C  C235  1  0.743600  0.430000  0.034340  1.0  0.7096
  C  C236  1  0.860200  0.783200  0.869690  1.0  0.7281
  C  C237  1  0.272000  0.917200  0.513500  1.0  0.666
  C  C238  1  0.587400  0.242200  0.836560  1.0  0.7003
  C  C239  1  0.854600  0.068400  0.109410  1.0  -0.0607
  C  C240  1  0.387300  0.962300  0.159080  1.0  -0.3686
  C  C241  1  0.221300  0.550800  0.506120  1.0  0.0459
  C  C242  1  0.278400  0.795400  0.213900  1.0  -0.0671
  C  C243  1  0.063900  0.078600  0.440020  1.0  -0.042
  C  C244  1  0.486500  0.610160  0.487260  1.0  0.691
  C  C245  1  0.846200  0.068200  0.402900  1.0  -0.1172
  C  C246  1  0.520200  0.234600  0.210610  1.0  -0.0666
  C  C247  1  0.904200  0.536500  0.603440  1.0  0.0748
  C  C248  1  0.693500  0.596400  0.950490  1.0  -0.1492
  C  C249  1  0.143000  0.262400  0.816550  1.0  -0.144
  C  C250  1  0.857000  0.762400  0.183450  1.0  -0.1435
  C  C251  1  0.595800  0.036500  0.103440  1.0  0.0749
  C  C252  1  0.435700  0.431300  0.554490  1.0  -0.1435
  C  C253  1  0.452100  0.555070  0.527600  1.0  -0.1194
  C  C254  1  0.644900  0.049400  0.324570  1.0  -0.3685
  C  C255  1  0.230600  0.812900  0.262500  1.0  0.1123
  C  C256  1  0.144200  0.283900  0.233810  1.0  -0.067
  C  C257  1  0.772000  0.917200  0.986500  1.0  0.6616
  C  C258  1  0.087400  0.242200  0.663440  1.0  0.7008
  C  C259  1  0.436100  0.578600  0.940020  1.0  -0.0426
  C  C260  1  0.622100  0.682100  0.748000  1.0  -0.3757
  C  C261  1  0.989600  0.730600  0.809540  1.0  -0.0864
  C  C262  1  0.358500  0.995900  0.378250  1.0  0.0568
  C  C263  1  0.788300  0.175400  0.456570  1.0  0.7144
  C  C264  1  0.855100  0.549400  0.824570  1.0  -0.3691
  C  C265  1  0.173400  0.593080  0.943170  1.0  -0.1465
  C  C266  1  0.936100  0.578600  0.559980  1.0  -0.0413
  C  C267  1  0.835100  0.947200  0.080840  1.0  -0.0822
  C  C268  1  0.600700  0.962300  0.095770  1.0  -0.0755
  C  C269  1  0.574600  0.931100  0.045350  1.0  -0.1528
  C  C270  1  0.953000  0.353200  0.956900  1.0  0.7036
  C  C271  1  0.269400  0.312900  0.762500  1.0  0.1125
  C  C272  1  0.821700  0.172400  0.044100  1.0  0.7086
  C  C273  1  0.678300  0.672400  0.544100  1.0  0.7081
  C  C274  1  0.536600  0.982820  0.484520  1.0  0.0379
  C  C275  1  0.122100  0.682100  0.752000  1.0  -0.3776
  C  C276  1  0.364400  0.348700  0.760830  1.0  -0.3631
  C  C277  1  0.355800  0.783900  0.733810  1.0  -0.0707
  C  C278  1  0.721300  0.550800  0.993880  1.0  0.0451
  C  C279  1  0.221600  0.295400  0.713900  1.0  -0.0669
  C  C280  1  0.771900  0.795400  0.185990  1.0  -0.0746
  C  C281  1  0.915800  0.576800  0.920930  1.0  -0.0819
  C  C282  1  0.489600  0.730600  0.690460  1.0  -0.0869
  C  C283  1  0.243600  0.430000  0.465660  1.0  0.7077
  C  C284  1  0.176400  0.448800  0.562290  1.0  -0.0694
  C  C285  1  0.612700  0.462300  0.840920  1.0  -0.3713
  C  C286  1  0.400700  0.742680  0.371660  1.0  0.712
  C  C287  1  0.124400  0.070200  0.340820  1.0  -0.3631
  C  C288  1  0.721600  0.295400  0.786100  1.0  -0.0692
  C  C289  1  0.645400  0.568400  0.609410  1.0  -0.0615
  C  C290  1  0.513500  0.110160  0.512740  1.0  0.6847
  C  C291  1  0.288300  0.175400  0.043430  1.0  0.7146
  C  C292  1  0.352700  0.994000  0.104910  1.0  0.1016
  C  C293  1  0.635800  0.261600  0.783870  1.0  -0.1194
  C  C294  1  0.922900  0.352000  0.538520  1.0  0.7224
  C  C295  1  0.805600  0.969970  0.027540  1.0  -0.1432
  C  C296  1  0.887300  0.962300  0.340920  1.0  -0.3682
  C  C297  1  0.100700  0.962300  0.404230  1.0  -0.0751
  C  C298  1  0.010400  0.230600  0.190460  1.0  -0.0874
  C  C299  1  0.852700  0.994000  0.395090  1.0  0.1014
  C  C300  1  0.271900  0.795400  0.314010  1.0  -0.0743
  C  C301  1  0.897900  0.453600  0.894430  1.0  -0.0822
  C  C302  1  0.095800  0.036500  0.396560  1.0  0.0744
  C  C303  1  0.952100  0.555070  0.972400  1.0  -0.1181
  C  C304  1  0.422900  0.352000  0.961480  1.0  0.7209
  C  C305  1  0.504100  0.094300  0.962140  1.0  0.715
  C  C306  1  0.728000  0.417200  0.486500  1.0  0.6636
  C  C307  1  0.624400  0.070200  0.159180  1.0  -0.3644
  C  C308  1  0.769400  0.312900  0.737500  1.0  0.1126
  C  C309  1  0.158000  0.288800  0.337900  1.0  0.6867
  C  C310  1  0.388800  0.971000  0.319970  1.0  -0.3633
  C  C311  1  0.756400  0.930000  0.534340  1.0  0.7096
  C  C312  1  0.599300  0.242680  0.628340  1.0  0.7119
  C  C313  1  0.979800  0.734600  0.710610  1.0  -0.0734
  C  C314  1  0.211700  0.477100  0.512630  1.0  -0.1216
  C  C315  1  0.935700  0.431300  0.945510  1.0  -0.143
  C  C316  1  0.028000  0.716400  0.757780  1.0  0.0646
  C  C317  1  0.399300  0.462300  0.904230  1.0  -0.0756
  C  C318  1  0.858500  0.995900  0.121750  1.0  0.0569
  C  C319  1  0.047900  0.055070  0.027600  1.0  -0.1193
  C  C320  1  0.346200  0.068200  0.097100  1.0  -0.1178
  C  C321  1  0.528000  0.716400  0.742220  1.0  0.0642
  C  C322  1  0.778400  0.795400  0.286100  1.0  -0.0675
  C  C323  1  0.960700  0.547500  0.508230  1.0  -0.1288
  C  C324  1  0.563900  0.078600  0.059980  1.0  -0.0402
  C  C325  1  0.900700  0.742680  0.128340  1.0  0.7117
  C  C326  1  0.412600  0.742200  0.163440  1.0  0.7004
  C  C327  1  0.389200  0.525600  0.618720  1.0  0.0762
  C  C328  1  0.375600  0.570200  0.840820  1.0  -0.3625
  C  C329  1  0.547000  0.853200  0.456900  1.0  0.7057
  C  C330  1  0.305600  0.969970  0.472460  1.0  -0.142
  C  C331  1  0.393400  0.768500  0.786210  1.0  -0.1187
  C  C332  1  0.453000  0.353200  0.543100  1.0  0.703
  C  C333  1  0.893400  0.768500  0.713790  1.0  -0.1179
  C  C334  1  0.823600  0.948800  0.437710  1.0  -0.0671
  C  C335  1  0.321700  0.172400  0.455900  1.0  0.7082
  C  C336  1  0.342000  0.788800  0.837900  1.0  0.6872
  C  C337  1  0.711700  0.675400  0.956570  1.0  0.7148
  C  C338  1  0.199000  0.543420  0.983720  1.0  0.0171
  C  C339  1  0.826600  0.093080  0.056830  1.0  -0.1462
  C  C340  1  0.647300  0.494000  0.895090  1.0  0.1016
  C  C341  1  0.335100  0.947200  0.419160  1.0  -0.0822
  C  C342  1  0.676400  0.448800  0.937710  1.0  -0.0693
  C  C343  1  0.644200  0.283900  0.266190  1.0  -0.067
  C  C344  1  0.256400  0.930000  0.965660  1.0  0.7111
  C  C345  1  0.141500  0.495900  0.878250  1.0  0.0567
  C  C346  1  0.097300  0.265700  0.185910  1.0  -0.1356
  C  C347  1  0.402700  0.765700  0.685910  1.0  -0.1354
  C  C348  1  0.539300  0.047500  0.008230  1.0  -0.1279
  C  C349  1  0.658000  0.288800  0.162100  1.0  0.688
  C  C350  1  0.355100  0.549400  0.675430  1.0  -0.3718
  C  C351  1  0.039300  0.047500  0.491770  1.0  -0.1301
  C  C352  1  0.801000  0.043420  0.016280  1.0  0.0244
  C  C353  1  0.454000  0.474600  0.998060  1.0  0.0076
  C  C354  1  0.925400  0.431100  0.545350  1.0  -0.152
  C  C355  1  0.135600  0.848700  0.260830  1.0  -0.3595
  C  C356  1  0.004100  0.094300  0.537860  1.0  0.7134
  C  C357  1  0.145400  0.568400  0.890590  1.0  -0.0604
  C  C358  1  0.102100  0.953600  0.105570  1.0  -0.0814
  C  C359  1  0.577100  0.852000  0.038520  1.0  0.7225
  C  C360  1  0.404200  0.536500  0.896560  1.0  0.0744
  C  C361  1  0.472000  0.216400  0.257780  1.0  0.0647
  C  C362  1  0.855800  0.783900  0.766190  1.0  -0.0699
  C  C363  1  0.020200  0.234600  0.289390  1.0  -0.0662
  C  C364  1  0.864400  0.348700  0.739170  1.0  -0.3622
  C  C365  1  0.547900  0.055070  0.472400  1.0  -0.118
  C  C366  1  0.864200  0.761600  0.283870  1.0  -0.1195
  C  C367  1  0.596500  0.243900  0.732670  1.0  -0.0894
  C  C368  1  0.194400  0.469970  0.972460  1.0  -0.1417
  C  C369  1  0.888800  0.971000  0.180030  1.0  -0.3636
  C  C370  1  0.288300  0.977100  0.012630  1.0  -0.1212
  C  C371  1  0.306500  0.096400  0.049510  1.0  -0.1491
  C  C372  1  0.360200  0.783200  0.630310  1.0  0.7292
  C  C373  1  0.995900  0.594300  0.462140  1.0  0.716
  C  C374  1  0.211700  0.675400  0.543430  1.0  0.7148
  C  C375  1  0.610800  0.025600  0.381280  1.0  0.0755
  C  C376  1  0.546000  0.974600  0.001940  1.0  0.0126
  C  C377  1  0.889200  0.525600  0.881280  1.0  0.0757
  C  C378  1  0.147300  0.494000  0.604910  1.0  0.1017
  C  C379  1  0.397900  0.453600  0.605570  1.0  -0.0823
  C  C380  1  0.099300  0.242680  0.871660  1.0  0.7118
  C  C381  1  0.875600  0.570200  0.659180  1.0  -0.3631
  C  C382  1  0.278700  0.050800  0.006120  1.0  0.0462
  C  C383  1  0.463400  0.482820  0.515480  1.0  0.0386
  C  C384  1  0.357000  0.762400  0.316550  1.0  -0.144
  C  C385  1  0.495900  0.594300  0.037860  1.0  0.713
  C  C386  1  0.110800  0.025600  0.118720  1.0  0.0759
  C  C387  1  0.903500  0.743900  0.232670  1.0  -0.0877
  C  C388  1  0.641500  0.495900  0.621750  1.0  0.0568
  O  O389  1  0.074900  0.814950  0.417430  1.0  -0.5948
  O  O390  1  0.231200  0.937190  0.556890  1.0  -0.5523
  O  O391  1  0.400490  0.761700  0.587300  1.0  -0.5834
  O  O392  1  0.075230  0.824560  0.509610  1.0  -0.6338
  O  O393  1  0.314530  0.192630  0.505120  1.0  -0.6557
  O  O394  1  0.731200  0.937190  0.943110  1.0  -0.5503
  O  O395  1  0.493900  0.713670  0.167440  1.0  -0.6423
  O  O396  1  0.720610  0.349930  0.496020  1.0  -0.6538
  O  O397  1  0.008300  0.660650  0.472580  1.0  -0.5772
  O  O398  1  0.252200  0.362850  0.475790  1.0  -0.5971
  O  O399  1  0.860900  0.764850  0.084890  1.0  -0.587
  O  O400  1  0.747800  0.862850  0.524210  1.0  -0.5964
  O  O401  1  0.712700  0.321330  0.368440  1.0  -0.6169
  O  O402  1  0.524180  0.207420  0.630550  1.0  -0.6193
  O  O403  1  0.374200  0.776300  0.884180  1.0  -0.5586
  O  O404  1  0.021560  0.176620  0.998420  1.0  -0.648
  O  O405  1  0.761500  0.455550  0.081160  1.0  -0.5717
  O  O406  1  0.247800  0.862850  0.975790  1.0  -0.5971
  O  O407  1  0.220610  0.349930  0.003980  1.0  -0.6533
  O  O408  1  0.261500  0.455550  0.418840  1.0  -0.571
  O  O409  1  0.268800  0.437190  0.056890  1.0  -0.5527
  O  O410  1  0.088500  0.808730  0.073760  1.0  -0.5733
  O  O411  1  0.509740  0.337430  0.505310  1.0  -0.5993
  O  O412  1  0.238500  0.955550  0.918840  1.0  -0.5725
  O  O413  1  0.530380  0.590850  0.444390  1.0  -0.55
  O  O414  1  0.575230  0.824560  0.990390  1.0  -0.6335
  O  O415  1  0.411500  0.308730  0.573760  1.0  -0.573
  O  O416  1  0.991700  0.160650  0.527420  1.0  -0.5765
  O  O417  1  0.874200  0.776300  0.615820  1.0  -0.5594
  O  O418  1  0.173600  0.716860  0.577010  1.0  -0.5522
  O  O419  1  0.267300  0.694670  0.505610  1.0  -0.6046
  O  O420  1  0.599510  0.261700  0.412700  1.0  -0.583
  O  O421  1  0.374700  0.753100  0.117480  1.0  -0.5803
  O  O422  1  0.760400  0.816910  0.667720  1.0  -0.6412
  O  O423  1  0.360900  0.764850  0.415110  1.0  -0.5881
  O  O424  1  0.125300  0.253100  0.617480  1.0  -0.582
  O  O425  1  0.185470  0.692630  0.005120  1.0  -0.6541
  O  O426  1  0.925100  0.314950  0.582570  1.0  -0.5923
  O  O427  1  0.232700  0.194670  0.005610  1.0  -0.6019
  O  O428  1  0.924770  0.324560  0.490390  1.0  -0.633
  O  O429  1  0.511200  0.568500  0.084620  1.0  -0.5454
  O  O430  1  0.975820  0.707420  0.130550  1.0  -0.6188
  O  O431  1  0.279390  0.849930  0.503980  1.0  -0.6532
  O  O432  1  0.488800  0.068500  0.915380  1.0  -0.5459
  O  O433  1  0.491700  0.160650  0.972580  1.0  -0.5765
  O  O434  1  0.874700  0.753100  0.382520  1.0  -0.5816
  O  O435  1  0.475820  0.707420  0.369450  1.0  -0.6177
  O  O436  1  0.006100  0.213670  0.667440  1.0  -0.6425
  O  O437  1  0.739600  0.316910  0.167720  1.0  -0.6397
  O  O438  1  0.625300  0.253100  0.882520  1.0  -0.582
  O  O439  1  0.988800  0.068500  0.584620  1.0  -0.5463
  O  O440  1  0.490260  0.837430  0.494690  1.0  -0.5993
  O  O441  1  0.732700  0.194670  0.494390  1.0  -0.6022
  O  O442  1  0.685470  0.692630  0.494880  1.0  -0.6564
  O  O443  1  0.993900  0.713670  0.332560  1.0  -0.643
  O  O444  1  0.625800  0.276300  0.115820  1.0  -0.5594
  O  O445  1  0.139100  0.264850  0.915110  1.0  -0.5886
  O  O446  1  0.588500  0.808730  0.426240  1.0  -0.574
  O  O447  1  0.911500  0.308730  0.926240  1.0  -0.5737
  O  O448  1  0.969620  0.090850  0.944390  1.0  -0.5507
  O  O449  1  0.768800  0.437190  0.443110  1.0  -0.5511
  O  O450  1  0.673600  0.716860  0.922990  1.0  -0.5517
  O  O451  1  0.024180  0.207420  0.869450  1.0  -0.6185
  O  O452  1  0.323700  0.213160  0.414080  1.0  -0.5833
  O  O453  1  0.990260  0.837430  0.005310  1.0  -0.5999
  O  O454  1  0.009740  0.337430  0.994690  1.0  -0.6
  O  O455  1  0.508300  0.660650  0.027420  1.0  -0.5771
  O  O456  1  0.900490  0.761700  0.912700  1.0  -0.5833
  O  O457  1  0.826400  0.216860  0.422990  1.0  -0.551
  O  O458  1  0.978440  0.676620  0.001580  1.0  -0.6475
  O  O459  1  0.574900  0.814950  0.082570  1.0  -0.5944
  O  O460  1  0.639100  0.264850  0.584890  1.0  -0.5876
  O  O461  1  0.176300  0.713160  0.914080  1.0  -0.584
  O  O462  1  0.424770  0.324560  0.009610  1.0  -0.6329
  O  O463  1  0.521560  0.176620  0.501580  1.0  -0.6479
  O  O464  1  0.011200  0.568500  0.415380  1.0  -0.5454
  O  O465  1  0.212700  0.321330  0.131560  1.0  -0.6162
  O  O466  1  0.779390  0.849930  0.996020  1.0  -0.6537
  O  O467  1  0.823700  0.213160  0.085920  1.0  -0.5839
  O  O468  1  0.287300  0.821330  0.631560  1.0  -0.6173
  O  O469  1  0.787300  0.821330  0.868440  1.0  -0.6176
  O  O470  1  0.326400  0.216860  0.077010  1.0  -0.5516
  O  O471  1  0.506100  0.213670  0.832560  1.0  -0.6432
  O  O472  1  0.478440  0.676620  0.498420  1.0  -0.6474
  O  O473  1  0.260400  0.816910  0.832280  1.0  -0.6375
  O  O474  1  0.814530  0.192630  0.994880  1.0  -0.6558
  O  O475  1  0.752200  0.362850  0.024210  1.0  -0.5963
  O  O476  1  0.738500  0.955550  0.581160  1.0  -0.5733
  O  O477  1  0.767300  0.694670  0.994390  1.0  -0.6044
  O  O478  1  0.469620  0.090850  0.555610  1.0  -0.5534
  O  O479  1  0.030380  0.590850  0.055610  1.0  -0.5521
  O  O480  1  0.125800  0.276300  0.384180  1.0  -0.5608
  O  O481  1  0.239600  0.316910  0.332280  1.0  -0.6372
  O  O482  1  0.099510  0.261700  0.087300  1.0  -0.5831
  O  O483  1  0.676300  0.713160  0.585920  1.0  -0.5846
  O  O484  1  0.425100  0.314950  0.917430  1.0  -0.5936
