# generated using pymatgen
data_EuH7(C5O2)3
_symmetry_space_group_name_H-M   'P 1'
_cell_length_a   12.94900000
_cell_length_b   13.86900000
_cell_length_c   27.97200000
_cell_angle_alpha   104.31500000
_cell_angle_beta   98.30100000
_cell_angle_gamma   94.34900000
_symmetry_Int_Tables_number   1
_chemical_formula_structural   EuH7(C5O2)3
_chemical_formula_sum   'Eu8 H56 C120 O48'
_cell_volume   4783.81714361
_cell_formula_units_Z   8
loop_
 _symmetry_equiv_pos_site_id
 _symmetry_equiv_pos_as_xyz
  1  'x, y, z'
loop_
 _atom_site_type_symbol
 _atom_site_label
 _atom_site_symmetry_multiplicity
 _atom_site_fract_x
 _atom_site_fract_y
 _atom_site_fract_z
 _atom_site_occupancy
 _atom_site_charge
  Eu  Eu1  1  0.619550  0.074700  0.553950  1.0  2.1468
  Eu  Eu2  1  0.015890  0.104820  0.086370  1.0  2.0562
  Eu  Eu3  1  0.531390  0.564140  0.939210  1.0  2.1585
  Eu  Eu4  1  0.028820  0.454340  0.415260  1.0  2.0216
  Eu  Eu5  1  0.380450  0.925300  0.446050  1.0  2.1417
  Eu  Eu6  1  0.984110  0.895180  0.913630  1.0  2.0588
  Eu  Eu7  1  0.468620  0.435860  0.060790  1.0  2.1598
  Eu  Eu8  1  0.971180  0.545660  0.584740  1.0  2.0186
  H  H9  1  0.463300  0.816400  0.275400  1.0  0.1074
  H  H10  1  0.876800  0.574900  0.201500  1.0  0.1053
  H  H11  1  0.955000  0.871600  0.189500  1.0  0.0983
  H  H12  1  0.473500  0.108800  0.347100  1.0  0.098
  H  H13  1  0.441000  0.612300  0.235400  1.0  0.0974
  H  H14  1  0.685000  0.292500  0.310100  1.0  0.1037
  H  H15  1  0.934600  0.865300  0.271300  1.0  0.1097
  H  H16  1  0.421400  0.059700  0.258800  1.0  0.0944
  H  H17  1  0.942600  0.535200  0.274000  1.0  0.1117
  H  H18  1  0.496100  0.675500  0.320600  1.0  0.1038
  H  H19  1  0.180600  0.908200  0.118100  1.0  0.0949
  H  H20  1  0.403700  0.355500  0.212100  1.0  0.0903
  H  H21  1  0.530400  0.346300  0.277100  1.0  0.0906
  H  H22  1  0.294400  0.070000  0.194200  1.0  0.0872
  H  H23  1  0.584100  0.771400  0.391100  1.0  0.0989
  H  H24  1  0.361000  0.684300  0.112300  1.0  0.1092
  H  H25  1  0.438000  0.785500  0.190000  1.0  0.1021
  H  H26  1  0.004000  0.827000  0.343800  1.0  0.1036
  H  H27  1  0.749300  0.210400  0.437600  1.0  0.1125
  H  H28  1  0.763900  0.795500  0.056600  1.0  0.1124
  H  H29  1  0.777300  0.762500  0.515200  1.0  0.1094
  H  H30  1  0.245500  0.758000  0.986400  1.0  0.1111
  H  H31  1  0.688800  0.462600  0.225900  1.0  0.1045
  H  H32  1  0.739700  0.630800  0.154700  1.0  0.0971
  H  H33  1  0.748200  0.528500  0.310500  1.0  0.1169
  H  H34  1  0.147700  0.864800  0.189800  1.0  0.1038
  H  H35  1  0.770700  0.553100  0.387100  1.0  0.1101
  H  H36  1  0.174800  0.899100  0.275900  1.0  0.0987
  H  H37  1  0.536700  0.183600  0.724600  1.0  0.1072
  H  H38  1  0.123200  0.425100  0.798500  1.0  0.1061
  H  H39  1  0.045000  0.128400  0.810500  1.0  0.0985
  H  H40  1  0.526500  0.891200  0.652900  1.0  0.0988
  H  H41  1  0.559000  0.387700  0.764600  1.0  0.0969
  H  H42  1  0.315000  0.707500  0.689900  1.0  0.1042
  H  H43  1  0.065400  0.134700  0.728700  1.0  0.1098
  H  H44  1  0.578600  0.940300  0.741200  1.0  0.0944
  H  H45  1  0.057400  0.464800  0.726000  1.0  0.1127
  H  H46  1  0.503900  0.324500  0.679400  1.0  0.1033
  H  H47  1  0.819400  0.091800  0.881900  1.0  0.0947
  H  H48  1  0.596300  0.644500  0.787900  1.0  0.0911
  H  H49  1  0.469600  0.653700  0.722900  1.0  0.0917
  H  H50  1  0.705600  0.930000  0.805800  1.0  0.0868
  H  H51  1  0.415900  0.228600  0.608900  1.0  0.0988
  H  H52  1  0.639000  0.315700  0.887700  1.0  0.1095
  H  H53  1  0.562000  0.214500  0.810000  1.0  0.1022
  H  H54  1  0.996000  0.173000  0.656200  1.0  0.1029
  H  H55  1  0.250700  0.789600  0.562400  1.0  0.1122
  H  H56  1  0.236100  0.204500  0.943400  1.0  0.1125
  H  H57  1  0.222700  0.237500  0.484800  1.0  0.1092
  H  H58  1  0.754500  0.242000  0.013600  1.0  0.11
  H  H59  1  0.311200  0.537400  0.774100  1.0  0.105
  H  H60  1  0.260300  0.369200  0.845300  1.0  0.0972
  H  H61  1  0.251800  0.471500  0.689500  1.0  0.1167
  H  H62  1  0.852300  0.135200  0.810200  1.0  0.1044
  H  H63  1  0.229300  0.446900  0.612900  1.0  0.1112
  H  H64  1  0.825200  0.100900  0.724100  1.0  0.0987
  C  C65  1  0.571000  0.100700  0.435290  1.0  0.7834
  C  C66  1  0.650700  0.632600  0.063630  1.0  0.7692
  C  C67  1  0.131900  0.899200  0.021080  1.0  0.7694
  C  C68  1  0.200000  0.840300  0.048190  1.0  -0.1713
  C  C69  1  0.399700  0.826500  0.258220  1.0  -0.0588
  C  C70  1  0.734100  0.257900  0.374650  1.0  -0.1518
  C  C71  1  0.566200  0.199800  0.319810  1.0  0.0477
  C  C72  1  0.489700  0.200900  0.275270  1.0  0.053
  C  C73  1  0.901500  0.626100  0.230270  1.0  -0.1173
  C  C74  1  0.900800  0.828500  0.167150  1.0  -0.0486
  C  C75  1  0.855600  0.746700  0.180480  1.0  0.0202
  C  C76  1  0.643000  0.876600  0.487040  1.0  0.7657
  C  C77  1  0.538500  0.147300  0.353980  1.0  -0.0483
  C  C78  1  0.675900  0.781800  0.457240  1.0  -0.1544
  C  C79  1  0.504100  0.596400  0.250340  1.0  -0.0507
  C  C80  1  0.332600  0.214700  0.197310  1.0  -0.1592
  C  C81  1  0.665100  0.255800  0.331670  1.0  -0.0501
  C  C82  1  0.313900  0.710800  0.044740  1.0  -0.1492
  C  C83  1  0.936300  0.798500  0.271590  1.0  -0.1257
  C  C84  1  0.784100  0.647800  0.455860  1.0  -0.1583
  C  C85  1  0.418200  0.119800  0.249890  1.0  -0.1161
  C  C86  1  0.243800  0.225500  0.159450  1.0  0.6591
  C  C87  1  0.017400  0.650600  0.364760  1.0  0.7161
  C  C88  1  0.857400  0.594000  0.482350  1.0  0.7239
  C  C89  1  0.940900  0.602000  0.273690  1.0  -0.0629
  C  C90  1  0.606500  0.151900  0.397810  1.0  -0.1403
  C  C91  1  0.537500  0.634800  0.301740  1.0  -0.137
  C  C92  1  0.289500  0.820800  0.180290  1.0  0.0501
  C  C93  1  0.213400  0.857700  0.099690  1.0  -0.0451
  C  C94  1  0.866700  0.846800  0.121380  1.0  -0.1478
  C  C95  1  0.670700  0.655100  0.379700  1.0  0.0095
  C  C96  1  0.372600  0.634200  0.015070  1.0  0.7613
  C  C97  1  0.406000  0.296100  0.221810  1.0  -0.047
  C  C98  1  0.321200  0.860500  0.284230  1.0  -0.1434
  C  C99  1  0.897800  0.724200  0.228280  1.0  0.0633
  C  C100  1  0.482700  0.290200  0.260560  1.0  -0.1331
  C  C101  1  0.562100  0.536000  0.221620  1.0  -0.1311
  C  C102  1  0.341200  0.126300  0.211210  1.0  -0.0445
  C  C103  1  0.274400  0.801400  0.124430  1.0  0.0081
  C  C104  1  0.635400  0.741000  0.406870  1.0  -0.0675
  C  C105  1  0.322900  0.725300  0.096460  1.0  -0.0654
  C  C106  1  0.384200  0.807600  0.207150  1.0  -0.1195
  C  C107  1  0.977100  0.775500  0.315350  1.0  -0.0618
  C  C108  1  0.703900  0.207200  0.408140  1.0  0.0331
  C  C109  1  0.785800  0.783600  0.087550  1.0  0.0277
  C  C110  1  0.750200  0.734900  0.481440  1.0  0.0201
  C  C111  1  0.737600  0.702300  0.100250  1.0  -0.1593
  C  C112  1  0.839400  0.319800  0.385890  1.0  0.6703
  C  C113  1  0.631500  0.613300  0.325030  1.0  0.055
  C  C114  1  0.252000  0.768100  0.020840  1.0  0.0268
  C  C115  1  0.978400  0.678000  0.317330  1.0  -0.1331
  C  C116  1  0.651300  0.508100  0.244610  1.0  -0.0563
  C  C117  1  0.772400  0.684900  0.146240  1.0  -0.0487
  C  C118  1  0.686500  0.547200  0.295720  1.0  -0.1235
  C  C119  1  0.525900  0.496300  0.166260  1.0  0.6763
  C  C120  1  0.211600  0.855100  0.206860  1.0  -0.1081
  C  C121  1  0.745700  0.609900  0.404800  1.0  -0.0559
  C  C122  1  0.919500  0.934100  0.108500  1.0  0.6668
  C  C123  1  0.227700  0.875300  0.258510  1.0  -0.0223
  C  C124  1  0.339700  0.880100  0.340340  1.0  0.7075
  C  C125  1  0.429000  0.899300  0.564710  1.0  0.7831
  C  C126  1  0.349300  0.367400  0.936370  1.0  0.7667
  C  C127  1  0.868100  0.100800  0.978920  1.0  0.7694
  C  C128  1  0.800000  0.159700  0.951810  1.0  -0.1713
  C  C129  1  0.600300  0.173500  0.741780  1.0  -0.0565
  C  C130  1  0.265900  0.742100  0.625350  1.0  -0.1504
  C  C131  1  0.433800  0.800200  0.680190  1.0  0.0489
  C  C132  1  0.510300  0.799100  0.724730  1.0  0.0532
  C  C133  1  0.098500  0.373900  0.769730  1.0  -0.117
  C  C134  1  0.099200  0.171500  0.832850  1.0  -0.0488
  C  C135  1  0.144400  0.253300  0.819520  1.0  0.0204
  C  C136  1  0.357000  0.123400  0.512960  1.0  0.7638
  C  C137  1  0.461500  0.852700  0.646020  1.0  -0.0487
  C  C138  1  0.324100  0.218200  0.542760  1.0  -0.1545
  C  C139  1  0.495900  0.403600  0.749660  1.0  -0.0512
  C  C140  1  0.667400  0.785300  0.802690  1.0  -0.1578
  C  C141  1  0.334900  0.744200  0.668330  1.0  -0.0517
  C  C142  1  0.686100  0.289200  0.955260  1.0  -0.1487
  C  C143  1  0.063700  0.201500  0.728410  1.0  -0.1273
  C  C144  1  0.215900  0.352200  0.544140  1.0  -0.1596
  C  C145  1  0.581800  0.880200  0.750110  1.0  -0.1171
  C  C146  1  0.756200  0.774500  0.840550  1.0  0.6597
  C  C147  1  0.982600  0.349400  0.635240  1.0  0.7174
  C  C148  1  0.142600  0.406000  0.517650  1.0  0.7234
  C  C149  1  0.059100  0.398000  0.726310  1.0  -0.0639
  C  C150  1  0.393500  0.848100  0.602190  1.0  -0.141
  C  C151  1  0.462500  0.365200  0.698260  1.0  -0.1386
  C  C152  1  0.710500  0.179200  0.819710  1.0  0.0505
  C  C153  1  0.786600  0.142300  0.900310  1.0  -0.0446
  C  C154  1  0.133300  0.153200  0.878620  1.0  -0.149
  C  C155  1  0.329300  0.344900  0.620300  1.0  0.0083
  C  C156  1  0.627400  0.365800  0.984930  1.0  0.7614
  C  C157  1  0.594000  0.703900  0.778190  1.0  -0.0456
  C  C158  1  0.678800  0.139500  0.715770  1.0  -0.1461
  C  C159  1  0.102200  0.275800  0.771720  1.0  0.0627
  C  C160  1  0.517300  0.709800  0.739440  1.0  -0.1332
  C  C161  1  0.437900  0.464000  0.778380  1.0  -0.1298
  C  C162  1  0.658800  0.873700  0.788790  1.0  -0.0456
  C  C163  1  0.725600  0.198600  0.875570  1.0  0.0079
  C  C164  1  0.364600  0.259000  0.593130  1.0  -0.0672
  C  C165  1  0.677100  0.274700  0.903540  1.0  -0.0665
  C  C166  1  0.615800  0.192400  0.792850  1.0  -0.1195
  C  C167  1  0.022900  0.224500  0.684650  1.0  -0.0635
  C  C168  1  0.296100  0.792800  0.591860  1.0  0.0327
  C  C169  1  0.214200  0.216400  0.912450  1.0  0.0287
  C  C170  1  0.249800  0.265100  0.518560  1.0  0.0215
  C  C171  1  0.262400  0.297700  0.899750  1.0  -0.159
  C  C172  1  0.160600  0.680200  0.614110  1.0  0.6702
  C  C173  1  0.368500  0.386700  0.674970  1.0  0.0555
  C  C174  1  0.748000  0.231900  0.979160  1.0  0.0285
  C  C175  1  0.021600  0.322000  0.682670  1.0  -0.1317
  C  C176  1  0.348700  0.491900  0.755390  1.0  -0.0552
  C  C177  1  0.227600  0.315100  0.853760  1.0  -0.0498
  C  C178  1  0.313500  0.452800  0.704280  1.0  -0.1222
  C  C179  1  0.474100  0.503700  0.833740  1.0  0.6746
  C  C180  1  0.788400  0.144900  0.793140  1.0  -0.1084
  C  C181  1  0.254300  0.390100  0.595200  1.0  -0.0563
  C  C182  1  0.080500  0.065900  0.891500  1.0  0.6676
  C  C183  1  0.772300  0.124700  0.741490  1.0  -0.0237
  C  C184  1  0.660300  0.119900  0.659660  1.0  0.7094
  O  O185  1  0.098200  0.973670  0.045560  1.0  -0.7774
  O  O186  1  0.481700  0.050700  0.422730  1.0  -0.7144
  O  O187  1  0.887500  0.951890  0.066720  1.0  -0.7048
  O  O188  1  0.053900  0.718900  0.403360  1.0  -0.5161
  O  O189  1  0.624000  0.648810  0.021620  1.0  -0.8081
  O  O190  1  0.631100  0.111200  0.475520  1.0  -0.7365
  O  O191  1  0.905070  0.316240  0.423470  1.0  -0.6687
  O  O192  1  0.994900  0.989000  0.139150  1.0  -0.7046
  O  O193  1  0.898200  0.523700  0.457270  1.0  -0.7415
  O  O194  1  0.174200  0.149600  0.141690  1.0  -0.7374
  O  O195  1  0.452900  0.534000  0.145130  1.0  -0.6689
  O  O196  1  0.702600  0.925260  0.525850  1.0  -0.706
  O  O197  1  0.278700  0.930200  0.364280  1.0  -0.6219
  O  O198  1  0.413700  0.845000  0.361300  1.0  -0.6529
  O  O199  1  0.391800  0.647000  0.974110  1.0  -0.6702
  O  O200  1  0.610400  0.562150  0.078250  1.0  -0.7166
  O  O201  1  0.556200  0.904920  0.472330  1.0  -0.8403
  O  O202  1  0.873600  0.619400  0.528930  1.0  -0.6588
  O  O203  1  0.860300  0.375800  0.358330  1.0  -0.6808
  O  O204  1  0.009200  0.559200  0.363590  1.0  -0.7588
  O  O205  1  0.567200  0.426800  0.141680  1.0  -0.6422
  O  O206  1  0.400200  0.564780  0.032590  1.0  -0.8157
  O  O207  1  0.113700  0.868500  0.974350  1.0  -0.6986
  O  O208  1  0.239800  0.306000  0.147550  1.0  -0.4907
  O  O209  1  0.901800  0.026330  0.954440  1.0  -0.7777
  O  O210  1  0.518300  0.949300  0.577270  1.0  -0.7135
  O  O211  1  0.112500  0.048110  0.933280  1.0  -0.7082
  O  O212  1  0.946100  0.281100  0.596640  1.0  -0.5152
  O  O213  1  0.376000  0.351190  0.978380  1.0  -0.8065
  O  O214  1  0.368900  0.888800  0.524480  1.0  -0.7365
  O  O215  1  0.094930  0.683760  0.576530  1.0  -0.6664
  O  O216  1  0.005100  0.011000  0.860850  1.0  -0.7035
  O  O217  1  0.101800  0.476300  0.542730  1.0  -0.7418
  O  O218  1  0.825800  0.850400  0.858310  1.0  -0.7372
  O  O219  1  0.547100  0.466000  0.854870  1.0  -0.6694
  O  O220  1  0.297400  0.074740  0.474150  1.0  -0.7022
  O  O221  1  0.721300  0.069800  0.635720  1.0  -0.6233
  O  O222  1  0.586300  0.155000  0.638700  1.0  -0.6512
  O  O223  1  0.608200  0.353000  0.025890  1.0  -0.671
  O  O224  1  0.389600  0.437850  0.921750  1.0  -0.718
  O  O225  1  0.443800  0.095080  0.527670  1.0  -0.841
  O  O226  1  0.126400  0.380600  0.471070  1.0  -0.6612
  O  O227  1  0.139700  0.624200  0.641670  1.0  -0.6823
  O  O228  1  0.990800  0.440800  0.636410  1.0  -0.7583
  O  O229  1  0.432800  0.573200  0.858320  1.0  -0.6467
  O  O230  1  0.599800  0.435220  0.967410  1.0  -0.8152
  O  O231  1  0.886300  0.131500  0.025650  1.0  -0.697
  O  O232  1  0.760200  0.694000  0.852450  1.0  -0.4908
