# generated using pymatgen
data_AlPO4
_symmetry_space_group_name_H-M   'P 1'
_cell_length_a   13.79500000
_cell_length_b   12.83000000
_cell_length_c   18.81500000
_cell_angle_alpha   90.00000000
_cell_angle_beta   89.95900000
_cell_angle_gamma   90.00000000
_symmetry_Int_Tables_number   1
_chemical_formula_structural   AlPO4
_chemical_formula_sum   'Al24 P24 O96'
_cell_volume   3330.06317515
_cell_formula_units_Z   24
loop_
 _symmetry_equiv_pos_site_id
 _symmetry_equiv_pos_as_xyz
  1  'x, y, z'
loop_
 _atom_site_type_symbol
 _atom_site_label
 _atom_site_symmetry_multiplicity
 _atom_site_fract_x
 _atom_site_fract_y
 _atom_site_fract_z
 _atom_site_occupancy
 _atom_site_charge
  Al  Al1  1  0.889500  0.959600  0.165500  1.0  2.0163
  Al  Al2  1  0.117200  0.774600  0.061500  1.0  2.0151
  Al  Al3  1  0.226700  0.096100  0.049500  1.0  1.9977
  Al  Al4  1  0.389500  0.459600  0.165500  1.0  2.0163
  Al  Al5  1  0.617200  0.274600  0.061500  1.0  2.0151
  Al  Al6  1  0.726700  0.596100  0.049500  1.0  1.9977
  Al  Al7  1  0.110500  0.959600  0.334500  1.0  2.0178
  Al  Al8  1  0.882800  0.774600  0.438500  1.0  2.0168
  Al  Al9  1  0.773300  0.096100  0.450500  1.0  1.9966
  Al  Al10  1  0.610500  0.459600  0.334500  1.0  2.0178
  Al  Al11  1  0.382800  0.274600  0.438500  1.0  2.0168
  Al  Al12  1  0.273300  0.596100  0.450500  1.0  1.9966
  Al  Al13  1  0.110500  0.040400  0.834500  1.0  2.0158
  Al  Al14  1  0.882800  0.225400  0.938500  1.0  2.0176
  Al  Al15  1  0.773300  0.903900  0.950500  1.0  1.9981
  Al  Al16  1  0.610500  0.540400  0.834500  1.0  2.0158
  Al  Al17  1  0.382800  0.725400  0.938500  1.0  2.0176
  Al  Al18  1  0.273300  0.403900  0.950500  1.0  1.9981
  Al  Al19  1  0.889500  0.040400  0.665500  1.0  2.0161
  Al  Al20  1  0.117200  0.225400  0.561500  1.0  2.0158
  Al  Al21  1  0.226700  0.903900  0.549500  1.0  1.9975
  Al  Al22  1  0.389500  0.540400  0.665500  1.0  2.0161
  Al  Al23  1  0.617200  0.725400  0.561500  1.0  2.0158
  Al  Al24  1  0.726700  0.403900  0.549500  1.0  1.9974
  P  P25  1  0.772200  0.096300  0.055400  1.0  2.1132
  P  P26  1  0.888700  0.767600  0.061800  1.0  2.155
  P  P27  1  0.118700  0.964300  0.166700  1.0  2.1168
  P  P28  1  0.272200  0.596300  0.055400  1.0  2.1132
  P  P29  1  0.388700  0.267600  0.061800  1.0  2.155
  P  P30  1  0.618700  0.464300  0.166700  1.0  2.1168
  P  P31  1  0.227800  0.096300  0.444600  1.0  2.12
  P  P32  1  0.111300  0.767600  0.438200  1.0  2.156
  P  P33  1  0.881300  0.964300  0.333333  1.0  2.1099
  P  P34  1  0.727800  0.596300  0.444600  1.0  2.12
  P  P35  1  0.611300  0.267600  0.438200  1.0  2.156
  P  P36  1  0.381300  0.464300  0.333333  1.0  2.1099
  P  P37  1  0.227800  0.903700  0.944600  1.0  2.121
  P  P38  1  0.111300  0.232400  0.938200  1.0  2.1561
  P  P39  1  0.881300  0.035700  0.833300  1.0  2.1095
  P  P40  1  0.727800  0.403700  0.944600  1.0  2.1206
  P  P41  1  0.611300  0.732400  0.938200  1.0  2.1561
  P  P42  1  0.381300  0.535700  0.833300  1.0  2.1095
  P  P43  1  0.772200  0.903700  0.555400  1.0  2.1139
  P  P44  1  0.888700  0.232400  0.561800  1.0  2.1558
  P  P45  1  0.118700  0.035700  0.666667  1.0  2.1171
  P  P46  1  0.272200  0.403700  0.555400  1.0  2.1134
  P  P47  1  0.388700  0.732400  0.561800  1.0  2.1558
  P  P48  1  0.618700  0.535700  0.666667  1.0  2.1171
  O  O49  1  0.180300  0.047400  0.130600  1.0  -1.0021
  O  O50  1  0.859500  0.824000  0.993900  1.0  -1.0775
  O  O51  1  0.994700  0.738500  0.057800  1.0  -1.0264
  O  O52  1  0.846600  0.164700  0.017800  1.0  -1.0797
  O  O53  1  0.816800  0.053800  0.123600  1.0  -0.9891
  O  O54  1  0.012400  0.994900  0.158200  1.0  -1.0644
  O  O55  1  0.137700  0.858300  0.133500  1.0  -1.0414
  O  O56  1  0.831900  0.667800  0.070200  1.0  -1.024
  O  O57  1  0.147100  0.959000  0.244900  1.0  -1.0006
  O  O58  1  0.683700  0.160100  0.075800  1.0  -1.0108
  O  O59  1  0.870000  0.836400  0.126700  1.0  -1.0409
  O  O60  1  0.740000  0.009100  0.007100  1.0  -1.0601
  O  O61  1  0.680300  0.547400  0.130600  1.0  -1.0021
  O  O62  1  0.359500  0.324000  0.993900  1.0  -1.0775
  O  O63  1  0.494700  0.238500  0.057800  1.0  -1.0264
  O  O64  1  0.346600  0.664700  0.017800  1.0  -1.0797
  O  O65  1  0.316800  0.553800  0.123600  1.0  -0.9891
  O  O66  1  0.512400  0.494900  0.158200  1.0  -1.0644
  O  O67  1  0.637700  0.358300  0.133500  1.0  -1.0415
  O  O68  1  0.331900  0.167800  0.070200  1.0  -1.024
  O  O69  1  0.647100  0.459000  0.244900  1.0  -1.0006
  O  O70  1  0.183700  0.660100  0.075800  1.0  -1.0108
  O  O71  1  0.370000  0.336400  0.126700  1.0  -1.0409
  O  O72  1  0.240000  0.509100  0.007100  1.0  -1.0601
  O  O73  1  0.819700  0.047400  0.369400  1.0  -1.0028
  O  O74  1  0.140500  0.824000  0.506100  1.0  -1.0778
  O  O75  1  0.005300  0.738500  0.442200  1.0  -1.0255
  O  O76  1  0.153400  0.164700  0.482200  1.0  -1.0792
  O  O77  1  0.183200  0.053800  0.376400  1.0  -0.9896
  O  O78  1  0.987600  0.994900  0.341800  1.0  -1.0632
  O  O79  1  0.862300  0.858300  0.366500  1.0  -1.0402
  O  O80  1  0.168100  0.667800  0.429800  1.0  -1.0241
  O  O81  1  0.852900  0.959000  0.255100  1.0  -1.0005
  O  O82  1  0.316300  0.160100  0.424200  1.0  -1.0097
  O  O83  1  0.130000  0.836400  0.373300  1.0  -1.0427
  O  O84  1  0.260000  0.009100  0.492900  1.0  -1.061
  O  O85  1  0.319700  0.547400  0.369400  1.0  -1.0028
  O  O86  1  0.640500  0.324000  0.506100  1.0  -1.0771
  O  O87  1  0.505300  0.238500  0.442200  1.0  -1.0255
  O  O88  1  0.653400  0.664700  0.482200  1.0  -1.0792
  O  O89  1  0.683200  0.553800  0.376400  1.0  -0.9896
  O  O90  1  0.487600  0.494900  0.341800  1.0  -1.0632
  O  O91  1  0.362300  0.358300  0.366500  1.0  -1.0402
  O  O92  1  0.668100  0.167800  0.429800  1.0  -1.0241
  O  O93  1  0.352900  0.459000  0.255100  1.0  -1.0005
  O  O94  1  0.816300  0.660100  0.424200  1.0  -1.0097
  O  O95  1  0.630000  0.336400  0.373300  1.0  -1.0431
  O  O96  1  0.760000  0.509100  0.492900  1.0  -1.061
  O  O97  1  0.819700  0.952600  0.869400  1.0  -1.0026
  O  O98  1  0.140500  0.176000  0.006100  1.0  -1.0764
  O  O99  1  0.005300  0.261500  0.942200  1.0  -1.0274
  O  O100  1  0.153400  0.835300  0.982200  1.0  -1.0788
  O  O101  1  0.183200  0.946200  0.876400  1.0  -0.9895
  O  O102  1  0.987600  0.005100  0.841800  1.0  -1.0635
  O  O103  1  0.862300  0.141700  0.866500  1.0  -1.0405
  O  O104  1  0.168100  0.332200  0.929800  1.0  -1.0242
  O  O105  1  0.852900  0.041000  0.755100  1.0  -1.0002
  O  O106  1  0.316300  0.839900  0.924200  1.0  -1.009
  O  O107  1  0.130000  0.163600  0.873300  1.0  -1.0438
  O  O108  1  0.260000  0.990900  0.992900  1.0  -1.0612
  O  O109  1  0.319700  0.452600  0.869400  1.0  -1.0026
  O  O110  1  0.640500  0.676000  0.006100  1.0  -1.0771
  O  O111  1  0.505300  0.761500  0.942200  1.0  -1.0274
  O  O112  1  0.653400  0.335300  0.982200  1.0  -1.0788
  O  O113  1  0.683200  0.446200  0.876400  1.0  -0.9895
  O  O114  1  0.487600  0.505100  0.841800  1.0  -1.0635
  O  O115  1  0.362300  0.641700  0.866500  1.0  -1.0405
  O  O116  1  0.668100  0.832200  0.929800  1.0  -1.0242
  O  O117  1  0.352900  0.541000  0.755100  1.0  -1.0002
  O  O118  1  0.816300  0.339900  0.924200  1.0  -1.009
  O  O119  1  0.630000  0.663600  0.873300  1.0  -1.0431
  O  O120  1  0.760000  0.490900  0.992900  1.0  -1.0612
  O  O121  1  0.180300  0.952600  0.630600  1.0  -1.0028
  O  O122  1  0.859500  0.176000  0.493900  1.0  -1.0765
  O  O123  1  0.994700  0.261500  0.557800  1.0  -1.0267
  O  O124  1  0.846600  0.835300  0.517800  1.0  -1.0788
  O  O125  1  0.816800  0.946200  0.623600  1.0  -0.989
  O  O126  1  0.012400  0.005100  0.658200  1.0  -1.0628
  O  O127  1  0.137700  0.141700  0.633500  1.0  -1.0428
  O  O128  1  0.831900  0.332200  0.570200  1.0  -1.024
  O  O129  1  0.147100  0.041000  0.744900  1.0  -1.0005
  O  O130  1  0.683700  0.839900  0.575800  1.0  -1.0105
  O  O131  1  0.870000  0.163600  0.626700  1.0  -1.0415
  O  O132  1  0.740000  0.990900  0.507100  1.0  -1.0591
  O  O133  1  0.680300  0.452600  0.630600  1.0  -1.0028
  O  O134  1  0.359500  0.676000  0.493900  1.0  -1.0765
  O  O135  1  0.494700  0.761500  0.557800  1.0  -1.0267
  O  O136  1  0.346600  0.335300  0.517800  1.0  -1.0788
  O  O137  1  0.316800  0.446200  0.623600  1.0  -0.989
  O  O138  1  0.512400  0.505100  0.658200  1.0  -1.0628
  O  O139  1  0.637700  0.641700  0.633500  1.0  -1.0425
  O  O140  1  0.331900  0.832200  0.570200  1.0  -1.024
  O  O141  1  0.647100  0.541000  0.744900  1.0  -1.0005
  O  O142  1  0.183700  0.339900  0.575800  1.0  -1.0105
  O  O143  1  0.370000  0.663600  0.626700  1.0  -1.0415
  O  O144  1  0.240000  0.490900  0.507100  1.0  -1.0591
