# generated using pymatgen
data_MnH8C12(NO2)2
_symmetry_space_group_name_H-M   'P 1'
_cell_length_a   9.91650000
_cell_length_b   10.96930000
_cell_length_c   13.05280000
_cell_angle_alpha   90.00000000
_cell_angle_beta   90.00000000
_cell_angle_gamma   101.63300000
_symmetry_Int_Tables_number   1
_chemical_formula_structural   MnH8C12(NO2)2
_chemical_formula_sum   'Mn4 H32 C48 N8 O16'
_cell_volume   1390.68060228
_cell_formula_units_Z   4
loop_
 _symmetry_equiv_pos_site_id
 _symmetry_equiv_pos_as_xyz
  1  'x, y, z'
loop_
 _atom_site_type_symbol
 _atom_site_label
 _atom_site_symmetry_multiplicity
 _atom_site_fract_x
 _atom_site_fract_y
 _atom_site_fract_z
 _atom_site_occupancy
 _atom_site_charge
  Mn  Mn1  1  0.373570  0.751780  0.887560  1.0  1.0229
  Mn  Mn2  1  0.875540  0.746820  0.888470  1.0  1.0354
  Mn  Mn3  1  0.626430  0.248220  0.387560  1.0  1.0227
  Mn  Mn4  1  0.124460  0.253180  0.388470  1.0  1.0371
  H  H5  1  0.592500  0.646400  0.186900  1.0  0.1287
  H  H6  1  0.392200  0.481300  0.821900  1.0  0.0756
  H  H7  1  0.102900  0.513200  0.617200  1.0  0.1139
  H  H8  1  0.299100  0.375300  0.204600  1.0  0.074
  H  H9  1  0.048600  0.861000  0.082500  1.0  0.0779
  H  H10  1  0.623600  0.254600  0.631100  1.0  0.0715
  H  H11  1  0.086500  0.637200  0.754700  1.0  0.0732
  H  H12  1  0.957600  0.008900  0.720300  1.0  0.1045
  H  H13  1  0.677500  0.855300  0.591100  1.0  0.1284
  H  H14  1  0.659500  0.979400  0.452500  1.0  0.0774
  H  H15  1  0.042400  0.991100  0.220300  1.0  0.1048
  H  H16  1  0.617700  0.131900  0.773000  1.0  0.1337
  H  H17  1  0.376400  0.745400  0.131100  1.0  0.0715
  H  H18  1  0.607800  0.518700  0.321900  1.0  0.0783
  H  H19  1  0.340500  0.020600  0.952500  1.0  0.077
  H  H20  1  0.913500  0.362800  0.254700  1.0  0.073
  H  H21  1  0.389400  0.638400  0.501600  1.0  0.1158
  H  H22  1  0.610600  0.361600  0.001600  1.0  0.116
  H  H23  1  0.407500  0.353600  0.686900  1.0  0.1286
  H  H24  1  0.322500  0.144700  0.091100  1.0  0.1282
  H  H25  1  0.951400  0.139000  0.582500  1.0  0.0781
  H  H26  1  0.897100  0.486800  0.117200  1.0  0.1147
  H  H27  1  0.700400  0.499600  0.565400  1.0  0.1232
  H  H28  1  0.700900  0.624700  0.704600  1.0  0.0736
  H  H29  1  0.384700  0.760400  0.642400  1.0  0.0783
  H  H30  1  0.299600  0.500400  0.065400  1.0  0.1232
  H  H31  1  0.667400  0.868400  0.017500  1.0  0.0691
  H  H32  1  0.346900  0.004000  0.655100  1.0  0.1019
  H  H33  1  0.332600  0.131600  0.517500  1.0  0.069
  H  H34  1  0.653100  0.996000  0.155100  1.0  0.1014
  H  H35  1  0.382300  0.868100  0.273000  1.0  0.1342
  H  H36  1  0.615300  0.239600  0.142400  1.0  0.0784
  C  C37  1  0.991800  0.392900  0.216000  1.0  0.186
  C  C38  1  0.608200  0.395800  0.066700  1.0  -0.1964
  C  C39  1  0.630900  0.099800  0.708700  1.0  -0.2054
  C  C40  1  0.391800  0.604200  0.566700  1.0  -0.1957
  C  C41  1  0.031600  0.110000  0.595600  1.0  0.1785
  C  C42  1  0.780400  0.524800  0.603400  1.0  -0.1563
  C  C43  1  0.663400  0.935700  0.600800  1.0  -0.1749
  C  C44  1  0.964600  0.967000  0.179600  1.0  -0.0879
  C  C45  1  0.901500  0.486800  0.576400  1.0  -0.0991
  C  C46  1  0.369100  0.828000  0.122500  1.0  0.1863
  C  C47  1  0.098500  0.513200  0.076400  1.0  -0.0989
  C  C48  1  0.345000  0.988000  0.017900  1.0  0.18
  C  C49  1  0.600800  0.519000  0.077000  1.0  0.0216
  C  C50  1  0.158300  0.902800  0.789800  1.0  0.676
  C  C51  1  0.218100  0.400300  0.186700  1.0  0.1931
  C  C52  1  0.655000  0.012000  0.517900  1.0  0.1789
  C  C53  1  0.735200  0.970500  0.141300  1.0  -0.1175
  C  C54  1  0.401200  0.435900  0.675500  1.0  -0.1911
  C  C55  1  0.018800  0.532900  0.634300  1.0  -0.1802
  C  C56  1  0.630900  0.172000  0.622500  1.0  0.1848
  C  C57  1  0.219600  0.475200  0.103400  1.0  -0.1569
  C  C58  1  0.981200  0.467100  0.134300  1.0  -0.1837
  C  C59  1  0.598800  0.564100  0.175500  1.0  -0.1906
  C  C60  1  0.369100  0.900200  0.208700  1.0  -0.2048
  C  C61  1  0.035400  0.033000  0.679600  1.0  -0.0874
  C  C62  1  0.655900  0.898500  0.790900  1.0  0.677
  C  C63  1  0.399200  0.481000  0.577000  1.0  0.0196
  C  C64  1  0.612200  0.323100  0.151300  1.0  0.1702
  C  C65  1  0.590300  0.599100  0.985700  1.0  0.682
  C  C66  1  0.781900  0.599700  0.686700  1.0  0.1932
  C  C67  1  0.008200  0.607100  0.716000  1.0  0.1859
  C  C68  1  0.393700  0.513600  0.755900  1.0  0.1807
  C  C69  1  0.968400  0.890000  0.095600  1.0  0.1784
  C  C70  1  0.254800  0.105800  0.557800  1.0  0.1892
  C  C71  1  0.387800  0.676900  0.651300  1.0  0.1699
  C  C72  1  0.650400  0.981000  0.699100  1.0  -0.0081
  C  C73  1  0.091200  0.596200  0.985900  1.0  0.7117
  C  C74  1  0.349600  0.019000  0.199100  1.0  -0.0072
  C  C75  1  0.153900  0.992600  0.702400  1.0  -0.104
  C  C76  1  0.908800  0.403800  0.485900  1.0  0.7117
  C  C77  1  0.264800  0.029500  0.641300  1.0  -0.1183
  C  C78  1  0.745200  0.894200  0.057800  1.0  0.1902
  C  C79  1  0.336600  0.064300  0.100800  1.0  -0.1746
  C  C80  1  0.344100  0.101500  0.290900  1.0  0.6773
  C  C81  1  0.841700  0.097200  0.289800  1.0  0.6773
  C  C82  1  0.606300  0.486400  0.255900  1.0  0.1806
  C  C83  1  0.846100  0.007400  0.202400  1.0  -0.1035
  C  C84  1  0.409700  0.400900  0.485700  1.0  0.682
  N  N85  1  0.388400  0.632500  0.745000  1.0  -0.3372
  N  N86  1  0.140100  0.144100  0.532300  1.0  -0.3477
  N  N87  1  0.611600  0.367500  0.245000  1.0  -0.3371
  N  N88  1  0.859900  0.855900  0.032300  1.0  -0.3501
  N  N89  1  0.108600  0.361800  0.242700  1.0  -0.3123
  N  N90  1  0.359300  0.869800  0.026700  1.0  -0.3522
  N  N91  1  0.891400  0.638200  0.742700  1.0  -0.3127
  N  N92  1  0.640700  0.130200  0.526700  1.0  -0.3513
  O  O93  1  0.238000  0.144800  0.294900  1.0  -0.6279
  O  O94  1  0.983000  0.633100  0.973900  1.0  -0.6268
  O  O95  1  0.441900  0.114800  0.350100  1.0  -0.6173
  O  O96  1  0.732400  0.138500  0.293300  1.0  -0.6025
  O  O97  1  0.805800  0.380600  0.427800  1.0  -0.6053
  O  O98  1  0.059500  0.881600  0.847800  1.0  -0.644
  O  O99  1  0.514000  0.354100  0.480600  1.0  -0.6019
  O  O100  1  0.314800  0.386600  0.421100  1.0  -0.6393
  O  O101  1  0.558100  0.885200  0.850100  1.0  -0.6168
  O  O102  1  0.940500  0.118400  0.347800  1.0  -0.6436
  O  O103  1  0.267600  0.861500  0.793300  1.0  -0.6023
  O  O104  1  0.486000  0.645900  0.980600  1.0  -0.6046
  O  O105  1  0.194200  0.619400  0.927800  1.0  -0.6072
  O  O106  1  0.762000  0.855200  0.794900  1.0  -0.6281
  O  O107  1  0.685200  0.613400  0.921100  1.0  -0.6409
  O  O108  1  0.017000  0.366900  0.473900  1.0  -0.6256
