# generated using pymatgen
data_Mn2NbH4C12(N5O)2
_symmetry_space_group_name_H-M   'P 1'
_cell_length_a   10.94130000
_cell_length_b   10.94130000
_cell_length_c   12.05200000
_cell_angle_alpha   76.89320000
_cell_angle_beta   76.89320000
_cell_angle_gamma   86.98550000
_symmetry_Int_Tables_number   1
_chemical_formula_structural   Mn2NbH4C12(N5O)2
_chemical_formula_sum   'Mn4 Nb2 H8 C24 N20 O4'
_cell_volume   1368.57667468
_cell_formula_units_Z   2
loop_
 _symmetry_equiv_pos_site_id
 _symmetry_equiv_pos_as_xyz
  1  'x, y, z'
loop_
 _atom_site_type_symbol
 _atom_site_label
 _atom_site_symmetry_multiplicity
 _atom_site_fract_x
 _atom_site_fract_y
 _atom_site_fract_z
 _atom_site_occupancy
 _atom_site_charge
  Mn  Mn1  1  0.692820  0.768500  0.857610  1.0  1.1357
  Mn  Mn2  1  0.231500  0.307180  0.642390  1.0  1.1358
  Mn  Mn3  1  0.307180  0.231500  0.142390  1.0  1.1337
  Mn  Mn4  1  0.768500  0.692820  0.357610  1.0  1.1362
  Nb  Nb5  1  0.705060  0.294940  0.750000  1.0  0.3572
  Nb  Nb6  1  0.294940  0.705060  0.250000  1.0  0.3401
  H  H7  1  0.507800  0.722000  0.579700  1.0  0.1395
  H  H8  1  0.422200  0.634800  0.922900  1.0  0.1215
  H  H9  1  0.278000  0.492200  0.920300  1.0  0.1393
  H  H10  1  0.365200  0.577800  0.577100  1.0  0.1257
  H  H11  1  0.492200  0.278000  0.420300  1.0  0.1381
  H  H12  1  0.577800  0.365200  0.077100  1.0  0.1246
  H  H13  1  0.722000  0.507800  0.079700  1.0  0.1405
  H  H14  1  0.634800  0.422200  0.422900  1.0  0.1242
  C  C15  1  0.687250  0.083730  0.799000  1.0  0.1495
  C  C16  1  0.778010  0.233250  0.914300  1.0  0.0337
  C  C17  1  0.731450  0.463030  0.599670  1.0  0.1183
  C  C18  1  0.702900  0.471880  0.818990  1.0  0.1095
  C  C19  1  0.460080  0.676660  0.649500  1.0  -0.0188
  C  C20  1  0.409080  0.625080  0.851800  1.0  -0.0315
  C  C21  1  0.916270  0.312750  0.701000  1.0  0.1473
  C  C22  1  0.766750  0.221990  0.585700  1.0  0.033
  C  C23  1  0.536970  0.268550  0.900330  1.0  0.1184
  C  C24  1  0.528120  0.297100  0.681010  1.0  0.1063
  C  C25  1  0.323340  0.539920  0.850500  1.0  -0.0238
  C  C26  1  0.374920  0.590920  0.648200  1.0  -0.0316
  C  C27  1  0.312750  0.916270  0.201000  1.0  0.1478
  C  C28  1  0.221990  0.766750  0.085700  1.0  0.0346
  C  C29  1  0.268550  0.536970  0.400330  1.0  0.1204
  C  C30  1  0.297100  0.528120  0.181010  1.0  0.1091
  C  C31  1  0.539920  0.323340  0.350500  1.0  -0.021
  C  C32  1  0.590920  0.374920  0.148200  1.0  -0.0323
  C  C33  1  0.083730  0.687250  0.299000  1.0  0.1464
  C  C34  1  0.233250  0.778010  0.414300  1.0  0.0302
  C  C35  1  0.463030  0.731450  0.099670  1.0  0.1163
  C  C36  1  0.471880  0.702900  0.318990  1.0  0.1063
  C  C37  1  0.676660  0.460080  0.149500  1.0  -0.0237
  C  C38  1  0.625080  0.409080  0.351800  1.0  -0.0315
  N  N39  1  0.682820  0.976120  0.823900  1.0  -0.4498
  N  N40  1  0.815100  0.200500  0.997100  1.0  -0.4062
  N  N41  1  0.743600  0.547480  0.521040  1.0  -0.4576
  N  N42  1  0.701360  0.562320  0.852480  1.0  -0.4783
  N  N43  1  0.475070  0.695590  0.751730  1.0  0.3707
  N  N44  1  0.023880  0.317180  0.676100  1.0  -0.4479
  N  N45  1  0.799500  0.184900  0.502900  1.0  -0.4064
  N  N46  1  0.452520  0.256400  0.978960  1.0  -0.452
  N  N47  1  0.437680  0.298640  0.647520  1.0  -0.4795
  N  N48  1  0.304410  0.524930  0.748270  1.0  0.3571
  N  N49  1  0.317180  0.023880  0.176100  1.0  -0.4522
  N  N50  1  0.184900  0.799500  0.002900  1.0  -0.4069
  N  N51  1  0.256400  0.452520  0.478960  1.0  -0.4522
  N  N52  1  0.298640  0.437680  0.147520  1.0  -0.4794
  N  N53  1  0.524930  0.304410  0.248270  1.0  0.3712
  N  N54  1  0.976120  0.682820  0.323900  1.0  -0.4484
  N  N55  1  0.200500  0.815100  0.497100  1.0  -0.4064
  N  N56  1  0.547480  0.743600  0.021040  1.0  -0.4554
  N  N57  1  0.562320  0.701360  0.352480  1.0  -0.4803
  N  N58  1  0.695590  0.475070  0.251730  1.0  0.357
  O  O59  1  0.552470  0.782790  0.751740  1.0  -0.5005
  O  O60  1  0.217210  0.447530  0.748260  1.0  -0.5
  O  O61  1  0.447530  0.217210  0.248260  1.0  -0.5018
  O  O62  1  0.782790  0.552470  0.251740  1.0  -0.4998
