# generated using pymatgen
data_Mn2NbH8(C4N3)4
_symmetry_space_group_name_H-M   'P 1'
_cell_length_a   10.94700000
_cell_length_b   17.90800000
_cell_length_c   19.30800000
_cell_angle_alpha   63.44600000
_cell_angle_beta   75.22700000
_cell_angle_gamma   73.78800000
_symmetry_Int_Tables_number   1
_chemical_formula_structural   Mn2NbH8(C4N3)4
_chemical_formula_sum   'Mn8 Nb4 H32 C64 N48'
_cell_volume   3213.64562982
_cell_formula_units_Z   4
loop_
 _symmetry_equiv_pos_site_id
 _symmetry_equiv_pos_as_xyz
  1  'x, y, z'
loop_
 _atom_site_type_symbol
 _atom_site_label
 _atom_site_symmetry_multiplicity
 _atom_site_fract_x
 _atom_site_fract_y
 _atom_site_fract_z
 _atom_site_occupancy
 _atom_site_charge
  Mn  Mn1  1  0.507970  0.742450  0.252040  1.0  1.0563
  Mn  Mn2  1  0.833740  0.193170  0.420580  1.0  1.075
  Mn  Mn3  1  0.244610  0.312540  0.060990  1.0  1.0519
  Mn  Mn4  1  0.492030  0.257550  0.747960  1.0  1.0563
  Mn  Mn5  1  0.166260  0.806830  0.579420  1.0  1.0775
  Mn  Mn6  1  0.755390  0.687460  0.939010  1.0  1.0526
  Mn  Mn7  1  0.000000  0.000000  0.000000  1.0  1.0949
  Mn  Mn8  1  0.000000  0.500000  0.500000  1.0  1.0528
  Nb  Nb9  1  0.103950  0.004170  0.267140  1.0  0.3848
  Nb  Nb10  1  0.938040  0.505100  0.221810  1.0  0.3345
  Nb  Nb11  1  0.896050  0.995830  0.732860  1.0  0.389
  Nb  Nb12  1  0.061960  0.494900  0.778190  1.0  0.3747
  H  H13  1  0.900400  0.833200  0.037300  1.0  0.0966
  H  H14  1  0.740600  0.757500  0.109900  1.0  0.0888
  H  H15  1  0.593500  0.918400  0.207300  1.0  0.104
  H  H16  1  0.755600  0.992900  0.136000  1.0  0.0951
  H  H17  1  0.400600  0.579500  0.294800  1.0  0.1033
  H  H18  1  0.229300  0.512300  0.362500  1.0  0.1023
  H  H19  1  0.106300  0.665500  0.468400  1.0  0.094
  H  H20  1  0.273300  0.735600  0.397800  1.0  0.0929
  H  H21  1  0.870700  0.983600  0.491200  1.0  0.083
  H  H22  1  0.799500  0.881300  0.482400  1.0  0.082
  H  H23  1  0.510400  0.046400  0.388300  1.0  0.0833
  H  H24  1  0.580000  0.150900  0.397100  1.0  0.0861
  H  H25  1  0.180500  0.230000  0.245500  1.0  0.0781
  H  H26  1  0.235500  0.209900  0.358900  1.0  0.089
  H  H27  1  0.534300  0.312200  0.242700  1.0  0.092
  H  H28  1  0.476400  0.334500  0.126600  1.0  0.0974
  H  H29  1  0.099600  0.166800  0.962700  1.0  0.0967
  H  H30  1  0.259400  0.242500  0.890100  1.0  0.0884
  H  H31  1  0.406500  0.081600  0.792700  1.0  0.1036
  H  H32  1  0.244400  0.007100  0.864000  1.0  0.0953
  H  H33  1  0.599400  0.420500  0.705200  1.0  0.1039
  H  H34  1  0.770700  0.487700  0.637500  1.0  0.1027
  H  H35  1  0.893700  0.334500  0.531600  1.0  0.0929
  H  H36  1  0.726700  0.264400  0.602200  1.0  0.0942
  H  H37  1  0.129300  0.016400  0.508800  1.0  0.0826
  H  H38  1  0.200500  0.118700  0.517600  1.0  0.0811
  H  H39  1  0.489600  0.953600  0.611700  1.0  0.0833
  H  H40  1  0.420000  0.849100  0.602900  1.0  0.0859
  H  H41  1  0.819500  0.770000  0.754500  1.0  0.078
  H  H42  1  0.764500  0.790100  0.641100  1.0  0.0886
  H  H43  1  0.465700  0.687800  0.757300  1.0  0.0925
  H  H44  1  0.523600  0.665500  0.873400  1.0  0.0967
  C  C45  1  0.075100  0.006360  0.154090  1.0  0.1453
  C  C46  1  0.267500  0.904480  0.246960  1.0  0.1305
  C  C47  1  0.287300  0.022400  0.285700  1.0  0.023
  C  C48  1  0.043100  0.085000  0.335580  1.0  0.1195
  C  C49  1  0.142600  0.130550  0.172220  1.0  0.1045
  C  C50  1  0.003100  0.897300  0.298600  1.0  0.0146
  C  C51  1  0.899000  0.072300  0.251750  1.0  0.0192
  C  C52  1  0.120600  0.914920  0.393490  1.0  0.1191
  C  C53  1  0.037700  0.432400  0.146490  1.0  0.1101
  C  C54  1  0.750300  0.584930  0.251210  1.0  0.1247
  C  C55  1  0.880500  0.595990  0.102780  1.0  0.1007
  C  C56  1  0.933800  0.372990  0.317430  1.0  0.1048
  C  C57  1  0.950200  0.504010  0.336290  1.0  0.1534
  C  C58  1  0.780500  0.454910  0.210300  1.0  0.0219
  C  C59  1  0.991900  0.628300  0.194360  1.0  0.0751
  C  C60  1  0.150900  0.478900  0.225100  1.0  0.0015
  C  C61  1  0.838900  0.851300  0.072600  1.0  0.1171
  C  C62  1  0.741800  0.805810  0.116220  1.0  0.1265
  C  C63  1  0.656400  0.899400  0.173100  1.0  0.1183
  C  C64  1  0.754200  0.944500  0.129900  1.0  0.1148
  C  C65  1  0.340400  0.598600  0.329900  1.0  0.1199
  C  C66  1  0.237800  0.557500  0.371300  1.0  0.1205
  C  C67  1  0.165700  0.647000  0.432600  1.0  0.1287
  C  C68  1  0.266800  0.689200  0.390200  1.0  0.1143
  C  C69  1  0.796500  0.998400  0.469300  1.0  0.1233
  C  C70  1  0.753000  0.936700  0.464000  1.0  0.1231
  C  C71  1  0.585300  0.032200  0.409500  1.0  0.1408
  C  C72  1  0.627500  0.095700  0.414500  1.0  0.1214
  C  C73  1  0.254100  0.247700  0.243300  1.0  0.1443
  C  C74  1  0.287000  0.235300  0.311800  1.0  0.1326
  C  C75  1  0.460500  0.295000  0.244200  1.0  0.1429
  C  C76  1  0.425600  0.308200  0.173800  1.0  0.1146
  C  C77  1  0.924900  0.993640  0.845910  1.0  0.1453
  C  C78  1  0.732500  0.095520  0.753040  1.0  0.1305
  C  C79  1  0.712700  0.977600  0.714300  1.0  0.0225
  C  C80  1  0.956900  0.915000  0.664420  1.0  0.1201
  C  C81  1  0.857400  0.869450  0.827780  1.0  0.1045
  C  C82  1  0.996900  0.102700  0.701400  1.0  0.0154
  C  C83  1  0.101000  0.927700  0.748250  1.0  0.018
  C  C84  1  0.879400  0.085080  0.606510  1.0  0.1168
  C  C85  1  0.962300  0.567600  0.853510  1.0  0.1099
  C  C86  1  0.249700  0.415070  0.748790  1.0  0.1232
  C  C87  1  0.119500  0.404010  0.897220  1.0  0.1028
  C  C88  1  0.066200  0.627010  0.682570  1.0  0.1035
  C  C89  1  0.049800  0.495990  0.663710  1.0  0.1539
  C  C90  1  0.219500  0.545090  0.789700  1.0  0.0241
  C  C91  1  0.008100  0.371700  0.805640  1.0  0.073
  C  C92  1  0.849100  0.521100  0.774900  1.0  0.0009
  C  C93  1  0.161100  0.148700  0.927400  1.0  0.1161
  C  C94  1  0.258200  0.194190  0.883780  1.0  0.1265
  C  C95  1  0.343600  0.100600  0.826900  1.0  0.1194
  C  C96  1  0.245800  0.055500  0.870100  1.0  0.1146
  C  C97  1  0.659600  0.401400  0.670100  1.0  0.1194
  C  C98  1  0.762200  0.442500  0.628700  1.0  0.1206
  C  C99  1  0.834300  0.353000  0.567400  1.0  0.1287
  C  C100  1  0.733200  0.310800  0.609800  1.0  0.1145
  C  C101  1  0.203500  0.001600  0.530700  1.0  0.1213
  C  C102  1  0.247000  0.063300  0.536000  1.0  0.1223
  C  C103  1  0.414700  0.967800  0.590500  1.0  0.1421
  C  C104  1  0.372500  0.904300  0.585500  1.0  0.1207
  C  C105  1  0.745900  0.752300  0.756700  1.0  0.1458
  C  C106  1  0.713000  0.764700  0.688200  1.0  0.1323
  C  C107  1  0.539500  0.705000  0.755800  1.0  0.1429
  C  C108  1  0.574400  0.691800  0.826200  1.0  0.1152
  N  N109  1  0.054400  0.005730  0.099050  1.0  -0.4882
  N  N110  1  0.353600  0.853140  0.239780  1.0  -0.4587
  N  N111  1  0.381600  0.029800  0.294800  1.0  -0.4107
  N  N112  1  0.006100  0.123480  0.373390  1.0  -0.4483
  N  N113  1  0.164600  0.194950  0.125320  1.0  -0.4427
  N  N114  1  0.957000  0.842000  0.310800  1.0  -0.4031
  N  N115  1  0.797300  0.110300  0.240900  1.0  -0.4101
  N  N116  1  0.127500  0.871150  0.458140  1.0  -0.4468
  N  N117  1  0.091600  0.394580  0.109210  1.0  -0.419
  N  N118  1  0.656500  0.629820  0.260760  1.0  -0.4706
  N  N119  1  0.841100  0.642240  0.045830  1.0  -0.4438
  N  N120  1  0.914500  0.309170  0.367820  1.0  -0.4747
  N  N121  1  0.958400  0.501460  0.395480  1.0  -0.452
  N  N122  1  0.698900  0.427400  0.208200  1.0  -0.4075
  N  N123  1  0.019100  0.689700  0.186200  1.0  -0.4184
  N  N124  1  0.257400  0.474800  0.224000  1.0  -0.4078
  N  N125  1  0.846500  0.920170  0.079740  1.0  -0.3487
  N  N126  1  0.650500  0.829210  0.166750  1.0  -0.3627
  N  N127  1  0.354800  0.664670  0.338990  1.0  -0.3584
  N  N128  1  0.151400  0.581340  0.423460  1.0  -0.3401
  N  N129  1  0.734300  0.079330  0.443560  1.0  -0.3552
  N  N130  1  0.647600  0.952200  0.433800  1.0  -0.3515
  N  N131  1  0.322500  0.284190  0.173210  1.0  -0.3518
  N  N132  1  0.390300  0.258700  0.312400  1.0  -0.3692
  N  N133  1  0.945600  0.994270  0.900950  1.0  -0.4868
  N  N134  1  0.646400  0.146860  0.760220  1.0  -0.4583
  N  N135  1  0.618400  0.970200  0.705200  1.0  -0.4048
  N  N136  1  0.993900  0.876520  0.626610  1.0  -0.4467
  N  N137  1  0.835400  0.805050  0.874680  1.0  -0.442
  N  N138  1  0.043000  0.158000  0.689200  1.0  -0.4056
  N  N139  1  0.202700  0.889700  0.759100  1.0  -0.4094
  N  N140  1  0.872500  0.128850  0.541860  1.0  -0.4482
  N  N141  1  0.908400  0.605420  0.890790  1.0  -0.4212
  N  N142  1  0.343500  0.370180  0.739240  1.0  -0.4713
  N  N143  1  0.158900  0.357760  0.954170  1.0  -0.4437
  N  N144  1  0.085500  0.690830  0.632180  1.0  -0.4762
  N  N145  1  0.041600  0.498540  0.604520  1.0  -0.4464
  N  N146  1  0.301100  0.572600  0.791800  1.0  -0.4101
  N  N147  1  0.980900  0.310300  0.813800  1.0  -0.4159
  N  N148  1  0.742600  0.525200  0.776000  1.0  -0.4076
  N  N149  1  0.153500  0.079830  0.920260  1.0  -0.3472
  N  N150  1  0.349500  0.170790  0.833250  1.0  -0.3625
  N  N151  1  0.645200  0.335330  0.661010  1.0  -0.3563
  N  N152  1  0.848600  0.418660  0.576540  1.0  -0.3389
  N  N153  1  0.265700  0.920670  0.556440  1.0  -0.356
  N  N154  1  0.352400  0.047800  0.566200  1.0  -0.3537
  N  N155  1  0.677500  0.715810  0.826790  1.0  -0.3533
  N  N156  1  0.609700  0.741300  0.687600  1.0  -0.3704
