# generated using pymatgen
data_In2P3H12C15(NO4)3
_symmetry_space_group_name_H-M   'P 1'
_cell_length_a   10.54290000
_cell_length_b   11.63450000
_cell_length_c   11.73030000
_cell_angle_alpha   110.11600000
_cell_angle_beta   100.44500000
_cell_angle_gamma   104.33900000
_symmetry_Int_Tables_number   1
_chemical_formula_structural   In2P3H12C15(NO4)3
_chemical_formula_sum   'In4 P6 H24 C30 N6 O24'
_cell_volume   1251.58293562
_cell_formula_units_Z   2
loop_
 _symmetry_equiv_pos_site_id
 _symmetry_equiv_pos_as_xyz
  1  'x, y, z'
loop_
 _atom_site_type_symbol
 _atom_site_label
 _atom_site_symmetry_multiplicity
 _atom_site_fract_x
 _atom_site_fract_y
 _atom_site_fract_z
 _atom_site_occupancy
 _atom_site_charge
  In  In1  1  0.046310  0.044620  0.794740  1.0  1.7379
  In  In2  1  0.953690  0.955380  0.205260  1.0  1.7348
  In  In3  1  0.500000  0.000000  0.000000  1.0  1.6737
  In  In4  1  0.500000  0.000000  0.500000  1.0  1.6983
  P  P5  1  0.193600  0.997400  0.049800  1.0  1.7133
  P  P6  1  0.367600  0.097700  0.763500  1.0  1.726
  P  P7  1  0.845400  0.162100  0.633300  1.0  1.598
  P  P8  1  0.806400  0.002600  0.950200  1.0  1.716
  P  P9  1  0.632400  0.902300  0.236500  1.0  1.7191
  P  P10  1  0.154600  0.837900  0.366700  1.0  1.5952
  H  H11  1  0.875090  0.912820  0.501500  1.0  0.1222
  H  H12  1  0.977270  0.753250  0.767330  1.0  0.1036
  H  H13  1  0.761250  0.687970  0.323420  1.0  0.1324
  H  H14  1  0.870530  0.523160  0.597780  1.0  0.1416
  H  H15  1  0.605220  0.516320  0.222260  1.0  0.1377
  H  H16  1  0.855340  0.367090  0.439320  1.0  0.1254
  H  H17  1  0.485670  0.287020  0.057180  1.0  0.1078
  H  H18  1  0.739560  0.143610  0.261290  1.0  0.1073
  H  H19  1  0.628700  0.892900  0.691810  1.0  0.1208
  H  H20  1  0.365490  0.697430  0.306310  1.0  0.112
  H  H21  1  0.629380  0.678070  0.697390  1.0  0.1314
  H  H22  1  0.365790  0.480150  0.303660  1.0  0.1314
  H  H23  1  0.124910  0.087180  0.498500  1.0  0.1228
  H  H24  1  0.238750  0.312030  0.676580  1.0  0.1336
  H  H25  1  0.394780  0.483680  0.777740  1.0  0.1383
  H  H26  1  0.144660  0.632910  0.560680  1.0  0.1241
  H  H27  1  0.514330  0.712980  0.942820  1.0  0.1087
  H  H28  1  0.260440  0.856390  0.738710  1.0  0.1073
  H  H29  1  0.371300  0.107100  0.308190  1.0  0.12
  H  H30  1  0.634510  0.302570  0.693690  1.0  0.1103
  H  H31  1  0.370620  0.321930  0.302610  1.0  0.1308
  H  H32  1  0.634210  0.519850  0.696340  1.0  0.139
  H  H33  1  0.022730  0.246750  0.232670  1.0  0.1047
  H  H34  1  0.129470  0.476840  0.402220  1.0  0.1421
  C  C35  1  0.872200  0.823200  0.521600  1.0  0.158
  C  C36  1  0.927700  0.735400  0.665200  1.0  0.1501
  C  C37  1  0.810100  0.699500  0.423500  1.0  -0.1623
  C  C38  1  0.868600  0.608800  0.572000  1.0  -0.1805
  C  C39  1  0.806700  0.590300  0.445500  1.0  0.0606
  C  C40  1  0.739200  0.458000  0.345400  1.0  0.0978
  C  C41  1  0.635100  0.432900  0.235200  1.0  -0.1877
  C  C42  1  0.773000  0.352900  0.353100  1.0  -0.175
  C  C43  1  0.570700  0.307700  0.144400  1.0  0.1649
  C  C44  1  0.707200  0.228600  0.256000  1.0  0.1512
  C  C45  1  0.568500  0.798500  0.604800  1.0  0.1752
  C  C46  1  0.425400  0.691600  0.394200  1.0  0.1682
  C  C47  1  0.570100  0.680800  0.607400  1.0  -0.1808
  C  C48  1  0.425700  0.572700  0.392700  1.0  -0.1835
  C  C49  1  0.499300  0.564500  0.500100  1.0  0.0998
  C  C50  1  0.127800  0.176800  0.478400  1.0  0.1583
  C  C51  1  0.072300  0.264600  0.334800  1.0  0.1487
  C  C52  1  0.189900  0.300500  0.576500  1.0  -0.1619
  C  C53  1  0.131400  0.391200  0.428000  1.0  -0.1696
  C  C54  1  0.193300  0.409700  0.554500  1.0  0.0692
  C  C55  1  0.260800  0.542000  0.654600  1.0  0.0997
  C  C56  1  0.364900  0.567100  0.764800  1.0  -0.1841
  C  C57  1  0.227000  0.647100  0.646900  1.0  -0.1753
  C  C58  1  0.429300  0.692300  0.855600  1.0  0.1666
  C  C59  1  0.292800  0.771400  0.744000  1.0  0.1503
  C  C60  1  0.431500  0.201500  0.395200  1.0  0.176
  C  C61  1  0.574600  0.308400  0.605800  1.0  0.1698
  C  C62  1  0.429900  0.319200  0.392600  1.0  -0.1843
  C  C63  1  0.574300  0.427300  0.607300  1.0  -0.1843
  C  C64  1  0.500700  0.435500  0.499900  1.0  0.0993
  N  N65  1  0.930100  0.840800  0.641800  1.0  -0.3731
  N  N66  1  0.604400  0.205800  0.154100  1.0  -0.3615
  N  N67  1  0.495500  0.804500  0.499000  1.0  -0.3697
  N  N68  1  0.069900  0.159200  0.358200  1.0  -0.3724
  N  N69  1  0.395600  0.794200  0.845900  1.0  -0.3637
  N  N70  1  0.504500  0.195500  0.501000  1.0  -0.3683
  O  O71  1  0.121300  0.957700  0.911000  1.0  -0.884
  O  O72  1  0.107600  0.932100  0.115300  1.0  -0.844
  O  O73  1  0.327800  0.968500  0.067900  1.0  -0.7948
  O  O74  1  0.227300  0.150200  0.120300  1.0  -0.637
  O  O75  1  0.211100  0.041000  0.706100  1.0  -0.8055
  O  O76  1  0.410700  0.081200  0.884800  1.0  -0.8557
  O  O77  1  0.435400  0.039900  0.666500  1.0  -0.8416
  O  O78  1  0.414100  0.250300  0.800600  1.0  -0.5908
  O  O79  1  0.959300  0.110700  0.664300  1.0  -0.8433
  O  O80  1  0.705300  0.078500  0.619900  1.0  -0.8154
  O  O81  1  0.845100  0.181200  0.506100  1.0  -0.5378
  O  O82  1  0.877000  0.301200  0.736800  1.0  -0.5479
  O  O83  1  0.878700  0.042300  0.089000  1.0  -0.8827
  O  O84  1  0.892400  0.067900  0.884700  1.0  -0.8429
  O  O85  1  0.672200  0.031500  0.932100  1.0  -0.7946
  O  O86  1  0.772700  0.849800  0.879700  1.0  -0.6363
  O  O87  1  0.788900  0.959000  0.293900  1.0  -0.805
  O  O88  1  0.589300  0.918800  0.115200  1.0  -0.8559
  O  O89  1  0.564600  0.960100  0.333500  1.0  -0.8415
  O  O90  1  0.585900  0.749700  0.199400  1.0  -0.5925
  O  O91  1  0.040700  0.889300  0.335700  1.0  -0.8429
  O  O92  1  0.294700  0.921500  0.380100  1.0  -0.8146
  O  O93  1  0.154900  0.818800  0.493900  1.0  -0.5385
  O  O94  1  0.123000  0.698800  0.263200  1.0  -0.5476
