# generated using pymatgen
data_Zn3P4(HO3)4
_symmetry_space_group_name_H-M   'P 1'
_cell_length_a   8.55950000
_cell_length_b   13.57590000
_cell_length_c   9.32310000
_cell_angle_alpha   90.00000000
_cell_angle_beta   96.02400000
_cell_angle_gamma   90.00000000
_symmetry_Int_Tables_number   1
_chemical_formula_structural   Zn3P4(HO3)4
_chemical_formula_sum   'Zn6 P8 H8 O24'
_cell_volume   1077.38905500
_cell_formula_units_Z   2
loop_
 _symmetry_equiv_pos_site_id
 _symmetry_equiv_pos_as_xyz
  1  'x, y, z'
loop_
 _atom_site_type_symbol
 _atom_site_label
 _atom_site_symmetry_multiplicity
 _atom_site_fract_x
 _atom_site_fract_y
 _atom_site_fract_z
 _atom_site_occupancy
 _atom_site_charge
  Zn  Zn1  1  0.358850  0.018620  0.298440  1.0  1.1122
  Zn  Zn2  1  0.595580  0.139690  0.907820  1.0  1.1377
  Zn  Zn3  1  0.850520  0.759170  0.226910  1.0  1.1383
  Zn  Zn4  1  0.641150  0.518620  0.701560  1.0  1.113
  Zn  Zn5  1  0.404420  0.639690  0.092180  1.0  1.1367
  Zn  Zn6  1  0.149480  0.259170  0.773090  1.0  1.1375
  P  P7  1  0.641160  0.955410  0.129280  1.0  1.5936
  P  P8  1  0.294320  0.202480  0.074690  1.0  1.5111
  P  P9  1  0.214910  0.799880  0.256890  1.0  1.5253
  P  P10  1  0.389970  0.122170  0.599780  1.0  1.5536
  P  P11  1  0.358840  0.455410  0.870720  1.0  1.5974
  P  P12  1  0.705680  0.702480  0.925310  1.0  1.5111
  P  P13  1  0.785090  0.299880  0.743110  1.0  1.5214
  P  P14  1  0.610030  0.622170  0.400220  1.0  1.5543
  H  H15  1  0.535100  0.907700  0.064700  1.0  0.0148
  H  H16  1  0.272300  0.288500  0.123400  1.0  -0.0643
  H  H17  1  0.344800  0.783500  0.341400  1.0  -0.0482
  H  H18  1  0.471900  0.180700  0.527900  1.0  -0.0667
  H  H19  1  0.464900  0.407700  0.935300  1.0  0.0146
  H  H20  1  0.727700  0.788500  0.876600  1.0  -0.0629
  H  H21  1  0.655200  0.283500  0.658600  1.0  -0.0548
  H  H22  1  0.528100  0.680700  0.472100  1.0  -0.0743
  O  O23  1  0.693300  0.035500  0.029600  1.0  -0.7315
  O  O24  1  0.570500  0.995200  0.259000  1.0  -0.7835
  O  O25  1  0.780400  0.889900  0.170000  1.0  -0.8381
  O  O26  1  0.273000  0.131700  0.197600  1.0  -0.802
  O  O27  1  0.159400  0.188400  0.955700  1.0  -0.7792
  O  O28  1  0.452800  0.203200  0.020000  1.0  -0.8782
  O  O29  1  0.063800  0.775000  0.324000  1.0  -0.7286
  O  O30  1  0.242200  0.734500  0.130300  1.0  -0.7559
  O  O31  1  0.222000  0.909700  0.221600  1.0  -0.7334
  O  O32  1  0.333200  0.035700  0.502700  1.0  -0.7256
  O  O33  1  0.500300  0.088100  0.726500  1.0  -0.8042
  O  O34  1  0.254400  0.181400  0.641100  1.0  -0.8416
  O  O35  1  0.306700  0.535500  0.970400  1.0  -0.7312
  O  O36  1  0.429500  0.495200  0.741000  1.0  -0.7827
  O  O37  1  0.219600  0.389900  0.830000  1.0  -0.8386
  O  O38  1  0.727000  0.631700  0.802400  1.0  -0.8015
  O  O39  1  0.840600  0.688400  0.044300  1.0  -0.7803
  O  O40  1  0.547200  0.703200  0.980000  1.0  -0.8802
  O  O41  1  0.936200  0.275000  0.676000  1.0  -0.7291
  O  O42  1  0.757800  0.234500  0.869700  1.0  -0.7555
  O  O43  1  0.778000  0.409700  0.778400  1.0  -0.7317
  O  O44  1  0.666800  0.535700  0.497300  1.0  -0.7246
  O  O45  1  0.499700  0.588100  0.273500  1.0  -0.8038
  O  O46  1  0.745600  0.681400  0.358900  1.0  -0.8405
