# generated using pymatgen
data_Zn3P4(HO3)4
_symmetry_space_group_name_H-M   'P 1'
_cell_length_a   9.94620000
_cell_length_b   20.98530000
_cell_length_c   10.60980000
_cell_angle_alpha   90.00000000
_cell_angle_beta   101.33100000
_cell_angle_gamma   90.00000000
_symmetry_Int_Tables_number   1
_chemical_formula_structural   Zn3P4(HO3)4
_chemical_formula_sum   'Zn12 P16 H16 O48'
_cell_volume   2171.35548105
_cell_formula_units_Z   4
loop_
 _symmetry_equiv_pos_site_id
 _symmetry_equiv_pos_as_xyz
  1  'x, y, z'
loop_
 _atom_site_type_symbol
 _atom_site_label
 _atom_site_symmetry_multiplicity
 _atom_site_fract_x
 _atom_site_fract_y
 _atom_site_fract_z
 _atom_site_occupancy
 _atom_site_charge
  Zn  Zn1  1  0.818090  0.759860  0.335980  1.0  1.1219
  Zn  Zn2  1  0.270850  0.609290  0.194670  1.0  1.1224
  Zn  Zn3  1  0.880660  0.864010  0.855590  1.0  1.1418
  Zn  Zn4  1  0.665670  0.514130  0.290170  1.0  1.1098
  Zn  Zn5  1  0.989360  0.641540  0.621510  1.0  1.135
  Zn  Zn6  1  0.064870  0.982590  0.141270  1.0  1.1384
  Zn  Zn7  1  0.181910  0.259860  0.664020  1.0  1.121
  Zn  Zn8  1  0.729150  0.109290  0.805330  1.0  1.1222
  Zn  Zn9  1  0.119340  0.364010  0.144410  1.0  1.1412
  Zn  Zn10  1  0.334330  0.014130  0.709830  1.0  1.11
  Zn  Zn11  1  0.010640  0.141540  0.378490  1.0  1.1356
  Zn  Zn12  1  0.935130  0.482590  0.858730  1.0  1.1388
  P  P13  1  0.568960  0.660790  0.318770  1.0  1.5821
  P  P14  1  0.843710  0.443860  0.118110  1.0  1.4727
  P  P15  1  0.100400  0.682520  0.373660  1.0  1.372
  P  P16  1  0.364530  0.464030  0.163490  1.0  1.5277
  P  P17  1  0.131300  0.601810  0.902530  1.0  1.535
  P  P18  1  0.923730  0.855230  0.153900  1.0  1.4467
  P  P19  1  0.821140  0.765690  0.621220  1.0  1.5625
  P  P20  1  0.199540  0.022340  0.421150  1.0  1.5485
  P  P21  1  0.431040  0.160790  0.681230  1.0  1.5844
  P  P22  1  0.156290  0.943860  0.881890  1.0  1.4739
  P  P23  1  0.899600  0.182520  0.626340  1.0  1.3711
  P  P24  1  0.635470  0.964030  0.836510  1.0  1.5248
  P  P25  1  0.868700  0.101810  0.097470  1.0  1.536
  P  P26  1  0.076270  0.355230  0.846100  1.0  1.4402
  P  P27  1  0.178860  0.265690  0.378780  1.0  1.5625
  P  P28  1  0.800460  0.522340  0.578850  1.0  1.5407
  H  H29  1  0.583400  0.655200  0.448500  1.0  -0.0877
  H  H30  1  0.738600  0.397100  0.123000  1.0  -0.0334
  H  H31  1  0.220300  0.734200  0.351600  1.0  -0.0744
  H  H32  1  0.364000  0.459300  0.035000  1.0  -0.074
  H  H33  1  0.215300  0.556900  0.887100  1.0  -0.0941
  H  H34  1  0.008500  0.845100  0.215000  1.0  0.1063
  H  H35  1  0.667500  0.780500  0.609700  1.0  -0.0326
  H  H36  1  0.277300  0.064600  0.430800  1.0  0.0834
  H  H37  1  0.416600  0.155200  0.551500  1.0  -0.0843
  H  H38  1  0.261400  0.897100  0.877000  1.0  -0.0328
  H  H39  1  0.779700  0.234200  0.648400  1.0  -0.0751
  H  H40  1  0.636000  0.959300  0.965000  1.0  -0.0763
  H  H41  1  0.784700  0.056900  0.112900  1.0  -0.0956
  H  H42  1  0.991500  0.345100  0.785000  1.0  0.1069
  H  H43  1  0.332500  0.280500  0.390300  1.0  -0.0349
  H  H44  1  0.722700  0.564600  0.569200  1.0  0.0842
  O  O45  1  0.422900  0.663590  0.247600  1.0  -0.8035
  O  O46  1  0.636200  0.724010  0.302700  1.0  -0.7866
  O  O47  1  0.648800  0.605560  0.283000  1.0  -0.8428
  O  O48  1  0.801000  0.502810  0.181600  1.0  -0.732
  O  O49  1  0.825200  0.450600  0.974700  1.0  -0.7935
  O  O50  1  0.987100  0.426000  0.182500  1.0  -0.7817
  O  O51  1  0.958200  0.701460  0.303900  1.0  -0.7675
  O  O52  1  0.144300  0.623280  0.310200  1.0  -0.7246
  O  O53  1  0.112200  0.675830  0.516300  1.0  -0.7519
  O  O54  1  0.289300  0.519080  0.208600  1.0  -0.847
  O  O55  1  0.514100  0.460900  0.221700  1.0  -0.8271
  O  O56  1  0.299000  0.400590  0.180600  1.0  -0.7937
  O  O57  1  0.187200  0.639340  0.023900  1.0  -0.7415
  O  O58  1  0.115400  0.645820  0.786400  1.0  -0.7321
  O  O59  1  0.999500  0.567380  0.911800  1.0  -0.7941
  O  O60  1  0.808000  0.826040  0.206900  1.0  -0.7244
  O  O61  1  0.937600  0.826820  0.025800  1.0  -0.7641
  O  O62  1  0.911200  0.927280  0.148700  1.0  -0.8097
  O  O63  1  0.830300  0.694300  0.615500  1.0  -0.8065
  O  O64  1  0.899400  0.792760  0.745000  1.0  -0.7541
  O  O65  1  0.865800  0.797730  0.505900  1.0  -0.7525
  O  O66  1  0.248600  0.983010  0.539400  1.0  -0.7519
  O  O67  1  0.065000  0.054670  0.428500  1.0  -0.7861
  O  O68  1  0.193000  0.982600  0.303800  1.0  -0.7314
  O  O69  1  0.577100  0.163590  0.752400  1.0  -0.8016
  O  O70  1  0.363800  0.224010  0.697300  1.0  -0.7861
  O  O71  1  0.351200  0.105560  0.717000  1.0  -0.8428
  O  O72  1  0.199000  0.002810  0.818400  1.0  -0.7319
  O  O73  1  0.174800  0.950600  0.025300  1.0  -0.7944
  O  O74  1  0.012900  0.926000  0.817500  1.0  -0.7816
  O  O75  1  0.041800  0.201460  0.696100  1.0  -0.7674
  O  O76  1  0.855700  0.123280  0.689800  1.0  -0.7251
  O  O77  1  0.887800  0.175830  0.483700  1.0  -0.7518
  O  O78  1  0.710700  0.019080  0.791400  1.0  -0.8458
  O  O79  1  0.485900  0.960900  0.778300  1.0  -0.828
  O  O80  1  0.701000  0.900590  0.819400  1.0  -0.7951
  O  O81  1  0.812800  0.139340  0.976100  1.0  -0.7423
  O  O82  1  0.884600  0.145820  0.213600  1.0  -0.732
  O  O83  1  0.000500  0.067380  0.088200  1.0  -0.7938
  O  O84  1  0.192000  0.326040  0.793100  1.0  -0.723
  O  O85  1  0.062400  0.326820  0.974200  1.0  -0.7644
  O  O86  1  0.088800  0.427280  0.851300  1.0  -0.8092
  O  O87  1  0.169700  0.194300  0.384500  1.0  -0.8057
  O  O88  1  0.100600  0.292760  0.255000  1.0  -0.7557
  O  O89  1  0.134200  0.297730  0.494100  1.0  -0.7535
  O  O90  1  0.751400  0.483010  0.460600  1.0  -0.7518
  O  O91  1  0.935000  0.554670  0.571500  1.0  -0.7893
  O  O92  1  0.807000  0.482600  0.696200  1.0  -0.7315
