# generated using pymatgen
data_Zn3P4(HO3)4
_symmetry_space_group_name_H-M   'P 1'
_cell_length_a   10.37530000
_cell_length_b   12.40360000
_cell_length_c   15.76400000
_cell_angle_alpha   90.00000000
_cell_angle_beta   90.00000000
_cell_angle_gamma   90.00000000
_symmetry_Int_Tables_number   1
_chemical_formula_structural   Zn3P4(HO3)4
_chemical_formula_sum   'Zn12 P16 H16 O48'
_cell_volume   2028.68604451
_cell_formula_units_Z   4
loop_
 _symmetry_equiv_pos_site_id
 _symmetry_equiv_pos_as_xyz
  1  'x, y, z'
loop_
 _atom_site_type_symbol
 _atom_site_label
 _atom_site_symmetry_multiplicity
 _atom_site_fract_x
 _atom_site_fract_y
 _atom_site_fract_z
 _atom_site_occupancy
 _atom_site_charge
  Zn  Zn1  1  0.055680  0.736250  0.400180  1.0  1.1652
  Zn  Zn2  1  0.753260  0.082770  0.088600  1.0  1.1329
  Zn  Zn3  1  0.759320  0.400150  0.211510  1.0  1.1621
  Zn  Zn4  1  0.944320  0.263750  0.900180  1.0  1.1645
  Zn  Zn5  1  0.246740  0.917230  0.588600  1.0  1.1329
  Zn  Zn6  1  0.240680  0.599850  0.711510  1.0  1.1623
  Zn  Zn7  1  0.555680  0.263750  0.400180  1.0  1.1642
  Zn  Zn8  1  0.253260  0.917230  0.088600  1.0  1.1326
  Zn  Zn9  1  0.259320  0.599850  0.211510  1.0  1.1623
  Zn  Zn10  1  0.444320  0.736250  0.900180  1.0  1.1636
  Zn  Zn11  1  0.746740  0.082770  0.588600  1.0  1.1333
  Zn  Zn12  1  0.740680  0.400150  0.711510  1.0  1.162
  P  P13  1  0.539200  0.938190  0.006970  1.0  1.494
  P  P14  1  0.710200  0.326920  0.019730  1.0  1.5707
  P  P15  1  0.764560  0.167540  0.279200  1.0  1.5827
  P  P16  1  0.979520  0.533370  0.296600  1.0  1.5565
  P  P17  1  0.460800  0.061810  0.506970  1.0  1.493
  P  P18  1  0.289800  0.673080  0.519730  1.0  1.5775
  P  P19  1  0.235440  0.832460  0.779200  1.0  1.5803
  P  P20  1  0.020480  0.466630  0.796600  1.0  1.5562
  P  P21  1  0.039200  0.061810  0.006970  1.0  1.4934
  P  P22  1  0.210200  0.673080  0.019730  1.0  1.5815
  P  P23  1  0.264560  0.832460  0.279200  1.0  1.5822
  P  P24  1  0.479520  0.466630  0.296600  1.0  1.5565
  P  P25  1  0.960800  0.938190  0.506970  1.0  1.493
  P  P26  1  0.789800  0.326920  0.519730  1.0  1.5882
  P  P27  1  0.735440  0.167540  0.779200  1.0  1.5811
  P  P28  1  0.520480  0.533370  0.796600  1.0  1.5562
  H  H29  1  0.559300  0.014200  0.955600  1.0  -0.0216
  H  H30  1  0.625400  0.361300  0.975300  1.0  0.0373
  H  H31  1  0.832100  0.126800  0.348700  1.0  -0.0986
  H  H32  1  0.957500  0.451000  0.353700  1.0  -0.0996
  H  H33  1  0.440700  0.985800  0.455600  1.0  -0.0227
  H  H34  1  0.374600  0.638700  0.475300  1.0  0.0379
  H  H35  1  0.167900  0.873200  0.848700  1.0  -0.0996
  H  H36  1  0.042500  0.549000  0.853700  1.0  -0.099
  H  H37  1  0.059300  0.985800  0.955600  1.0  -0.0222
  H  H38  1  0.125400  0.638700  0.975300  1.0  0.0366
  H  H39  1  0.332100  0.873200  0.348700  1.0  -0.1002
  H  H40  1  0.457500  0.549000  0.353700  1.0  -0.0987
  H  H41  1  0.940700  0.014200  0.455600  1.0  -0.0221
  H  H42  1  0.874600  0.361300  0.475300  1.0  0.0385
  H  H43  1  0.667900  0.126800  0.848700  1.0  -0.1007
  H  H44  1  0.542500  0.451000  0.853700  1.0  -0.1001
  O  O45  1  0.635700  0.957400  0.078440  1.0  -0.7259
  O  O46  1  0.404000  0.970230  0.031120  1.0  -0.8592
  O  O47  1  0.551300  0.824300  0.973320  1.0  -0.7617
  O  O48  1  0.704000  0.399600  0.095900  1.0  -0.8331
  O  O49  1  0.682900  0.210400  0.039000  1.0  -0.8617
  O  O50  1  0.824700  0.348300  0.966100  1.0  -0.8008
  O  O51  1  0.833000  0.271980  0.258200  1.0  -0.7897
  O  O52  1  0.778300  0.084670  0.209600  1.0  -0.7663
  O  O53  1  0.626000  0.183430  0.306200  1.0  -0.7738
  O  O54  1  0.892800  0.514410  0.220220  1.0  -0.7349
  O  O55  1  0.120300  0.535510  0.276210  1.0  -0.8328
  O  O56  1  0.936700  0.632340  0.346520  1.0  -0.7487
  O  O57  1  0.364300  0.042600  0.578440  1.0  -0.727
  O  O58  1  0.596000  0.029770  0.531120  1.0  -0.8581
  O  O59  1  0.448700  0.175700  0.473320  1.0  -0.7625
  O  O60  1  0.296000  0.600400  0.595900  1.0  -0.8298
  O  O61  1  0.317100  0.789600  0.539000  1.0  -0.8614
  O  O62  1  0.175300  0.651700  0.466100  1.0  -0.7999
  O  O63  1  0.167000  0.728020  0.758200  1.0  -0.7897
  O  O64  1  0.221700  0.915330  0.709600  1.0  -0.7672
  O  O65  1  0.374000  0.816570  0.806200  1.0  -0.7724
  O  O66  1  0.107200  0.485590  0.720220  1.0  -0.7354
  O  O67  1  0.879700  0.464490  0.776210  1.0  -0.8353
  O  O68  1  0.063300  0.367660  0.846520  1.0  -0.747
  O  O69  1  0.135700  0.042600  0.078440  1.0  -0.7251
  O  O70  1  0.904000  0.029770  0.031120  1.0  -0.8586
  O  O71  1  0.051300  0.175700  0.973320  1.0  -0.7622
  O  O72  1  0.204000  0.600400  0.095900  1.0  -0.8305
  O  O73  1  0.182900  0.789600  0.039000  1.0  -0.8613
  O  O74  1  0.324700  0.651700  0.966100  1.0  -0.8004
  O  O75  1  0.333000  0.728020  0.258200  1.0  -0.7897
  O  O76  1  0.278300  0.915330  0.209600  1.0  -0.7668
  O  O77  1  0.126000  0.816570  0.306200  1.0  -0.7735
  O  O78  1  0.392800  0.485590  0.220220  1.0  -0.7339
  O  O79  1  0.620300  0.464490  0.276210  1.0  -0.8343
  O  O80  1  0.436700  0.367660  0.346520  1.0  -0.7476
  O  O81  1  0.864300  0.957400  0.578440  1.0  -0.7274
  O  O82  1  0.096000  0.970230  0.531120  1.0  -0.8585
  O  O83  1  0.948700  0.824300  0.473320  1.0  -0.7631
  O  O84  1  0.796000  0.399600  0.595900  1.0  -0.832
  O  O85  1  0.817100  0.210400  0.539000  1.0  -0.86
  O  O86  1  0.675300  0.348300  0.466100  1.0  -0.801
  O  O87  1  0.667000  0.271980  0.758200  1.0  -0.7897
  O  O88  1  0.721700  0.084670  0.709600  1.0  -0.7663
  O  O89  1  0.874000  0.183430  0.806200  1.0  -0.7727
  O  O90  1  0.607200  0.514410  0.720220  1.0  -0.7362
  O  O91  1  0.379700  0.535510  0.776210  1.0  -0.8334
  O  O92  1  0.563300  0.632340  0.846520  1.0  -0.7477
