# generated using pymatgen
data_Zn2P3(HO3)3
_symmetry_space_group_name_H-M   'P 1'
_cell_length_a   10.68970000
_cell_length_b   8.48570000
_cell_length_c   17.29650000
_cell_angle_alpha   90.00000000
_cell_angle_beta   90.00000000
_cell_angle_gamma   90.00000000
_symmetry_Int_Tables_number   1
_chemical_formula_structural   Zn2P3(HO3)3
_chemical_formula_sum   'Zn8 P12 H12 O36'
_cell_volume   1568.95837656
_cell_formula_units_Z   4
loop_
 _symmetry_equiv_pos_site_id
 _symmetry_equiv_pos_as_xyz
  1  'x, y, z'
loop_
 _atom_site_type_symbol
 _atom_site_label
 _atom_site_symmetry_multiplicity
 _atom_site_fract_x
 _atom_site_fract_y
 _atom_site_fract_z
 _atom_site_occupancy
 _atom_site_charge
  Zn  Zn1  1  0.869110  0.628850  0.300640  1.0  1.142
  Zn  Zn2  1  0.086280  0.350190  0.134990  1.0  1.1067
  Zn  Zn3  1  0.130890  0.371150  0.800640  1.0  1.1416
  Zn  Zn4  1  0.913720  0.649810  0.634990  1.0  1.1071
  Zn  Zn5  1  0.369110  0.871150  0.300640  1.0  1.142
  Zn  Zn6  1  0.586280  0.149810  0.134990  1.0  1.1068
  Zn  Zn7  1  0.630890  0.128850  0.800640  1.0  1.1415
  Zn  Zn8  1  0.413720  0.850190  0.634990  1.0  1.1071
  P  P9  1  0.146280  0.653670  0.235690  1.0  1.5334
  P  P10  1  0.973200  0.534200  0.464650  1.0  1.4238
  P  P11  1  0.807050  0.399570  0.161870  1.0  1.515
  P  P12  1  0.853720  0.346330  0.735690  1.0  1.5328
  P  P13  1  0.026800  0.465800  0.964650  1.0  1.4138
  P  P14  1  0.192950  0.600430  0.661870  1.0  1.5194
  P  P15  1  0.646280  0.846330  0.235690  1.0  1.5332
  P  P16  1  0.473200  0.965800  0.464650  1.0  1.421
  P  P17  1  0.307050  0.100430  0.161870  1.0  1.5192
  P  P18  1  0.353720  0.153670  0.735690  1.0  1.5331
  P  P19  1  0.526800  0.034200  0.964650  1.0  1.4163
  P  P20  1  0.692950  0.899570  0.661870  1.0  1.5152
  H  H21  1  0.161600  0.716700  0.159900  1.0  -0.0909
  H  H22  1  0.051600  0.621000  0.465100  1.0  0.122
  H  H23  1  0.823800  0.502900  0.121600  1.0  0.0884
  H  H24  1  0.838400  0.283300  0.659900  1.0  -0.0906
  H  H25  1  0.948400  0.379000  0.965100  1.0  0.1222
  H  H26  1  0.176200  0.497100  0.621600  1.0  0.0883
  H  H27  1  0.661600  0.783300  0.159900  1.0  -0.0905
  H  H28  1  0.551600  0.879000  0.465100  1.0  0.1209
  H  H29  1  0.323800  0.997100  0.121600  1.0  0.0878
  H  H30  1  0.338400  0.216700  0.659900  1.0  -0.0905
  H  H31  1  0.448400  0.121000  0.965100  1.0  0.1233
  H  H32  1  0.676200  0.002900  0.621600  1.0  0.0892
  O  O33  1  0.024700  0.718300  0.266000  1.0  -0.8244
  O  O34  1  0.255700  0.690300  0.288400  1.0  -0.7537
  O  O35  1  0.143500  0.478900  0.221000  1.0  -0.7722
  O  O36  1  0.917100  0.519300  0.544700  1.0  -0.7953
  O  O37  1  0.875000  0.577300  0.408200  1.0  -0.7428
  O  O38  1  0.043100  0.389700  0.442800  1.0  -0.5718
  O  O39  1  0.913100  0.281400  0.156200  1.0  -0.7621
  O  O40  1  0.796200  0.457500  0.244400  1.0  -0.7947
  O  O41  1  0.684500  0.338900  0.132200  1.0  -0.8182
  O  O42  1  0.975300  0.281700  0.766000  1.0  -0.8236
  O  O43  1  0.744300  0.309700  0.788400  1.0  -0.7555
  O  O44  1  0.856500  0.521100  0.721000  1.0  -0.7716
  O  O45  1  0.082900  0.480700  0.044700  1.0  -0.7949
  O  O46  1  0.125000  0.422700  0.908200  1.0  -0.7423
  O  O47  1  0.956900  0.610300  0.942800  1.0  -0.5773
  O  O48  1  0.086900  0.718600  0.656200  1.0  -0.7624
  O  O49  1  0.203800  0.542500  0.744400  1.0  -0.795
  O  O50  1  0.315500  0.661100  0.632200  1.0  -0.8178
  O  O51  1  0.524700  0.781700  0.266000  1.0  -0.8239
  O  O52  1  0.755700  0.809700  0.288400  1.0  -0.7542
  O  O53  1  0.643500  0.021100  0.221000  1.0  -0.7709
  O  O54  1  0.417100  0.980700  0.544700  1.0  -0.7952
  O  O55  1  0.375000  0.922700  0.408200  1.0  -0.743
  O  O56  1  0.543100  0.110300  0.442800  1.0  -0.5761
  O  O57  1  0.413100  0.218600  0.156200  1.0  -0.7623
  O  O58  1  0.296200  0.042500  0.244400  1.0  -0.7951
  O  O59  1  0.184500  0.161100  0.132200  1.0  -0.8186
  O  O60  1  0.475300  0.218300  0.766000  1.0  -0.8237
  O  O61  1  0.244300  0.190300  0.788400  1.0  -0.7545
  O  O62  1  0.356500  0.978900  0.721000  1.0  -0.7725
  O  O63  1  0.582900  0.019300  0.044700  1.0  -0.795
  O  O64  1  0.625000  0.077300  0.908200  1.0  -0.7419
  O  O65  1  0.456900  0.889700  0.942800  1.0  -0.5735
  O  O66  1  0.586900  0.781400  0.656200  1.0  -0.7624
  O  O67  1  0.703800  0.957500  0.744400  1.0  -0.7942
  O  O68  1  0.815500  0.838900  0.632200  1.0  -0.8182
