# generated using pymatgen
data_Zn5H4C4(N9O2)2
_symmetry_space_group_name_H-M   'P 1'
_cell_length_a   16.08710000
_cell_length_b   8.55050000
_cell_length_c   17.18860000
_cell_angle_alpha   90.00000000
_cell_angle_beta   129.56870000
_cell_angle_gamma   90.00000000
_symmetry_Int_Tables_number   1
_chemical_formula_structural   Zn5H4C4(N9O2)2
_chemical_formula_sum   'Zn20 H16 C16 N72 O16'
_cell_volume   1822.57767525
_cell_formula_units_Z   4
loop_
 _symmetry_equiv_pos_site_id
 _symmetry_equiv_pos_as_xyz
  1  'x, y, z'
loop_
 _atom_site_type_symbol
 _atom_site_label
 _atom_site_symmetry_multiplicity
 _atom_site_fract_x
 _atom_site_fract_y
 _atom_site_fract_z
 _atom_site_occupancy
 _atom_site_charge
  Zn  Zn1  1  0.107160  0.319850  0.134370  1.0  0.9428
  Zn  Zn2  1  0.873860  0.564520  0.028720  1.0  0.9004
  Zn  Zn3  1  0.607160  0.819850  0.134370  1.0  0.9428
  Zn  Zn4  1  0.373860  0.064520  0.028720  1.0  0.9004
  Zn  Zn5  1  0.892840  0.319850  0.365630  1.0  0.9435
  Zn  Zn6  1  0.126140  0.564520  0.471280  1.0  0.8999
  Zn  Zn7  1  0.392840  0.819850  0.365630  1.0  0.9435
  Zn  Zn8  1  0.626140  0.064520  0.471280  1.0  0.8999
  Zn  Zn9  1  0.892840  0.680150  0.865630  1.0  0.9438
  Zn  Zn10  1  0.126140  0.435480  0.971280  1.0  0.8993
  Zn  Zn11  1  0.392840  0.180150  0.865630  1.0  0.9438
  Zn  Zn12  1  0.626140  0.935480  0.971280  1.0  0.8993
  Zn  Zn13  1  0.107160  0.680150  0.634370  1.0  0.9435
  Zn  Zn14  1  0.873860  0.435480  0.528720  1.0  0.8997
  Zn  Zn15  1  0.607160  0.180150  0.634370  1.0  0.9435
  Zn  Zn16  1  0.373860  0.935480  0.528720  1.0  0.8997
  Zn  Zn17  1  0.000000  0.373270  0.250000  1.0  0.8455
  Zn  Zn18  1  0.500000  0.873270  0.250000  1.0  0.8455
  Zn  Zn19  1  0.000000  0.626730  0.750000  1.0  0.8462
  Zn  Zn20  1  0.500000  0.126730  0.750000  1.0  0.8462
  H  H21  1  0.542040  0.792910  0.559280  1.0  0.272
  H  H22  1  0.591350  0.790730  0.422050  1.0  0.3272
  H  H23  1  0.042040  0.292910  0.559280  1.0  0.272
  H  H24  1  0.091350  0.290730  0.422050  1.0  0.3272
  H  H25  1  0.457960  0.792910  0.940720  1.0  0.2735
  H  H26  1  0.408650  0.790730  0.077950  1.0  0.3273
  H  H27  1  0.957960  0.292910  0.940720  1.0  0.2735
  H  H28  1  0.908650  0.290730  0.077950  1.0  0.3273
  H  H29  1  0.457960  0.207090  0.440720  1.0  0.2741
  H  H30  1  0.408650  0.209270  0.577950  1.0  0.3266
  H  H31  1  0.957960  0.707090  0.440720  1.0  0.2741
  H  H32  1  0.908650  0.709270  0.577950  1.0  0.3266
  H  H33  1  0.542040  0.207090  0.059280  1.0  0.2722
  H  H34  1  0.591350  0.209270  0.922050  1.0  0.3257
  H  H35  1  0.042040  0.707090  0.059280  1.0  0.2722
  H  H36  1  0.091350  0.709270  0.922050  1.0  0.3257
  C  C37  1  0.246100  0.592400  0.181000  1.0  0.3982
  C  C38  1  0.186400  0.594200  0.275100  1.0  0.4356
  C  C39  1  0.746100  0.092400  0.181000  1.0  0.3982
  C  C40  1  0.686400  0.094200  0.275100  1.0  0.4356
  C  C41  1  0.753900  0.592400  0.319000  1.0  0.397
  C  C42  1  0.813600  0.594200  0.224900  1.0  0.4333
  C  C43  1  0.253900  0.092400  0.319000  1.0  0.397
  C  C44  1  0.313600  0.094200  0.224900  1.0  0.4333
  C  C45  1  0.753900  0.407600  0.819000  1.0  0.397
  C  C46  1  0.813600  0.405800  0.724900  1.0  0.4335
  C  C47  1  0.253900  0.907600  0.819000  1.0  0.397
  C  C48  1  0.313600  0.905800  0.724900  1.0  0.4335
  C  C49  1  0.246100  0.407600  0.681000  1.0  0.3983
  C  C50  1  0.186400  0.405800  0.775100  1.0  0.4356
  C  C51  1  0.746100  0.907600  0.681000  1.0  0.3983
  C  C52  1  0.686400  0.905800  0.775100  1.0  0.4356
  N  N53  1  0.334400  0.686400  0.241500  1.0  -0.3787
  N  N54  1  0.376800  0.698800  0.194900  1.0  -0.0469
  N  N55  1  0.320700  0.620100  0.111500  1.0  -0.1147
  N  N56  1  0.238500  0.552400  0.100100  1.0  -0.2848
  N  N57  1  0.260900  0.699700  0.343900  1.0  -0.3046
  N  N58  1  0.246100  0.712700  0.412300  1.0  -0.1056
  N  N59  1  0.166200  0.620700  0.384500  1.0  -0.0149
  N  N60  1  0.126600  0.543600  0.298600  1.0  -0.3269
  N  N61  1  0.177400  0.538700  0.194100  1.0  -0.4703
  N  N62  1  0.834400  0.186400  0.241500  1.0  -0.3787
  N  N63  1  0.876800  0.198800  0.194900  1.0  -0.0469
  N  N64  1  0.820700  0.120100  0.111500  1.0  -0.1147
  N  N65  1  0.738500  0.052400  0.100100  1.0  -0.2848
  N  N66  1  0.760900  0.199700  0.343900  1.0  -0.3046
  N  N67  1  0.746100  0.212700  0.412300  1.0  -0.1056
  N  N68  1  0.666200  0.120700  0.384500  1.0  -0.0149
  N  N69  1  0.626600  0.043600  0.298600  1.0  -0.3269
  N  N70  1  0.677400  0.038700  0.194100  1.0  -0.4703
  N  N71  1  0.665600  0.686400  0.258500  1.0  -0.3814
  N  N72  1  0.623200  0.698800  0.305100  1.0  -0.0468
  N  N73  1  0.679300  0.620100  0.388500  1.0  -0.1143
  N  N74  1  0.761500  0.552400  0.399900  1.0  -0.2844
  N  N75  1  0.739100  0.699700  0.156100  1.0  -0.3038
  N  N76  1  0.753900  0.712700  0.087700  1.0  -0.1072
  N  N77  1  0.833800  0.620700  0.115500  1.0  -0.0141
  N  N78  1  0.873400  0.543600  0.201400  1.0  -0.3284
  N  N79  1  0.822600  0.538700  0.305900  1.0  -0.4707
  N  N80  1  0.165600  0.186400  0.258500  1.0  -0.3814
  N  N81  1  0.123200  0.198800  0.305100  1.0  -0.0468
  N  N82  1  0.179300  0.120100  0.388500  1.0  -0.1143
  N  N83  1  0.261500  0.052400  0.399900  1.0  -0.2844
  N  N84  1  0.239100  0.199700  0.156100  1.0  -0.3038
  N  N85  1  0.253900  0.212700  0.087700  1.0  -0.1072
  N  N86  1  0.333800  0.120700  0.115500  1.0  -0.0141
  N  N87  1  0.373400  0.043600  0.201400  1.0  -0.3284
  N  N88  1  0.322600  0.038700  0.305900  1.0  -0.4707
  N  N89  1  0.665600  0.313600  0.758500  1.0  -0.3822
  N  N90  1  0.623200  0.301200  0.805100  1.0  -0.0464
  N  N91  1  0.679300  0.379900  0.888500  1.0  -0.114
  N  N92  1  0.761500  0.447600  0.899900  1.0  -0.2855
  N  N93  1  0.739100  0.300300  0.656100  1.0  -0.3035
  N  N94  1  0.753900  0.287300  0.587700  1.0  -0.1085
  N  N95  1  0.833800  0.379300  0.615500  1.0  -0.0142
  N  N96  1  0.873400  0.456400  0.701400  1.0  -0.3278
  N  N97  1  0.822600  0.461300  0.805900  1.0  -0.4707
  N  N98  1  0.165600  0.813600  0.758500  1.0  -0.3822
  N  N99  1  0.123200  0.801200  0.805100  1.0  -0.0464
  N  N100  1  0.179300  0.879900  0.888500  1.0  -0.114
  N  N101  1  0.261500  0.947600  0.899900  1.0  -0.2855
  N  N102  1  0.239100  0.800300  0.656100  1.0  -0.3035
  N  N103  1  0.253900  0.787300  0.587700  1.0  -0.1085
  N  N104  1  0.333800  0.879300  0.615500  1.0  -0.0142
  N  N105  1  0.373400  0.956400  0.701400  1.0  -0.3278
  N  N106  1  0.322600  0.961300  0.805900  1.0  -0.4707
  N  N107  1  0.334400  0.313600  0.741500  1.0  -0.3795
  N  N108  1  0.376800  0.301200  0.694900  1.0  -0.0462
  N  N109  1  0.320700  0.379900  0.611500  1.0  -0.1133
  N  N110  1  0.238500  0.447600  0.600100  1.0  -0.285
  N  N111  1  0.260900  0.300300  0.843900  1.0  -0.304
  N  N112  1  0.246100  0.287300  0.912300  1.0  -0.1062
  N  N113  1  0.166200  0.379300  0.884500  1.0  -0.015
  N  N114  1  0.126600  0.456400  0.798600  1.0  -0.3263
  N  N115  1  0.177400  0.461300  0.694100  1.0  -0.4701
  N  N116  1  0.834400  0.813600  0.741500  1.0  -0.3795
  N  N117  1  0.876800  0.801200  0.694900  1.0  -0.0462
  N  N118  1  0.820700  0.879900  0.611500  1.0  -0.1133
  N  N119  1  0.738500  0.947600  0.600100  1.0  -0.285
  N  N120  1  0.760900  0.800300  0.843900  1.0  -0.304
  N  N121  1  0.746100  0.787300  0.912300  1.0  -0.1062
  N  N122  1  0.666200  0.879300  0.884500  1.0  -0.015
  N  N123  1  0.626600  0.956400  0.798600  1.0  -0.3263
  N  N124  1  0.677400  0.961300  0.694100  1.0  -0.4701
  O  O125  1  0.965100  0.372600  0.111600  1.0  -0.955
  O  O126  1  0.038600  0.316300  0.988800  1.0  -0.6942
  O  O127  1  0.465100  0.872600  0.111600  1.0  -0.955
  O  O128  1  0.538600  0.816300  0.988800  1.0  -0.6942
  O  O129  1  0.034900  0.372600  0.388400  1.0  -0.9544
  O  O130  1  0.961400  0.316300  0.511200  1.0  -0.6933
  O  O131  1  0.534900  0.872600  0.388400  1.0  -0.9544
  O  O132  1  0.461400  0.816300  0.511200  1.0  -0.6933
  O  O133  1  0.034900  0.627400  0.888400  1.0  -0.9543
  O  O134  1  0.961400  0.683700  0.011200  1.0  -0.6942
  O  O135  1  0.534900  0.127400  0.888400  1.0  -0.9543
  O  O136  1  0.461400  0.183700  0.011200  1.0  -0.6942
  O  O137  1  0.965100  0.627400  0.611600  1.0  -0.955
  O  O138  1  0.038600  0.683700  0.488800  1.0  -0.6943
  O  O139  1  0.465100  0.127400  0.611600  1.0  -0.955
  O  O140  1  0.538600  0.183700  0.488800  1.0  -0.6943
