# generated using pymatgen
data_Zn5H4C4(N9O2)2
_symmetry_space_group_name_H-M   'P 1'
_cell_length_a   8.44110000
_cell_length_b   9.10660000
_cell_length_c   14.23270000
_cell_angle_alpha   71.70900000
_cell_angle_beta   72.75010000
_cell_angle_gamma   62.38930000
_symmetry_Int_Tables_number   1
_chemical_formula_structural   Zn5H4C4(N9O2)2
_chemical_formula_sum   'Zn10 H8 C8 N36 O8'
_cell_volume   905.52253195
_cell_formula_units_Z   2
loop_
 _symmetry_equiv_pos_site_id
 _symmetry_equiv_pos_as_xyz
  1  'x, y, z'
loop_
 _atom_site_type_symbol
 _atom_site_label
 _atom_site_symmetry_multiplicity
 _atom_site_fract_x
 _atom_site_fract_y
 _atom_site_fract_z
 _atom_site_occupancy
 _atom_site_charge
  Zn  Zn1  1  0.289890  0.921340  0.633320  1.0  0.9033
  Zn  Zn2  1  0.410670  0.280100  0.529260  1.0  0.8406
  Zn  Zn3  1  0.844550  0.578660  0.866680  1.0  0.9022
  Zn  Zn4  1  0.220030  0.219900  0.970740  1.0  0.8389
  Zn  Zn5  1  0.710110  0.078660  0.366680  1.0  0.9031
  Zn  Zn6  1  0.589330  0.719900  0.470740  1.0  0.8386
  Zn  Zn7  1  0.155450  0.421340  0.133320  1.0  0.9028
  Zn  Zn8  1  0.779970  0.780100  0.029260  1.0  0.8393
  Zn  Zn9  1  0.122200  0.250000  0.750000  1.0  0.7213
  Zn  Zn10  1  0.877800  0.750000  0.250000  1.0  0.7166
  H  H11  1  0.146000  0.230000  0.578000  1.0  0.4084
  H  H12  1  0.371000  0.994000  0.450000  1.0  0.4025
  H  H13  1  0.954000  0.270000  0.922000  1.0  0.4092
  H  H14  1  0.815000  0.506000  0.050000  1.0  0.4025
  H  H15  1  0.854000  0.770000  0.422000  1.0  0.4052
  H  H16  1  0.629000  0.006000  0.550000  1.0  0.4014
  H  H17  1  0.046000  0.730000  0.078000  1.0  0.4068
  H  H18  1  0.185000  0.494000  0.950000  1.0  0.4016
  C  C19  1  0.027690  0.811450  0.819570  1.0  0.5688
  C  C20  1  0.181570  0.599550  0.725310  1.0  0.564
  C  C21  1  0.658710  0.688550  0.680430  1.0  0.5697
  C  C22  1  0.506430  0.900450  0.774690  1.0  0.5689
  C  C23  1  0.972310  0.188550  0.180430  1.0  0.5705
  C  C24  1  0.818430  0.400450  0.274690  1.0  0.5649
  C  C25  1  0.341290  0.311450  0.319570  1.0  0.5689
  C  C26  1  0.493570  0.099550  0.225310  1.0  0.5668
  N  N27  1  0.058370  0.657110  0.807150  1.0  -0.6719
  N  N28  1  0.092040  0.925710  0.758610  1.0  -0.4013
  N  N29  1  0.015620  0.058320  0.805040  1.0  0.0119
  N  N30  1  0.911750  0.027940  0.889160  1.0  -0.1189
  N  N31  1  0.916790  0.873370  0.901050  1.0  -0.3363
  N  N32  1  0.282740  0.676860  0.655660  1.0  -0.3445
  N  N33  1  0.378720  0.578640  0.587720  1.0  -0.0734
  N  N34  1  0.340090  0.447080  0.615340  1.0  -0.0344
  N  N35  1  0.217540  0.453090  0.702230  1.0  -0.3449
  N  N36  1  0.522630  0.842890  0.692850  1.0  -0.6699
  N  N37  1  0.776360  0.574290  0.741390  1.0  -0.4022
  N  N38  1  0.878980  0.441680  0.694960  1.0  0.0119
  N  N39  1  0.828850  0.472060  0.610840  1.0  -0.1178
  N  N40  1  0.691210  0.626630  0.598950  1.0  -0.3344
  N  N41  1  0.615260  0.823140  0.844340  1.0  -0.3443
  N  N42  1  0.545080  0.921360  0.912280  1.0  -0.0654
  N  N43  1  0.402510  0.052920  0.884660  1.0  -0.0363
  N  N44  1  0.372860  0.046910  0.797770  1.0  -0.3458
  N  N45  1  0.941630  0.342890  0.192850  1.0  -0.6718
  N  N46  1  0.907960  0.074290  0.241390  1.0  -0.4025
  N  N47  1  0.984380  0.941680  0.194960  1.0  0.0123
  N  N48  1  0.088250  0.972060  0.110840  1.0  -0.1176
  N  N49  1  0.083210  0.126630  0.098950  1.0  -0.336
  N  N50  1  0.717260  0.323140  0.344340  1.0  -0.3445
  N  N51  1  0.621280  0.421360  0.412280  1.0  -0.0663
  N  N52  1  0.659910  0.552920  0.384660  1.0  -0.0371
  N  N53  1  0.782460  0.546910  0.297770  1.0  -0.3445
  N  N54  1  0.477370  0.157110  0.307150  1.0  -0.6684
  N  N55  1  0.223640  0.425710  0.258610  1.0  -0.4024
  N  N56  1  0.121020  0.558320  0.305040  1.0  0.0112
  N  N57  1  0.171150  0.527940  0.389160  1.0  -0.1205
  N  N58  1  0.308790  0.373370  0.401050  1.0  -0.3346
  N  N59  1  0.384740  0.176860  0.155660  1.0  -0.3451
  N  N60  1  0.454920  0.078640  0.087720  1.0  -0.0677
  N  N61  1  0.597490  0.947080  0.115340  1.0  -0.0356
  N  N62  1  0.627140  0.953090  0.202230  1.0  -0.3448
  O  O63  1  0.225450  0.179790  0.612310  1.0  -0.8577
  O  O64  1  0.362020  0.910910  0.488850  1.0  -0.8832
  O  O65  1  0.017550  0.320210  0.887690  1.0  -0.8578
  O  O66  1  0.761780  0.589090  0.011150  1.0  -0.8847
  O  O67  1  0.774550  0.820210  0.387690  1.0  -0.8556
  O  O68  1  0.637980  0.089090  0.511150  1.0  -0.881
  O  O69  1  0.982450  0.679790  0.112310  1.0  -0.8517
  O  O70  1  0.238220  0.410910  0.988850  1.0  -0.8813
