# generated using pymatgen
data_CuH7WC8(N2O)2
_symmetry_space_group_name_H-M   'P 1'
_cell_length_a   9.74500000
_cell_length_b   9.74500000
_cell_length_c   10.77420000
_cell_angle_alpha   63.11250000
_cell_angle_beta   63.11250000
_cell_angle_gamma   89.99990000
_symmetry_Int_Tables_number   1
_chemical_formula_structural   CuH7WC8(N2O)2
_chemical_formula_sum   'Cu2 H14 W2 C16 N8 O4'
_cell_volume   786.55153940
_cell_formula_units_Z   2
loop_
 _symmetry_equiv_pos_site_id
 _symmetry_equiv_pos_as_xyz
  1  'x, y, z'
loop_
 _atom_site_type_symbol
 _atom_site_label
 _atom_site_symmetry_multiplicity
 _atom_site_fract_x
 _atom_site_fract_y
 _atom_site_fract_z
 _atom_site_occupancy
 _atom_site_charge
  Cu  Cu1  1  0.750000  0.750000  0.500000  1.0  0.6209
  Cu  Cu2  1  0.250000  0.250000  0.500000  1.0  0.62
  H  H3  1  0.529160  0.416400  0.738950  1.0  0.0889
  H  H4  1  0.844640  0.529160  0.738950  1.0  0.0864
  H  H5  1  0.416400  0.731880  0.738950  1.0  0.0867
  H  H6  1  0.970840  0.655360  0.261050  1.0  0.0857
  H  H7  1  0.768120  0.083600  0.261050  1.0  0.0864
  H  H8  1  0.083600  0.970840  0.261050  1.0  0.0853
  H  H9  1  0.655360  0.768120  0.261050  1.0  0.0883
  H  H10  1  0.268120  0.155360  0.261050  1.0  0.086
  H  H11  1  0.470840  0.583600  0.261050  1.0  0.0889
  H  H12  1  0.155360  0.470840  0.261050  1.0  0.0866
  H  H13  1  0.583600  0.268120  0.261050  1.0  0.0886
  H  H14  1  0.029160  0.344640  0.738950  1.0  0.0821
  H  H15  1  0.231880  0.916400  0.738950  1.0  0.086
  H  H16  1  0.344640  0.231880  0.738950  1.0  0.0891
  W  W17  1  0.000000  0.000000  0.000000  1.0  0.4905
  W  W18  1  0.500000  0.500000  0.000000  1.0  0.5105
  C  C19  1  0.854900  0.915300  0.628000  1.0  -0.0013
  C  C20  1  0.517100  0.456700  0.628000  1.0  0.0556
  C  C21  1  0.915300  0.517100  0.628000  1.0  0.0532
  C  C22  1  0.456700  0.854900  0.628000  1.0  0.0593
  C  C23  1  0.982900  0.584700  0.372000  1.0  0.0562
  C  C24  1  0.645100  0.043300  0.372000  1.0  0.0653
  C  C25  1  0.043300  0.982900  0.372000  1.0  0.0696
  C  C26  1  0.584700  0.645100  0.372000  1.0  0.0575
  C  C27  1  0.145100  0.084700  0.372000  1.0  0.0675
  C  C28  1  0.482900  0.543300  0.372000  1.0  0.0574
  C  C29  1  0.084700  0.482900  0.372000  1.0  0.0604
  C  C30  1  0.543300  0.145100  0.372000  1.0  0.061
  C  C31  1  0.017100  0.415300  0.628000  1.0  0.0642
  C  C32  1  0.354900  0.956700  0.628000  1.0  0.0593
  C  C33  1  0.956700  0.017100  0.628000  1.0  -0.0076
  C  C34  1  0.415300  0.354900  0.628000  1.0  0.0555
  N  N35  1  0.899600  0.899600  0.500000  1.0  -0.1484
  N  N36  1  0.600400  0.600400  0.500000  1.0  -0.1962
  N  N37  1  0.899600  0.600400  0.500000  1.0  -0.1911
  N  N38  1  0.600400  0.899600  0.500000  1.0  -0.1953
  N  N39  1  0.100400  0.100400  0.500000  1.0  -0.1509
  N  N40  1  0.399600  0.399600  0.500000  1.0  -0.1979
  N  N41  1  0.100400  0.399600  0.500000  1.0  -0.1981
  N  N42  1  0.399600  0.100400  0.500000  1.0  -0.1928
  O  O43  1  0.885700  0.885700  0.228600  1.0  -0.7149
  O  O44  1  0.614300  0.614300  0.771400  1.0  -0.6951
  O  O45  1  0.114300  0.114300  0.771400  1.0  -0.6943
  O  O46  1  0.385700  0.385700  0.228600  1.0  -0.7148
