# generated using pymatgen
data_ZnH8C12(BrN2)2
_symmetry_space_group_name_H-M   'P 1'
_cell_length_a   6.19360000
_cell_length_b   24.97970000
_cell_length_c   25.34340000
_cell_angle_alpha   89.13200000
_cell_angle_beta   82.98120000
_cell_angle_gamma   82.87850000
_symmetry_Int_Tables_number   1
_chemical_formula_structural   ZnH8C12(BrN2)2
_chemical_formula_sum   'Zn6 H48 C72 Br12 N24'
_cell_volume   3861.58037875
_cell_formula_units_Z   6
loop_
 _symmetry_equiv_pos_site_id
 _symmetry_equiv_pos_as_xyz
  1  'x, y, z'
loop_
 _atom_site_type_symbol
 _atom_site_label
 _atom_site_symmetry_multiplicity
 _atom_site_fract_x
 _atom_site_fract_y
 _atom_site_fract_z
 _atom_site_occupancy
 _atom_site_charge
  Zn  Zn1  1  0.432880  0.246940  0.722690  1.0  0.9093
  Zn  Zn2  1  0.402510  0.753060  0.277310  1.0  0.9083
  Zn  Zn3  1  0.905570  0.746940  0.777310  1.0  0.9087
  Zn  Zn4  1  0.429820  0.253060  0.222690  1.0  0.9089
  Zn  Zn5  1  0.690720  0.500000  0.500000  1.0  0.8753
  Zn  Zn6  1  0.940720  0.000000  0.000000  1.0  0.8753
  H  H7  1  0.272700  0.355000  0.765000  1.0  0.1067
  H  H8  1  0.010100  0.427600  0.754800  1.0  0.128
  H  H9  1  0.764400  0.340200  0.648000  1.0  0.1295
  H  H10  1  0.035400  0.269600  0.660800  1.0  0.0974
  H  H11  1  0.989100  0.410600  0.549800  1.0  0.0915
  H  H12  1  0.271000  0.403800  0.603200  1.0  0.1273
  H  H13  1  0.129300  0.564400  0.632000  1.0  0.135
  H  H14  1  0.847500  0.566600  0.579400  1.0  0.1003
  H  H15  1  0.540900  0.711600  0.719000  1.0  0.0988
  H  H16  1  0.432200  0.632200  0.690200  1.0  0.1315
  H  H17  1  0.955500  0.550200  0.749800  1.0  0.1291
  H  H18  1  0.044900  0.631400  0.778200  1.0  0.0996
  H  H19  1  0.392700  0.645000  0.235000  1.0  0.1053
  H  H20  1  0.192500  0.572400  0.245200  1.0  0.1287
  H  H21  1  0.752600  0.659800  0.352000  1.0  0.1292
  H  H22  1  0.965800  0.730400  0.339200  1.0  0.0985
  H  H23  1  0.949500  0.589400  0.450200  1.0  0.0915
  H  H24  1  0.278000  0.596200  0.396800  1.0  0.1272
  H  H25  1  0.325700  0.435600  0.368000  1.0  0.1355
  H  H26  1  0.993500  0.433400  0.420600  1.0  0.1002
  H  H27  1  0.971500  0.288400  0.281000  1.0  0.0981
  H  H28  1  0.754600  0.367800  0.309800  1.0  0.1323
  H  H29  1  0.255500  0.449800  0.250200  1.0  0.1293
  H  H30  1  0.454500  0.368600  0.221800  1.0  0.0999
  H  H31  1  0.787700  0.855000  0.735000  1.0  0.1056
  H  H32  1  0.514900  0.927600  0.745200  1.0  0.1288
  H  H33  1  0.162400  0.840200  0.852000  1.0  0.1296
  H  H34  1  0.446200  0.769600  0.839200  1.0  0.0981
  H  H35  1  0.288900  0.910600  0.950200  1.0  0.0919
  H  H36  1  0.624200  0.903800  0.896800  1.0  0.1276
  H  H37  1  0.511300  0.064400  0.868000  1.0  0.1354
  H  H38  1  0.176900  0.066600  0.920600  1.0  0.1005
  H  H39  1  0.009900  0.211600  0.781000  1.0  0.0983
  H  H40  1  0.872400  0.132200  0.809800  1.0  0.1326
  H  H41  1  0.455300  0.050200  0.750200  1.0  0.1292
  H  H42  1  0.573100  0.131400  0.721800  1.0  0.101
  H  H43  1  0.377700  0.145000  0.265000  1.0  0.1068
  H  H44  1  0.187700  0.072400  0.254800  1.0  0.1281
  H  H45  1  0.854600  0.159800  0.148000  1.0  0.1294
  H  H46  1  0.055000  0.230400  0.160800  1.0  0.0981
  H  H47  1  0.149700  0.089400  0.049800  1.0  0.0909
  H  H48  1  0.424800  0.096200  0.103200  1.0  0.1268
  H  H49  1  0.443700  0.935600  0.132000  1.0  0.1353
  H  H50  1  0.164100  0.933400  0.079400  1.0  0.1005
  H  H51  1  0.002500  0.788400  0.219000  1.0  0.0985
  H  H52  1  0.814400  0.867800  0.190200  1.0  0.1313
  H  H53  1  0.255700  0.949800  0.249800  1.0  0.1289
  H  H54  1  0.426300  0.868600  0.278200  1.0  0.1007
  C  C55  1  0.169470  0.352220  0.740640  1.0  0.1611
  C  C56  1  0.013870  0.395540  0.734720  1.0  -0.1387
  C  C57  1  0.862720  0.392040  0.699320  1.0  -0.1317
  C  C58  1  0.868660  0.344160  0.671720  1.0  -0.1646
  C  C59  1  0.030460  0.302360  0.679720  1.0  0.1464
  C  C60  1  0.708000  0.440520  0.689880  1.0  0.3656
  C  C61  1  0.625270  0.530620  0.698840  1.0  0.3647
  C  C62  1  0.418190  0.483620  0.654400  1.0  0.3854
  C  C63  1  0.018740  0.442080  0.566840  1.0  0.155
  C  C64  1  0.187570  0.437740  0.598320  1.0  -0.1479
  C  C65  1  0.232660  0.483800  0.622680  1.0  -0.1135
  C  C66  1  0.103110  0.532360  0.615420  1.0  -0.1475
  C  C67  1  0.936540  0.533340  0.583980  1.0  0.1575
  C  C68  1  0.624270  0.678200  0.725660  1.0  0.1521
  C  C69  1  0.558750  0.631220  0.708080  1.0  -0.1329
  C  C70  1  0.683150  0.582540  0.717360  1.0  -0.1252
  C  C71  1  0.866940  0.582900  0.743420  1.0  -0.1042
  C  C72  1  0.919450  0.631400  0.760100  1.0  0.1548
  C  C73  1  0.262330  0.647780  0.259360  1.0  0.1603
  C  C74  1  0.144130  0.604460  0.265280  1.0  -0.1377
  C  C75  1  0.954080  0.607960  0.300680  1.0  -0.1331
  C  C76  1  0.884540  0.655840  0.328280  1.0  -0.1669
  C  C77  1  0.012540  0.697640  0.320280  1.0  0.1482
  C  C78  1  0.838400  0.559480  0.310120  1.0  0.3649
  C  C79  1  0.854730  0.469380  0.301160  1.0  0.3659
  C  C80  1  0.556210  0.516380  0.345600  1.0  0.386
  C  C81  1  0.027660  0.557920  0.433160  1.0  0.1548
  C  C82  1  0.223630  0.562260  0.401680  1.0  -0.1449
  C  C83  1  0.339140  0.516200  0.377320  1.0  -0.1123
  C  C84  1  0.250890  0.467640  0.384580  1.0  -0.1488
  C  C85  1  0.053860  0.466660  0.416020  1.0  0.1571
  C  C86  1  0.028130  0.321800  0.274340  1.0  0.1517
  C  C87  1  0.898050  0.368780  0.291920  1.0  -0.1329
  C  C88  1  0.983050  0.417460  0.282640  1.0  -0.1227
  C  C89  1  0.193260  0.417100  0.256580  1.0  -0.1029
  C  C90  1  0.310950  0.368600  0.239900  1.0  0.1512
  C  C91  1  0.660110  0.852220  0.759360  1.0  0.1601
  C  C92  1  0.498590  0.895540  0.765280  1.0  -0.137
  C  C93  1  0.312040  0.892040  0.800680  1.0  -0.1325
  C  C94  1  0.290380  0.844160  0.828280  1.0  -0.1663
  C  C95  1  0.460180  0.802360  0.820280  1.0  0.1477
  C  C96  1  0.147880  0.940520  0.810120  1.0  0.3648
  C  C97  1  0.074110  0.030620  0.801160  1.0  0.3659
  C  C98  1  0.822590  0.983620  0.845600  1.0  0.3861
  C  C99  1  0.335580  0.942080  0.933160  1.0  0.1554
  C  C100  1  0.535890  0.937740  0.901680  1.0  -0.1468
  C  C101  1  0.605340  0.983800  0.877320  1.0  -0.1123
  C  C102  1  0.468530  0.032360  0.884580  1.0  -0.1477
  C  C103  1  0.270520  0.033340  0.916020  1.0  0.1562
  C  C104  1  0.099930  0.178200  0.774340  1.0  0.1512
  C  C105  1  0.016830  0.131220  0.791920  1.0  -0.1337
  C  C106  1  0.150510  0.082540  0.782640  1.0  -0.1231
  C  C107  1  0.360360  0.082900  0.756580  1.0  -0.1043
  C  C108  1  0.429550  0.131400  0.739900  1.0  0.1515
  C  C109  1  0.271690  0.147780  0.240640  1.0  0.1608
  C  C110  1  0.159410  0.104460  0.234720  1.0  -0.1395
  C  C111  1  0.004760  0.107960  0.199320  1.0  -0.1314
  C  C112  1  0.962820  0.155840  0.171720  1.0  -0.1648
  C  C113  1  0.082820  0.197640  0.179720  1.0  0.1486
  C  C114  1  0.898520  0.059480  0.189880  1.0  0.3644
  C  C115  1  0.905890  0.969380  0.198840  1.0  0.366
  C  C116  1  0.651810  0.016380  0.154400  1.0  0.3852
  C  C117  1  0.210820  0.057920  0.066840  1.0  0.1554
  C  C118  1  0.375310  0.062260  0.098320  1.0  -0.1461
  C  C119  1  0.466460  0.016200  0.122680  1.0  -0.1136
  C  C120  1  0.385470  0.967640  0.115420  1.0  -0.1486
  C  C121  1  0.219880  0.966660  0.083980  1.0  0.1569
  C  C122  1  0.052470  0.821800  0.225660  1.0  0.1523
  C  C123  1  0.939970  0.868780  0.208080  1.0  -0.1322
  C  C124  1  0.015690  0.917460  0.217360  1.0  -0.1263
  C  C125  1  0.199840  0.917100  0.243420  1.0  -0.1037
  C  C126  1  0.300850  0.868600  0.260100  1.0  0.1549
  Br  Br127  1  0.629580  0.220230  0.639150  1.0  -0.3895
  Br  Br128  1  0.615810  0.278340  0.790240  1.0  -0.3882
  Br  Br129  1  0.475540  0.583510  0.515030  1.0  -0.4225
  Br  Br130  1  0.488960  0.779770  0.360850  1.0  -0.3867
  Br  Br131  1  0.684390  0.721660  0.209760  1.0  -0.3862
  Br  Br132  1  0.574080  0.416490  0.484970  1.0  -0.423
  Br  Br133  1  0.018730  0.720230  0.860850  1.0  -0.3908
  Br  Br134  1  0.156050  0.778340  0.709760  1.0  -0.3863
  Br  Br135  1  0.740570  0.083510  0.984970  1.0  -0.4225
  Br  Br136  1  0.599810  0.279770  0.139150  1.0  -0.3904
  Br  Br137  1  0.644150  0.221660  0.290240  1.0  -0.3883
  Br  Br138  1  0.809050  0.916490  0.015030  1.0  -0.4231
  N  N139  1  0.180650  0.305940  0.713160  1.0  -0.3299
  N  N140  1  0.541370  0.436580  0.661680  1.0  -0.453
  N  N141  1  0.452820  0.531580  0.671980  1.0  -0.4411
  N  N142  1  0.756030  0.486460  0.709480  1.0  -0.4966
  N  N143  1  0.895150  0.489000  0.559300  1.0  -0.3244
  N  N144  1  0.799550  0.678700  0.751600  1.0  -0.3157
  N  N145  1  0.199750  0.694060  0.286840  1.0  -0.3299
  N  N146  1  0.639630  0.563420  0.338320  1.0  -0.4533
  N  N147  1  0.656380  0.468420  0.328020  1.0  -0.4425
  N  N148  1  0.951970  0.513540  0.290520  1.0  -0.4969
  N  N149  1  0.943450  0.511000  0.440700  1.0  -0.3246
  N  N150  1  0.229850  0.321300  0.248400  1.0  -0.3128
  N  N151  1  0.643810  0.805940  0.786840  1.0  -0.3295
  N  N152  1  0.953050  0.936580  0.838320  1.0  -0.4527
  N  N153  1  0.874800  0.031580  0.828020  1.0  -0.4416
  N  N154  1  0.215510  0.986460  0.790520  1.0  -0.497
  N  N155  1  0.204450  0.989000  0.940700  1.0  -0.3248
  N  N156  1  0.301150  0.178700  0.748400  1.0  -0.3139
  N  N157  1  0.236590  0.194060  0.213160  1.0  -0.3307
  N  N158  1  0.727950  0.063420  0.161680  1.0  -0.4536
  N  N159  1  0.734400  0.968420  0.171980  1.0  -0.4414
  N  N160  1  0.992490  0.013540  0.209480  1.0  -0.4964
  N  N161  1  0.134150  0.011000  0.059300  1.0  -0.3243
  N  N162  1  0.228250  0.821300  0.251600  1.0  -0.3141
