# generated using pymatgen
data_Cu3H12C30(N5O6)2
_symmetry_space_group_name_H-M   'P 1'
_cell_length_a   28.15270000
_cell_length_b   28.15270000
_cell_length_c   28.60020000
_cell_angle_alpha   119.48400000
_cell_angle_beta   119.48400000
_cell_angle_gamma   90.00000000
_symmetry_Int_Tables_number   1
_chemical_formula_structural   Cu3H12C30(N5O6)2
_chemical_formula_sum   'Cu24 H96 C240 N80 O96'
_cell_volume   16275.35820538
_cell_formula_units_Z   8
loop_
 _symmetry_equiv_pos_site_id
 _symmetry_equiv_pos_as_xyz
  1  'x, y, z'
loop_
 _atom_site_type_symbol
 _atom_site_label
 _atom_site_symmetry_multiplicity
 _atom_site_fract_x
 _atom_site_fract_y
 _atom_site_fract_z
 _atom_site_occupancy
 _atom_site_charge
  Cu  Cu1  1  0.069600  0.275230  0.000000  1.0  0.915
  Cu  Cu2  1  0.412410  0.317200  0.364260  1.0  0.9232
  Cu  Cu3  1  0.964340  0.036180  0.273800  1.0  0.9055
  Cu  Cu4  1  0.035660  0.963820  0.726200  1.0  0.9067
  Cu  Cu5  1  0.952940  0.587590  0.635740  1.0  0.9212
  Cu  Cu6  1  0.930400  0.724770  0.000000  1.0  0.9155
  Cu  Cu7  1  0.909210  0.633140  0.000000  1.0  0.9269
  Cu  Cu8  1  0.633140  0.090790  0.000000  1.0  0.9198
  Cu  Cu9  1  0.090790  0.366860  0.000000  1.0  0.9266
  Cu  Cu10  1  0.366860  0.909210  0.000000  1.0  0.9197
  Cu  Cu11  1  0.309460  0.237620  0.273800  1.0  0.9112
  Cu  Cu12  1  0.317200  0.951850  0.364260  1.0  0.9203
  Cu  Cu13  1  0.762380  0.035660  0.726200  1.0  0.9036
  Cu  Cu14  1  0.275230  0.930400  0.000000  1.0  0.9087
  Cu  Cu15  1  0.951850  0.047060  0.364260  1.0  0.9188
  Cu  Cu16  1  0.237620  0.964340  0.273800  1.0  0.9053
  Cu  Cu17  1  0.963820  0.690540  0.726200  1.0  0.9087
  Cu  Cu18  1  0.682800  0.048150  0.635740  1.0  0.9215
  Cu  Cu19  1  0.036180  0.309460  0.273800  1.0  0.9075
  Cu  Cu20  1  0.047060  0.412410  0.364260  1.0  0.9216
  Cu  Cu21  1  0.048150  0.952940  0.635740  1.0  0.919
  Cu  Cu22  1  0.587590  0.682800  0.635740  1.0  0.9221
  Cu  Cu23  1  0.724770  0.069600  0.000000  1.0  0.9082
  Cu  Cu24  1  0.690540  0.762380  0.726200  1.0  0.9116
  H  H25  1  0.378600  0.992900  0.832400  1.0  0.3013
  H  H26  1  0.444400  0.112100  0.481200  1.0  0.1164
  H  H27  1  0.127100  0.614900  0.697800  1.0  0.1204
  H  H28  1  0.570700  0.082900  0.697800  1.0  0.1205
  H  H29  1  0.614900  0.570700  0.697800  1.0  0.119
  H  H30  1  0.630900  0.555600  0.518800  1.0  0.1152
  H  H31  1  0.160500  0.621400  0.167600  1.0  0.3024
  H  H32  1  0.895000  0.714600  0.162000  1.0  0.1242
  H  H33  1  0.890100  0.788700  0.296200  1.0  0.3064
  H  H34  1  0.696300  0.082000  0.845400  1.0  0.1138
  H  H35  1  0.992900  0.453800  0.832400  1.0  0.2947
  H  H36  1  0.007100  0.546200  0.167600  1.0  0.2947
  H  H37  1  0.763500  0.017200  0.259200  1.0  0.1089
  H  H38  1  0.593900  0.492500  0.703800  1.0  0.309
  H  H39  1  0.758000  0.236500  0.740800  1.0  0.1069
  H  H40  1  0.236600  0.303700  0.154600  1.0  0.1158
  H  H41  1  0.354000  0.960900  0.875200  1.0  0.1145
  H  H42  1  0.785700  0.673600  0.654000  1.0  0.1199
  H  H43  1  0.982800  0.504300  0.740800  1.0  0.1093
  H  H44  1  0.369100  0.444400  0.481200  1.0  0.1152
  H  H45  1  0.017200  0.495700  0.259200  1.0  0.108
  H  H46  1  0.887900  0.963200  0.518800  1.0  0.1164
  H  H47  1  0.733000  0.552600  0.838000  1.0  0.1253
  H  H48  1  0.109900  0.805400  0.161800  1.0  0.1126
  H  H49  1  0.019600  0.214300  0.346000  1.0  0.1192
  H  H50  1  0.085700  0.646000  0.124800  1.0  0.1157
  H  H51  1  0.763400  0.696300  0.845400  1.0  0.1151
  H  H52  1  0.010700  0.377800  0.550200  1.0  0.2891
  H  H53  1  0.039100  0.478800  0.124800  1.0  0.1169
  H  H54  1  0.194600  0.948100  0.838200  1.0  0.1134
  H  H55  1  0.646000  0.039100  0.124800  1.0  0.1148
  H  H56  1  0.051900  0.356400  0.161800  1.0  0.1135
  H  H57  1  0.963200  0.630900  0.518800  1.0  0.1167
  H  H58  1  0.890100  0.194600  0.838200  1.0  0.1122
  H  H59  1  0.788700  0.406100  0.296200  1.0  0.3118
  H  H60  1  0.429300  0.917100  0.302200  1.0  0.1198
  H  H61  1  0.714600  0.267000  0.162000  1.0  0.1255
  H  H62  1  0.453800  0.839500  0.832400  1.0  0.2931
  H  H63  1  0.507500  0.890100  0.296200  1.0  0.3084
  H  H64  1  0.495700  0.242000  0.259200  1.0  0.1072
  H  H65  1  0.539500  0.172400  0.550200  1.0  0.2913
  H  H66  1  0.621400  0.007100  0.167600  1.0  0.3009
  H  H67  1  0.149100  0.763400  0.845400  1.0  0.1163
  H  H68  1  0.918000  0.850900  0.154600  1.0  0.1149
  H  H69  1  0.622200  0.460500  0.449800  1.0  0.2903
  H  H70  1  0.230100  0.479600  0.484000  1.0  0.1217
  H  H71  1  0.746100  0.995600  0.516000  1.0  0.1245
  H  H72  1  0.948100  0.643600  0.838200  1.0  0.1129
  H  H73  1  0.492500  0.109900  0.703800  1.0  0.3088
  H  H74  1  0.242000  0.763500  0.259200  1.0  0.1075
  H  H75  1  0.960900  0.521200  0.875200  1.0  0.1176
  H  H76  1  0.385100  0.429300  0.302200  1.0  0.1199
  H  H77  1  0.253900  0.004400  0.484000  1.0  0.122
  H  H78  1  0.377800  0.539500  0.550200  1.0  0.2897
  H  H79  1  0.478800  0.085700  0.124800  1.0  0.1146
  H  H80  1  0.479600  0.253900  0.484000  1.0  0.1238
  H  H81  1  0.872900  0.385100  0.302200  1.0  0.1208
  H  H82  1  0.285400  0.733000  0.838000  1.0  0.1251
  H  H83  1  0.267000  0.447400  0.162000  1.0  0.1238
  H  H84  1  0.303700  0.918000  0.154600  1.0  0.1152
  H  H85  1  0.211300  0.593900  0.703800  1.0  0.3113
  H  H86  1  0.520400  0.746100  0.516000  1.0  0.1233
  H  H87  1  0.447400  0.895000  0.162000  1.0  0.126
  H  H88  1  0.555600  0.887900  0.518800  1.0  0.1163
  H  H89  1  0.673600  0.868300  0.654000  1.0  0.1187
  H  H90  1  0.109900  0.211300  0.703800  1.0  0.3062
  H  H91  1  0.036800  0.369100  0.481200  1.0  0.1171
  H  H92  1  0.868300  0.980400  0.654000  1.0  0.1199
  H  H93  1  0.805400  0.051900  0.161800  1.0  0.114
  H  H94  1  0.172400  0.010700  0.550200  1.0  0.2904
  H  H95  1  0.082000  0.149100  0.845400  1.0  0.1144
  H  H96  1  0.827600  0.989300  0.449800  1.0  0.2895
  H  H97  1  0.839500  0.378600  0.832400  1.0  0.3003
  H  H98  1  0.995600  0.769900  0.516000  1.0  0.1229
  H  H99  1  0.356400  0.109900  0.161800  1.0  0.1117
  H  H100  1  0.460500  0.827600  0.449800  1.0  0.2892
  H  H101  1  0.914300  0.354000  0.875200  1.0  0.1156
  H  H102  1  0.105000  0.285400  0.838000  1.0  0.1233
  H  H103  1  0.552600  0.105000  0.838000  1.0  0.126
  H  H104  1  0.769900  0.520400  0.516000  1.0  0.1223
  H  H105  1  0.082900  0.127100  0.697800  1.0  0.1204
  H  H106  1  0.643600  0.890100  0.838200  1.0  0.1117
  H  H107  1  0.917100  0.872900  0.302200  1.0  0.1205
  H  H108  1  0.989300  0.622200  0.449800  1.0  0.2902
  H  H109  1  0.546200  0.160500  0.167600  1.0  0.2941
  H  H110  1  0.326400  0.131700  0.346000  1.0  0.1193
  H  H111  1  0.521200  0.914300  0.875200  1.0  0.1149
  H  H112  1  0.214300  0.326400  0.346000  1.0  0.1199
  H  H113  1  0.850900  0.236600  0.154600  1.0  0.1138
  H  H114  1  0.131700  0.019600  0.346000  1.0  0.1195
  H  H115  1  0.236500  0.982800  0.740800  1.0  0.1099
  H  H116  1  0.504300  0.758000  0.740800  1.0  0.1091
  H  H117  1  0.004400  0.230100  0.484000  1.0  0.1225
  H  H118  1  0.980400  0.785700  0.654000  1.0  0.1197
  H  H119  1  0.406100  0.507500  0.296200  1.0  0.3076
  H  H120  1  0.112100  0.036800  0.481200  1.0  0.1165
  C  C121  1  0.144900  0.960100  0.742000  1.0  0.6691
  C  C122  1  0.914100  0.277700  0.867000  1.0  -0.1121
  C  C123  1  0.636830  0.854630  0.616860  1.0  0.0082
  C  C124  1  0.907000  0.739200  0.091600  1.0  0.7157
  C  C125  1  0.109600  0.682600  0.146200  1.0  -0.1281
  C  C126  1  0.706300  0.401400  0.745200  1.0  0.4724
  C  C127  1  0.129700  0.686400  0.769400  1.0  -0.1297
  C  C128  1  0.237770  0.363170  0.383140  1.0  0.0102
  C  C129  1  0.061800  0.381900  0.085600  1.0  0.6908
  C  C130  1  0.038900  0.343800  0.745200  1.0  0.4796
  C  C131  1  0.134600  0.031200  0.464800  1.0  -0.1139
  C  C132  1  0.978600  0.691900  0.504000  1.0  0.1676
  C  C133  1  0.218100  0.855100  0.258000  1.0  0.6672
  C  C134  1  0.865400  0.968800  0.535200  1.0  -0.1117
  C  C135  1  0.976100  0.525800  0.772800  1.0  -0.0761
  C  C136  1  0.267600  0.640600  0.713600  1.0  0.1665
  C  C137  1  0.917000  0.870300  0.230600  1.0  -0.1294
  C  C138  1  0.963400  0.536400  0.853800  1.0  -0.1276
  C  C139  1  0.123800  0.778200  0.169400  1.0  0.0172
  C  C140  1  0.678600  0.659000  0.620200  1.0  0.7057
  C  C141  1  0.793100  0.035000  0.216400  1.0  -0.1527
  C  C142  1  0.184600  0.352400  0.091600  1.0  0.7164
  C  C143  1  0.332800  0.448100  0.239800  1.0  0.2264
  C  C144  1  0.854630  0.980030  0.616860  1.0  0.0143
  C  C145  1  0.379500  0.116300  0.412000  1.0  -0.1276
  C  C146  1  0.753000  0.023900  0.227200  1.0  -0.0778
  C  C147  1  0.573700  0.098300  0.819800  1.0  -0.0959
  C  C148  1  0.387300  0.227500  0.379200  1.0  0.7048
  C  C149  1  0.215600  0.401200  0.409600  1.0  -0.0777
  C  C150  1  0.031200  0.330200  0.464800  1.0  -0.1156
  C  C151  1  0.423300  0.761900  0.768600  1.0  0.2825
  C  C152  1  0.151700  0.387300  0.379200  1.0  0.7037
  C  C153  1  0.023900  0.474200  0.227200  1.0  -0.0774
  C  C154  1  0.721500  0.573700  0.819800  1.0  -0.1016
  C  C155  1  0.835900  0.261200  0.175800  1.0  0.0149
  C  C156  1  0.346500  0.573500  0.597800  1.0  0.4314
  C  C157  1  0.991600  0.784400  0.590400  1.0  -0.0774
  C  C158  1  0.796700  0.247000  0.772800  1.0  -0.0745
  C  C159  1  0.598800  0.806000  0.590400  1.0  -0.08
  C  C160  1  0.762230  0.636830  0.616860  1.0  0.0103
  C  C161  1  0.398700  0.651900  0.348000  1.0  0.3656
  C  C162  1  0.203300  0.753000  0.227200  1.0  -0.0728
  C  C163  1  0.098300  0.246100  0.819800  1.0  -0.0989
  C  C164  1  0.980300  0.611400  0.315800  1.0  0.3577
  C  C165  1  0.085400  0.164100  0.824200  1.0  0.02
  C  C166  1  0.448100  0.907000  0.239800  1.0  0.2266
  C  C167  1  0.036600  0.463600  0.146200  1.0  -0.1271
  C  C168  1  0.855100  0.039900  0.258000  1.0  0.67
  C  C169  1  0.360300  0.917000  0.230600  1.0  -0.1302
  C  C170  1  0.980030  0.762230  0.616860  1.0  0.0068
  C  C171  1  0.341000  0.058400  0.379800  1.0  0.7058
  C  C172  1  0.317400  0.963400  0.853800  1.0  -0.1239
  C  C173  1  0.618100  0.976200  0.914400  1.0  0.6922
  C  C174  1  0.010200  0.247500  0.466000  1.0  -0.0677
  C  C175  1  0.277700  0.952900  0.867000  1.0  -0.1073
  C  C176  1  0.976200  0.296300  0.914400  1.0  0.6906
  C  C177  1  0.227500  0.991900  0.379200  1.0  0.7045
  C  C178  1  0.330200  0.433600  0.464800  1.0  -0.1129
  C  C179  1  0.296300  0.938200  0.914400  1.0  0.6834
  C  C180  1  0.065300  0.662200  0.734000  1.0  0.6872
  C  C181  1  0.525400  0.812100  0.504000  1.0  0.1559
  C  C182  1  0.335500  0.704400  0.315800  1.0  0.3577
  C  C183  1  0.006700  0.423300  0.768600  1.0  0.284
  C  C184  1  0.474200  0.203300  0.227200  1.0  -0.0718
  C  C185  1  0.667200  0.551900  0.760200  1.0  0.2268
  C  C186  1  0.791700  0.332800  0.239800  1.0  0.2272
  C  C187  1  0.008400  0.215600  0.409600  1.0  -0.0793
  C  C188  1  0.991900  0.151700  0.379200  1.0  0.7047
  C  C189  1  0.576700  0.818600  0.783600  1.0  -0.1445
  C  C190  1  0.651900  0.949300  0.348000  1.0  0.3724
  C  C191  1  0.343800  0.706300  0.745200  1.0  0.474
  C  C192  1  0.961200  0.678600  0.620200  1.0  0.7043
  C  C193  1  0.381900  0.023800  0.085600  1.0  0.6917
  C  C194  1  0.848300  0.612700  0.620800  1.0  0.7038
  C  C195  1  0.914100  0.848500  0.263400  1.0  -0.1166
  C  C196  1  0.506900  0.832000  0.809400  1.0  0.2594
  C  C197  1  0.573500  0.251300  0.597800  1.0  0.4271
  C  C198  1  0.815400  0.647600  0.908400  1.0  0.7166
  C  C199  1  0.363170  0.145370  0.383140  1.0  0.0092
  C  C200  1  0.597100  0.781900  0.742000  1.0  0.6711
  C  C201  1  0.876200  0.221800  0.830600  1.0  0.0161
  C  C202  1  0.331300  0.928200  0.266000  1.0  0.6925
  C  C203  1  0.777600  0.244000  0.151000  1.0  -0.1285
  C  C204  1  0.352400  0.907000  0.091600  1.0  0.7162
  C  C205  1  0.206900  0.965000  0.783600  1.0  -0.1545
  C  C206  1  0.151500  0.650700  0.736600  1.0  -0.116
  C  C207  1  0.883700  0.967500  0.588000  1.0  -0.122
  C  C208  1  0.221800  0.954400  0.830600  1.0  0.0126
  C  C209  1  0.952900  0.589300  0.867000  1.0  -0.1065
  C  C210  1  0.611400  0.335500  0.315800  1.0  0.3581
  C  C211  1  0.391200  0.123800  0.169400  1.0  0.0162
  C  C212  1  0.928200  0.934700  0.266000  1.0  0.6905
  C  C213  1  0.696100  0.398700  0.348000  1.0  0.3666
  C  C214  1  0.697500  0.022600  0.190600  1.0  0.2579
  C  C215  1  0.781500  0.989800  0.534000  1.0  -0.0718
  C  C216  1  0.907000  0.791700  0.239800  1.0  0.2286
  C  C217  1  0.993300  0.576700  0.231400  1.0  0.2847
  C  C218  1  0.071800  0.065300  0.734000  1.0  0.69
  C  C219  1  0.965000  0.576700  0.783600  1.0  -0.1433
  C  C220  1  0.938200  0.618100  0.914400  1.0  0.6914
  C  C221  1  0.222400  0.756000  0.849000  1.0  -0.1288
  C  C222  1  0.303900  0.601300  0.652000  1.0  0.3666
  C  C223  1  0.093000  0.208300  0.760200  1.0  0.2285
  C  C224  1  0.218500  0.010200  0.466000  1.0  -0.0694
  C  C225  1  0.536400  0.890400  0.853800  1.0  -0.1245
  C  C226  1  0.145370  0.019970  0.383140  1.0  0.0129
  C  C227  1  0.954400  0.608800  0.830600  1.0  0.0169
  C  C228  1  0.639700  0.083000  0.769400  1.0  -0.1308
  C  C229  1  0.848500  0.349300  0.263400  1.0  -0.1177
  C  C230  1  0.626600  0.093000  0.849000  1.0  -0.1283
  C  C231  1  0.073000  0.267600  0.713600  1.0  0.1655
  C  C232  1  0.008100  0.848300  0.620800  1.0  0.7046
  C  C233  1  0.566400  0.865400  0.535200  1.0  -0.1133
  C  C234  1  0.832000  0.302500  0.809400  1.0  0.2606
  C  C235  1  0.181400  0.793100  0.216400  1.0  -0.1446
  C  C236  1  0.302500  0.977400  0.809400  1.0  0.2587
  C  C237  1  0.359400  0.554000  0.286400  1.0  0.1663
  C  C238  1  0.653500  0.426500  0.402200  1.0  0.4293
  C  C239  1  0.247500  0.455800  0.466000  1.0  -0.0674
  C  C240  1  0.703700  0.061800  0.085600  1.0  0.6842
  C  C241  1  0.772500  0.008100  0.620800  1.0  0.7056
  C  C242  1  0.038800  0.321400  0.379800  1.0  0.7049
  C  C243  1  0.045600  0.391200  0.169400  1.0  0.0172
  C  C244  1  0.589300  0.914100  0.867000  1.0  -0.1055
  C  C245  1  0.313600  0.360300  0.230600  1.0  -0.1296
  C  C246  1  0.968800  0.669800  0.535200  1.0  -0.1154
  C  C247  1  0.650700  0.585100  0.736600  1.0  -0.115
  C  C248  1  0.414900  0.914100  0.263400  1.0  -0.117
  C  C249  1  0.260800  0.815400  0.908400  1.0  0.7168
  C  C250  1  0.544200  0.781500  0.534000  1.0  -0.0672
  C  C251  1  0.960100  0.597100  0.742000  1.0  0.6689
  C  C252  1  0.784400  0.598800  0.590400  1.0  -0.0777
  C  C253  1  0.660100  0.085400  0.824200  1.0  0.0188
  C  C254  1  0.426300  0.901700  0.180200  1.0  -0.0929
  C  C255  1  0.423300  0.181400  0.216400  1.0  -0.1461
  C  C256  1  0.164100  0.738800  0.824200  1.0  0.014
  C  C257  1  0.293700  0.598600  0.254800  1.0  0.4674
  C  C258  1  0.934700  0.337800  0.266000  1.0  0.6889
  C  C259  1  0.401200  0.194000  0.409600  1.0  -0.0811
  C  C260  1  0.021400  0.308100  0.496000  1.0  0.1677
  C  C261  1  0.058400  0.038800  0.379800  1.0  0.7038
  C  C262  1  0.023800  0.703700  0.085600  1.0  0.6904
  C  C263  1  0.039900  0.402900  0.258000  1.0  0.6703
  C  C264  1  0.455800  0.218500  0.466000  1.0  -0.0671
  C  C265  1  0.949300  0.696100  0.348000  1.0  0.3663
  C  C266  1  0.554000  0.927000  0.286400  1.0  0.1655
  C  C267  1  0.890400  0.317400  0.853800  1.0  -0.1263
  C  C268  1  0.446000  0.073000  0.713600  1.0  0.1666
  C  C269  1  0.321400  0.341000  0.379800  1.0  0.7057
  C  C270  1  0.339900  0.914600  0.175800  1.0  0.0197
  C  C271  1  0.620500  0.883700  0.588000  1.0  -0.1267
  C  C272  1  0.493100  0.168000  0.190600  1.0  0.2602
  C  C273  1  0.901700  0.753900  0.180200  1.0  -0.0981
  C  C274  1  0.732400  0.359400  0.286400  1.0  0.1661
  C  C275  1  0.907000  0.777600  0.151000  1.0  -0.1296
  C  C276  1  0.656200  0.293700  0.254800  1.0  0.4668
  C  C277  1  0.608800  0.876200  0.830600  1.0  0.0133
  C  C278  1  0.401400  0.038900  0.745200  1.0  0.4672
  C  C279  1  0.247000  0.976100  0.772800  1.0  -0.0762
  C  C280  1  0.295600  0.019700  0.684200  1.0  0.3584
  C  C281  1  0.753900  0.278500  0.180200  1.0  -0.1009
  C  C282  1  0.738800  0.660100  0.824200  1.0  0.0173
  C  C283  1  0.047100  0.410700  0.133000  1.0  -0.107
  C  C284  1  0.194000  0.008400  0.409600  1.0  -0.0786
  C  C285  1  0.388600  0.664500  0.684200  1.0  0.359
  C  C286  1  0.085900  0.151500  0.736600  1.0  -0.115
  C  C287  1  0.640600  0.446000  0.713600  1.0  0.1643
  C  C288  1  0.426500  0.748700  0.402200  1.0  0.4335
  C  C289  1  0.525800  0.796700  0.772800  1.0  -0.0727
  C  C290  1  0.752500  0.544200  0.534000  1.0  -0.0685
  C  C291  1  0.337800  0.331300  0.266000  1.0  0.6912
  C  C292  1  0.806000  0.991600  0.590400  1.0  -0.0793
  C  C293  1  0.116300  0.032500  0.412000  1.0  -0.1219
  C  C294  1  0.870300  0.313600  0.230600  1.0  -0.1292
  C  C295  1  0.691900  0.525400  0.504000  1.0  0.1595
  C  C296  1  0.756000  0.626600  0.849000  1.0  -0.1255
  C  C297  1  0.781900  0.144900  0.742000  1.0  0.6686
  C  C298  1  0.585100  0.085900  0.736600  1.0  -0.1149
  C  C299  1  0.598600  0.961100  0.254800  1.0  0.4663
  C  C300  1  0.576700  0.238100  0.231400  1.0  0.2812
  C  C301  1  0.295700  0.379500  0.412000  1.0  -0.1223
  C  C302  1  0.093000  0.260800  0.908400  1.0  0.7163
  C  C303  1  0.778200  0.045600  0.169400  1.0  0.0163
  C  C304  1  0.722300  0.047100  0.133000  1.0  -0.1071
  C  C305  1  0.977400  0.506900  0.809400  1.0  0.2525
  C  C306  1  0.818600  0.206900  0.783600  1.0  -0.1448
  C  C307  1  0.187900  0.021400  0.496000  1.0  0.1592
  C  C308  1  0.748700  0.975700  0.402200  1.0  0.4242
  C  C309  1  0.659000  0.941600  0.620200  1.0  0.7044
  C  C310  1  0.024300  0.346500  0.597800  1.0  0.4304
  C  C311  1  0.246100  0.721500  0.819800  1.0  -0.1005
  C  C312  1  0.019970  0.237770  0.383140  1.0  0.0073
  C  C313  1  0.961100  0.656200  0.254800  1.0  0.4739
  C  C314  1  0.989800  0.752500  0.534000  1.0  -0.0676
  C  C315  1  0.345300  0.006700  0.768600  1.0  0.2773
  C  C316  1  0.410700  0.085900  0.133000  1.0  -0.1052
  C  C317  1  0.022600  0.493100  0.190600  1.0  0.2532
  C  C318  1  0.093000  0.222400  0.849000  1.0  -0.1294
  C  C319  1  0.686400  0.639700  0.769400  1.0  -0.1311
  C  C320  1  0.975700  0.653500  0.402200  1.0  0.4312
  C  C321  1  0.927000  0.732400  0.286400  1.0  0.1661
  C  C322  1  0.019700  0.388600  0.684200  1.0  0.3578
  C  C323  1  0.402900  0.218100  0.258000  1.0  0.6686
  C  C324  1  0.032500  0.295700  0.412000  1.0  -0.1184
  C  C325  1  0.463600  0.109600  0.146200  1.0  -0.1265
  C  C326  1  0.682600  0.036600  0.146200  1.0  -0.1307
  C  C327  1  0.085900  0.722300  0.133000  1.0  -0.1126
  C  C328  1  0.664500  0.295600  0.684200  1.0  0.3589
  C  C329  1  0.261200  0.339900  0.175800  1.0  0.0176
  C  C330  1  0.168000  0.697500  0.190600  1.0  0.2605
  C  C331  1  0.812100  0.978600  0.504000  1.0  0.1583
  C  C332  1  0.083000  0.129700  0.769400  1.0  -0.1293
  C  C333  1  0.244000  0.373400  0.151000  1.0  -0.1268
  C  C334  1  0.704300  0.620500  0.588000  1.0  -0.1218
  C  C335  1  0.647600  0.093000  0.908400  1.0  0.7162
  C  C336  1  0.373400  0.907000  0.151000  1.0  -0.1275
  C  C337  1  0.278500  0.426300  0.180200  1.0  -0.1022
  C  C338  1  0.551900  0.093000  0.760200  1.0  0.2276
  C  C339  1  0.050700  0.303900  0.652000  1.0  0.3653
  C  C340  1  0.208300  0.667200  0.760200  1.0  0.2271
  C  C341  1  0.914600  0.835900  0.175800  1.0  0.02
  C  C342  1  0.433600  0.134600  0.464800  1.0  -0.1148
  C  C343  1  0.612700  0.772500  0.620800  1.0  0.7047
  C  C344  1  0.668700  0.071800  0.734000  1.0  0.6931
  C  C345  1  0.941600  0.961200  0.620200  1.0  0.7031
  C  C346  1  0.238100  0.654700  0.231400  1.0  0.2735
  C  C347  1  0.349300  0.414900  0.263400  1.0  -0.1148
  C  C348  1  0.035000  0.423300  0.216400  1.0  -0.1438
  C  C349  1  0.474600  0.187900  0.496000  1.0  0.1549
  C  C350  1  0.251300  0.024300  0.597800  1.0  0.4244
  C  C351  1  0.601300  0.348100  0.652000  1.0  0.3668
  C  C352  1  0.761900  0.345300  0.768600  1.0  0.2736
  C  C353  1  0.704400  0.980300  0.315800  1.0  0.3587
  C  C354  1  0.967500  0.704300  0.588000  1.0  -0.118
  C  C355  1  0.669800  0.566400  0.535200  1.0  -0.114
  C  C356  1  0.739200  0.184600  0.091600  1.0  0.7164
  C  C357  1  0.308100  0.474600  0.496000  1.0  0.1588
  C  C358  1  0.654700  0.993300  0.231400  1.0  0.2785
  C  C359  1  0.348100  0.050700  0.652000  1.0  0.373
  C  C360  1  0.662200  0.668700  0.734000  1.0  0.6885
  N  N361  1  0.303400  0.558100  0.603000  1.0  -0.378
  N  N362  1  0.044900  0.303400  0.603000  1.0  -0.3934
  N  N363  1  0.227700  0.629900  0.723400  1.0  -0.4221
  N  N364  1  0.629900  0.495700  0.723400  1.0  -0.4202
  N  N365  1  0.186800  0.654400  0.194200  1.0  -0.2999
  N  N366  1  0.460200  0.813200  0.805800  1.0  -0.3002
  N  N367  1  0.201500  0.018100  0.549400  1.0  -0.3599
  N  N368  1  0.927500  0.732900  0.336200  1.0  -0.279
  N  N369  1  0.973700  0.617600  0.219400  1.0  -0.2614
  N  N370  1  0.398200  0.026300  0.780600  1.0  -0.2457
  N  N371  1  0.650900  0.961500  0.305800  1.0  -0.2908
  N  N372  1  0.038500  0.345100  0.694200  1.0  -0.2909
  N  N373  1  0.423900  0.715500  0.718400  1.0  -0.3346
  N  N374  1  0.002900  0.423900  0.718400  1.0  -0.3343
  N  N375  1  0.772300  0.370100  0.276600  1.0  -0.4226
  N  N376  1  0.955100  0.696600  0.397000  1.0  -0.3841
  N  N377  1  0.531300  0.201500  0.549400  1.0  -0.3578
  N  N378  1  0.349100  0.038500  0.694200  1.0  -0.2906
  N  N379  1  0.981900  0.652100  0.450600  1.0  -0.3582
  N  N380  1  0.986200  0.610700  0.362200  1.0  -0.3725
  N  N381  1  0.347900  0.531300  0.549400  1.0  -0.3596
  N  N382  1  0.389300  0.624000  0.637800  1.0  -0.375
  N  N383  1  0.654400  0.007400  0.194200  1.0  -0.3016
  N  N384  1  0.732900  0.408700  0.336200  1.0  -0.2781
  N  N385  1  0.906500  0.772300  0.276600  1.0  -0.4201
  N  N386  1  0.624000  0.248500  0.637800  1.0  -0.3709
  N  N387  1  0.284500  0.705500  0.281600  1.0  -0.336
  N  N388  1  0.798500  0.981900  0.450600  1.0  -0.3606
  N  N389  1  0.376000  0.751500  0.362200  1.0  -0.3739
  N  N390  1  0.299600  0.044900  0.603000  1.0  -0.3826
  N  N391  1  0.267100  0.591300  0.663800  1.0  -0.279
  N  N392  1  0.448800  0.057400  0.753800  1.0  -0.4138
  N  N393  1  0.013800  0.389300  0.637800  1.0  -0.3717
  N  N394  1  0.468700  0.798500  0.450600  1.0  -0.3585
  N  N395  1  0.655700  0.349100  0.694200  1.0  -0.2904
  N  N396  1  0.696600  0.441900  0.397000  1.0  -0.3803
  N  N397  1  0.652100  0.468700  0.450600  1.0  -0.3604
  N  N398  1  0.504300  0.906500  0.276600  1.0  -0.42
  N  N399  1  0.715500  0.294500  0.718400  1.0  -0.3336
  N  N400  1  0.695000  0.303600  0.246200  1.0  -0.4132
  N  N401  1  0.396700  0.072500  0.663800  1.0  -0.2768
  N  N402  1  0.495700  0.093500  0.723400  1.0  -0.4209
  N  N403  1  0.057400  0.305000  0.753800  1.0  -0.4199
  N  N404  1  0.696400  0.448800  0.753800  1.0  -0.4139
  N  N405  1  0.382400  0.754300  0.780600  1.0  -0.2629
  N  N406  1  0.018100  0.347900  0.549400  1.0  -0.3574
  N  N407  1  0.558100  0.299600  0.603000  1.0  -0.3806
  N  N408  1  0.601800  0.973700  0.219400  1.0  -0.2454
  N  N409  1  0.072500  0.267100  0.663800  1.0  -0.2798
  N  N410  1  0.603300  0.927500  0.336200  1.0  -0.275
  N  N411  1  0.345600  0.992600  0.805800  1.0  -0.2986
  N  N412  1  0.942600  0.695000  0.246200  1.0  -0.4177
  N  N413  1  0.961500  0.654900  0.305800  1.0  -0.2912
  N  N414  1  0.441900  0.700400  0.397000  1.0  -0.3812
  N  N415  1  0.408700  0.603300  0.336200  1.0  -0.2762
  N  N416  1  0.705500  0.997100  0.281600  1.0  -0.3337
  N  N417  1  0.813200  0.345600  0.805800  1.0  -0.2955
  N  N418  1  0.294500  0.002900  0.718400  1.0  -0.3379
  N  N419  1  0.700400  0.955100  0.397000  1.0  -0.3785
  N  N420  1  0.551200  0.942600  0.246200  1.0  -0.414
  N  N421  1  0.245700  0.601800  0.219400  1.0  -0.2488
  N  N422  1  0.305000  0.696400  0.753800  1.0  -0.4148
  N  N423  1  0.539800  0.186800  0.194200  1.0  -0.3038
  N  N424  1  0.007400  0.539800  0.194200  1.0  -0.297
  N  N425  1  0.617600  0.245700  0.219400  1.0  -0.2624
  N  N426  1  0.751500  0.986200  0.362200  1.0  -0.3747
  N  N427  1  0.303600  0.551200  0.246200  1.0  -0.4115
  N  N428  1  0.610700  0.376000  0.362200  1.0  -0.3696
  N  N429  1  0.591300  0.396700  0.663800  1.0  -0.2761
  N  N430  1  0.754300  0.398200  0.780600  1.0  -0.2499
  N  N431  1  0.576100  0.284500  0.281600  1.0  -0.3363
  N  N432  1  0.093500  0.227700  0.723400  1.0  -0.4223
  N  N433  1  0.026300  0.382400  0.780600  1.0  -0.2636
  N  N434  1  0.654900  0.344300  0.305800  1.0  -0.2906
  N  N435  1  0.992600  0.460200  0.805800  1.0  -0.2921
  N  N436  1  0.344300  0.650900  0.305800  1.0  -0.2906
  N  N437  1  0.370100  0.504300  0.276600  1.0  -0.421
  N  N438  1  0.997100  0.576100  0.281600  1.0  -0.338
  N  N439  1  0.248500  0.013800  0.637800  1.0  -0.3707
  N  N440  1  0.345100  0.655700  0.694200  1.0  -0.2907
  O  O441  1  0.950590  0.624950  0.593460  1.0  -0.5646
  O  O442  1  0.049410  0.375050  0.406540  1.0  -0.5645
  O  O443  1  0.357130  0.031490  0.406540  1.0  -0.567
  O  O444  1  0.942760  0.671700  0.933600  1.0  -0.6048
  O  O445  1  0.285700  0.292230  0.326600  1.0  -0.573
  O  O446  1  0.924770  0.594570  0.934940  1.0  -0.5576
  O  O447  1  0.375050  0.357130  0.406540  1.0  -0.5646
  O  O448  1  0.804140  0.115250  0.766500  1.0  -0.5712
  O  O449  1  0.651250  0.804140  0.766500  1.0  -0.5707
  O  O450  1  0.130070  0.425860  0.402780  1.0  -0.5876
  O  O451  1  0.041240  0.434850  0.307180  1.0  -0.5472
  O  O452  1  0.036010  0.616610  0.685620  1.0  -0.5409
  O  O453  1  0.120550  0.337340  0.329480  1.0  -0.5927
  O  O454  1  0.738100  0.057240  0.066400  1.0  -0.6033
  O  O455  1  0.340370  0.924770  0.934940  1.0  -0.5557
  O  O456  1  0.734060  0.127670  0.692820  1.0  -0.5459
  O  O457  1  0.348750  0.195860  0.233500  1.0  -0.5714
  O  O458  1  0.990840  0.261900  0.933600  1.0  -0.6006
  O  O459  1  0.169340  0.381830  0.069460  1.0  -0.5882
  O  O460  1  0.099880  0.312370  0.930540  1.0  -0.5881
  O  O461  1  0.930990  0.963990  0.314380  1.0  -0.544
  O  O462  1  0.312370  0.830660  0.930540  1.0  -0.5864
  O  O463  1  0.010170  0.340370  0.934940  1.0  -0.5575
  O  O464  1  0.115250  0.962360  0.766500  1.0  -0.5698
  O  O465  1  0.009160  0.738100  0.066400  1.0  -0.6021
  O  O466  1  0.687630  0.169340  0.069460  1.0  -0.5862
  O  O467  1  0.237510  0.848010  0.932620  1.0  -0.5835
  O  O468  1  0.594570  0.010170  0.934940  1.0  -0.5578
  O  O469  1  0.963990  0.383390  0.314380  1.0  -0.5428
  O  O470  1  0.968510  0.950590  0.593460  1.0  -0.5671
  O  O471  1  0.992140  0.120550  0.329480  1.0  -0.5929
  O  O472  1  0.848010  0.695110  0.932620  1.0  -0.5859
  O  O473  1  0.381830  0.900120  0.069460  1.0  -0.587
  O  O474  1  0.023080  0.869930  0.597220  1.0  -0.5879
  O  O475  1  0.952510  0.298210  0.234220  1.0  -0.5974
  O  O476  1  0.989830  0.659630  0.065060  1.0  -0.5568
  O  O477  1  0.272710  0.976920  0.402780  1.0  -0.5875
  O  O478  1  0.915390  0.762490  0.067380  1.0  -0.5859
  O  O479  1  0.565150  0.734060  0.692820  1.0  -0.5483
  O  O480  1  0.075230  0.405430  0.065060  1.0  -0.558
  O  O481  1  0.434850  0.265940  0.307180  1.0  -0.5493
  O  O482  1  0.872330  0.041240  0.307180  1.0  -0.5469
  O  O483  1  0.069010  0.036010  0.685620  1.0  -0.5437
  O  O484  1  0.618170  0.099880  0.930540  1.0  -0.5865
  O  O485  1  0.936010  0.952510  0.234220  1.0  -0.597
  O  O486  1  0.884750  0.037640  0.233500  1.0  -0.5696
  O  O487  1  0.261900  0.942760  0.933600  1.0  -0.6039
  O  O488  1  0.900120  0.687630  0.069460  1.0  -0.5863
  O  O489  1  0.649610  0.069010  0.685620  1.0  -0.5439
  O  O490  1  0.007860  0.879450  0.670520  1.0  -0.5935
  O  O491  1  0.151990  0.304890  0.067380  1.0  -0.5852
  O  O492  1  0.671700  0.990840  0.933600  1.0  -0.6062
  O  O493  1  0.574140  0.727290  0.597220  1.0  -0.5902
  O  O494  1  0.962360  0.651250  0.766500  1.0  -0.5693
  O  O495  1  0.958760  0.565150  0.692820  1.0  -0.5476
  O  O496  1  0.727290  0.023080  0.597220  1.0  -0.5875
  O  O497  1  0.659630  0.075230  0.065060  1.0  -0.5563
  O  O498  1  0.127670  0.958760  0.692820  1.0  -0.5464
  O  O499  1  0.040900  0.034370  0.326600  1.0  -0.5739
  O  O500  1  0.791070  0.007860  0.670520  1.0  -0.5928
  O  O501  1  0.328300  0.009160  0.066400  1.0  -0.6075
  O  O502  1  0.304890  0.915390  0.067380  1.0  -0.587
  O  O503  1  0.037640  0.348750  0.233500  1.0  -0.57
  O  O504  1  0.031490  0.049410  0.406540  1.0  -0.5649
  O  O505  1  0.830660  0.618170  0.930540  1.0  -0.5875
  O  O506  1  0.762490  0.151990  0.067380  1.0  -0.5844
  O  O507  1  0.959100  0.965630  0.673400  1.0  -0.575
  O  O508  1  0.195860  0.884750  0.233500  1.0  -0.5713
  O  O509  1  0.701790  0.718290  0.765780  1.0  -0.5949
  O  O510  1  0.714300  0.707770  0.673400  1.0  -0.5746
  O  O511  1  0.976920  0.130070  0.402780  1.0  -0.5871
  O  O512  1  0.662660  0.791070  0.670520  1.0  -0.594
  O  O513  1  0.695110  0.084610  0.932620  1.0  -0.587
  O  O514  1  0.869930  0.574140  0.597220  1.0  -0.5884
  O  O515  1  0.965630  0.714300  0.673400  1.0  -0.5744
  O  O516  1  0.624950  0.642870  0.593460  1.0  -0.563
  O  O517  1  0.707770  0.959100  0.673400  1.0  -0.5742
  O  O518  1  0.208930  0.992140  0.329480  1.0  -0.5918
  O  O519  1  0.383390  0.350390  0.314380  1.0  -0.5446
  O  O520  1  0.281710  0.936010  0.234220  1.0  -0.5977
  O  O521  1  0.084610  0.237510  0.932620  1.0  -0.5848
  O  O522  1  0.063990  0.047490  0.765780  1.0  -0.5964
  O  O523  1  0.642870  0.968510  0.593460  1.0  -0.5669
  O  O524  1  0.298210  0.281710  0.234220  1.0  -0.5976
  O  O525  1  0.405430  0.989830  0.065060  1.0  -0.5581
  O  O526  1  0.879450  0.662660  0.670520  1.0  -0.5928
  O  O527  1  0.047490  0.701790  0.765780  1.0  -0.5965
  O  O528  1  0.350390  0.930990  0.314380  1.0  -0.5445
  O  O529  1  0.265940  0.872330  0.307180  1.0  -0.5469
  O  O530  1  0.057240  0.328300  0.066400  1.0  -0.6052
  O  O531  1  0.034370  0.285700  0.326600  1.0  -0.575
  O  O532  1  0.292230  0.040900  0.326600  1.0  -0.5723
  O  O533  1  0.718290  0.063990  0.765780  1.0  -0.5955
  O  O534  1  0.616610  0.649610  0.685620  1.0  -0.544
  O  O535  1  0.425860  0.272710  0.402780  1.0  -0.5891
  O  O536  1  0.337340  0.208930  0.329480  1.0  -0.5934
