# generated using pymatgen
data_KHoC8(NO4)2
_symmetry_space_group_name_H-M   'P 1'
_cell_length_a   14.39500000
_cell_length_b   15.20300000
_cell_length_c   33.37100000
_cell_angle_alpha   90.00000000
_cell_angle_beta   90.00000000
_cell_angle_gamma   90.00000000
_symmetry_Int_Tables_number   1
_chemical_formula_structural   KHoC8(NO4)2
_chemical_formula_sum   'K20 Ho20 C160 N40 O160'
_cell_volume   7303.14941064
_cell_formula_units_Z   20
loop_
 _symmetry_equiv_pos_site_id
 _symmetry_equiv_pos_as_xyz
  1  'x, y, z'
loop_
 _atom_site_type_symbol
 _atom_site_label
 _atom_site_symmetry_multiplicity
 _atom_site_fract_x
 _atom_site_fract_y
 _atom_site_fract_z
 _atom_site_occupancy
 _atom_site_charge
  K  K1  1  0.685970  0.284110  0.045920  1.0  0.9298
  K  K2  1  0.685970  0.284110  0.454080  1.0  0.9298
  K  K3  1  0.185970  0.215890  0.954080  1.0  0.9299
  K  K4  1  0.190680  0.232970  0.143050  1.0  0.9286
  K  K5  1  0.809320  0.767030  0.856950  1.0  0.9285
  K  K6  1  0.185970  0.215890  0.545920  1.0  0.9298
  K  K7  1  0.185310  0.242500  0.750000  1.0  0.931
  K  K8  1  0.690680  0.267030  0.643050  1.0  0.9287
  K  K9  1  0.814030  0.784110  0.045920  1.0  0.9294
  K  K10  1  0.685310  0.257500  0.250000  1.0  0.9303
  K  K11  1  0.309320  0.732970  0.143050  1.0  0.9278
  K  K12  1  0.809320  0.767030  0.643050  1.0  0.9284
  K  K13  1  0.814690  0.757500  0.250000  1.0  0.9295
  K  K14  1  0.314690  0.742500  0.750000  1.0  0.9295
  K  K15  1  0.314030  0.715890  0.954080  1.0  0.9296
  K  K16  1  0.314030  0.715890  0.545920  1.0  0.9296
  K  K17  1  0.190680  0.232970  0.356950  1.0  0.9284
  K  K18  1  0.814030  0.784110  0.454080  1.0  0.9294
  K  K19  1  0.690680  0.267030  0.856950  1.0  0.9286
  K  K20  1  0.309320  0.732970  0.356950  1.0  0.9283
  Ho  Ho21  1  0.870440  0.303950  0.150800  1.0  2.1519
  Ho  Ho22  1  0.370440  0.196050  0.849200  1.0  2.1511
  Ho  Ho23  1  0.112400  0.702010  0.051050  1.0  2.1598
  Ho  Ho24  1  0.887600  0.297990  0.551050  1.0  2.1616
  Ho  Ho25  1  0.640090  0.820880  0.750000  1.0  2.1209
  Ho  Ho26  1  0.870440  0.303950  0.349200  1.0  2.1521
  Ho  Ho27  1  0.140090  0.679120  0.250000  1.0  2.1219
  Ho  Ho28  1  0.859910  0.320880  0.750000  1.0  2.1217
  Ho  Ho29  1  0.370440  0.196050  0.650800  1.0  2.1509
  Ho  Ho30  1  0.612400  0.797990  0.948950  1.0  2.1611
  Ho  Ho31  1  0.629560  0.803950  0.150800  1.0  2.1513
  Ho  Ho32  1  0.612400  0.797990  0.551050  1.0  2.1613
  Ho  Ho33  1  0.629560  0.803950  0.349200  1.0  2.1515
  Ho  Ho34  1  0.129560  0.696050  0.849200  1.0  2.1501
  Ho  Ho35  1  0.359910  0.179120  0.250000  1.0  2.1229
  Ho  Ho36  1  0.887600  0.297990  0.948950  1.0  2.1614
  Ho  Ho37  1  0.387600  0.202010  0.051050  1.0  2.1602
  Ho  Ho38  1  0.112400  0.702010  0.448950  1.0  2.1595
  Ho  Ho39  1  0.387600  0.202010  0.448950  1.0  2.16
  Ho  Ho40  1  0.129560  0.696050  0.650800  1.0  2.1498
  C  C41  1  0.837500  0.541500  0.750000  1.0  0.055
  C  C42  1  0.171500  0.486700  0.449220  1.0  0.0933
  C  C43  1  0.008200  0.507600  0.649800  1.0  0.039
  C  C44  1  0.016600  0.591100  0.750000  1.0  0.1516
  C  C45  1  0.138100  0.372100  0.250000  1.0  0.1281
  C  C46  1  0.279100  0.818000  0.646840  1.0  0.6934
  C  C47  1  0.002900  0.411000  0.049760  1.0  0.0849
  C  C48  1  0.489000  0.081900  0.350640  1.0  0.0657
  C  C49  1  0.992900  0.501900  0.750000  1.0  0.0553
  C  C50  1  0.384100  0.124100  0.750000  1.0  0.7028
  C  C51  1  0.107700  0.623200  0.150290  1.0  0.6993
  C  C52  1  0.932400  0.567800  0.048130  1.0  0.6006
  C  C53  1  0.563200  0.081700  0.850420  1.0  0.6142
  C  C54  1  0.146000  0.389200  0.647260  1.0  0.1463
  C  C55  1  0.662600  0.103800  0.949330  1.0  0.1194
  C  C56  1  0.162600  0.396200  0.050670  1.0  0.12
  C  C57  1  0.737800  0.462300  0.950400  1.0  0.623
  C  C58  1  0.162600  0.396200  0.449330  1.0  0.12
  C  C59  1  0.567600  0.067800  0.048130  1.0  0.6003
  C  C60  1  0.936800  0.581700  0.850420  1.0  0.6143
  C  C61  1  0.059900  0.423900  0.750000  1.0  0.6074
  C  C62  1  0.292600  0.796600  0.250000  1.0  0.692
  C  C63  1  0.335400  0.978600  0.647510  1.0  0.1092
  C  C64  1  0.983400  0.408900  0.250000  1.0  0.1503
  C  C65  1  0.262200  0.537700  0.450400  1.0  0.631
  C  C66  1  0.508200  0.992400  0.350200  1.0  0.0391
  C  C67  1  0.242500  0.331800  0.050100  1.0  0.6711
  C  C68  1  0.837400  0.603800  0.949330  1.0  0.1189
  C  C69  1  0.779100  0.682000  0.146840  1.0  0.6886
  C  C70  1  0.792600  0.703400  0.750000  1.0  0.6908
  C  C71  1  0.828500  0.513300  0.550780  1.0  0.0914
  C  C72  1  0.238900  0.019900  0.644860  1.0  0.6124
  C  C73  1  0.440100  0.923900  0.750000  1.0  0.6059
  C  C74  1  0.511600  0.998200  0.549290  1.0  0.0709
  C  C75  1  0.742500  0.168200  0.949900  1.0  0.6698
  C  C76  1  0.008200  0.507600  0.850200  1.0  0.0393
  C  C77  1  0.638100  0.127900  0.750000  1.0  0.1272
  C  C78  1  0.328500  0.986700  0.449220  1.0  0.0906
  C  C79  1  0.410700  0.138700  0.950440  1.0  0.7119
  C  C80  1  0.761100  0.980100  0.355140  1.0  0.6116
  C  C81  1  0.828500  0.513300  0.949220  1.0  0.0914
  C  C82  1  0.361900  0.872100  0.250000  1.0  0.1265
  C  C83  1  0.239100  0.996300  0.250000  1.0  0.6272
  C  C84  1  0.739100  0.503700  0.750000  1.0  0.626
  C  C85  1  0.260900  0.496300  0.250000  1.0  0.6268
  C  C86  1  0.559900  0.076100  0.250000  1.0  0.6062
  C  C87  1  0.671500  0.013300  0.949220  1.0  0.0939
  C  C88  1  0.932400  0.567800  0.451870  1.0  0.6008
  C  C89  1  0.516600  0.908900  0.250000  1.0  0.1509
  C  C90  1  0.067600  0.432200  0.951870  1.0  0.6008
  C  C91  1  0.261100  0.519900  0.644860  1.0  0.6135
  C  C92  1  0.720900  0.182000  0.353160  1.0  0.6951
  C  C93  1  0.910700  0.361300  0.450440  1.0  0.7125
  C  C94  1  0.489000  0.081900  0.149360  1.0  0.0657
  C  C95  1  0.563200  0.081700  0.649580  1.0  0.6143
  C  C96  1  0.589300  0.861300  0.450440  1.0  0.7115
  C  C97  1  0.664600  0.021400  0.147510  1.0  0.112
  C  C98  1  0.011600  0.501800  0.049290  1.0  0.0711
  C  C99  1  0.662500  0.041500  0.750000  1.0  0.0562
  C  C100  1  0.002900  0.411000  0.450240  1.0  0.0849
  C  C101  1  0.615900  0.875900  0.250000  1.0  0.6998
  C  C102  1  0.488400  0.001800  0.450710  1.0  0.0688
  C  C103  1  0.497100  0.911000  0.450240  1.0  0.0843
  C  C104  1  0.089300  0.638700  0.549560  1.0  0.7106
  C  C105  1  0.242500  0.331800  0.449900  1.0  0.671
  C  C106  1  0.762200  0.962300  0.549600  1.0  0.6263
  C  C107  1  0.854000  0.610800  0.352740  1.0  0.1476
  C  C108  1  0.007100  0.498100  0.250000  1.0  0.0537
  C  C109  1  0.237800  0.037700  0.450400  1.0  0.6262
  C  C110  1  0.936800  0.581700  0.649580  1.0  0.6145
  C  C111  1  0.989000  0.418100  0.649360  1.0  0.0652
  C  C112  1  0.861900  0.627900  0.750000  1.0  0.126
  C  C113  1  0.220900  0.318000  0.646840  1.0  0.6953
  C  C114  1  0.854000  0.610800  0.147260  1.0  0.1476
  C  C115  1  0.237800  0.037700  0.049600  1.0  0.6268
  C  C116  1  0.146000  0.389200  0.852740  1.0  0.1463
  C  C117  1  0.910700  0.361300  0.049560  1.0  0.7124
  C  C118  1  0.761100  0.980100  0.144860  1.0  0.6117
  C  C119  1  0.162500  0.458500  0.250000  1.0  0.0559
  C  C120  1  0.220900  0.318000  0.853160  1.0  0.6954
  C  C121  1  0.261100  0.519900  0.855140  1.0  0.6134
  C  C122  1  0.328500  0.986700  0.050780  1.0  0.0906
  C  C123  1  0.607700  0.876800  0.849710  1.0  0.6994
  C  C124  1  0.107700  0.623200  0.349710  1.0  0.6994
  C  C125  1  0.720900  0.182000  0.146840  1.0  0.695
  C  C126  1  0.164600  0.478600  0.647510  1.0  0.1113
  C  C127  1  0.492900  0.998100  0.250000  1.0  0.0548
  C  C128  1  0.779100  0.682000  0.353160  1.0  0.6879
  C  C129  1  0.757500  0.668200  0.949900  1.0  0.6697
  C  C130  1  0.991800  0.492400  0.149800  1.0  0.0389
  C  C131  1  0.432400  0.932200  0.548130  1.0  0.6006
  C  C132  1  0.511000  0.918100  0.649360  1.0  0.0662
  C  C133  1  0.997100  0.589000  0.549760  1.0  0.0854
  C  C134  1  0.892300  0.376800  0.849710  1.0  0.6997
  C  C135  1  0.257500  0.831800  0.449900  1.0  0.6703
  C  C136  1  0.171500  0.486700  0.050780  1.0  0.0934
  C  C137  1  0.892300  0.376800  0.650290  1.0  0.6997
  C  C138  1  0.491800  0.007600  0.649800  1.0  0.0388
  C  C139  1  0.497100  0.911000  0.049760  1.0  0.0843
  C  C140  1  0.063200  0.418300  0.350420  1.0  0.6138
  C  C141  1  0.502900  0.089000  0.950240  1.0  0.0862
  C  C142  1  0.646000  0.110800  0.147260  1.0  0.1459
  C  C143  1  0.738900  0.480100  0.355140  1.0  0.6096
  C  C144  1  0.671500  0.013300  0.550780  1.0  0.094
  C  C145  1  0.392300  0.123200  0.150290  1.0  0.7002
  C  C146  1  0.436800  0.918300  0.350420  1.0  0.6145
  C  C147  1  0.410700  0.138700  0.549560  1.0  0.7119
  C  C148  1  0.011600  0.501800  0.450710  1.0  0.0712
  C  C149  1  0.491800  0.007600  0.850200  1.0  0.0389
  C  C150  1  0.354000  0.889200  0.647260  1.0  0.1467
  C  C151  1  0.511000  0.918100  0.850640  1.0  0.0662
  C  C152  1  0.279100  0.818000  0.853160  1.0  0.6936
  C  C153  1  0.257500  0.831800  0.050100  1.0  0.6703
  C  C154  1  0.607700  0.876800  0.650290  1.0  0.6994
  C  C155  1  0.432400  0.932200  0.951870  1.0  0.6007
  C  C156  1  0.337400  0.896200  0.449330  1.0  0.119
  C  C157  1  0.207400  0.296600  0.250000  1.0  0.6928
  C  C158  1  0.884100  0.375900  0.250000  1.0  0.7025
  C  C159  1  0.997100  0.589000  0.950240  1.0  0.0854
  C  C160  1  0.737800  0.462300  0.549600  1.0  0.6233
  C  C161  1  0.508200  0.992400  0.149800  1.0  0.0388
  C  C162  1  0.067600  0.432200  0.548130  1.0  0.6006
  C  C163  1  0.507100  0.001900  0.750000  1.0  0.0556
  C  C164  1  0.483400  0.091100  0.750000  1.0  0.151
  C  C165  1  0.436800  0.918300  0.149580  1.0  0.6143
  C  C166  1  0.738900  0.480100  0.144860  1.0  0.6097
  C  C167  1  0.011000  0.581900  0.350640  1.0  0.0658
  C  C168  1  0.989000  0.418100  0.850640  1.0  0.0652
  C  C169  1  0.089300  0.638700  0.950440  1.0  0.7107
  C  C170  1  0.262200  0.537700  0.049600  1.0  0.6309
  C  C171  1  0.063200  0.418300  0.149580  1.0  0.614
  C  C172  1  0.392300  0.123200  0.349710  1.0  0.7002
  C  C173  1  0.567600  0.067800  0.451870  1.0  0.6005
  C  C174  1  0.164600  0.478600  0.852490  1.0  0.1105
  C  C175  1  0.837400  0.603800  0.550670  1.0  0.1188
  C  C176  1  0.662600  0.103800  0.550670  1.0  0.1194
  C  C177  1  0.664600  0.021400  0.352490  1.0  0.1118
  C  C178  1  0.707400  0.203400  0.750000  1.0  0.693
  C  C179  1  0.354000  0.889200  0.852740  1.0  0.1467
  C  C180  1  0.835400  0.521400  0.352490  1.0  0.1093
  C  C181  1  0.502900  0.089000  0.549760  1.0  0.0863
  C  C182  1  0.991800  0.492400  0.350200  1.0  0.0388
  C  C183  1  0.742500  0.168200  0.550100  1.0  0.67
  C  C184  1  0.337400  0.896200  0.050670  1.0  0.119
  C  C185  1  0.988400  0.498200  0.950710  1.0  0.0688
  C  C186  1  0.115900  0.624100  0.750000  1.0  0.6993
  C  C187  1  0.646000  0.110800  0.352740  1.0  0.1461
  C  C188  1  0.335400  0.978600  0.852490  1.0  0.1059
  C  C189  1  0.760900  0.003700  0.750000  1.0  0.6265
  C  C190  1  0.988400  0.498200  0.549290  1.0  0.0687
  C  C191  1  0.011000  0.581900  0.149360  1.0  0.0658
  C  C192  1  0.940100  0.576100  0.250000  1.0  0.6045
  C  C193  1  0.511600  0.998200  0.950710  1.0  0.071
  C  C194  1  0.757500  0.668200  0.550100  1.0  0.6692
  C  C195  1  0.835400  0.521400  0.147510  1.0  0.1095
  C  C196  1  0.238900  0.019900  0.855140  1.0  0.6123
  C  C197  1  0.488400  0.001800  0.049290  1.0  0.0686
  C  C198  1  0.337500  0.958500  0.250000  1.0  0.0545
  C  C199  1  0.589300  0.861300  0.049560  1.0  0.7115
  C  C200  1  0.762200  0.962300  0.950400  1.0  0.6261
  N  N201  1  0.058200  0.358300  0.647810  1.0  -0.4013
  N  N202  1  0.596000  0.961400  0.949760  1.0  -0.409
  N  N203  1  0.058200  0.358300  0.852190  1.0  -0.4009
  N  N204  1  0.941800  0.641700  0.352190  1.0  -0.4038
  N  N205  1  0.096400  0.536300  0.851370  1.0  -0.3756
  N  N206  1  0.558200  0.141700  0.352190  1.0  -0.4043
  N  N207  1  0.596400  0.963700  0.148630  1.0  -0.3743
  N  N208  1  0.047900  0.346500  0.250000  1.0  -0.3872
  N  N209  1  0.078400  0.358600  0.050210  1.0  -0.4178
  N  N210  1  0.941800  0.641700  0.147810  1.0  -0.4043
  N  N211  1  0.578400  0.141400  0.550210  1.0  -0.4209
  N  N212  1  0.578400  0.141400  0.949790  1.0  -0.4218
  N  N213  1  0.404000  0.038600  0.050240  1.0  -0.411
  N  N214  1  0.096000  0.538600  0.050240  1.0  -0.4106
  N  N215  1  0.921600  0.641400  0.550210  1.0  -0.4217
  N  N216  1  0.921600  0.641400  0.949790  1.0  -0.4219
  N  N217  1  0.441800  0.858300  0.647810  1.0  -0.3995
  N  N218  1  0.952100  0.653500  0.750000  1.0  -0.3922
  N  N219  1  0.596200  0.978000  0.750000  1.0  -0.3931
  N  N220  1  0.904000  0.461400  0.949760  1.0  -0.4095
  N  N221  1  0.441800  0.858300  0.852190  1.0  -0.399
  N  N222  1  0.403600  0.036300  0.851370  1.0  -0.3757
  N  N223  1  0.903800  0.478000  0.750000  1.0  -0.393
  N  N224  1  0.421600  0.858600  0.449790  1.0  -0.4159
  N  N225  1  0.403600  0.036300  0.648630  1.0  -0.376
  N  N226  1  0.096400  0.536300  0.648630  1.0  -0.3759
  N  N227  1  0.904000  0.461400  0.550240  1.0  -0.4096
  N  N228  1  0.547900  0.153500  0.750000  1.0  -0.3909
  N  N229  1  0.078400  0.358600  0.449790  1.0  -0.416
  N  N230  1  0.421600  0.858600  0.050210  1.0  -0.416
  N  N231  1  0.596400  0.963700  0.351370  1.0  -0.3739
  N  N232  1  0.096200  0.522000  0.250000  1.0  -0.3929
  N  N233  1  0.558200  0.141700  0.147810  1.0  -0.4054
  N  N234  1  0.452100  0.846500  0.250000  1.0  -0.3885
  N  N235  1  0.403800  0.022000  0.250000  1.0  -0.3927
  N  N236  1  0.903600  0.463700  0.351370  1.0  -0.3744
  N  N237  1  0.404000  0.038600  0.449760  1.0  -0.411
  N  N238  1  0.903600  0.463700  0.148630  1.0  -0.3748
  N  N239  1  0.096000  0.538600  0.449760  1.0  -0.4105
  N  N240  1  0.596000  0.961400  0.550240  1.0  -0.409
  O  O241  1  0.121600  0.659000  0.516170  1.0  -0.7574
  O  O242  1  0.257900  0.783500  0.614450  1.0  -0.692
  O  O243  1  0.755100  0.205600  0.320520  1.0  -0.6797
  O  O244  1  0.521300  0.151000  0.250000  1.0  -0.7482
  O  O245  1  0.147500  0.461100  0.952700  1.0  -0.5222
  O  O246  1  0.761300  0.896800  0.355460  1.0  -0.6638
  O  O247  1  0.347300  0.140800  0.783330  1.0  -0.7377
  O  O248  1  0.170200  0.971500  0.642900  1.0  -0.4502
  O  O249  1  0.122700  0.658700  0.582670  1.0  -0.7292
  O  O250  1  0.152700  0.640800  0.716670  1.0  -0.7368
  O  O251  1  0.670200  0.528500  0.357100  1.0  -0.4502
  O  O252  1  0.363200  0.151100  0.382730  1.0  -0.7339
  O  O253  1  0.378400  0.159000  0.516170  1.0  -0.7579
  O  O254  1  0.215800  0.813100  0.417980  1.0  -0.7035
  O  O255  1  0.021300  0.349000  0.750000  1.0  -0.748
  O  O256  1  0.715800  0.686900  0.917980  1.0  -0.7033
  O  O257  1  0.738700  0.396800  0.144540  1.0  -0.6625
  O  O258  1  0.242100  0.283500  0.614450  1.0  -0.6963
  O  O259  1  0.852500  0.538900  0.452700  1.0  -0.5207
  O  O260  1  0.652700  0.859200  0.283330  1.0  -0.7386
  O  O261  1  0.241200  0.793500  0.482000  1.0  -0.6972
  O  O262  1  0.284200  0.313100  0.082020  1.0  -0.7064
  O  O263  1  0.148700  0.626300  0.317140  1.0  -0.6759
  O  O264  1  0.457900  0.851900  0.951720  1.0  -0.746
  O  O265  1  0.622700  0.841300  0.417330  1.0  -0.7292
  O  O266  1  0.042100  0.351900  0.951720  1.0  -0.7453
  O  O267  1  0.621600  0.841000  0.016170  1.0  -0.7566
  O  O268  1  0.266300  0.767000  0.282560  1.0  -0.676
  O  O269  1  0.232800  0.078800  0.250000  1.0  -0.6486
  O  O270  1  0.829800  0.028500  0.142900  1.0  -0.4511
  O  O271  1  0.664800  0.504400  0.548700  1.0  -0.4818
  O  O272  1  0.244900  0.794400  0.820520  1.0  -0.6801
  O  O273  1  0.170200  0.971500  0.857100  1.0  -0.4506
  O  O274  1  0.733700  0.233000  0.782560  1.0  -0.6843
  O  O275  1  0.352500  0.961100  0.547300  1.0  -0.5209
  O  O276  1  0.856700  0.559500  0.250000  1.0  -0.5681
  O  O277  1  0.733700  0.233000  0.717440  1.0  -0.6839
  O  O278  1  0.652700  0.859200  0.216670  1.0  -0.7382
  O  O279  1  0.784200  0.186900  0.917980  1.0  -0.7045
  O  O280  1  0.766300  0.733000  0.717440  1.0  -0.6842
  O  O281  1  0.242100  0.283500  0.885550  1.0  -0.6941
  O  O282  1  0.136800  0.651100  0.382730  1.0  -0.7336
  O  O283  1  0.636800  0.848900  0.882730  1.0  -0.7299
  O  O284  1  0.854000  0.562400  0.852660  1.0  -0.5212
  O  O285  1  0.854000  0.562400  0.647340  1.0  -0.521
  O  O286  1  0.622700  0.841300  0.082670  1.0  -0.7296
  O  O287  1  0.732800  0.421200  0.750000  1.0  -0.6475
  O  O288  1  0.851300  0.373700  0.682860  1.0  -0.6761
  O  O289  1  0.863200  0.348900  0.882730  1.0  -0.7302
  O  O290  1  0.284200  0.313100  0.417980  1.0  -0.7044
  O  O291  1  0.352500  0.961100  0.952700  1.0  -0.5212
  O  O292  1  0.971400  0.658300  0.849470  1.0  -0.772
  O  O293  1  0.648700  0.873700  0.817140  1.0  -0.6758
  O  O294  1  0.766300  0.733000  0.782560  1.0  -0.6858
  O  O295  1  0.238700  0.103200  0.855460  1.0  -0.6672
  O  O296  1  0.245300  0.120300  0.049710  1.0  -0.6887
  O  O297  1  0.528600  0.158300  0.650530  1.0  -0.7705
  O  O298  1  0.835200  0.004400  0.951300  1.0  -0.4834
  O  O299  1  0.744900  0.705600  0.320520  1.0  -0.6797
  O  O300  1  0.457900  0.851900  0.548280  1.0  -0.7463
  O  O301  1  0.347300  0.140800  0.716670  1.0  -0.7375
  O  O302  1  0.957900  0.648100  0.451720  1.0  -0.7536
  O  O303  1  0.715800  0.686900  0.582020  1.0  -0.7057
  O  O304  1  0.877300  0.341300  0.417330  1.0  -0.7312
  O  O305  1  0.757900  0.716500  0.385550  1.0  -0.6947
  O  O306  1  0.148700  0.626300  0.182860  1.0  -0.6771
  O  O307  1  0.042100  0.351900  0.548280  1.0  -0.7456
  O  O308  1  0.741200  0.706500  0.518000  1.0  -0.698
  O  O309  1  0.741200  0.706500  0.982000  1.0  -0.6986
  O  O310  1  0.147500  0.461100  0.547300  1.0  -0.5219
  O  O311  1  0.146000  0.437600  0.352660  1.0  -0.519
  O  O312  1  0.744900  0.705600  0.179480  1.0  -0.6807
  O  O313  1  0.471400  0.841700  0.150530  1.0  -0.7684
  O  O314  1  0.648700  0.873700  0.682860  1.0  -0.6766
  O  O315  1  0.152700  0.640800  0.783330  1.0  -0.738
  O  O316  1  0.742100  0.216500  0.114450  1.0  -0.6954
  O  O317  1  0.847300  0.359200  0.283330  1.0  -0.7375
  O  O318  1  0.758800  0.206500  0.518000  1.0  -0.6971
  O  O319  1  0.255100  0.294400  0.820520  1.0  -0.6802
  O  O320  1  0.238700  0.103200  0.644540  1.0  -0.6673
  O  O321  1  0.255100  0.294400  0.679480  1.0  -0.68
  O  O322  1  0.335200  0.495600  0.048700  1.0  -0.4823
  O  O323  1  0.784200  0.186900  0.582020  1.0  -0.7064
  O  O324  1  0.245300  0.120300  0.450290  1.0  -0.6884
  O  O325  1  0.647500  0.038900  0.452700  1.0  -0.522
  O  O326  1  0.028600  0.341700  0.150530  1.0  -0.767
  O  O327  1  0.754700  0.879700  0.950290  1.0  -0.6866
  O  O328  1  0.847300  0.359200  0.216670  1.0  -0.738
  O  O329  1  0.257900  0.783500  0.885550  1.0  -0.6914
  O  O330  1  0.878400  0.341000  0.483830  1.0  -0.7574
  O  O331  1  0.742100  0.216500  0.385550  1.0  -0.6962
  O  O332  1  0.878400  0.341000  0.016170  1.0  -0.757
  O  O333  1  0.329800  0.471500  0.642900  1.0  -0.4507
  O  O334  1  0.122700  0.658700  0.917330  1.0  -0.729
  O  O335  1  0.354000  0.937600  0.352660  1.0  -0.5207
  O  O336  1  0.757900  0.716500  0.114450  1.0  -0.692
  O  O337  1  0.136800  0.651100  0.117270  1.0  -0.7326
  O  O338  1  0.664800  0.504400  0.951300  1.0  -0.4823
  O  O339  1  0.767200  0.921200  0.750000  1.0  -0.6501
  O  O340  1  0.258800  0.293500  0.482000  1.0  -0.6972
  O  O341  1  0.646000  0.062400  0.647340  1.0  -0.5181
  O  O342  1  0.851300  0.373700  0.817140  1.0  -0.6758
  O  O343  1  0.028600  0.341700  0.349470  1.0  -0.7676
  O  O344  1  0.363200  0.151100  0.117270  1.0  -0.7334
  O  O345  1  0.877300  0.341300  0.082670  1.0  -0.731
  O  O346  1  0.233700  0.267000  0.217440  1.0  -0.6837
  O  O347  1  0.978700  0.651000  0.250000  1.0  -0.7483
  O  O348  1  0.852500  0.538900  0.047300  1.0  -0.5203
  O  O349  1  0.377300  0.158700  0.582670  1.0  -0.731
  O  O350  1  0.335200  0.495600  0.451300  1.0  -0.4828
  O  O351  1  0.478700  0.849000  0.750000  1.0  -0.7502
  O  O352  1  0.647500  0.038900  0.047300  1.0  -0.5218
  O  O353  1  0.241200  0.793500  0.018000  1.0  -0.697
  O  O354  1  0.173700  0.942300  0.250000  1.0  -0.4854
  O  O355  1  0.164800  0.995600  0.048700  1.0  -0.4823
  O  O356  1  0.738700  0.396800  0.355460  1.0  -0.6625
  O  O357  1  0.826300  0.057700  0.750000  1.0  -0.489
  O  O358  1  0.326300  0.442300  0.250000  1.0  -0.4885
  O  O359  1  0.957900  0.648100  0.048280  1.0  -0.7539
  O  O360  1  0.258800  0.293500  0.018000  1.0  -0.6986
  O  O361  1  0.542100  0.148100  0.451720  1.0  -0.7521
  O  O362  1  0.863200  0.348900  0.617270  1.0  -0.7304
  O  O363  1  0.261300  0.603200  0.644540  1.0  -0.6598
  O  O364  1  0.745300  0.379700  0.950290  1.0  -0.6839
  O  O365  1  0.670200  0.528500  0.142900  1.0  -0.4498
  O  O366  1  0.528600  0.158300  0.849470  1.0  -0.7705
  O  O367  1  0.121600  0.659000  0.983830  1.0  -0.7574
  O  O368  1  0.755100  0.205600  0.179480  1.0  -0.6802
  O  O369  1  0.835200  0.004400  0.548700  1.0  -0.4829
  O  O370  1  0.267200  0.578800  0.250000  1.0  -0.647
  O  O371  1  0.829800  0.028500  0.357100  1.0  -0.4513
  O  O372  1  0.329800  0.471500  0.857100  1.0  -0.4511
  O  O373  1  0.761300  0.896800  0.144540  1.0  -0.6634
  O  O374  1  0.233700  0.267000  0.282560  1.0  -0.6834
  O  O375  1  0.254700  0.620300  0.049710  1.0  -0.6831
  O  O376  1  0.351300  0.126300  0.317140  1.0  -0.6757
  O  O377  1  0.351300  0.126300  0.182860  1.0  -0.6768
  O  O378  1  0.621600  0.841000  0.483830  1.0  -0.7568
  O  O379  1  0.215800  0.813100  0.082020  1.0  -0.7056
  O  O380  1  0.542100  0.148100  0.048280  1.0  -0.7524
  O  O381  1  0.356700  0.940500  0.750000  1.0  -0.5674
  O  O382  1  0.643300  0.059500  0.250000  1.0  -0.5661
  O  O383  1  0.164800  0.995600  0.451300  1.0  -0.4827
  O  O384  1  0.261300  0.603200  0.855460  1.0  -0.6603
  O  O385  1  0.754700  0.879700  0.549710  1.0  -0.6871
  O  O386  1  0.758800  0.206500  0.982000  1.0  -0.6975
  O  O387  1  0.646000  0.062400  0.852660  1.0  -0.5184
  O  O388  1  0.636800  0.848900  0.617270  1.0  -0.7299
  O  O389  1  0.354000  0.937600  0.147340  1.0  -0.5206
  O  O390  1  0.377300  0.158700  0.917330  1.0  -0.731
  O  O391  1  0.471400  0.841700  0.349470  1.0  -0.768
  O  O392  1  0.254700  0.620300  0.450290  1.0  -0.6825
  O  O393  1  0.244900  0.794400  0.679480  1.0  -0.6802
  O  O394  1  0.143300  0.440500  0.750000  1.0  -0.5686
  O  O395  1  0.266300  0.767000  0.217440  1.0  -0.6843
  O  O396  1  0.378400  0.159000  0.983830  1.0  -0.7579
  O  O397  1  0.745300  0.379700  0.549710  1.0  -0.6841
  O  O398  1  0.146000  0.437600  0.147340  1.0  -0.5187
  O  O399  1  0.971400  0.658300  0.650530  1.0  -0.7719
  O  O400  1  0.673700  0.557700  0.750000  1.0  -0.4852
