# generated using pymatgen
data_KDyC8(NO4)2
_symmetry_space_group_name_H-M   'P 1'
_cell_length_a   14.35290000
_cell_length_b   15.23390000
_cell_length_c   33.40830000
_cell_angle_alpha   90.00000000
_cell_angle_beta   90.00000000
_cell_angle_gamma   90.00000000
_symmetry_Int_Tables_number   1
_chemical_formula_structural   KDyC8(NO4)2
_chemical_formula_sum   'K20 Dy20 C160 N40 O160'
_cell_volume   7304.74628689
_cell_formula_units_Z   20
loop_
 _symmetry_equiv_pos_site_id
 _symmetry_equiv_pos_as_xyz
  1  'x, y, z'
loop_
 _atom_site_type_symbol
 _atom_site_label
 _atom_site_symmetry_multiplicity
 _atom_site_fract_x
 _atom_site_fract_y
 _atom_site_fract_z
 _atom_site_occupancy
 _atom_site_charge
  K  K1  1  0.686350  0.283230  0.453970  1.0  0.9241
  K  K2  1  0.691340  0.266250  0.643160  1.0  0.8946
  K  K3  1  0.685710  0.257000  0.250000  1.0  0.9439
  K  K4  1  0.814290  0.757000  0.250000  1.0  0.9425
  K  K5  1  0.808660  0.766250  0.643160  1.0  0.8941
  K  K6  1  0.308660  0.733750  0.356840  1.0  0.8935
  K  K7  1  0.186350  0.216770  0.953970  1.0  0.9238
  K  K8  1  0.686350  0.283230  0.046030  1.0  0.9242
  K  K9  1  0.313650  0.716770  0.953970  1.0  0.9229
  K  K10  1  0.191340  0.233750  0.356840  1.0  0.8942
  K  K11  1  0.185710  0.243000  0.750000  1.0  0.9446
  K  K12  1  0.813650  0.783230  0.046030  1.0  0.9234
  K  K13  1  0.691340  0.266250  0.856840  1.0  0.8944
  K  K14  1  0.808660  0.766250  0.856840  1.0  0.8938
  K  K15  1  0.313650  0.716770  0.546030  1.0  0.923
  K  K16  1  0.813650  0.783230  0.453970  1.0  0.9233
  K  K17  1  0.191340  0.233750  0.143160  1.0  0.8935
  K  K18  1  0.314290  0.743000  0.750000  1.0  0.9432
  K  K19  1  0.308660  0.733750  0.143160  1.0  0.893
  K  K20  1  0.186350  0.216770  0.546030  1.0  0.9238
  Dy  Dy21  1  0.887520  0.297890  0.948990  1.0  2.2489
  Dy  Dy22  1  0.887520  0.297890  0.551010  1.0  2.2488
  Dy  Dy23  1  0.140150  0.679620  0.250000  1.0  2.21
  Dy  Dy24  1  0.870580  0.303880  0.349200  1.0  2.2402
  Dy  Dy25  1  0.387520  0.202110  0.448990  1.0  2.2478
  Dy  Dy26  1  0.359850  0.179620  0.250000  1.0  2.2109
  Dy  Dy27  1  0.859850  0.320380  0.750000  1.0  2.2103
  Dy  Dy28  1  0.640150  0.820380  0.750000  1.0  2.2097
  Dy  Dy29  1  0.629420  0.803880  0.349200  1.0  2.241
  Dy  Dy30  1  0.870580  0.303880  0.150800  1.0  2.2402
  Dy  Dy31  1  0.629420  0.803880  0.150800  1.0  2.241
  Dy  Dy32  1  0.612480  0.797890  0.551010  1.0  2.2486
  Dy  Dy33  1  0.370580  0.196120  0.650800  1.0  2.2403
  Dy  Dy34  1  0.370580  0.196120  0.849200  1.0  2.2403
  Dy  Dy35  1  0.129420  0.696120  0.650800  1.0  2.2407
  Dy  Dy36  1  0.612480  0.797890  0.948990  1.0  2.2487
  Dy  Dy37  1  0.112480  0.702110  0.448990  1.0  2.2476
  Dy  Dy38  1  0.112480  0.702110  0.051010  1.0  2.2475
  Dy  Dy39  1  0.129420  0.696120  0.849200  1.0  2.2408
  Dy  Dy40  1  0.387520  0.202110  0.051010  1.0  2.2477
  C  C41  1  0.382100  0.125600  0.750000  1.0  0.7007
  C  C42  1  0.560800  0.074900  0.250000  1.0  0.6007
  C  C43  1  0.293700  0.797100  0.250000  1.0  0.6734
  C  C44  1  0.162600  0.396500  0.050900  1.0  0.116
  C  C45  1  0.939200  0.574900  0.250000  1.0  0.6004
  C  C46  1  0.720100  0.182400  0.352800  1.0  0.687
  C  C47  1  0.353200  0.888600  0.852490  1.0  0.107
  C  C48  1  0.239500  0.019400  0.855400  1.0  0.6243
  C  C49  1  0.720100  0.182400  0.147200  1.0  0.6849
  C  C50  1  0.171900  0.487700  0.449200  1.0  0.0649
  C  C51  1  0.932100  0.566800  0.047700  1.0  0.58
  C  C52  1  0.171900  0.487700  0.050800  1.0  0.0698
  C  C53  1  0.497600  0.910700  0.049900  1.0  0.0733
  C  C54  1  0.146800  0.388600  0.647510  1.0  0.1074
  C  C55  1  0.011200  0.501500  0.049100  1.0  0.0752
  C  C56  1  0.497600  0.910700  0.450100  1.0  0.0733
  C  C57  1  0.067900  0.433200  0.952300  1.0  0.5802
  C  C58  1  0.493900  0.997900  0.250000  1.0  0.102
  C  C59  1  0.511200  0.998500  0.549100  1.0  0.0751
  C  C60  1  0.509900  0.917300  0.851020  1.0  0.1568
  C  C61  1  0.106800  0.622200  0.350200  1.0  0.7096
  C  C62  1  0.779900  0.682400  0.352800  1.0  0.6857
  C  C63  1  0.363200  0.872100  0.250000  1.0  0.1391
  C  C64  1  0.589700  0.861600  0.450400  1.0  0.7121
  C  C65  1  0.757400  0.668400  0.550000  1.0  0.669
  C  C66  1  0.502400  0.089300  0.549900  1.0  0.0748
  C  C67  1  0.661300  0.039400  0.750000  1.0  0.1268
  C  C68  1  0.511200  0.998500  0.950900  1.0  0.0721
  C  C69  1  0.739500  0.480600  0.355400  1.0  0.6232
  C  C70  1  0.762600  0.962700  0.950100  1.0  0.6122
  C  C71  1  0.893200  0.377800  0.850200  1.0  0.7189
  C  C72  1  0.838700  0.539400  0.750000  1.0  0.1278
  C  C73  1  0.492300  0.007700  0.649840  1.0  0.0252
  C  C74  1  0.997600  0.589300  0.549900  1.0  0.0738
  C  C75  1  0.606800  0.877800  0.850200  1.0  0.7114
  C  C76  1  0.007700  0.507700  0.649840  1.0  0.0262
  C  C77  1  0.063800  0.419200  0.149400  1.0  0.5881
  C  C78  1  0.393200  0.122200  0.350200  1.0  0.7186
  C  C79  1  0.742600  0.168400  0.550000  1.0  0.6708
  C  C80  1  0.432100  0.933200  0.547700  1.0  0.5807
  C  C81  1  0.828100  0.512300  0.949200  1.0  0.0628
  C  C82  1  0.779900  0.682400  0.147200  1.0  0.6822
  C  C83  1  0.009900  0.582700  0.351020  1.0  0.1573
  C  C84  1  0.067900  0.433200  0.547700  1.0  0.5801
  C  C85  1  0.853200  0.611400  0.352490  1.0  0.1074
  C  C86  1  0.567900  0.066800  0.047700  1.0  0.5792
  C  C87  1  0.006100  0.497900  0.250000  1.0  0.102
  C  C88  1  0.257400  0.831600  0.050000  1.0  0.669
  C  C89  1  0.237400  0.037300  0.049900  1.0  0.6117
  C  C90  1  0.490100  0.082700  0.148980  1.0  0.1563
  C  C91  1  0.997600  0.589300  0.950100  1.0  0.0738
  C  C92  1  0.279900  0.817600  0.647200  1.0  0.6851
  C  C93  1  0.828100  0.512300  0.550800  1.0  0.0679
  C  C94  1  0.002400  0.410700  0.450100  1.0  0.0741
  C  C95  1  0.436200  0.919200  0.149400  1.0  0.5883
  C  C96  1  0.018100  0.589500  0.750000  1.0  0.0746
  C  C97  1  0.338700  0.960600  0.250000  1.0  0.1253
  C  C98  1  0.334500  0.977700  0.852750  1.0  0.0937
  C  C99  1  0.706300  0.202900  0.750000  1.0  0.6819
  C  C100  1  0.518100  0.910500  0.250000  1.0  0.0738
  C  C101  1  0.165500  0.477700  0.852750  1.0  0.0959
  C  C102  1  0.334500  0.977700  0.647250  1.0  0.0937
  C  C103  1  0.893200  0.377800  0.649800  1.0  0.7189
  C  C104  1  0.488800  0.001500  0.049100  1.0  0.0721
  C  C105  1  0.432100  0.933200  0.952300  1.0  0.5808
  C  C106  1  0.990100  0.417300  0.851020  1.0  0.1557
  C  C107  1  0.837400  0.603500  0.550900  1.0  0.1155
  C  C108  1  0.589700  0.861600  0.049600  1.0  0.7121
  C  C109  1  0.853200  0.611400  0.147510  1.0  0.1072
  C  C110  1  0.009900  0.582700  0.148980  1.0  0.1573
  C  C111  1  0.237400  0.037300  0.450100  1.0  0.6117
  C  C112  1  0.136800  0.372100  0.250000  1.0  0.1409
  C  C113  1  0.260500  0.519400  0.644600  1.0  0.6268
  C  C114  1  0.162600  0.396500  0.449100  1.0  0.116
  C  C115  1  0.739700  0.504800  0.750000  1.0  0.6067
  C  C116  1  0.834500  0.522300  0.147250  1.0  0.0886
  C  C117  1  0.671900  0.012300  0.550800  1.0  0.0639
  C  C118  1  0.988800  0.498500  0.950900  1.0  0.0745
  C  C119  1  0.910300  0.361600  0.450400  1.0  0.7124
  C  C120  1  0.617900  0.874400  0.250000  1.0  0.7006
  C  C121  1  0.353200  0.888600  0.647510  1.0  0.1067
  C  C122  1  0.002400  0.410700  0.049900  1.0  0.0741
  C  C123  1  0.760500  0.980600  0.355400  1.0  0.6268
  C  C124  1  0.239500  0.019400  0.644600  1.0  0.6244
  C  C125  1  0.567900  0.066800  0.452300  1.0  0.5793
  C  C126  1  0.507700  0.992300  0.350160  1.0  0.0255
  C  C127  1  0.737400  0.462700  0.950100  1.0  0.6096
  C  C128  1  0.662600  0.103500  0.550900  1.0  0.1151
  C  C129  1  0.981900  0.410500  0.250000  1.0  0.0734
  C  C130  1  0.260500  0.519400  0.855400  1.0  0.6296
  C  C131  1  0.117900  0.625600  0.750000  1.0  0.697
  C  C132  1  0.646800  0.111400  0.147510  1.0  0.1067
  C  C133  1  0.993900  0.502100  0.750000  1.0  0.1026
  C  C134  1  0.737400  0.462700  0.549900  1.0  0.6109
  C  C135  1  0.837400  0.603500  0.949100  1.0  0.1156
  C  C136  1  0.490100  0.082700  0.351020  1.0  0.1563
  C  C137  1  0.563800  0.080800  0.850600  1.0  0.5873
  C  C138  1  0.439200  0.925100  0.750000  1.0  0.601
  C  C139  1  0.665500  0.022300  0.147250  1.0  0.0943
  C  C140  1  0.506100  0.002100  0.750000  1.0  0.1024
  C  C141  1  0.206300  0.297100  0.250000  1.0  0.6757
  C  C142  1  0.863200  0.627900  0.750000  1.0  0.1397
  C  C143  1  0.410300  0.138400  0.950400  1.0  0.7113
  C  C144  1  0.393200  0.122200  0.149800  1.0  0.7185
  C  C145  1  0.671900  0.012300  0.949200  1.0  0.0637
  C  C146  1  0.242600  0.331600  0.450000  1.0  0.6713
  C  C147  1  0.337400  0.896500  0.449100  1.0  0.1157
  C  C148  1  0.239700  0.995200  0.250000  1.0  0.6071
  C  C149  1  0.328100  0.987700  0.449200  1.0  0.0656
  C  C150  1  0.060800  0.425100  0.750000  1.0  0.6008
  C  C151  1  0.436200  0.919200  0.350600  1.0  0.5885
  C  C152  1  0.742600  0.168400  0.950000  1.0  0.6705
  C  C153  1  0.410300  0.138400  0.549600  1.0  0.7112
  C  C154  1  0.011200  0.501500  0.450900  1.0  0.0727
  C  C155  1  0.646800  0.111400  0.352490  1.0  0.107
  C  C156  1  0.932100  0.566800  0.452300  1.0  0.5801
  C  C157  1  0.757400  0.668400  0.950000  1.0  0.669
  C  C158  1  0.936200  0.580800  0.649400  1.0  0.5868
  C  C159  1  0.606800  0.877800  0.649800  1.0  0.7175
  C  C160  1  0.257400  0.831600  0.450000  1.0  0.6695
  C  C161  1  0.793700  0.702900  0.750000  1.0  0.6788
  C  C162  1  0.665500  0.022300  0.352750  1.0  0.0946
  C  C163  1  0.165500  0.477700  0.647250  1.0  0.0955
  C  C164  1  0.992300  0.492300  0.350160  1.0  0.0255
  C  C165  1  0.220100  0.317600  0.647200  1.0  0.6839
  C  C166  1  0.260300  0.495200  0.250000  1.0  0.6062
  C  C167  1  0.988800  0.498500  0.549100  1.0  0.0749
  C  C168  1  0.882100  0.374400  0.250000  1.0  0.701
  C  C169  1  0.063800  0.419200  0.350600  1.0  0.5884
  C  C170  1  0.262600  0.537300  0.049900  1.0  0.6117
  C  C171  1  0.760500  0.980600  0.144600  1.0  0.6272
  C  C172  1  0.242600  0.331600  0.050000  1.0  0.6715
  C  C173  1  0.007700  0.507700  0.850160  1.0  0.0252
  C  C174  1  0.337400  0.896500  0.050900  1.0  0.1157
  C  C175  1  0.328100  0.987700  0.050800  1.0  0.0629
  C  C176  1  0.762600  0.962700  0.549900  1.0  0.6162
  C  C177  1  0.106800  0.622200  0.149800  1.0  0.7168
  C  C178  1  0.279900  0.817600  0.852800  1.0  0.682
  C  C179  1  0.992300  0.492300  0.149840  1.0  0.0295
  C  C180  1  0.089700  0.638400  0.950400  1.0  0.7104
  C  C181  1  0.910300  0.361600  0.049600  1.0  0.7123
  C  C182  1  0.089700  0.638400  0.549600  1.0  0.7103
  C  C183  1  0.739500  0.480600  0.144600  1.0  0.6233
  C  C184  1  0.563800  0.080800  0.649400  1.0  0.5871
  C  C185  1  0.760300  0.004800  0.750000  1.0  0.6062
  C  C186  1  0.936200  0.580800  0.850600  1.0  0.5869
  C  C187  1  0.834500  0.522300  0.352750  1.0  0.0937
  C  C188  1  0.146800  0.388600  0.852490  1.0  0.1077
  C  C189  1  0.502400  0.089300  0.950100  1.0  0.0748
  C  C190  1  0.990100  0.417300  0.648980  1.0  0.1556
  C  C191  1  0.636800  0.127900  0.750000  1.0  0.1405
  C  C192  1  0.662600  0.103500  0.949100  1.0  0.1151
  C  C193  1  0.161300  0.460600  0.250000  1.0  0.1296
  C  C194  1  0.492300  0.007700  0.850160  1.0  0.0247
  C  C195  1  0.481900  0.089500  0.750000  1.0  0.0746
  C  C196  1  0.507700  0.992300  0.149840  1.0  0.0299
  C  C197  1  0.488800  0.001500  0.450900  1.0  0.0745
  C  C198  1  0.262600  0.537300  0.450100  1.0  0.61
  C  C199  1  0.220100  0.317600  0.852800  1.0  0.6865
  C  C200  1  0.509900  0.917300  0.648980  1.0  0.1567
  N  N201  1  0.047700  0.347000  0.250000  1.0  -0.3896
  N  N202  1  0.595600  0.961800  0.550260  1.0  -0.4439
  N  N203  1  0.904400  0.461800  0.949740  1.0  -0.4438
  N  N204  1  0.922000  0.641300  0.949740  1.0  -0.4176
  N  N205  1  0.078000  0.358700  0.050260  1.0  -0.4092
  N  N206  1  0.595600  0.961800  0.949740  1.0  -0.4439
  N  N207  1  0.403700  0.036000  0.648470  1.0  -0.4257
  N  N208  1  0.058200  0.359400  0.647820  1.0  -0.3891
  N  N209  1  0.903700  0.464000  0.148470  1.0  -0.4231
  N  N210  1  0.547700  0.153000  0.750000  1.0  -0.3918
  N  N211  1  0.941800  0.640600  0.352180  1.0  -0.3911
  N  N212  1  0.422000  0.858700  0.449740  1.0  -0.4096
  N  N213  1  0.922000  0.641300  0.550260  1.0  -0.4165
  N  N214  1  0.596300  0.964000  0.148470  1.0  -0.4238
  N  N215  1  0.403700  0.036000  0.851530  1.0  -0.4256
  N  N216  1  0.904200  0.478700  0.750000  1.0  -0.3827
  N  N217  1  0.441800  0.859400  0.647820  1.0  -0.3874
  N  N218  1  0.452300  0.847000  0.250000  1.0  -0.3903
  N  N219  1  0.941800  0.640600  0.147820  1.0  -0.3914
  N  N220  1  0.404400  0.038200  0.449740  1.0  -0.4473
  N  N221  1  0.903700  0.464000  0.351530  1.0  -0.423
  N  N222  1  0.404200  0.021300  0.250000  1.0  -0.384
  N  N223  1  0.095800  0.521300  0.250000  1.0  -0.3834
  N  N224  1  0.078000  0.358700  0.449740  1.0  -0.4103
  N  N225  1  0.096300  0.536000  0.851530  1.0  -0.4257
  N  N226  1  0.904400  0.461800  0.550260  1.0  -0.4437
  N  N227  1  0.578000  0.141300  0.949740  1.0  -0.4176
  N  N228  1  0.596300  0.964000  0.351530  1.0  -0.4236
  N  N229  1  0.095600  0.538200  0.050260  1.0  -0.4476
  N  N230  1  0.441800  0.859400  0.852180  1.0  -0.3871
  N  N231  1  0.558200  0.140600  0.147820  1.0  -0.3919
  N  N232  1  0.058200  0.359400  0.852180  1.0  -0.3888
  N  N233  1  0.096300  0.536000  0.648470  1.0  -0.426
  N  N234  1  0.558200  0.140600  0.352180  1.0  -0.3916
  N  N235  1  0.095600  0.538200  0.449740  1.0  -0.4475
  N  N236  1  0.595800  0.978700  0.750000  1.0  -0.3818
  N  N237  1  0.404400  0.038200  0.050260  1.0  -0.4472
  N  N238  1  0.422000  0.858700  0.050260  1.0  -0.4095
  N  N239  1  0.578000  0.141300  0.550260  1.0  -0.4151
  N  N240  1  0.952300  0.653000  0.750000  1.0  -0.3931
  O  O241  1  0.855600  0.559400  0.250000  1.0  -0.5591
  O  O242  1  0.241600  0.283300  0.885140  1.0  -0.7328
  O  O243  1  0.245200  0.119600  0.049860  1.0  -0.6959
  O  O244  1  0.164500  0.994700  0.451200  1.0  -0.448
  O  O245  1  0.335500  0.494700  0.048800  1.0  -0.4479
  O  O246  1  0.233100  0.267600  0.217550  1.0  -0.6856
  O  O247  1  0.733100  0.232400  0.782450  1.0  -0.6845
  O  O248  1  0.245900  0.794700  0.820380  1.0  -0.6541
  O  O249  1  0.646500  0.062000  0.646960  1.0  -0.537
  O  O250  1  0.978100  0.650600  0.250000  1.0  -0.7652
  O  O251  1  0.329600  0.470400  0.857500  1.0  -0.5092
  O  O252  1  0.123600  0.658500  0.917580  1.0  -0.7123
  O  O253  1  0.377100  0.158500  0.516200  1.0  -0.7993
  O  O254  1  0.170400  0.970400  0.642500  1.0  -0.5071
  O  O255  1  0.267500  0.578500  0.250000  1.0  -0.6722
  O  O256  1  0.254100  0.294700  0.679620  1.0  -0.6533
  O  O257  1  0.346300  0.140300  0.783300  1.0  -0.7091
  O  O258  1  0.733100  0.232400  0.717550  1.0  -0.6842
  O  O259  1  0.648000  0.038600  0.046940  1.0  -0.5188
  O  O260  1  0.824000  0.055300  0.750000  1.0  -0.4585
  O  O261  1  0.648000  0.038600  0.453060  1.0  -0.5192
  O  O262  1  0.542700  0.147700  0.047860  1.0  -0.7554
  O  O263  1  0.623600  0.841500  0.082420  1.0  -0.7125
  O  O264  1  0.716200  0.686700  0.918060  1.0  -0.6811
  O  O265  1  0.352000  0.961400  0.546940  1.0  -0.5196
  O  O266  1  0.754800  0.880400  0.950140  1.0  -0.6951
  O  O267  1  0.335500  0.494700  0.451200  1.0  -0.4484
  O  O268  1  0.761700  0.897600  0.144650  1.0  -0.6931
  O  O269  1  0.741700  0.706200  0.981830  1.0  -0.6335
  O  O270  1  0.324000  0.444700  0.250000  1.0  -0.4582
  O  O271  1  0.148000  0.461400  0.953060  1.0  -0.5199
  O  O272  1  0.457300  0.852300  0.952140  1.0  -0.7517
  O  O273  1  0.758300  0.206200  0.981830  1.0  -0.6337
  O  O274  1  0.636900  0.848500  0.882490  1.0  -0.7204
  O  O275  1  0.478100  0.849400  0.750000  1.0  -0.7665
  O  O276  1  0.136900  0.651500  0.382490  1.0  -0.7232
  O  O277  1  0.970400  0.657600  0.650620  1.0  -0.7754
  O  O278  1  0.241600  0.283300  0.614860  1.0  -0.7333
  O  O279  1  0.738300  0.397600  0.144650  1.0  -0.6935
  O  O280  1  0.529600  0.157600  0.849380  1.0  -0.7742
  O  O281  1  0.029600  0.342400  0.150620  1.0  -0.7724
  O  O282  1  0.470400  0.842400  0.150620  1.0  -0.7727
  O  O283  1  0.123600  0.658500  0.582420  1.0  -0.7125
  O  O284  1  0.648000  0.873600  0.682650  1.0  -0.7482
  O  O285  1  0.254800  0.619600  0.049860  1.0  -0.6931
  O  O286  1  0.377100  0.158500  0.983800  1.0  -0.7993
  O  O287  1  0.042700  0.352300  0.547860  1.0  -0.752
  O  O288  1  0.957300  0.647700  0.452140  1.0  -0.7557
  O  O289  1  0.876400  0.341500  0.082420  1.0  -0.7141
  O  O290  1  0.853500  0.562000  0.646960  1.0  -0.5397
  O  O291  1  0.241700  0.793800  0.018170  1.0  -0.6325
  O  O292  1  0.542700  0.147700  0.452140  1.0  -0.7551
  O  O293  1  0.238300  0.102400  0.855350  1.0  -0.6943
  O  O294  1  0.783800  0.186700  0.918060  1.0  -0.6816
  O  O295  1  0.153700  0.640300  0.783300  1.0  -0.7094
  O  O296  1  0.846300  0.359700  0.216700  1.0  -0.7081
  O  O297  1  0.329600  0.470400  0.642500  1.0  -0.5087
  O  O298  1  0.148000  0.626400  0.317350  1.0  -0.7483
  O  O299  1  0.238300  0.102400  0.644650  1.0  -0.6949
  O  O300  1  0.258400  0.783300  0.614860  1.0  -0.734
  O  O301  1  0.754100  0.205300  0.179620  1.0  -0.6538
  O  O302  1  0.254800  0.619600  0.450140  1.0  -0.6926
  O  O303  1  0.352000  0.126400  0.317350  1.0  -0.7469
  O  O304  1  0.732500  0.421500  0.750000  1.0  -0.679
  O  O305  1  0.283800  0.313300  0.081940  1.0  -0.6832
  O  O306  1  0.261700  0.602400  0.855350  1.0  -0.6907
  O  O307  1  0.521900  0.150600  0.250000  1.0  -0.7675
  O  O308  1  0.738300  0.397600  0.355350  1.0  -0.6935
  O  O309  1  0.876400  0.341500  0.417580  1.0  -0.7148
  O  O310  1  0.741700  0.706200  0.518170  1.0  -0.6316
  O  O311  1  0.745900  0.705300  0.320380  1.0  -0.6539
  O  O312  1  0.622900  0.841500  0.016200  1.0  -0.7986
  O  O313  1  0.352000  0.126400  0.182650  1.0  -0.747
  O  O314  1  0.353500  0.938000  0.353040  1.0  -0.5394
  O  O315  1  0.258300  0.293800  0.018170  1.0  -0.6327
  O  O316  1  0.623600  0.841500  0.417580  1.0  -0.7128
  O  O317  1  0.835500  0.005300  0.548800  1.0  -0.4477
  O  O318  1  0.676000  0.555300  0.750000  1.0  -0.4568
  O  O319  1  0.648000  0.873600  0.817350  1.0  -0.7487
  O  O320  1  0.829600  0.029600  0.142500  1.0  -0.5095
  O  O321  1  0.261700  0.602400  0.644650  1.0  -0.6895
  O  O322  1  0.346300  0.140300  0.716700  1.0  -0.7086
  O  O323  1  0.758400  0.716700  0.385140  1.0  -0.7341
  O  O324  1  0.716200  0.686700  0.581940  1.0  -0.683
  O  O325  1  0.783800  0.186700  0.581940  1.0  -0.6832
  O  O326  1  0.146500  0.438000  0.353040  1.0  -0.5378
  O  O327  1  0.355600  0.940600  0.750000  1.0  -0.5578
  O  O328  1  0.644400  0.059400  0.250000  1.0  -0.5586
  O  O329  1  0.353500  0.938000  0.146960  1.0  -0.5394
  O  O330  1  0.144400  0.440600  0.750000  1.0  -0.5596
  O  O331  1  0.164500  0.994700  0.048800  1.0  -0.4477
  O  O332  1  0.852000  0.373600  0.817350  1.0  -0.7474
  O  O333  1  0.863100  0.348500  0.617510  1.0  -0.721
  O  O334  1  0.758400  0.716700  0.114860  1.0  -0.7331
  O  O335  1  0.352000  0.961400  0.953060  1.0  -0.5201
  O  O336  1  0.766900  0.732400  0.717550  1.0  -0.6869
  O  O337  1  0.146500  0.438000  0.146960  1.0  -0.5375
  O  O338  1  0.245900  0.794700  0.679620  1.0  -0.654
  O  O339  1  0.846300  0.359700  0.283300  1.0  -0.7081
  O  O340  1  0.470400  0.842400  0.349380  1.0  -0.7724
  O  O341  1  0.636900  0.848500  0.617510  1.0  -0.7199
  O  O342  1  0.216200  0.813300  0.418060  1.0  -0.6814
  O  O343  1  0.363100  0.151500  0.117510  1.0  -0.7239
  O  O344  1  0.176000  0.944700  0.250000  1.0  -0.4573
  O  O345  1  0.852000  0.538600  0.453060  1.0  -0.5192
  O  O346  1  0.754800  0.880400  0.549860  1.0  -0.695
  O  O347  1  0.970400  0.657600  0.849380  1.0  -0.7756
  O  O348  1  0.741600  0.216700  0.114860  1.0  -0.7323
  O  O349  1  0.153700  0.640300  0.716700  1.0  -0.7085
  O  O350  1  0.363100  0.151500  0.382490  1.0  -0.7241
  O  O351  1  0.376400  0.158500  0.582420  1.0  -0.7144
  O  O352  1  0.877100  0.341500  0.483800  1.0  -0.7995
  O  O353  1  0.758300  0.206200  0.518170  1.0  -0.6317
  O  O354  1  0.767500  0.921500  0.750000  1.0  -0.6771
  O  O355  1  0.245200  0.119600  0.450140  1.0  -0.6966
  O  O356  1  0.766900  0.732400  0.782450  1.0  -0.6875
  O  O357  1  0.761700  0.897600  0.355350  1.0  -0.6933
  O  O358  1  0.853500  0.562000  0.853040  1.0  -0.5398
  O  O359  1  0.376400  0.158500  0.917580  1.0  -0.7144
  O  O360  1  0.754100  0.205300  0.320380  1.0  -0.6531
  O  O361  1  0.877100  0.341500  0.016200  1.0  -0.7995
  O  O362  1  0.457300  0.852300  0.547860  1.0  -0.7518
  O  O363  1  0.829600  0.029600  0.357500  1.0  -0.51
  O  O364  1  0.835500  0.005300  0.951200  1.0  -0.4481
  O  O365  1  0.664500  0.505300  0.951200  1.0  -0.4475
  O  O366  1  0.021900  0.349400  0.750000  1.0  -0.7657
  O  O367  1  0.664500  0.505300  0.548800  1.0  -0.4471
  O  O368  1  0.863100  0.348500  0.882490  1.0  -0.721
  O  O369  1  0.957300  0.647700  0.047860  1.0  -0.7559
  O  O370  1  0.148000  0.626400  0.182650  1.0  -0.7485
  O  O371  1  0.283800  0.313300  0.418060  1.0  -0.6817
  O  O372  1  0.042700  0.352300  0.952140  1.0  -0.7518
  O  O373  1  0.266900  0.767600  0.282450  1.0  -0.6858
  O  O374  1  0.745200  0.380400  0.950140  1.0  -0.6943
  O  O375  1  0.741600  0.216700  0.385140  1.0  -0.7332
  O  O376  1  0.653700  0.859700  0.216700  1.0  -0.7082
  O  O377  1  0.254100  0.294700  0.820380  1.0  -0.6534
  O  O378  1  0.258300  0.293800  0.481830  1.0  -0.6346
  O  O379  1  0.653700  0.859700  0.283300  1.0  -0.7086
  O  O380  1  0.122900  0.658500  0.516200  1.0  -0.7978
  O  O381  1  0.745200  0.380400  0.549860  1.0  -0.6945
  O  O382  1  0.170400  0.970400  0.857500  1.0  -0.5075
  O  O383  1  0.529600  0.157600  0.650620  1.0  -0.7729
  O  O384  1  0.745900  0.705300  0.179620  1.0  -0.6549
  O  O385  1  0.266900  0.767600  0.217550  1.0  -0.6868
  O  O386  1  0.122900  0.658500  0.983800  1.0  -0.7978
  O  O387  1  0.233100  0.267600  0.282450  1.0  -0.6846
  O  O388  1  0.136900  0.651500  0.117510  1.0  -0.7225
  O  O389  1  0.852000  0.538600  0.046940  1.0  -0.5187
  O  O390  1  0.232500  0.078500  0.250000  1.0  -0.6812
  O  O391  1  0.241700  0.793800  0.481830  1.0  -0.6343
  O  O392  1  0.852000  0.373600  0.682650  1.0  -0.7466
  O  O393  1  0.258400  0.783300  0.885140  1.0  -0.7333
  O  O394  1  0.646500  0.062000  0.853040  1.0  -0.5373
  O  O395  1  0.622900  0.841500  0.483800  1.0  -0.7986
  O  O396  1  0.216200  0.813300  0.081940  1.0  -0.683
  O  O397  1  0.670400  0.529600  0.357500  1.0  -0.5069
  O  O398  1  0.029600  0.342400  0.349380  1.0  -0.7726
  O  O399  1  0.148000  0.461400  0.546940  1.0  -0.5193
  O  O400  1  0.670400  0.529600  0.142500  1.0  -0.5064
