# generated using pymatgen
data_KYbC8(NO4)2
_symmetry_space_group_name_H-M   'P 1'
_cell_length_a   14.40680000
_cell_length_b   15.06460000
_cell_length_c   33.08340000
_cell_angle_alpha   90.00000000
_cell_angle_beta   90.00000000
_cell_angle_gamma   90.00000000
_symmetry_Int_Tables_number   1
_chemical_formula_structural   KYbC8(NO4)2
_chemical_formula_sum   'K20 Yb20 C160 N40 O160'
_cell_volume   7180.17894169
_cell_formula_units_Z   20
loop_
 _symmetry_equiv_pos_site_id
 _symmetry_equiv_pos_as_xyz
  1  'x, y, z'
loop_
 _atom_site_type_symbol
 _atom_site_label
 _atom_site_symmetry_multiplicity
 _atom_site_fract_x
 _atom_site_fract_y
 _atom_site_fract_z
 _atom_site_occupancy
 _atom_site_charge
  K  K1  1  0.185270  0.214030  0.545310  1.0  0.9721
  K  K2  1  0.813900  0.755400  0.250000  1.0  0.9909
  K  K3  1  0.814730  0.785970  0.454690  1.0  0.9705
  K  K4  1  0.809320  0.768690  0.642520  1.0  0.9712
  K  K5  1  0.690680  0.268690  0.642520  1.0  0.973
  K  K6  1  0.185270  0.214030  0.954690  1.0  0.9723
  K  K7  1  0.186100  0.244600  0.750000  1.0  0.9927
  K  K8  1  0.314730  0.714030  0.954690  1.0  0.9726
  K  K9  1  0.685270  0.285970  0.045310  1.0  0.9701
  K  K10  1  0.190680  0.231310  0.357480  1.0  0.9732
  K  K11  1  0.686100  0.255400  0.250000  1.0  0.992
  K  K12  1  0.314730  0.714030  0.545310  1.0  0.9725
  K  K13  1  0.190680  0.231310  0.142520  1.0  0.9731
  K  K14  1  0.809320  0.768690  0.857480  1.0  0.9713
  K  K15  1  0.814730  0.785970  0.045310  1.0  0.9703
  K  K16  1  0.309320  0.731310  0.142520  1.0  0.9713
  K  K17  1  0.313900  0.744600  0.750000  1.0  0.9909
  K  K18  1  0.685270  0.285970  0.454690  1.0  0.9702
  K  K19  1  0.690680  0.268690  0.857480  1.0  0.9731
  K  K20  1  0.309320  0.731310  0.357480  1.0  0.9713
  Yb  Yb21  1  0.138460  0.678060  0.250000  1.0  1.5178
  Yb  Yb22  1  0.130560  0.694620  0.849760  1.0  1.541
  Yb  Yb23  1  0.888260  0.297730  0.551140  1.0  1.5486
  Yb  Yb24  1  0.638460  0.821940  0.750000  1.0  1.5192
  Yb  Yb25  1  0.630560  0.805380  0.150240  1.0  1.5427
  Yb  Yb26  1  0.361540  0.178060  0.250000  1.0  1.5192
  Yb  Yb27  1  0.130560  0.694620  0.650240  1.0  1.5409
  Yb  Yb28  1  0.111740  0.702270  0.448860  1.0  1.5465
  Yb  Yb29  1  0.611740  0.797730  0.948860  1.0  1.5482
  Yb  Yb30  1  0.861540  0.321940  0.750000  1.0  1.5204
  Yb  Yb31  1  0.111740  0.702270  0.051140  1.0  1.5464
  Yb  Yb32  1  0.388260  0.202270  0.448860  1.0  1.5472
  Yb  Yb33  1  0.388260  0.202270  0.051140  1.0  1.5471
  Yb  Yb34  1  0.630560  0.805380  0.349760  1.0  1.5429
  Yb  Yb35  1  0.869440  0.305380  0.150240  1.0  1.5433
  Yb  Yb36  1  0.611740  0.797730  0.551140  1.0  1.5479
  Yb  Yb37  1  0.869440  0.305380  0.349760  1.0  1.5434
  Yb  Yb38  1  0.369440  0.194620  0.849760  1.0  1.5418
  Yb  Yb39  1  0.888260  0.297730  0.948860  1.0  1.5489
  Yb  Yb40  1  0.369440  0.194620  0.650240  1.0  1.5417
  C  C41  1  0.332900  0.978200  0.647400  1.0  0.1181
  C  C42  1  0.164600  0.397100  0.051000  1.0  0.1603
  C  C43  1  0.495100  0.909900  0.049900  1.0  0.1403
  C  C44  1  0.835400  0.602900  0.949000  1.0  0.1592
  C  C45  1  0.487400  0.001300  0.450600  1.0  0.0961
  C  C46  1  0.738000  0.459300  0.949700  1.0  0.6402
  C  C47  1  0.512600  0.998700  0.549400  1.0  0.0938
  C  C48  1  0.989900  0.491000  0.149900  1.0  0.1128
  C  C49  1  0.066700  0.431700  0.548400  1.0  0.6288
  C  C50  1  0.167100  0.478200  0.852600  1.0  0.1193
  C  C51  1  0.260400  0.497000  0.250000  1.0  0.671
  C  C52  1  0.835400  0.602900  0.551000  1.0  0.159
  C  C53  1  0.066700  0.431700  0.951600  1.0  0.6291
  C  C54  1  0.087300  0.639900  0.950300  1.0  0.7531
  C  C55  1  0.014800  0.593600  0.750000  1.0  0.1556
  C  C56  1  0.647500  0.112000  0.147000  1.0  0.1759
  C  C57  1  0.510100  0.991000  0.149900  1.0  0.1156
  C  C58  1  0.508700  0.917400  0.649200  1.0  0.1355
  C  C59  1  0.992000  0.505100  0.750000  1.0  0.0797
  C  C60  1  0.838300  0.539800  0.750000  1.0  0.1514
  C  C61  1  0.737800  0.478900  0.144500  1.0  0.6349
  C  C62  1  0.060900  0.416500  0.350600  1.0  0.6445
  C  C63  1  0.778400  0.682500  0.353700  1.0  0.7191
  C  C64  1  0.667100  0.021800  0.147400  1.0  0.1232
  C  C65  1  0.221600  0.317500  0.853700  1.0  0.7214
  C  C66  1  0.504900  0.090100  0.549900  1.0  0.1416
  C  C67  1  0.587300  0.860100  0.450300  1.0  0.7541
  C  C68  1  0.508000  0.005100  0.750000  1.0  0.0804
  C  C69  1  0.489900  0.009000  0.649900  1.0  0.1136
  C  C70  1  0.112900  0.631100  0.750000  1.0  0.7354
  C  C71  1  0.985200  0.406400  0.250000  1.0  0.1554
  C  C72  1  0.433300  0.931700  0.951600  1.0  0.629
  C  C73  1  0.605100  0.877600  0.850300  1.0  0.7634
  C  C74  1  0.441000  0.926700  0.750000  1.0  0.6294
  C  C75  1  0.412700  0.139900  0.549700  1.0  0.7533
  C  C76  1  0.560900  0.083500  0.850600  1.0  0.6435
  C  C77  1  0.912700  0.360100  0.049700  1.0  0.7545
  C  C78  1  0.762000  0.959300  0.550300  1.0  0.6426
  C  C79  1  0.664600  0.102900  0.949000  1.0  0.1589
  C  C80  1  0.004900  0.409900  0.049900  1.0  0.1409
  C  C81  1  0.559000  0.073300  0.250000  1.0  0.6295
  C  C82  1  0.832900  0.521800  0.352600  1.0  0.1181
  C  C83  1  0.492000  0.994900  0.250000  1.0  0.0795
  C  C84  1  0.762200  0.978900  0.355500  1.0  0.6357
  C  C85  1  0.711600  0.205200  0.750000  1.0  0.7257
  C  C86  1  0.826900  0.511000  0.550700  1.0  0.0937
  C  C87  1  0.755400  0.667600  0.549400  1.0  0.7013
  C  C88  1  0.860000  0.631200  0.750000  1.0  0.1367
  C  C89  1  0.762000  0.959300  0.949700  1.0  0.6429
  C  C90  1  0.489900  0.009000  0.850100  1.0  0.1157
  C  C91  1  0.941000  0.573300  0.250000  1.0  0.63
  C  C92  1  0.237800  0.021100  0.855500  1.0  0.6362
  C  C93  1  0.788400  0.705200  0.750000  1.0  0.7238
  C  C94  1  0.987400  0.498700  0.950600  1.0  0.0962
  C  C95  1  0.991300  0.417400  0.850800  1.0  0.1358
  C  C96  1  0.173100  0.489000  0.050700  1.0  0.0997
  C  C97  1  0.237800  0.021100  0.644500  1.0  0.636
  C  C98  1  0.912700  0.360100  0.450300  1.0  0.7546
  C  C99  1  0.060900  0.416500  0.149400  1.0  0.6443
  C  C100  1  0.147500  0.388000  0.853000  1.0  0.176
  C  C101  1  0.491300  0.082600  0.350800  1.0  0.1362
  C  C102  1  0.739600  0.503000  0.750000  1.0  0.6692
  C  C103  1  0.010100  0.509000  0.649900  1.0  0.116
  C  C104  1  0.491300  0.082600  0.149200  1.0  0.1362
  C  C105  1  0.495100  0.909900  0.450100  1.0  0.1404
  C  C106  1  0.239600  0.997000  0.250000  1.0  0.67
  C  C107  1  0.508700  0.917400  0.850800  1.0  0.1356
  C  C108  1  0.744600  0.167600  0.950600  1.0  0.7023
  C  C109  1  0.147500  0.388000  0.647000  1.0  0.1759
  C  C110  1  0.987400  0.498700  0.549400  1.0  0.0964
  C  C111  1  0.352500  0.888000  0.853000  1.0  0.1744
  C  C112  1  0.352500  0.888000  0.647000  1.0  0.1744
  C  C113  1  0.008000  0.494900  0.250000  1.0  0.08
  C  C114  1  0.010100  0.509000  0.850100  1.0  0.1136
  C  C115  1  0.933300  0.568300  0.048400  1.0  0.6281
  C  C116  1  0.995100  0.590100  0.950100  1.0  0.1412
  C  C117  1  0.514800  0.906400  0.250000  1.0  0.1559
  C  C118  1  0.288400  0.794800  0.250000  1.0  0.7238
  C  C119  1  0.504900  0.090100  0.950100  1.0  0.1417
  C  C120  1  0.673100  0.011000  0.550700  1.0  0.096
  C  C121  1  0.673100  0.011000  0.949300  1.0  0.0959
  C  C122  1  0.167100  0.478200  0.647400  1.0  0.1199
  C  C123  1  0.278400  0.817500  0.646300  1.0  0.719
  C  C124  1  0.485200  0.093600  0.750000  1.0  0.1554
  C  C125  1  0.661700  0.039800  0.750000  1.0  0.1538
  C  C126  1  0.832900  0.521800  0.147400  1.0  0.1221
  C  C127  1  0.244600  0.332400  0.049400  1.0  0.7036
  C  C128  1  0.667100  0.021800  0.352600  1.0  0.1198
  C  C129  1  0.335400  0.897100  0.051000  1.0  0.1594
  C  C130  1  0.221600  0.317500  0.646300  1.0  0.7196
  C  C131  1  0.164600  0.397100  0.449000  1.0  0.1605
  C  C132  1  0.721600  0.182500  0.353700  1.0  0.7216
  C  C133  1  0.105100  0.622400  0.350300  1.0  0.7633
  C  C134  1  0.826900  0.511000  0.949300  1.0  0.0985
  C  C135  1  0.255400  0.832400  0.049400  1.0  0.7024
  C  C136  1  0.737800  0.478900  0.355500  1.0  0.6351
  C  C137  1  0.664600  0.102900  0.551000  1.0  0.1587
  C  C138  1  0.989900  0.491000  0.350100  1.0  0.1133
  C  C139  1  0.852500  0.612000  0.147000  1.0  0.175
  C  C140  1  0.004900  0.409900  0.450100  1.0  0.1409
  C  C141  1  0.744600  0.167600  0.549400  1.0  0.7025
  C  C142  1  0.510100  0.991000  0.350100  1.0  0.1135
  C  C143  1  0.262200  0.521100  0.644500  1.0  0.6362
  C  C144  1  0.278400  0.817500  0.853700  1.0  0.7192
  C  C145  1  0.211600  0.294800  0.250000  1.0  0.7245
  C  C146  1  0.640000  0.131200  0.750000  1.0  0.1365
  C  C147  1  0.087300  0.639900  0.549700  1.0  0.753
  C  C148  1  0.262200  0.521100  0.855500  1.0  0.6363
  C  C149  1  0.140000  0.368800  0.250000  1.0  0.1372
  C  C150  1  0.991300  0.417400  0.649200  1.0  0.1357
  C  C151  1  0.439100  0.916500  0.149400  1.0  0.6431
  C  C152  1  0.338300  0.960200  0.250000  1.0  0.1517
  C  C153  1  0.605100  0.877600  0.649700  1.0  0.7609
  C  C154  1  0.326900  0.989000  0.050700  1.0  0.0949
  C  C155  1  0.566700  0.068300  0.451600  1.0  0.6284
  C  C156  1  0.008700  0.582600  0.149200  1.0  0.1365
  C  C157  1  0.721600  0.182500  0.146300  1.0  0.7198
  C  C158  1  0.387100  0.131100  0.750000  1.0  0.7471
  C  C159  1  0.394900  0.122400  0.350300  1.0  0.7642
  C  C160  1  0.933300  0.568300  0.451600  1.0  0.6282
  C  C161  1  0.433300  0.931700  0.548400  1.0  0.6288
  C  C162  1  0.939100  0.583500  0.649400  1.0  0.642
  C  C163  1  0.262000  0.540700  0.449700  1.0  0.643
  C  C164  1  0.105100  0.622400  0.149700  1.0  0.763
  C  C165  1  0.894900  0.377600  0.850300  1.0  0.764
  C  C166  1  0.008700  0.582600  0.350800  1.0  0.1365
  C  C167  1  0.762200  0.978900  0.144500  1.0  0.6359
  C  C168  1  0.587300  0.860100  0.049700  1.0  0.7541
  C  C169  1  0.262000  0.540700  0.050300  1.0  0.6429
  C  C170  1  0.412700  0.139900  0.950300  1.0  0.7534
  C  C171  1  0.394900  0.122400  0.149700  1.0  0.7641
  C  C172  1  0.512600  0.998700  0.950600  1.0  0.0968
  C  C173  1  0.335400  0.897100  0.449000  1.0  0.1597
  C  C174  1  0.439100  0.916500  0.350600  1.0  0.6433
  C  C175  1  0.012600  0.501300  0.450600  1.0  0.0975
  C  C176  1  0.894900  0.377600  0.649700  1.0  0.7639
  C  C177  1  0.852500  0.612000  0.353000  1.0  0.1752
  C  C178  1  0.566700  0.068300  0.048400  1.0  0.6281
  C  C179  1  0.238000  0.040700  0.050300  1.0  0.641
  C  C180  1  0.238000  0.040700  0.449700  1.0  0.6412
  C  C181  1  0.326900  0.989000  0.449300  1.0  0.0942
  C  C182  1  0.173100  0.489000  0.449300  1.0  0.0995
  C  C183  1  0.360000  0.868800  0.250000  1.0  0.1362
  C  C184  1  0.939100  0.583500  0.850600  1.0  0.6421
  C  C185  1  0.778400  0.682500  0.146300  1.0  0.719
  C  C186  1  0.560900  0.083500  0.649400  1.0  0.6432
  C  C187  1  0.255400  0.832400  0.450600  1.0  0.7023
  C  C188  1  0.612900  0.868900  0.250000  1.0  0.7456
  C  C189  1  0.332900  0.978200  0.852600  1.0  0.118
  C  C190  1  0.995100  0.590100  0.549900  1.0  0.1412
  C  C191  1  0.755400  0.667600  0.950600  1.0  0.7013
  C  C192  1  0.487400  0.001300  0.049400  1.0  0.0967
  C  C193  1  0.647500  0.112000  0.353000  1.0  0.1761
  C  C194  1  0.887100  0.368900  0.250000  1.0  0.7457
  C  C195  1  0.161700  0.460200  0.250000  1.0  0.1544
  C  C196  1  0.738000  0.459300  0.550300  1.0  0.6399
  C  C197  1  0.244600  0.332400  0.450600  1.0  0.7033
  C  C198  1  0.059000  0.426700  0.750000  1.0  0.6288
  C  C199  1  0.012600  0.501300  0.049400  1.0  0.0944
  C  C200  1  0.760400  0.003000  0.750000  1.0  0.6708
  N  N201  1  0.402300  0.020200  0.250000  1.0  -0.3041
  N  N202  1  0.903400  0.460400  0.550000  1.0  -0.3686
  N  N203  1  0.403400  0.039600  0.050000  1.0  -0.3705
  N  N204  1  0.560100  0.142100  0.351940  1.0  -0.3756
  N  N205  1  0.596600  0.960400  0.950000  1.0  -0.3683
  N  N206  1  0.097600  0.536800  0.851210  1.0  -0.3328
  N  N207  1  0.080300  0.358000  0.450000  1.0  -0.3994
  N  N208  1  0.939900  0.642100  0.351940  1.0  -0.376
  N  N209  1  0.596600  0.960400  0.550000  1.0  -0.3684
  N  N210  1  0.403400  0.039600  0.450000  1.0  -0.3704
  N  N211  1  0.919700  0.642000  0.550000  1.0  -0.4041
  N  N212  1  0.550800  0.155900  0.750000  1.0  -0.3671
  N  N213  1  0.050800  0.344100  0.250000  1.0  -0.3624
  N  N214  1  0.419700  0.858000  0.450000  1.0  -0.3974
  N  N215  1  0.560100  0.142100  0.148060  1.0  -0.3741
  N  N216  1  0.419700  0.858000  0.050000  1.0  -0.3981
  N  N217  1  0.903400  0.460400  0.950000  1.0  -0.3685
  N  N218  1  0.402400  0.036800  0.851210  1.0  -0.332
  N  N219  1  0.949200  0.655900  0.750000  1.0  -0.3676
  N  N220  1  0.060100  0.357900  0.648060  1.0  -0.3698
  N  N221  1  0.402400  0.036800  0.648790  1.0  -0.3321
  N  N222  1  0.439900  0.857900  0.851940  1.0  -0.3695
  N  N223  1  0.097600  0.536800  0.648790  1.0  -0.3326
  N  N224  1  0.939900  0.642100  0.148060  1.0  -0.3745
  N  N225  1  0.580300  0.142000  0.550000  1.0  -0.4027
  N  N226  1  0.096600  0.539600  0.450000  1.0  -0.3706
  N  N227  1  0.097700  0.520200  0.250000  1.0  -0.3052
  N  N228  1  0.919700  0.642000  0.950000  1.0  -0.4028
  N  N229  1  0.080300  0.358000  0.050000  1.0  -0.399
  N  N230  1  0.449200  0.844100  0.250000  1.0  -0.3625
  N  N231  1  0.597600  0.963200  0.148790  1.0  -0.3304
  N  N232  1  0.096600  0.539600  0.050000  1.0  -0.3707
  N  N233  1  0.902300  0.479800  0.750000  1.0  -0.3024
  N  N234  1  0.902400  0.463200  0.351210  1.0  -0.3301
  N  N235  1  0.597600  0.963200  0.351210  1.0  -0.3305
  N  N236  1  0.597700  0.979800  0.750000  1.0  -0.3031
  N  N237  1  0.060100  0.357900  0.851940  1.0  -0.3694
  N  N238  1  0.580300  0.142000  0.950000  1.0  -0.4041
  N  N239  1  0.902400  0.463200  0.148790  1.0  -0.3301
  N  N240  1  0.439900  0.857900  0.648060  1.0  -0.3683
  O  O241  1  0.019800  0.350200  0.750000  1.0  -0.7226
  O  O242  1  0.262000  0.295900  0.483300  1.0  -0.6607
  O  O243  1  0.649700  0.854400  0.283500  1.0  -0.7289
  O  O244  1  0.745000  0.215000  0.113220  1.0  -0.7216
  O  O245  1  0.880000  0.340600  0.483930  1.0  -0.7057
  O  O246  1  0.238400  0.266600  0.282720  1.0  -0.6052
  O  O247  1  0.357300  0.934300  0.352300  1.0  -0.5233
  O  O248  1  0.353400  0.960100  0.547300  1.0  -0.4734
  O  O249  1  0.474900  0.839700  0.151100  1.0  -0.7079
  O  O250  1  0.762000  0.204100  0.516700  1.0  -0.6581
  O  O251  1  0.149700  0.645600  0.783500  1.0  -0.7289
  O  O252  1  0.121100  0.660200  0.917300  1.0  -0.7098
  O  O253  1  0.146600  0.460100  0.952700  1.0  -0.4727
  O  O254  1  0.857300  0.565700  0.647700  1.0  -0.5214
  O  O255  1  0.744100  0.708800  0.178760  1.0  -0.6665
  O  O256  1  0.974900  0.660300  0.651100  1.0  -0.7118
  O  O257  1  0.356500  0.942500  0.750000  1.0  -0.5462
  O  O258  1  0.649700  0.854400  0.216500  1.0  -0.7282
  O  O259  1  0.266300  0.581000  0.250000  1.0  -0.6374
  O  O260  1  0.350300  0.145600  0.716500  1.0  -0.7287
  O  O261  1  0.025100  0.339700  0.151100  1.0  -0.708
  O  O262  1  0.755000  0.715000  0.386780  1.0  -0.7219
  O  O263  1  0.664000  0.500300  0.951300  1.0  -0.4517
  O  O264  1  0.974900  0.660300  0.848900  1.0  -0.7119
  O  O265  1  0.830700  0.027500  0.356700  1.0  -0.4165
  O  O266  1  0.255000  0.785000  0.886780  1.0  -0.7218
  O  O267  1  0.149700  0.645600  0.716500  1.0  -0.7277
  O  O268  1  0.357300  0.934300  0.147700  1.0  -0.523
  O  O269  1  0.738300  0.394800  0.355410  1.0  -0.6158
  O  O270  1  0.853400  0.539900  0.452700  1.0  -0.473
  O  O271  1  0.857300  0.565700  0.852300  1.0  -0.5222
  O  O272  1  0.646600  0.039900  0.047300  1.0  -0.4722
  O  O273  1  0.980200  0.649800  0.250000  1.0  -0.7246
  O  O274  1  0.353400  0.960100  0.952700  1.0  -0.4736
  O  O275  1  0.836000  0.000300  0.548700  1.0  -0.4542
  O  O276  1  0.285700  0.312400  0.081700  1.0  -0.6886
  O  O277  1  0.664000  0.500300  0.548700  1.0  -0.4515
  O  O278  1  0.142700  0.434300  0.352300  1.0  -0.5229
  O  O279  1  0.252800  0.624100  0.450500  1.0  -0.6674
  O  O280  1  0.380000  0.159400  0.983930  1.0  -0.7057
  O  O281  1  0.135700  0.651600  0.117210  1.0  -0.6921
  O  O282  1  0.745000  0.215000  0.386780  1.0  -0.7217
  O  O283  1  0.755900  0.208800  0.178760  1.0  -0.6658
  O  O284  1  0.646400  0.873400  0.683020  1.0  -0.7379
  O  O285  1  0.674300  0.552200  0.750000  1.0  -0.4246
  O  O286  1  0.959500  0.649400  0.048800  1.0  -0.7192
  O  O287  1  0.738400  0.233400  0.782720  1.0  -0.6051
  O  O288  1  0.238000  0.795900  0.016700  1.0  -0.6586
  O  O289  1  0.245000  0.285000  0.886780  1.0  -0.7218
  O  O290  1  0.330700  0.472500  0.856700  1.0  -0.416
  O  O291  1  0.646600  0.039900  0.452700  1.0  -0.4723
  O  O292  1  0.761700  0.894800  0.355410  1.0  -0.6161
  O  O293  1  0.733700  0.419000  0.750000  1.0  -0.6402
  O  O294  1  0.519800  0.149800  0.250000  1.0  -0.7257
  O  O295  1  0.214300  0.812400  0.081700  1.0  -0.6877
  O  O296  1  0.850300  0.354400  0.283500  1.0  -0.7283
  O  O297  1  0.350300  0.145600  0.783500  1.0  -0.7293
  O  O298  1  0.761700  0.894800  0.144590  1.0  -0.6158
  O  O299  1  0.247200  0.124100  0.049500  1.0  -0.6735
  O  O300  1  0.714300  0.687600  0.581700  1.0  -0.688
  O  O301  1  0.247200  0.124100  0.450500  1.0  -0.6735
  O  O302  1  0.255900  0.291200  0.678760  1.0  -0.6655
  O  O303  1  0.238400  0.266600  0.217280  1.0  -0.6051
  O  O304  1  0.540500  0.149400  0.451200  1.0  -0.7171
  O  O305  1  0.252800  0.624100  0.049500  1.0  -0.6671
  O  O306  1  0.214300  0.812400  0.418300  1.0  -0.6844
  O  O307  1  0.747200  0.375900  0.950500  1.0  -0.6694
  O  O308  1  0.755900  0.208800  0.321240  1.0  -0.6646
  O  O309  1  0.164000  0.999700  0.048700  1.0  -0.4523
  O  O310  1  0.245000  0.285000  0.613220  1.0  -0.7219
  O  O311  1  0.261700  0.605200  0.644590  1.0  -0.6125
  O  O312  1  0.525100  0.160300  0.848900  1.0  -0.7108
  O  O313  1  0.262000  0.295900  0.016700  1.0  -0.659
  O  O314  1  0.853400  0.539900  0.047300  1.0  -0.4728
  O  O315  1  0.255900  0.291200  0.821240  1.0  -0.6652
  O  O316  1  0.620000  0.840600  0.483930  1.0  -0.7046
  O  O317  1  0.620000  0.840600  0.016070  1.0  -0.705
  O  O318  1  0.146400  0.626600  0.183020  1.0  -0.7383
  O  O319  1  0.669300  0.527500  0.143300  1.0  -0.4116
  O  O320  1  0.121100  0.660200  0.582700  1.0  -0.7097
  O  O321  1  0.353600  0.126600  0.316980  1.0  -0.7371
  O  O322  1  0.853600  0.373400  0.816980  1.0  -0.7369
  O  O323  1  0.120000  0.659400  0.983930  1.0  -0.705
  O  O324  1  0.174300  0.947800  0.250000  1.0  -0.4245
  O  O325  1  0.480200  0.850200  0.750000  1.0  -0.7202
  O  O326  1  0.261600  0.766600  0.217280  1.0  -0.6054
  O  O327  1  0.040500  0.350600  0.951200  1.0  -0.7134
  O  O328  1  0.643500  0.057500  0.250000  1.0  -0.5443
  O  O329  1  0.525100  0.160300  0.651100  1.0  -0.7107
  O  O330  1  0.169300  0.972500  0.643300  1.0  -0.4117
  O  O331  1  0.856500  0.557500  0.250000  1.0  -0.5468
  O  O332  1  0.378900  0.160200  0.582700  1.0  -0.7114
  O  O333  1  0.142700  0.434300  0.147700  1.0  -0.5212
  O  O334  1  0.880000  0.340600  0.016070  1.0  -0.706
  O  O335  1  0.738000  0.704100  0.983300  1.0  -0.6601
  O  O336  1  0.785700  0.187600  0.581700  1.0  -0.6888
  O  O337  1  0.669300  0.527500  0.356700  1.0  -0.4121
  O  O338  1  0.325700  0.447800  0.250000  1.0  -0.4261
  O  O339  1  0.642700  0.065700  0.852300  1.0  -0.5211
  O  O340  1  0.285700  0.312400  0.418300  1.0  -0.6864
  O  O341  1  0.120000  0.659400  0.516070  1.0  -0.7058
  O  O342  1  0.336000  0.499700  0.451300  1.0  -0.4539
  O  O343  1  0.244100  0.791200  0.678760  1.0  -0.6659
  O  O344  1  0.738000  0.704100  0.516700  1.0  -0.6577
  O  O345  1  0.255000  0.785000  0.613220  1.0  -0.7222
  O  O346  1  0.752800  0.875900  0.549500  1.0  -0.6705
  O  O347  1  0.761600  0.733400  0.717280  1.0  -0.6057
  O  O348  1  0.261600  0.766600  0.282720  1.0  -0.6055
  O  O349  1  0.238300  0.105200  0.855410  1.0  -0.6176
  O  O350  1  0.621100  0.839800  0.417300  1.0  -0.7095
  O  O351  1  0.364300  0.151600  0.117210  1.0  -0.6924
  O  O352  1  0.850300  0.354400  0.216500  1.0  -0.7282
  O  O353  1  0.261700  0.605200  0.855410  1.0  -0.6125
  O  O354  1  0.853600  0.373400  0.683020  1.0  -0.7367
  O  O355  1  0.540500  0.149400  0.048800  1.0  -0.7173
  O  O356  1  0.459500  0.850600  0.548800  1.0  -0.7143
  O  O357  1  0.238300  0.105200  0.644590  1.0  -0.618
  O  O358  1  0.878900  0.339800  0.417300  1.0  -0.7116
  O  O359  1  0.635700  0.848400  0.617210  1.0  -0.6909
  O  O360  1  0.164000  0.999700  0.451300  1.0  -0.4523
  O  O361  1  0.755000  0.715000  0.113220  1.0  -0.7227
  O  O362  1  0.830700  0.027500  0.143300  1.0  -0.4162
  O  O363  1  0.836000  0.000300  0.951300  1.0  -0.4548
  O  O364  1  0.766300  0.919000  0.750000  1.0  -0.6424
  O  O365  1  0.761600  0.733400  0.782720  1.0  -0.6064
  O  O366  1  0.143500  0.442500  0.750000  1.0  -0.5457
  O  O367  1  0.330700  0.472500  0.643300  1.0  -0.4154
  O  O368  1  0.878900  0.339800  0.082700  1.0  -0.7108
  O  O369  1  0.040500  0.350600  0.548800  1.0  -0.7135
  O  O370  1  0.169300  0.972500  0.856700  1.0  -0.4122
  O  O371  1  0.353600  0.126600  0.183020  1.0  -0.7375
  O  O372  1  0.864300  0.348400  0.617210  1.0  -0.6912
  O  O373  1  0.244100  0.791200  0.821240  1.0  -0.6652
  O  O374  1  0.738300  0.394800  0.144590  1.0  -0.6158
  O  O375  1  0.378900  0.160200  0.917300  1.0  -0.7116
  O  O376  1  0.744100  0.708800  0.321240  1.0  -0.6646
  O  O377  1  0.785700  0.187600  0.918300  1.0  -0.6871
  O  O378  1  0.825700  0.052200  0.750000  1.0  -0.4264
  O  O379  1  0.135700  0.651600  0.382790  1.0  -0.6927
  O  O380  1  0.714300  0.687600  0.918300  1.0  -0.685
  O  O381  1  0.864300  0.348400  0.882790  1.0  -0.6904
  O  O382  1  0.646400  0.873400  0.816980  1.0  -0.7376
  O  O383  1  0.474900  0.839700  0.348900  1.0  -0.7083
  O  O384  1  0.380000  0.159400  0.516070  1.0  -0.7063
  O  O385  1  0.959500  0.649400  0.451200  1.0  -0.7188
  O  O386  1  0.642700  0.065700  0.647700  1.0  -0.5216
  O  O387  1  0.459500  0.850600  0.951200  1.0  -0.7142
  O  O388  1  0.146400  0.626600  0.316980  1.0  -0.7378
  O  O389  1  0.146600  0.460100  0.547300  1.0  -0.4725
  O  O390  1  0.752800  0.875900  0.950500  1.0  -0.6725
  O  O391  1  0.238000  0.795900  0.483300  1.0  -0.6597
  O  O392  1  0.635700  0.848400  0.882790  1.0  -0.6904
  O  O393  1  0.762000  0.204100  0.983300  1.0  -0.6611
  O  O394  1  0.364300  0.151600  0.382790  1.0  -0.6926
  O  O395  1  0.738400  0.233400  0.717280  1.0  -0.6051
  O  O396  1  0.025100  0.339700  0.348900  1.0  -0.7083
  O  O397  1  0.336000  0.499700  0.048700  1.0  -0.4535
  O  O398  1  0.621100  0.839800  0.082700  1.0  -0.7092
  O  O399  1  0.233700  0.081000  0.250000  1.0  -0.6424
  O  O400  1  0.747200  0.375900  0.549500  1.0  -0.6707
