# generated using pymatgen
data_Ni2MoH72(C5N2)8
_symmetry_space_group_name_H-M   'P 1'
_cell_length_a   14.71730000
_cell_length_b   14.71730000
_cell_length_c   16.65630000
_cell_angle_alpha   79.31090000
_cell_angle_beta   73.13090000
_cell_angle_gamma   117.49500000
_symmetry_Int_Tables_number   1
_chemical_formula_structural   Ni2MoH72(C5N2)8
_chemical_formula_sum   'Ni4 Mo2 H144 C80 N32'
_cell_volume   2837.41395421
_cell_formula_units_Z   2
loop_
 _symmetry_equiv_pos_site_id
 _symmetry_equiv_pos_as_xyz
  1  'x, y, z'
loop_
 _atom_site_type_symbol
 _atom_site_label
 _atom_site_symmetry_multiplicity
 _atom_site_fract_x
 _atom_site_fract_y
 _atom_site_fract_z
 _atom_site_occupancy
 _atom_site_charge
  Ni  Ni1  1  0.500000  0.000000  0.500000  1.0  0.5863
  Ni  Ni2  1  0.000000  0.000000  0.000000  1.0  0.5863
  Ni  Ni3  1  0.500000  0.000000  0.000000  1.0  0.5778
  Ni  Ni4  1  0.500000  0.500000  0.500000  1.0  0.5778
  Mo  Mo5  1  0.594760  0.844760  0.250000  1.0  -0.0514
  Mo  Mo6  1  0.405240  0.155240  0.750000  1.0  -0.0438
  H  H7  1  0.337800  0.888000  0.653800  1.0  0.1823
  H  H8  1  0.580400  0.891900  0.514100  1.0  0.1754
  H  H9  1  0.381000  0.876400  0.938400  1.0  0.1849
  H  H10  1  0.376000  0.879900  0.154700  1.0  0.1627
  H  H11  1  0.384100  0.748600  0.588900  1.0  0.0877
  H  H12  1  0.319200  0.726000  0.693400  1.0  0.0804
  H  H13  1  0.484100  0.878000  0.684500  1.0  0.0839
  H  H14  1  0.513600  0.793700  0.654700  1.0  0.0857
  H  H15  1  0.686300  0.041900  0.566400  1.0  0.0938
  H  H16  1  0.762700  0.042800  0.394300  1.0  0.1033
  H  H17  1  0.847200  0.111200  0.433000  1.0  0.1075
  H  H18  1  0.683300  0.887700  0.634400  1.0  0.1109
  H  H19  1  0.804900  0.001200  0.578100  1.0  0.116
  H  H20  1  0.765200  0.908200  0.536000  1.0  0.1242
  H  H21  1  0.230400  0.691400  0.559400  1.0  0.1104
  H  H22  1  0.160900  0.735000  0.526300  1.0  0.1129
  H  H23  1  0.296400  0.804800  0.474400  1.0  0.1219
  H  H24  1  0.139400  0.785900  0.729900  1.0  0.1184
  H  H25  1  0.067200  0.714400  0.684000  1.0  0.1127
  H  H26  1  0.144400  0.683000  0.717000  1.0  0.1154
  H  H27  1  0.361000  0.745300  0.092300  1.0  0.0942
  H  H28  1  0.272500  0.709300  0.048200  1.0  0.0899
  H  H29  1  0.233100  0.842900  0.076400  1.0  0.0882
  H  H30  1  0.210300  0.763100  0.170000  1.0  0.099
  H  H31  1  0.302700  0.002600  0.135500  1.0  0.1097
  H  H32  1  0.462500  0.034100  0.201600  1.0  0.1034
  H  H33  1  0.385600  0.082500  0.224700  1.0  0.1021
  H  H34  1  0.159700  0.834800  0.254500  1.0  0.1087
  H  H35  1  0.192700  0.944200  0.276300  1.0  0.1198
  H  H36  1  0.235400  0.868300  0.309100  1.0  0.1233
  H  H37  1  0.374200  0.770900  0.852100  1.0  0.1093
  H  H38  1  0.463400  0.735100  0.829700  1.0  0.1107
  H  H39  1  0.360800  0.675700  0.928700  1.0  0.1161
  H  H40  1  0.486100  0.718900  0.003000  1.0  0.1135
  H  H41  1  0.593200  0.774700  0.907300  1.0  0.1221
  H  H42  1  0.591700  0.842300  0.972000  1.0  0.116
  H  H43  1  0.041800  0.991600  0.846200  1.0  0.1823
  H  H44  1  0.906000  0.094500  0.985900  1.0  0.1791
  H  H45  1  0.314800  0.319400  0.561600  1.0  0.1841
  H  H46  1  0.534600  0.530700  0.345300  1.0  0.1571
  H  H47  1  0.837500  0.973000  0.911100  1.0  0.085
  H  H48  1  0.919400  0.012600  0.806600  1.0  0.0823
  H  H49  1  0.062500  0.168600  0.815500  1.0  0.0839
  H  H50  1  0.948400  0.168300  0.845300  1.0  0.0862
  H  H51  1  0.108300  0.252700  0.933600  1.0  0.0918
  H  H52  1  0.937100  0.157000  0.105700  1.0  0.1033
  H  H53  1  0.044200  0.280200  0.067000  1.0  0.1019
  H  H54  1  0.022100  0.317700  0.865600  1.0  0.1132
  H  H55  1  0.079300  0.383000  0.921900  1.0  0.1185
  H  H56  1  0.944200  0.301200  0.964000  1.0  0.1252
  H  H57  1  0.750800  0.789800  0.940600  1.0  0.1053
  H  H58  1  0.761300  0.687200  0.973700  1.0  0.1131
  H  H59  1  0.779200  0.770800  0.025600  1.0  0.1247
  H  H60  1  0.015800  0.869300  0.770100  1.0  0.1181
  H  H61  1  0.898400  0.751200  0.816000  1.0  0.1112
  H  H62  1  0.900000  0.861400  0.783000  1.0  0.1114
  H  H63  1  0.337600  0.453300  0.407700  1.0  0.096
  H  H64  1  0.257500  0.320700  0.451800  1.0  0.0878
  H  H65  1  0.419300  0.309500  0.423600  1.0  0.0902
  H  H66  1  0.433100  0.380300  0.330000  1.0  0.1013
  H  H67  1  0.638100  0.438200  0.364500  1.0  0.1098
  H  H68  1  0.735700  0.664100  0.298400  1.0  0.1011
  H  H69  1  0.807200  0.610300  0.275300  1.0  0.105
  H  H70  1  0.589300  0.414200  0.245500  1.0  0.107
  H  H71  1  0.720500  0.469000  0.223700  1.0  0.124
  H  H72  1  0.677400  0.544500  0.190900  1.0  0.1217
  H  H73  1  0.123000  0.226300  0.647900  1.0  0.11
  H  H74  1  0.064800  0.293100  0.670300  1.0  0.1124
  H  H75  1  0.104400  0.289500  0.571300  1.0  0.1114
  H  H76  1  0.221900  0.489100  0.497000  1.0  0.11
  H  H77  1  0.182000  0.500500  0.592700  1.0  0.1164
  H  H78  1  0.314300  0.563700  0.528000  1.0  0.1183
  H  H79  1  0.662200  0.112000  0.346200  1.0  0.1821
  H  H80  1  0.419600  0.108100  0.485900  1.0  0.175
  H  H81  1  0.619000  0.123600  0.061600  1.0  0.1864
  H  H82  1  0.624000  0.120100  0.845300  1.0  0.1606
  H  H83  1  0.615900  0.251400  0.411100  1.0  0.0873
  H  H84  1  0.680800  0.274000  0.306600  1.0  0.0799
  H  H85  1  0.515900  0.122000  0.315500  1.0  0.0824
  H  H86  1  0.486400  0.206300  0.345300  1.0  0.087
  H  H87  1  0.313700  0.958100  0.433600  1.0  0.0905
  H  H88  1  0.237300  0.957200  0.605700  1.0  0.1032
  H  H89  1  0.152800  0.888800  0.567000  1.0  0.1068
  H  H90  1  0.316700  0.112300  0.365600  1.0  0.1107
  H  H91  1  0.195100  0.998800  0.421900  1.0  0.1151
  H  H92  1  0.234800  0.091800  0.464000  1.0  0.1243
  H  H93  1  0.769600  0.308600  0.440600  1.0  0.1112
  H  H94  1  0.839100  0.265000  0.473700  1.0  0.1139
  H  H95  1  0.703600  0.195200  0.525600  1.0  0.1208
  H  H96  1  0.860600  0.214100  0.270100  1.0  0.1184
  H  H97  1  0.932800  0.285600  0.316000  1.0  0.1134
  H  H98  1  0.855600  0.317000  0.283000  1.0  0.1163
  H  H99  1  0.639000  0.254700  0.907700  1.0  0.0951
  H  H100  1  0.727500  0.290700  0.951800  1.0  0.0887
  H  H101  1  0.766900  0.157100  0.923600  1.0  0.0877
  H  H102  1  0.789700  0.236900  0.830000  1.0  0.1012
  H  H103  1  0.697300  0.997400  0.864500  1.0  0.1095
  H  H104  1  0.537500  0.965900  0.798400  1.0  0.1041
  H  H105  1  0.614400  0.917500  0.775300  1.0  0.1008
  H  H106  1  0.840300  0.165200  0.745500  1.0  0.107
  H  H107  1  0.807300  0.055800  0.723700  1.0  0.1208
  H  H108  1  0.764600  0.131700  0.690900  1.0  0.1216
  H  H109  1  0.625800  0.229100  0.147900  1.0  0.1095
  H  H110  1  0.536600  0.264900  0.170300  1.0  0.1105
  H  H111  1  0.639200  0.324300  0.071300  1.0  0.1147
  H  H112  1  0.513900  0.281100  0.997000  1.0  0.1142
  H  H113  1  0.406800  0.225300  0.092700  1.0  0.1195
  H  H114  1  0.408300  0.157700  0.028000  1.0  0.1151
  H  H115  1  0.958200  0.008400  0.153800  1.0  0.1806
  H  H116  1  0.094000  0.905500  0.014100  1.0  0.1787
  H  H117  1  0.685200  0.680600  0.438400  1.0  0.186
  H  H118  1  0.465400  0.469300  0.654700  1.0  0.1574
  H  H119  1  0.162500  0.027000  0.088900  1.0  0.0859
  H  H120  1  0.080600  0.987400  0.193400  1.0  0.085
  H  H121  1  0.937500  0.831400  0.184500  1.0  0.0814
  H  H122  1  0.051600  0.831700  0.154700  1.0  0.0859
  H  H123  1  0.891700  0.747300  0.066400  1.0  0.0896
  H  H124  1  0.062900  0.843000  0.894300  1.0  0.103
  H  H125  1  0.955800  0.719800  0.933000  1.0  0.0994
  H  H126  1  0.977900  0.682300  0.134400  1.0  0.112
  H  H127  1  0.920700  0.617000  0.078100  1.0  0.1195
  H  H128  1  0.055800  0.698800  0.036000  1.0  0.1242
  H  H129  1  0.249200  0.210200  0.059400  1.0  0.1055
  H  H130  1  0.238700  0.312800  0.026300  1.0  0.1163
  H  H131  1  0.220800  0.229200  0.974400  1.0  0.1225
  H  H132  1  0.984200  0.130700  0.229900  1.0  0.1197
  H  H133  1  0.101600  0.248800  0.184000  1.0  0.111
  H  H134  1  0.100000  0.138600  0.217000  1.0  0.1124
  H  H135  1  0.662400  0.546700  0.592300  1.0  0.0952
  H  H136  1  0.742500  0.679300  0.548200  1.0  0.0879
  H  H137  1  0.580700  0.690500  0.576400  1.0  0.0903
  H  H138  1  0.566900  0.619700  0.670000  1.0  0.0989
  H  H139  1  0.361900  0.561800  0.635500  1.0  0.1098
  H  H140  1  0.264300  0.335900  0.701600  1.0  0.1022
  H  H141  1  0.192800  0.389700  0.724700  1.0  0.1021
  H  H142  1  0.410700  0.585800  0.754500  1.0  0.1075
  H  H143  1  0.279500  0.531000  0.776300  1.0  0.1222
  H  H144  1  0.322600  0.455500  0.809100  1.0  0.1239
  H  H145  1  0.877000  0.773700  0.352100  1.0  0.1108
  H  H146  1  0.935200  0.706900  0.329700  1.0  0.1149
  H  H147  1  0.895600  0.710500  0.428700  1.0  0.113
  H  H148  1  0.778100  0.510900  0.503000  1.0  0.1108
  H  H149  1  0.818000  0.499500  0.407300  1.0  0.1215
  H  H150  1  0.685700  0.436300  0.472000  1.0  0.1206
  C  C151  1  0.575370  0.900340  0.131950  1.0  0.1667
  C  C152  1  0.378490  0.784280  0.633430  1.0  -0.0159
  C  C153  1  0.491100  0.845650  0.637790  1.0  -0.0182
  C  C154  1  0.687670  0.993430  0.531700  1.0  0.1235
  C  C155  1  0.769560  0.080860  0.437360  1.0  -0.2063
  C  C156  1  0.239140  0.820770  0.596730  1.0  0.2906
  C  C157  1  0.739830  0.943240  0.573730  1.0  -0.336
  C  C158  1  0.230970  0.757310  0.533600  1.0  -0.3716
  C  C159  1  0.138400  0.744050  0.690410  1.0  -0.3639
  C  C160  1  0.328210  0.772280  0.057550  1.0  -0.0311
  C  C161  1  0.269800  0.820010  0.109550  1.0  -0.0056
  C  C162  1  0.325700  0.963400  0.172500  1.0  0.147
  C  C163  1  0.421180  0.061000  0.178280  1.0  -0.1889
  C  C164  1  0.489840  0.833140  0.906580  1.0  0.2749
  C  C165  1  0.218940  0.896790  0.260930  1.0  -0.3381
  C  C166  1  0.415300  0.745830  0.876550  1.0  -0.3638
  C  C167  1  0.545140  0.788260  0.951200  1.0  -0.3888
  C  C168  1  0.530720  0.892110  0.355070  1.0  0.1621
  C  C169  1  0.413690  0.763780  0.291490  1.0  0.1508
  C  C170  1  0.722490  0.884000  0.301170  1.0  0.1525
  C  C171  1  0.532290  0.707320  0.368050  1.0  0.1686
  C  C172  1  0.917710  0.011920  0.866570  1.0  -0.0179
  C  C173  1  0.983440  0.128890  0.862210  1.0  -0.0176
  C  C174  1  0.025130  0.219370  0.968300  1.0  0.1216
  C  C175  1  0.018220  0.206920  0.062640  1.0  -0.2069
  C  C176  1  0.917500  0.835870  0.903270  1.0  0.2921
  C  C177  1  0.016970  0.313560  0.926270  1.0  -0.3349
  C  C178  1  0.790910  0.764570  0.966400  1.0  -0.372
  C  C179  1  0.934460  0.828810  0.809590  1.0  -0.3598
  C  C180  1  0.329830  0.385760  0.442450  1.0  -0.0376
  C  C181  1  0.429560  0.379350  0.390450  1.0  -0.0063
  C  C182  1  0.635900  0.498200  0.327500  1.0  0.1428
  C  C183  1  0.739280  0.599460  0.321720  1.0  -0.1907
  C  C184  1  0.239720  0.396420  0.593420  1.0  0.2778
  C  C185  1  0.657720  0.479870  0.239070  1.0  -0.3315
  C  C186  1  0.122380  0.291850  0.623450  1.0  -0.3653
  C  C187  1  0.239460  0.496340  0.548800  1.0  -0.3894
  C  C188  1  0.747180  0.885790  0.144930  1.0  0.1689
  C  C189  1  0.555270  0.705180  0.208510  1.0  0.1545
  C  C190  1  0.685170  0.023660  0.198830  1.0  0.1515
  C  C191  1  0.424630  0.099660  0.868050  1.0  0.1696
  C  C192  1  0.621510  0.215720  0.366570  1.0  -0.0189
  C  C193  1  0.508900  0.154350  0.362210  1.0  -0.0169
  C  C194  1  0.312330  0.006570  0.468300  1.0  0.1216
  C  C195  1  0.230440  0.919140  0.562640  1.0  -0.2048
  C  C196  1  0.760860  0.179230  0.403270  1.0  0.2918
  C  C197  1  0.260170  0.056760  0.426270  1.0  -0.3376
  C  C198  1  0.769030  0.242690  0.466400  1.0  -0.3701
  C  C199  1  0.861600  0.255950  0.309590  1.0  -0.3645
  C  C200  1  0.671790  0.227720  0.942450  1.0  -0.0315
  C  C201  1  0.730200  0.179990  0.890450  1.0  -0.0052
  C  C202  1  0.674300  0.036600  0.827500  1.0  0.1444
  C  C203  1  0.578820  0.939000  0.821720  1.0  -0.1898
  C  C204  1  0.510160  0.166860  0.093420  1.0  0.2772
  C  C205  1  0.781060  0.103210  0.739070  1.0  -0.3379
  C  C206  1  0.584700  0.254170  0.123450  1.0  -0.3646
  C  C207  1  0.454860  0.211740  0.048800  1.0  -0.3871
  C  C208  1  0.469280  0.107890  0.644930  1.0  0.1605
  C  C209  1  0.586310  0.236220  0.708510  1.0  0.151
  C  C210  1  0.277510  0.116000  0.698830  1.0  0.151
  C  C211  1  0.467710  0.292680  0.631950  1.0  0.1687
  C  C212  1  0.082290  0.988080  0.133430  1.0  -0.0176
  C  C213  1  0.016560  0.871110  0.137790  1.0  -0.0179
  C  C214  1  0.974870  0.780630  0.031700  1.0  0.123
  C  C215  1  0.981780  0.793080  0.937360  1.0  -0.2068
  C  C216  1  0.082500  0.164130  0.096730  1.0  0.2891
  C  C217  1  0.983030  0.686440  0.073730  1.0  -0.335
  C  C218  1  0.209090  0.235430  0.033600  1.0  -0.3719
  C  C219  1  0.065540  0.171190  0.190410  1.0  -0.3594
  C  C220  1  0.670170  0.614240  0.557550  1.0  -0.0348
  C  C221  1  0.570440  0.620650  0.609550  1.0  -0.0057
  C  C222  1  0.364100  0.501800  0.672500  1.0  0.1445
  C  C223  1  0.260720  0.400540  0.678280  1.0  -0.1903
  C  C224  1  0.760280  0.603580  0.406580  1.0  0.278
  C  C225  1  0.342280  0.520130  0.760930  1.0  -0.3326
  C  C226  1  0.877620  0.708150  0.376550  1.0  -0.3647
  C  C227  1  0.760540  0.503660  0.451200  1.0  -0.3886
  C  C228  1  0.252820  0.114210  0.855070  1.0  0.1677
  C  C229  1  0.444730  0.294820  0.791490  1.0  0.1543
  C  C230  1  0.314830  0.976340  0.801170  1.0  0.1508
  N  N231  1  0.348270  0.863830  0.606180  1.0  -0.3677
  N  N232  1  0.578550  0.934300  0.548830  1.0  -0.4338
  N  N233  1  0.419260  0.861020  0.968860  1.0  -0.3832
  N  N234  1  0.354610  0.915670  0.119480  1.0  -0.4305
  N  N235  1  0.499450  0.919560  0.411030  1.0  -0.4403
  N  N236  1  0.316940  0.718310  0.313210  1.0  -0.5085
  N  N237  1  0.791560  0.901910  0.327490  1.0  -0.4492
  N  N238  1  0.565920  0.934000  0.068960  1.0  -0.4972
  N  N239  1  0.970010  0.954450  0.893820  1.0  -0.3685
  N  N240  1  0.983130  0.127380  0.951170  1.0  -0.4371
  N  N241  1  0.329880  0.388120  0.531140  1.0  -0.3786
  N  N242  1  0.535150  0.474090  0.380520  1.0  -0.4251
  N  N243  1  0.830590  0.910480  0.088970  1.0  -0.4392
  N  N244  1  0.531520  0.630150  0.186790  1.0  -0.509
  N  N245  1  0.729400  0.119050  0.172510  1.0  -0.4532
  N  N246  1  0.502960  0.634880  0.431040  1.0  -0.5017
  N  N247  1  0.651730  0.136170  0.393820  1.0  -0.3665
  N  N248  1  0.421450  0.065700  0.451170  1.0  -0.4358
  N  N249  1  0.580740  0.138980  0.031140  1.0  -0.3801
  N  N250  1  0.645390  0.084330  0.880520  1.0  -0.428
  N  N251  1  0.500550  0.080440  0.588970  1.0  -0.4423
  N  N252  1  0.683060  0.281690  0.686790  1.0  -0.5118
  N  N253  1  0.208440  0.098090  0.672510  1.0  -0.4503
  N  N254  1  0.434080  0.066000  0.931040  1.0  -0.5019
  N  N255  1  0.029990  0.045550  0.106180  1.0  -0.3629
  N  N256  1  0.016870  0.872620  0.048830  1.0  -0.4334
  N  N257  1  0.670120  0.611880  0.468860  1.0  -0.3756
  N  N258  1  0.464850  0.525910  0.619480  1.0  -0.427
  N  N259  1  0.169410  0.089520  0.911030  1.0  -0.4415
  N  N260  1  0.468480  0.369850  0.813210  1.0  -0.511
  N  N261  1  0.270600  0.880950  0.827490  1.0  -0.4498
  N  N262  1  0.497040  0.365120  0.568960  1.0  -0.4987
