# generated using pymatgen
data_MnH4(C2O)4
_symmetry_space_group_name_H-M   'P 1'
_cell_length_a   9.71600000
_cell_length_b   12.19300000
_cell_length_c   12.44230000
_cell_angle_alpha   103.86300000
_cell_angle_beta   112.12400000
_cell_angle_gamma   107.28000000
_symmetry_Int_Tables_number   1
_chemical_formula_structural   MnH4(C2O)4
_chemical_formula_sum   'Mn4 H16 C32 O16'
_cell_volume   1196.49988373
_cell_formula_units_Z   4
loop_
 _symmetry_equiv_pos_site_id
 _symmetry_equiv_pos_as_xyz
  1  'x, y, z'
loop_
 _atom_site_type_symbol
 _atom_site_label
 _atom_site_symmetry_multiplicity
 _atom_site_fract_x
 _atom_site_fract_y
 _atom_site_fract_z
 _atom_site_occupancy
 _atom_site_charge
  Mn  Mn1  1  0.215250  0.328730  0.123220  1.0  1.0375
  Mn  Mn2  1  0.784750  0.671270  0.876780  1.0  1.0393
  Mn  Mn3  1  0.000000  0.000000  0.000000  1.0  1.2392
  Mn  Mn4  1  0.000000  0.500000  0.000000  1.0  1.2503
  H  H5  1  0.475700  0.355100  0.512100  1.0  0.1078
  H  H6  1  0.560800  0.151300  0.717300  1.0  0.081
  H  H7  1  0.348600  0.972300  0.546000  1.0  0.105
  H  H8  1  0.212200  0.982900  0.354400  1.0  0.1017
  H  H9  1  0.679000  0.013100  0.847200  1.0  0.0925
  H  H10  1  0.398000  0.898100  0.755100  1.0  0.1127
  H  H11  1  0.246700  0.975900  0.828200  1.0  0.1069
  H  H12  1  0.653200  0.297600  0.068500  1.0  0.1121
  H  H13  1  0.524300  0.644900  0.487900  1.0  0.1078
  H  H14  1  0.439200  0.848700  0.282700  1.0  0.0802
  H  H15  1  0.651400  0.027700  0.454000  1.0  0.105
  H  H16  1  0.787800  0.017100  0.645600  1.0  0.1016
  H  H17  1  0.321000  0.986900  0.152800  1.0  0.0931
  H  H18  1  0.602000  0.101900  0.244900  1.0  0.1128
  H  H19  1  0.753300  0.024100  0.171800  1.0  0.1071
  H  H20  1  0.346800  0.702400  0.931500  1.0  0.1122
  C  C21  1  0.243100  0.172800  0.286000  1.0  0.716
  C  C22  1  0.331400  0.169400  0.412600  1.0  -0.1695
  C  C23  1  0.452900  0.277800  0.518100  1.0  0.0217
  C  C24  1  0.539900  0.271100  0.632000  1.0  -0.1517
  C  C25  1  0.502000  0.156300  0.641400  1.0  -0.0213
  C  C26  1  0.376800  0.048900  0.538400  1.0  -0.127
  C  C27  1  0.294000  0.055700  0.424200  1.0  -0.0197
  C  C28  1  0.876100  0.241000  0.025900  1.0  0.7143
  C  C29  1  0.694500  0.166500  0.967600  1.0  -0.164
  C  C30  1  0.617400  0.046600  0.873900  1.0  -0.021
  C  C31  1  0.449600  0.976900  0.820100  1.0  -0.1055
  C  C32  1  0.359000  0.023900  0.862800  1.0  -0.0202
  C  C33  1  0.435100  0.143500  0.957900  1.0  -0.1705
  C  C34  1  0.603000  0.216200  0.008200  1.0  1e-04
  C  C35  1  0.673500  0.386900  0.746500  1.0  0.7312
  C  C36  1  0.338300  0.190700  0.009500  1.0  0.7165
  C  C37  1  0.756900  0.827200  0.714000  1.0  0.7069
  C  C38  1  0.668600  0.830600  0.587400  1.0  -0.1695
  C  C39  1  0.547100  0.722200  0.481900  1.0  0.0221
  C  C40  1  0.460100  0.728900  0.368000  1.0  -0.1517
  C  C41  1  0.498000  0.843700  0.358600  1.0  -0.0196
  C  C42  1  0.623200  0.951100  0.461600  1.0  -0.1278
  C  C43  1  0.706000  0.944300  0.575800  1.0  -0.0189
  C  C44  1  0.123900  0.759000  0.974100  1.0  0.7171
  C  C45  1  0.305500  0.833500  0.032400  1.0  -0.1638
  C  C46  1  0.382600  0.953400  0.126100  1.0  -0.0214
  C  C47  1  0.550400  0.023100  0.179900  1.0  -0.1032
  C  C48  1  0.641000  0.976100  0.137200  1.0  -0.0189
  C  C49  1  0.564900  0.856500  0.042100  1.0  -0.1707
  C  C50  1  0.397000  0.783800  0.991800  1.0  -0.0016
  C  C51  1  0.326500  0.613100  0.253500  1.0  0.7302
  C  C52  1  0.661700  0.809300  0.990500  1.0  0.7173
  O  O53  1  0.282300  0.276750  0.278100  1.0  -0.6007
  O  O54  1  0.136930  0.069650  0.196630  1.0  -0.6328
  O  O55  1  0.963870  0.183500  0.020270  1.0  -0.6481
  O  O56  1  0.939910  0.358610  0.080010  1.0  -0.6629
  O  O57  1  0.786510  0.374970  0.827110  1.0  -0.6358
  O  O58  1  0.661050  0.487380  0.751650  1.0  -0.5845
  O  O59  1  0.396700  0.305300  0.075400  1.0  -0.5922
  O  O60  1  0.201200  0.113900  0.984500  1.0  -0.6713
  O  O61  1  0.717700  0.723250  0.721900  1.0  -0.6047
  O  O62  1  0.863070  0.930350  0.803370  1.0  -0.6331
  O  O63  1  0.036130  0.816500  0.979730  1.0  -0.6498
  O  O64  1  0.060090  0.641390  0.919990  1.0  -0.6639
  O  O65  1  0.213490  0.625030  0.172890  1.0  -0.6361
  O  O66  1  0.338950  0.512620  0.248350  1.0  -0.5843
  O  O67  1  0.603300  0.694700  0.924600  1.0  -0.5924
  O  O68  1  0.798800  0.886100  0.015500  1.0  -0.6692
