# generated using pymatgen
data_CdH4(C2O)4
_symmetry_space_group_name_H-M   'P 1'
_cell_length_a   7.44070000
_cell_length_b   9.76600000
_cell_length_c   9.85000000
_cell_angle_alpha   118.29700000
_cell_angle_beta   102.24700000
_cell_angle_gamma   91.43400000
_symmetry_Int_Tables_number   1
_chemical_formula_structural   CdH4(C2O)4
_chemical_formula_sum   'Cd2 H8 C16 O8'
_cell_volume   609.29001571
_cell_formula_units_Z   2
loop_
 _symmetry_equiv_pos_site_id
 _symmetry_equiv_pos_as_xyz
  1  'x, y, z'
loop_
 _atom_site_type_symbol
 _atom_site_label
 _atom_site_symmetry_multiplicity
 _atom_site_fract_x
 _atom_site_fract_y
 _atom_site_fract_z
 _atom_site_occupancy
 _atom_site_charge
  Cd  Cd1  1  0.737900  0.973280  0.483970  1.0  1.1212
  Cd  Cd2  1  0.262100  0.026720  0.516030  1.0  1.1225
  H  H3  1  0.434500  0.175300  0.906200  1.0  0.0954
  H  H4  1  0.326900  0.198200  0.118500  1.0  0.1144
  H  H5  1  0.775500  0.304500  0.786800  1.0  0.1187
  H  H6  1  0.312900  0.485500  0.012300  1.0  0.1089
  H  H7  1  0.565500  0.824700  0.093800  1.0  0.0958
  H  H8  1  0.673100  0.801800  0.881500  1.0  0.1143
  H  H9  1  0.224500  0.695500  0.213200  1.0  0.1191
  H  H10  1  0.687100  0.514500  0.987700  1.0  0.1099
  C  C11  1  0.627400  0.967500  0.729200  1.0  0.6855
  C  C12  1  0.563100  0.984600  0.870200  1.0  -0.1179
  C  C13  1  0.460300  0.104700  0.943500  1.0  -0.0233
  C  C14  1  0.396700  0.119000  0.071500  1.0  -0.0521
  C  C15  1  0.115000  0.242600  0.746300  1.0  0.7181
  C  C16  1  0.054300  0.374000  0.878200  1.0  -0.1028
  C  C17  1  0.865300  0.382900  0.872000  1.0  -0.0712
  C  C18  1  0.187300  0.491500  0.007300  1.0  -0.0627
  C  C19  1  0.372600  0.032500  0.270800  1.0  0.6844
  C  C20  1  0.436900  0.015400  0.129800  1.0  -0.1156
  C  C21  1  0.539700  0.895300  0.056500  1.0  -0.024
  C  C22  1  0.603300  0.881000  0.928500  1.0  -0.0545
  C  C23  1  0.885000  0.757400  0.253700  1.0  0.7174
  C  C24  1  0.945700  0.626000  0.121800  1.0  -0.1016
  C  C25  1  0.134700  0.617100  0.128000  1.0  -0.0661
  C  C26  1  0.812700  0.508500  0.992700  1.0  -0.0643
  O  O27  1  0.732800  0.870000  0.671800  1.0  -0.5878
  O  O28  1  0.570600  0.056400  0.670300  1.0  -0.6584
  O  O29  1  0.022500  0.106000  0.673100  1.0  -0.716
  O  O30  1  0.260500  0.272100  0.713500  1.0  -0.5706
  O  O31  1  0.267200  0.130000  0.328200  1.0  -0.5895
  O  O32  1  0.429400  0.943600  0.329700  1.0  -0.6591
  O  O33  1  0.977500  0.894000  0.326900  1.0  -0.7156
  O  O34  1  0.739500  0.727900  0.286500  1.0  -0.5727
