# generated using pymatgen
data_CdH4(C2O)4
_symmetry_space_group_name_H-M   'P 1'
_cell_length_a   10.78850000
_cell_length_b   13.65830000
_cell_length_c   14.71880000
_cell_angle_alpha   76.10280000
_cell_angle_beta   68.50100000
_cell_angle_gamma   66.73770000
_symmetry_Int_Tables_number   1
_chemical_formula_structural   CdH4(C2O)4
_chemical_formula_sum   'Cd6 H24 C48 O24'
_cell_volume   1842.31397220
_cell_formula_units_Z   6
loop_
 _symmetry_equiv_pos_site_id
 _symmetry_equiv_pos_as_xyz
  1  'x, y, z'
loop_
 _atom_site_type_symbol
 _atom_site_label
 _atom_site_symmetry_multiplicity
 _atom_site_fract_x
 _atom_site_fract_y
 _atom_site_fract_z
 _atom_site_occupancy
 _atom_site_charge
  Cd  Cd1  1  0.995320  0.038700  0.612620  1.0  1.0769
  Cd  Cd2  1  0.646640  0.461300  0.887380  1.0  1.0801
  Cd  Cd3  1  0.004680  0.961300  0.387380  1.0  1.0763
  Cd  Cd4  1  0.353360  0.538700  0.112620  1.0  1.0809
  Cd  Cd5  1  0.718170  0.250000  0.750000  1.0  1.0067
  Cd  Cd6  1  0.281830  0.750000  0.250000  1.0  1.0049
  H  H7  1  0.455700  0.040700  0.909900  1.0  0.1191
  H  H8  1  0.364500  0.908500  0.010100  1.0  0.1072
  H  H9  1  0.687100  0.684600  0.845400  1.0  0.1171
  H  H10  1  0.783300  0.815900  0.750300  1.0  0.1234
  H  H11  1  0.144000  0.868500  0.895300  1.0  0.1207
  H  H12  1  0.860300  0.164400  0.941000  1.0  0.1191
  H  H13  1  0.406300  0.459300  0.590100  1.0  0.1173
  H  H14  1  0.283100  0.591500  0.489900  1.0  0.1075
  H  H15  1  0.217100  0.815400  0.654600  1.0  0.1157
  H  H16  1  0.349500  0.684100  0.749700  1.0  0.1248
  H  H17  1  0.907800  0.631500  0.604700  1.0  0.1202
  H  H18  1  0.965700  0.335600  0.559000  1.0  0.1179
  H  H19  1  0.544300  0.959300  0.090100  1.0  0.119
  H  H20  1  0.635500  0.091500  0.989900  1.0  0.1069
  H  H21  1  0.312900  0.315400  0.154600  1.0  0.1167
  H  H22  1  0.216700  0.184100  0.249700  1.0  0.1238
  H  H23  1  0.856000  0.131500  0.104700  1.0  0.1213
  H  H24  1  0.139700  0.835600  0.059000  1.0  0.1182
  H  H25  1  0.593700  0.540700  0.409900  1.0  0.1171
  H  H26  1  0.716900  0.408500  0.510100  1.0  0.1073
  H  H27  1  0.782900  0.184600  0.345400  1.0  0.1158
  H  H28  1  0.650500  0.315900  0.250300  1.0  0.1244
  H  H29  1  0.092200  0.368500  0.395300  1.0  0.12
  H  H30  1  0.034300  0.664400  0.441000  1.0  0.119
  C  C31  1  0.695170  0.024150  0.761310  1.0  0.7806
  C  C32  1  0.628920  0.941090  0.821270  1.0  -0.1021
  C  C33  1  0.504340  0.967920  0.897600  1.0  -0.0294
  C  C34  1  0.449140  0.889370  0.956750  1.0  -0.0318
  C  C35  1  0.517630  0.783460  0.937880  1.0  -0.1264
  C  C36  1  0.640810  0.756910  0.859870  1.0  -0.0409
  C  C37  1  0.697310  0.835240  0.802540  1.0  -0.0337
  C  C38  1  0.460450  0.698730  0.001910  1.0  0.7294
  C  C39  1  0.001870  0.038400  0.797860  1.0  0.6833
  C  C40  1  0.002020  0.019220  0.902340  1.0  -0.1155
  C  C41  1  0.084820  0.922440  0.937920  1.0  -0.0492
  C  C42  1  0.917430  0.096970  0.964770  1.0  -0.053
  C  C43  1  0.480630  0.475850  0.738690  1.0  0.7814
  C  C44  1  0.391280  0.558910  0.678730  1.0  -0.1049
  C  C45  1  0.369860  0.532080  0.602400  1.0  -0.0292
  C  C46  1  0.295260  0.610630  0.543250  1.0  -0.0325
  C  C47  1  0.238970  0.716540  0.562120  1.0  -0.1246
  C  C48  1  0.257590  0.743090  0.640130  1.0  -0.0401
  C  C49  1  0.335090  0.664760  0.697460  1.0  -0.0356
  C  C50  1  0.161090  0.801270  0.498090  1.0  0.7276
  C  C51  1  0.838130  0.461600  0.702140  1.0  0.6848
  C  C52  1  0.923580  0.480780  0.597660  1.0  -0.114
  C  C53  1  0.945180  0.577560  0.562080  1.0  -0.0501
  C  C54  1  0.979170  0.403030  0.535230  1.0  -0.0537
  C  C55  1  0.304830  0.975850  0.238690  1.0  0.7777
  C  C56  1  0.371080  0.058910  0.178730  1.0  -0.1013
  C  C57  1  0.495660  0.032080  0.102400  1.0  -0.03
  C  C58  1  0.550860  0.110630  0.043250  1.0  -0.0317
  C  C59  1  0.482370  0.216540  0.062120  1.0  -0.1253
  C  C60  1  0.359190  0.243090  0.140130  1.0  -0.0413
  C  C61  1  0.302690  0.164760  0.197460  1.0  -0.0352
  C  C62  1  0.539550  0.301270  0.998090  1.0  0.7265
  C  C63  1  0.998130  0.961600  0.202140  1.0  0.6852
  C  C64  1  0.997980  0.980780  0.097660  1.0  -0.1157
  C  C65  1  0.915180  0.077560  0.062080  1.0  -0.0518
  C  C66  1  0.082570  0.903030  0.035230  1.0  -0.0522
  C  C67  1  0.519370  0.524150  0.261310  1.0  0.7846
  C  C68  1  0.608720  0.441090  0.321270  1.0  -0.1043
  C  C69  1  0.630140  0.467920  0.397600  1.0  -0.0294
  C  C70  1  0.704740  0.389370  0.456750  1.0  -0.0321
  C  C71  1  0.761030  0.283460  0.437880  1.0  -0.127
  C  C72  1  0.742410  0.256910  0.359870  1.0  -0.039
  C  C73  1  0.664910  0.335240  0.302540  1.0  -0.0359
  C  C74  1  0.838910  0.198730  0.501910  1.0  0.7297
  C  C75  1  0.161870  0.538400  0.297860  1.0  0.6832
  C  C76  1  0.076420  0.519220  0.402340  1.0  -0.1143
  C  C77  1  0.054820  0.422440  0.437920  1.0  -0.0509
  C  C78  1  0.020830  0.596970  0.464770  1.0  -0.0514
  O  O79  1  0.636550  0.116570  0.787910  1.0  -0.6171
  O  O80  1  0.802790  0.993730  0.691090  1.0  -0.6285
  O  O81  1  0.362990  0.720060  0.081460  1.0  -0.6809
  O  O82  1  0.507770  0.606720  0.974820  1.0  -0.7118
  O  O83  1  0.932010  0.128640  0.764840  1.0  -0.6729
  O  O84  1  0.073700  0.963270  0.745730  1.0  -0.5857
  O  O85  1  0.541030  0.383430  0.712090  1.0  -0.6195
  O  O86  1  0.487610  0.506270  0.808910  1.0  -0.6309
  O  O87  1  0.164510  0.779940  0.418540  1.0  -0.6784
  O  O88  1  0.089310  0.893280  0.525180  1.0  -0.712
  O  O89  1  0.825490  0.371360  0.735160  1.0  -0.6721
  O  O90  1  0.782700  0.536730  0.754270  1.0  -0.5848
  O  O91  1  0.363450  0.883430  0.212090  1.0  -0.616
  O  O92  1  0.197210  0.006270  0.308910  1.0  -0.6275
  O  O93  1  0.637010  0.279940  0.918540  1.0  -0.6802
  O  O94  1  0.492230  0.393280  0.025180  1.0  -0.7141
  O  O95  1  0.067990  0.871360  0.235160  1.0  -0.6707
  O  O96  1  0.926300  0.036730  0.254270  1.0  -0.5853
  O  O97  1  0.458970  0.616570  0.287910  1.0  -0.62
  O  O98  1  0.512390  0.493730  0.191090  1.0  -0.6293
  O  O99  1  0.835490  0.220060  0.581460  1.0  -0.6772
  O  O100  1  0.910690  0.106720  0.474820  1.0  -0.7091
  O  O101  1  0.174510  0.628640  0.264840  1.0  -0.6743
  O  O102  1  0.217300  0.463270  0.245730  1.0  -0.5856
