# generated using pymatgen
data_CdH4(C2O)4
_symmetry_space_group_name_H-M   'P 1'
_cell_length_a   7.45230000
_cell_length_b   9.77640000
_cell_length_c   9.84690000
_cell_angle_alpha   118.25500000
_cell_angle_beta   102.11800000
_cell_angle_gamma   91.35800000
_symmetry_Int_Tables_number   1
_chemical_formula_structural   CdH4(C2O)4
_chemical_formula_sum   'Cd2 H8 C16 O8'
_cell_volume   611.50923912
_cell_formula_units_Z   2
loop_
 _symmetry_equiv_pos_site_id
 _symmetry_equiv_pos_as_xyz
  1  'x, y, z'
loop_
 _atom_site_type_symbol
 _atom_site_label
 _atom_site_symmetry_multiplicity
 _atom_site_fract_x
 _atom_site_fract_y
 _atom_site_fract_z
 _atom_site_occupancy
 _atom_site_charge
  Cd  Cd1  1  0.762140  0.026220  0.515700  1.0  1.1289
  Cd  Cd2  1  0.237860  0.973780  0.484300  1.0  1.1278
  H  H3  1  0.826000  0.200300  0.121600  1.0  0.1122
  H  H4  1  0.068600  0.825000  0.096500  1.0  0.0924
  H  H5  1  0.273700  0.303300  0.785300  1.0  0.1162
  H  H6  1  0.814300  0.485600  0.009400  1.0  0.1056
  H  H7  1  0.174000  0.799700  0.878400  1.0  0.1127
  H  H8  1  0.931400  0.175000  0.903500  1.0  0.0916
  H  H9  1  0.726300  0.696700  0.214700  1.0  0.1165
  H  H10  1  0.185700  0.514400  0.990600  1.0  0.1057
  C  C11  1  0.873500  0.032200  0.271300  1.0  0.671
  C  C12  1  0.937000  0.013900  0.129100  1.0  -0.1172
  C  C13  1  0.896300  0.119000  0.072300  1.0  -0.0445
  C  C14  1  0.040500  0.896000  0.057300  1.0  -0.0514
  C  C15  1  0.613600  0.242300  0.745700  1.0  0.6896
  C  C16  1  0.553500  0.374200  0.878300  1.0  -0.1006
  C  C17  1  0.365300  0.382900  0.872300  1.0  -0.0638
  C  C18  1  0.686500  0.491600  0.005900  1.0  -0.0524
  C  C19  1  0.126500  0.967800  0.728700  1.0  0.6709
  C  C20  1  0.063000  0.986100  0.870900  1.0  -0.1186
  C  C21  1  0.103700  0.881000  0.927700  1.0  -0.0467
  C  C22  1  0.959500  0.104000  0.942700  1.0  -0.0502
  C  C23  1  0.386400  0.757700  0.254300  1.0  0.689
  C  C24  1  0.446500  0.625800  0.121700  1.0  -0.0987
  C  C25  1  0.634700  0.617100  0.127700  1.0  -0.0626
  C  C26  1  0.313500  0.508400  0.994100  1.0  -0.0521
  O  O27  1  0.767900  0.129000  0.328000  1.0  -0.5582
  O  O28  1  0.930400  0.943700  0.329600  1.0  -0.6601
  O  O29  1  0.520700  0.106100  0.672900  1.0  -0.7012
  O  O30  1  0.759100  0.270200  0.712600  1.0  -0.566
  O  O31  1  0.232100  0.871000  0.672000  1.0  -0.5599
  O  O32  1  0.069600  0.056300  0.670400  1.0  -0.6588
  O  O33  1  0.479300  0.893900  0.327100  1.0  -0.7
  O  O34  1  0.240900  0.729800  0.287400  1.0  -0.5673
