# generated using pymatgen
data_AgH18(C2N)6
_symmetry_space_group_name_H-M   'P 1'
_cell_length_a   10.65200000
_cell_length_b   15.40000000
_cell_length_c   10.92400000
_cell_angle_alpha   90.00000000
_cell_angle_beta   92.14000000
_cell_angle_gamma   90.00000000
_symmetry_Int_Tables_number   1
_chemical_formula_structural   AgH18(C2N)6
_chemical_formula_sum   'Ag4 H72 C48 N24'
_cell_volume   1790.73191403
_cell_formula_units_Z   4
loop_
 _symmetry_equiv_pos_site_id
 _symmetry_equiv_pos_as_xyz
  1  'x, y, z'
loop_
 _atom_site_type_symbol
 _atom_site_label
 _atom_site_symmetry_multiplicity
 _atom_site_fract_x
 _atom_site_fract_y
 _atom_site_fract_z
 _atom_site_occupancy
 _atom_site_charge
  Ag  Ag1  1  0.233200  0.732600  0.239300  1.0  0.3925
  Ag  Ag2  1  0.733200  0.767400  0.739300  1.0  0.3928
  Ag  Ag3  1  0.266800  0.232600  0.260700  1.0  0.3908
  Ag  Ag4  1  0.766800  0.267400  0.760700  1.0  0.3916
  H  H5  1  0.971100  0.957400  0.885600  1.0  0.0607
  H  H6  1  0.872000  0.928400  0.984300  1.0  0.0749
  H  H7  1  0.029400  0.823700  0.980600  1.0  0.0713
  H  H8  1  0.012200  0.813800  0.835300  1.0  0.079
  H  H9  1  0.834300  0.715100  0.099500  1.0  0.0769
  H  H10  1  0.822800  0.817700  0.079700  1.0  0.0744
  H  H11  1  0.621600  0.762700  0.096700  1.0  0.0671
  H  H12  1  0.644500  0.690800  0.994400  1.0  0.0811
  H  H13  1  0.546000  0.929300  0.971500  1.0  0.0552
  H  H14  1  0.683700  0.909400  0.027800  1.0  0.0767
  H  H15  1  0.701300  0.015800  0.878800  1.0  0.0629
  H  H16  1  0.624100  0.958300  0.780000  1.0  0.0755
  H  H17  1  0.922800  0.932600  0.670700  1.0  0.0991
  H  H18  1  0.779300  0.952500  0.631300  1.0  0.1051
  H  H19  1  0.868800  0.622600  0.918400  1.0  0.1054
  H  H20  1  0.973900  0.664400  0.835200  1.0  0.1031
  H  H21  1  0.449200  0.830600  0.828000  1.0  0.0921
  H  H22  1  0.477200  0.730100  0.855100  1.0  0.1014
  H  H23  1  0.471100  0.542600  0.385600  1.0  0.0608
  H  H24  1  0.372000  0.571600  0.484300  1.0  0.0753
  H  H25  1  0.529400  0.676300  0.480600  1.0  0.0711
  H  H26  1  0.512200  0.686200  0.335300  1.0  0.0791
  H  H27  1  0.334300  0.784900  0.599500  1.0  0.0756
  H  H28  1  0.322800  0.682300  0.579700  1.0  0.075
  H  H29  1  0.121600  0.737300  0.596700  1.0  0.0663
  H  H30  1  0.144500  0.809200  0.494400  1.0  0.0792
  H  H31  1  0.046000  0.570700  0.471500  1.0  0.0552
  H  H32  1  0.183700  0.590600  0.527800  1.0  0.0778
  H  H33  1  0.201300  0.484200  0.378800  1.0  0.0629
  H  H34  1  0.124100  0.541700  0.280000  1.0  0.075
  H  H35  1  0.422800  0.567400  0.170700  1.0  0.099
  H  H36  1  0.279300  0.547500  0.131300  1.0  0.1048
  H  H37  1  0.368800  0.877400  0.418400  1.0  0.1052
  H  H38  1  0.473900  0.835600  0.335200  1.0  0.1032
  H  H39  1  0.949200  0.669400  0.328000  1.0  0.0917
  H  H40  1  0.977200  0.769900  0.355100  1.0  0.1013
  H  H41  1  0.528900  0.457400  0.614400  1.0  0.0622
  H  H42  1  0.628000  0.428400  0.515700  1.0  0.0759
  H  H43  1  0.470600  0.323700  0.519400  1.0  0.0745
  H  H44  1  0.487800  0.313800  0.664700  1.0  0.0785
  H  H45  1  0.665700  0.215100  0.400500  1.0  0.0767
  H  H46  1  0.677200  0.317700  0.420300  1.0  0.0744
  H  H47  1  0.878400  0.262700  0.403300  1.0  0.0672
  H  H48  1  0.855500  0.190800  0.505600  1.0  0.0833
  H  H49  1  0.954000  0.429300  0.528500  1.0  0.0557
  H  H50  1  0.816300  0.409400  0.472200  1.0  0.0784
  H  H51  1  0.798700  0.515800  0.621200  1.0  0.0631
  H  H52  1  0.875900  0.458300  0.720000  1.0  0.0736
  H  H53  1  0.577200  0.432600  0.829300  1.0  0.101
  H  H54  1  0.720700  0.452500  0.868700  1.0  0.1054
  H  H55  1  0.631200  0.122600  0.581600  1.0  0.1043
  H  H56  1  0.526100  0.164400  0.664800  1.0  0.1031
  H  H57  1  0.050800  0.330600  0.672000  1.0  0.0911
  H  H58  1  0.022800  0.230100  0.644900  1.0  0.1013
  H  H59  1  0.028900  0.042600  0.114400  1.0  0.0622
  H  H60  1  0.128000  0.071600  0.015700  1.0  0.0743
  H  H61  1  0.970600  0.176300  0.019400  1.0  0.0741
  H  H62  1  0.987800  0.186200  0.164700  1.0  0.0782
  H  H63  1  0.165700  0.284900  0.900500  1.0  0.0773
  H  H64  1  0.177200  0.182300  0.920300  1.0  0.0739
  H  H65  1  0.378400  0.237300  0.903300  1.0  0.0673
  H  H66  1  0.355500  0.309200  0.005600  1.0  0.0796
  H  H67  1  0.454000  0.070700  0.028500  1.0  0.0553
  H  H68  1  0.316300  0.090600  0.972200  1.0  0.0776
  H  H69  1  0.298700  0.984200  0.121200  1.0  0.0618
  H  H70  1  0.375900  0.041700  0.220000  1.0  0.0738
  H  H71  1  0.077200  0.067400  0.329300  1.0  0.1006
  H  H72  1  0.220700  0.047500  0.368700  1.0  0.105
  H  H73  1  0.131200  0.377400  0.081600  1.0  0.1038
  H  H74  1  0.026100  0.335600  0.164800  1.0  0.1028
  H  H75  1  0.550800  0.169400  0.172000  1.0  0.0921
  H  H76  1  0.522800  0.269900  0.144900  1.0  0.1008
  C  C77  1  0.906200  0.913700  0.903800  1.0  -0.0827
  C  C78  1  0.966800  0.824400  0.911300  1.0  -0.0394
  C  C79  1  0.804800  0.760600  0.041300  1.0  -0.0918
  C  C80  1  0.663600  0.751400  0.019000  1.0  -0.0401
  C  C81  1  0.628600  0.903800  0.953200  1.0  -0.0975
  C  C82  1  0.685500  0.955600  0.850200  1.0  -0.0502
  C  C83  1  0.844500  0.960300  0.697300  1.0  -0.0695
  C  C84  1  0.867100  0.055400  0.717600  1.0  0.3016
  C  C85  1  0.934000  0.668300  0.915400  1.0  -0.0863
  C  C86  1  0.030300  0.653900  0.015600  1.0  0.3514
  C  C87  1  0.481200  0.789100  0.891000  1.0  -0.0675
  C  C88  1  0.400300  0.792800  0.998500  1.0  0.3398
  C  C89  1  0.406200  0.586300  0.403800  1.0  -0.083
  C  C90  1  0.466800  0.675600  0.411300  1.0  -0.0397
  C  C91  1  0.304800  0.739400  0.541300  1.0  -0.0911
  C  C92  1  0.163600  0.748600  0.519000  1.0  -0.0404
  C  C93  1  0.128600  0.596200  0.453200  1.0  -0.0996
  C  C94  1  0.185500  0.544400  0.350200  1.0  -0.0502
  C  C95  1  0.344500  0.539700  0.197300  1.0  -0.0702
  C  C96  1  0.367100  0.444600  0.217600  1.0  0.3028
  C  C97  1  0.434000  0.831700  0.415400  1.0  -0.0871
  C  C98  1  0.530300  0.846100  0.515600  1.0  0.3503
  C  C99  1  0.981200  0.710900  0.391000  1.0  -0.0684
  C  C100  1  0.900300  0.707200  0.498500  1.0  0.3391
  C  C101  1  0.593800  0.413700  0.596200  1.0  -0.0819
  C  C102  1  0.533200  0.324400  0.588700  1.0  -0.0418
  C  C103  1  0.695200  0.260600  0.458700  1.0  -0.0913
  C  C104  1  0.836400  0.251400  0.481000  1.0  -0.043
  C  C105  1  0.871400  0.403800  0.546800  1.0  -0.0994
  C  C106  1  0.814500  0.455600  0.649800  1.0  -0.0492
  C  C107  1  0.655500  0.460300  0.802700  1.0  -0.0706
  C  C108  1  0.632900  0.555400  0.782400  1.0  0.3001
  C  C109  1  0.566000  0.168300  0.584600  1.0  -0.0887
  C  C110  1  0.469700  0.153900  0.484400  1.0  0.3514
  C  C111  1  0.018800  0.289100  0.609000  1.0  -0.0736
  C  C112  1  0.099700  0.292800  0.501500  1.0  0.3409
  C  C113  1  0.093800  0.086300  0.096200  1.0  -0.0826
  C  C114  1  0.033200  0.175600  0.088700  1.0  -0.0418
  C  C115  1  0.195200  0.239400  0.958700  1.0  -0.0899
  C  C116  1  0.336400  0.248600  0.981000  1.0  -0.0428
  C  C117  1  0.371400  0.096200  0.046800  1.0  -0.0995
  C  C118  1  0.314500  0.044400  0.149800  1.0  -0.0487
  C  C119  1  0.155500  0.039700  0.302700  1.0  -0.0678
  C  C120  1  0.132900  0.944600  0.282400  1.0  0.3014
  C  C121  1  0.066000  0.331700  0.084600  1.0  -0.0895
  C  C122  1  0.969700  0.346100  0.984400  1.0  0.3512
  C  C123  1  0.518800  0.210900  0.109000  1.0  -0.0737
  C  C124  1  0.599700  0.207200  0.001500  1.0  0.3405
  N  N125  1  0.804000  0.918200  0.808600  1.0  -0.2394
  N  N126  1  0.875800  0.753300  0.927900  1.0  -0.2078
  N  N127  1  0.611400  0.810200  0.924600  1.0  -0.232
  N  N128  1  0.879600  0.127200  0.739500  1.0  -0.5224
  N  N129  1  0.100100  0.651500  0.096600  1.0  -0.4904
  N  N130  1  0.346500  0.794100  0.085300  1.0  -0.523
  N  N131  1  0.304000  0.581800  0.308600  1.0  -0.2396
  N  N132  1  0.375800  0.746700  0.427900  1.0  -0.2074
  N  N133  1  0.111400  0.689800  0.424600  1.0  -0.2314
  N  N134  1  0.379600  0.372800  0.239500  1.0  -0.5219
  N  N135  1  0.600100  0.848500  0.596600  1.0  -0.4903
  N  N136  1  0.846500  0.705900  0.585300  1.0  -0.5236
  N  N137  1  0.696000  0.418200  0.691400  1.0  -0.2401
  N  N138  1  0.624200  0.253300  0.572100  1.0  -0.2066
  N  N139  1  0.888600  0.310200  0.575400  1.0  -0.23
  N  N140  1  0.620400  0.627200  0.760500  1.0  -0.524
  N  N141  1  0.399900  0.151500  0.403400  1.0  -0.4902
  N  N142  1  0.153500  0.294100  0.414700  1.0  -0.524
  N  N143  1  0.196000  0.081800  0.191400  1.0  -0.2396
  N  N144  1  0.124200  0.246700  0.072100  1.0  -0.2062
  N  N145  1  0.388600  0.189800  0.075400  1.0  -0.2304
  N  N146  1  0.120400  0.872800  0.260500  1.0  -0.5237
  N  N147  1  0.899900  0.348500  0.903400  1.0  -0.49
  N  N148  1  0.653500  0.205900  0.914700  1.0  -0.5243
