# generated using pymatgen
data_NiH9C9N3O4
_symmetry_space_group_name_H-M   'P 1'
_cell_length_a   6.48700000
_cell_length_b   24.77900000
_cell_length_c   7.80500000
_cell_angle_alpha   90.00000000
_cell_angle_beta   91.02900000
_cell_angle_gamma   90.00000000
_symmetry_Int_Tables_number   1
_chemical_formula_structural   NiH9C9N3O4
_chemical_formula_sum   'Ni4 H36 C36 N12 O16'
_cell_volume   1254.38409367
_cell_formula_units_Z   4
loop_
 _symmetry_equiv_pos_site_id
 _symmetry_equiv_pos_as_xyz
  1  'x, y, z'
loop_
 _atom_site_type_symbol
 _atom_site_label
 _atom_site_symmetry_multiplicity
 _atom_site_fract_x
 _atom_site_fract_y
 _atom_site_fract_z
 _atom_site_occupancy
 _atom_site_charge
  Ni  Ni1  1  0.660400  0.451690  0.685200  1.0  0.8897
  Ni  Ni2  1  0.838600  0.021130  0.808600  1.0  0.9267
  Ni  Ni3  1  0.339600  0.951690  0.314800  1.0  0.8899
  Ni  Ni4  1  0.161400  0.521130  0.191400  1.0  0.9266
  H  H5  1  0.608800  0.337500  0.822500  1.0  0.0965
  H  H6  1  0.801600  0.259300  0.873700  1.0  0.1495
  H  H7  1  0.292300  0.334800  0.663100  1.0  0.1414
  H  H8  1  0.085600  0.410900  0.622000  1.0  0.0923
  H  H9  1  0.856900  0.131700  0.638200  1.0  0.1031
  H  H10  1  0.664400  0.210000  0.605900  1.0  0.1507
  H  H11  1  0.210800  0.138600  0.876500  1.0  0.1437
  H  H12  1  0.419100  0.063000  0.899400  1.0  0.0976
  H  H13  1  0.969400  0.597400  0.696600  1.0  0.1522
  H  H14  1  0.762900  0.608600  0.798700  1.0  0.1383
  H  H15  1  0.661000  0.591100  0.521400  1.0  0.0868
  H  H16  1  0.435400  0.525900  0.568600  1.0  0.3089
  H  H17  1  0.491000  0.540200  0.749900  1.0  0.2474
  H  H18  1  0.276900  0.365500  0.051400  1.0  0.1345
  H  H19  1  0.477900  0.382700  0.158800  1.0  0.1265
  H  H20  1  0.156100  0.374000  0.318800  1.0  0.1003
  H  H21  1  0.926800  0.441200  0.262800  1.0  0.3156
  H  H22  1  0.004000  0.432000  0.085800  1.0  0.2151
  H  H23  1  0.391200  0.837500  0.177500  1.0  0.0963
  H  H24  1  0.198400  0.759300  0.126300  1.0  0.15
  H  H25  1  0.707700  0.834800  0.336900  1.0  0.1408
  H  H26  1  0.914400  0.910900  0.378000  1.0  0.092
  H  H27  1  0.143100  0.631700  0.361800  1.0  0.1032
  H  H28  1  0.335600  0.710000  0.394100  1.0  0.151
  H  H29  1  0.789200  0.638600  0.123500  1.0  0.1446
  H  H30  1  0.580900  0.563000  0.100600  1.0  0.0979
  H  H31  1  0.030600  0.097400  0.303400  1.0  0.1521
  H  H32  1  0.237100  0.108600  0.201300  1.0  0.1381
  H  H33  1  0.339000  0.091100  0.478600  1.0  0.0863
  H  H34  1  0.564600  0.025900  0.431400  1.0  0.311
  H  H35  1  0.509000  0.040200  0.250100  1.0  0.248
  H  H36  1  0.723100  0.865500  0.948600  1.0  0.1344
  H  H37  1  0.522100  0.882700  0.841200  1.0  0.1278
  H  H38  1  0.843900  0.874000  0.681200  1.0  0.0994
  H  H39  1  0.073200  0.941200  0.737200  1.0  0.3141
  H  H40  1  0.996000  0.932000  0.914200  1.0  0.2155
  C  C41  1  0.749000  0.336600  0.788000  1.0  0.1769
  C  C42  1  0.861000  0.289300  0.817000  1.0  -0.2229
  C  C43  1  0.062000  0.287700  0.759000  1.0  0.1284
  C  C44  1  0.151000  0.334100  0.693000  1.0  -0.2038
  C  C45  1  0.027000  0.379400  0.671000  1.0  0.168
  C  C46  1  0.724000  0.133100  0.687000  1.0  0.1772
  C  C47  1  0.611000  0.180200  0.667000  1.0  -0.2046
  C  C48  1  0.418000  0.182700  0.740000  1.0  0.1041
  C  C49  1  0.343000  0.138200  0.827000  1.0  -0.175
  C  C50  1  0.469000  0.093400  0.839000  1.0  0.1786
  C  C51  1  0.909000  0.538500  0.875000  1.0  0.7261
  C  C52  1  0.843000  0.580200  0.740800  1.0  -0.3366
  C  C53  1  0.716000  0.559600  0.588100  1.0  0.0762
  C  C54  1  0.851000  0.525000  0.471600  1.0  0.6567
  C  C55  1  0.379000  0.441900  0.991000  1.0  0.657
  C  C56  1  0.342000  0.395600  0.116000  1.0  -0.371
  C  C57  1  0.212000  0.407700  0.267000  1.0  0.0482
  C  C58  1  0.352000  0.438800  0.396000  1.0  0.6527
  C  C59  1  0.251000  0.836600  0.212000  1.0  0.1757
  C  C60  1  0.139000  0.789300  0.183000  1.0  -0.2211
  C  C61  1  0.938000  0.787700  0.241000  1.0  0.1284
  C  C62  1  0.849000  0.834100  0.307000  1.0  -0.2024
  C  C63  1  0.973000  0.879400  0.329000  1.0  0.1683
  C  C64  1  0.276000  0.633100  0.313000  1.0  0.1771
  C  C65  1  0.389000  0.680200  0.333000  1.0  -0.2062
  C  C66  1  0.582000  0.682700  0.260000  1.0  0.1039
  C  C67  1  0.657000  0.638200  0.173000  1.0  -0.1734
  C  C68  1  0.531000  0.593400  0.161000  1.0  0.1785
  C  C69  1  0.091000  0.038500  0.125000  1.0  0.7269
  C  C70  1  0.157000  0.080200  0.259200  1.0  -0.3378
  C  C71  1  0.284000  0.059600  0.411900  1.0  0.0761
  C  C72  1  0.149000  0.025000  0.528400  1.0  0.6575
  C  C73  1  0.621000  0.941900  0.009000  1.0  0.6562
  C  C74  1  0.658000  0.895600  0.884000  1.0  -0.3699
  C  C75  1  0.788000  0.907700  0.733000  1.0  0.0467
  C  C76  1  0.648000  0.938800  0.604000  1.0  0.6532
  N  N77  1  0.827000  0.380500  0.716000  1.0  -0.3106
  N  N78  1  0.158000  0.235500  0.788000  1.0  -0.2106
  N  N79  1  0.658000  0.089500  0.771000  1.0  -0.3169
  N  N80  1  0.317000  0.234900  0.712000  1.0  -0.2014
  N  N81  1  0.541000  0.526600  0.649000  1.0  -0.6018
  N  N82  1  0.041000  0.442900  0.195000  1.0  -0.6247
  N  N83  1  0.173000  0.880500  0.284000  1.0  -0.3096
  N  N84  1  0.842000  0.735500  0.212000  1.0  -0.2112
  N  N85  1  0.342000  0.589500  0.229000  1.0  -0.3186
  N  N86  1  0.683000  0.734900  0.288000  1.0  -0.2003
  N  N87  1  0.459000  0.026600  0.351000  1.0  -0.6012
  N  N88  1  0.959000  0.942900  0.805000  1.0  -0.6259
  O  O89  1  0.876000  0.489400  0.851300  1.0  -0.5861
  O  O90  1  0.008000  0.558400  0.001200  1.0  -0.5811
  O  O91  1  0.835000  0.475000  0.481500  1.0  -0.5674
  O  O92  1  0.957000  0.551900  0.372200  1.0  -0.5623
  O  O93  1  0.362000  0.491900  0.019800  1.0  -0.5532
  O  O94  1  0.471000  0.424300  0.859600  1.0  -0.6105
  O  O95  1  0.333000  0.488400  0.386100  1.0  -0.5675
  O  O96  1  0.467000  0.412800  0.493100  1.0  -0.5609
  O  O97  1  0.124000  0.989400  0.148700  1.0  -0.5857
  O  O98  1  0.992000  0.058400  0.998800  1.0  -0.5812
  O  O99  1  0.165000  0.975000  0.518500  1.0  -0.5673
  O  O100  1  0.043000  0.051900  0.627800  1.0  -0.5623
  O  O101  1  0.638000  0.991900  0.980200  1.0  -0.5535
  O  O102  1  0.529000  0.924300  0.140400  1.0  -0.6103
  O  O103  1  0.667000  0.988400  0.613900  1.0  -0.5678
  O  O104  1  0.533000  0.912800  0.506900  1.0  -0.5599
