# generated using pymatgen
data_Ni2H21C23N5O8
_symmetry_space_group_name_H-M   'P 1'
_cell_length_a   30.84000000
_cell_length_b   6.57400000
_cell_length_c   7.70400000
_cell_angle_alpha   90.00000000
_cell_angle_beta   101.55700000
_cell_angle_gamma   90.00000000
_symmetry_Int_Tables_number   1
_chemical_formula_structural   Ni2H21C23N5O8
_chemical_formula_sum   'Ni4 H42 C46 N10 O16'
_cell_volume   1530.25893515
_cell_formula_units_Z   2
loop_
 _symmetry_equiv_pos_site_id
 _symmetry_equiv_pos_as_xyz
  1  'x, y, z'
loop_
 _atom_site_type_symbol
 _atom_site_label
 _atom_site_symmetry_multiplicity
 _atom_site_fract_x
 _atom_site_fract_y
 _atom_site_fract_z
 _atom_site_occupancy
 _atom_site_charge
  Ni  Ni1  1  0.278640  0.268600  0.275780  1.0  0.8841
  Ni  Ni2  1  0.778640  0.768600  0.275780  1.0  0.8841
  Ni  Ni3  1  0.721360  0.268600  0.724220  1.0  0.8861
  Ni  Ni4  1  0.221360  0.768600  0.724220  1.0  0.8861
  H  H5  1  0.379100  0.659600  0.291100  1.0  0.1349
  H  H6  1  0.372000  0.307800  0.501700  1.0  0.1029
  H  H7  1  0.313800  0.843700  0.236200  1.0  0.0759
  H  H8  1  0.436900  0.133700  0.584800  1.0  0.1334
  H  H9  1  0.285100  0.008500  0.704300  1.0  0.3066
  H  H10  1  0.294300  0.919800  0.887000  1.0  0.2463
  H  H11  1  0.339500  0.787900  0.671500  1.0  0.0921
  H  H12  1  0.434700  0.488300  0.456600  1.0  0.0863
  H  H13  1  0.351100  0.654300  0.946500  1.0  0.122
  H  H14  1  0.340400  0.463100  0.817500  1.0  0.1434
  H  H15  1  0.879100  0.159600  0.291100  1.0  0.1349
  H  H16  1  0.872000  0.807800  0.501700  1.0  0.1029
  H  H17  1  0.813800  0.343700  0.236200  1.0  0.0759
  H  H18  1  0.936900  0.633700  0.584800  1.0  0.1334
  H  H19  1  0.785100  0.508500  0.704300  1.0  0.3066
  H  H20  1  0.794300  0.419800  0.887000  1.0  0.2463
  H  H21  1  0.839500  0.287900  0.671500  1.0  0.0921
  H  H22  1  0.934700  0.988300  0.456600  1.0  0.0863
  H  H23  1  0.851100  0.154300  0.946500  1.0  0.122
  H  H24  1  0.840400  0.963100  0.817500  1.0  0.1434
  H  H25  1  0.620900  0.659600  0.708900  1.0  0.1358
  H  H26  1  0.628000  0.307800  0.498300  1.0  0.1036
  H  H27  1  0.686200  0.843700  0.763800  1.0  0.0764
  H  H28  1  0.563100  0.133700  0.415200  1.0  0.1339
  H  H29  1  0.714900  0.008500  0.295700  1.0  0.3082
  H  H30  1  0.705700  0.919800  0.113000  1.0  0.2483
  H  H31  1  0.660500  0.787900  0.328500  1.0  0.0923
  H  H32  1  0.565300  0.488300  0.543400  1.0  0.0857
  H  H33  1  0.648900  0.654300  0.053500  1.0  0.1225
  H  H34  1  0.659600  0.463100  0.182500  1.0  0.1429
  H  H35  1  0.120900  0.159600  0.708900  1.0  0.1358
  H  H36  1  0.128000  0.807800  0.498300  1.0  0.1036
  H  H37  1  0.186200  0.343700  0.763800  1.0  0.0764
  H  H38  1  0.063100  0.633700  0.415200  1.0  0.1339
  H  H39  1  0.214900  0.508500  0.295700  1.0  0.3082
  H  H40  1  0.205700  0.419800  0.113000  1.0  0.2483
  H  H41  1  0.160500  0.287900  0.328500  1.0  0.0923
  H  H42  1  0.065300  0.988300  0.543400  1.0  0.0857
  H  H43  1  0.148900  0.154300  0.053500  1.0  0.1225
  H  H44  1  0.159600  0.963100  0.182500  1.0  0.1429
  H  H45  1  0.500000  0.019600  0.500000  1.0  0.1167
  H  H46  1  0.000000  0.519600  0.500000  1.0  0.1167
  C  C47  1  0.378700  0.793900  0.336300  1.0  -0.1841
  C  C48  1  0.373600  0.173600  0.457800  1.0  0.1657
  C  C49  1  0.459900  0.769000  0.467900  1.0  0.0044
  C  C50  1  0.339700  0.907600  0.300900  1.0  0.1666
  C  C51  1  0.416300  0.876200  0.436400  1.0  0.0802
  C  C52  1  0.412600  0.073200  0.506100  1.0  -0.2406
  C  C53  1  0.313100  0.725000  0.707600  1.0  0.0329
  C  C54  1  0.286100  0.600400  0.552600  1.0  0.6337
  C  C55  1  0.461800  0.561400  0.473000  1.0  0.1431
  C  C56  1  0.290200  0.515600  0.963000  1.0  0.6883
  C  C57  1  0.327300  0.586000  0.860700  1.0  -0.3746
  C  C58  1  0.878700  0.293900  0.336300  1.0  -0.1841
  C  C59  1  0.873600  0.673600  0.457800  1.0  0.1657
  C  C60  1  0.959900  0.269000  0.467900  1.0  0.0044
  C  C61  1  0.839700  0.407600  0.300900  1.0  0.1666
  C  C62  1  0.916300  0.376200  0.436400  1.0  0.0802
  C  C63  1  0.912600  0.573200  0.506100  1.0  -0.2406
  C  C64  1  0.813100  0.225000  0.707600  1.0  0.0329
  C  C65  1  0.786100  0.100400  0.552600  1.0  0.6337
  C  C66  1  0.961800  0.061400  0.473000  1.0  0.1431
  C  C67  1  0.790200  0.015600  0.963000  1.0  0.6883
  C  C68  1  0.827300  0.086000  0.860700  1.0  -0.3746
  C  C69  1  0.621300  0.793900  0.663700  1.0  -0.1853
  C  C70  1  0.626400  0.173600  0.542200  1.0  0.1654
  C  C71  1  0.540100  0.769000  0.532100  1.0  0.0046
  C  C72  1  0.660300  0.907600  0.699100  1.0  0.1659
  C  C73  1  0.583700  0.876200  0.563600  1.0  0.0795
  C  C74  1  0.587400  0.073200  0.493900  1.0  -0.2414
  C  C75  1  0.686900  0.725000  0.292400  1.0  0.0317
  C  C76  1  0.713900  0.600400  0.447400  1.0  0.6348
  C  C77  1  0.538200  0.561400  0.527000  1.0  0.1431
  C  C78  1  0.709800  0.515600  0.037000  1.0  0.6883
  C  C79  1  0.672700  0.586000  0.139300  1.0  -0.3779
  C  C80  1  0.121300  0.293900  0.663700  1.0  -0.1853
  C  C81  1  0.126400  0.673600  0.542200  1.0  0.1654
  C  C82  1  0.040100  0.269000  0.532100  1.0  0.0046
  C  C83  1  0.160300  0.407600  0.699100  1.0  0.1659
  C  C84  1  0.083700  0.376200  0.563600  1.0  0.0795
  C  C85  1  0.087400  0.573200  0.493900  1.0  -0.2414
  C  C86  1  0.186900  0.225000  0.292400  1.0  0.0317
  C  C87  1  0.213900  0.100400  0.447400  1.0  0.6348
  C  C88  1  0.038200  0.061400  0.527000  1.0  0.1431
  C  C89  1  0.209800  0.015600  0.037000  1.0  0.6883
  C  C90  1  0.172700  0.086000  0.139300  1.0  -0.3779
  C  C91  1  0.500000  0.875000  0.500000  1.0  -0.0879
  C  C92  1  0.000000  0.375000  0.500000  1.0  -0.0879
  N  N93  1  0.336400  0.096700  0.350900  1.0  -0.3198
  N  N94  1  0.284500  0.891000  0.768800  1.0  -0.63
  N  N95  1  0.836400  0.596700  0.350900  1.0  -0.3198
  N  N96  1  0.784500  0.391000  0.768800  1.0  -0.63
  N  N97  1  0.663600  0.096700  0.649100  1.0  -0.3184
  N  N98  1  0.715500  0.891000  0.231200  1.0  -0.6303
  N  N99  1  0.163600  0.596700  0.649100  1.0  -0.3184
  N  N100  1  0.215500  0.391000  0.231200  1.0  -0.6303
  N  N101  1  0.500000  0.454000  0.500000  1.0  -0.4376
  N  N102  1  0.000000  0.954000  0.500000  1.0  -0.4376
  O  O103  1  0.306400  0.489500  0.458900  1.0  -0.589
  O  O104  1  0.307800  0.409500  0.091600  1.0  -0.5852
  O  O105  1  0.249900  0.546900  0.910200  1.0  -0.5696
  O  O106  1  0.245500  0.623600  0.529100  1.0  -0.5459
  O  O107  1  0.806400  0.989500  0.458900  1.0  -0.589
  O  O108  1  0.807800  0.909500  0.091600  1.0  -0.5852
  O  O109  1  0.749900  0.046900  0.910200  1.0  -0.5696
  O  O110  1  0.745500  0.123600  0.529100  1.0  -0.5459
  O  O111  1  0.693600  0.489500  0.541100  1.0  -0.5881
  O  O112  1  0.692200  0.409500  0.908400  1.0  -0.5865
  O  O113  1  0.750100  0.546900  0.089800  1.0  -0.5697
  O  O114  1  0.754500  0.623600  0.470900  1.0  -0.5465
  O  O115  1  0.193600  0.989500  0.541100  1.0  -0.5881
  O  O116  1  0.192200  0.909500  0.908400  1.0  -0.5865
  O  O117  1  0.250100  0.046900  0.089800  1.0  -0.5697
  O  O118  1  0.254500  0.123600  0.470900  1.0  -0.5465
