# generated using pymatgen
data_NiH10C10(NO2)2
_symmetry_space_group_name_H-M   'P 1'
_cell_length_a   6.42900000
_cell_length_b   25.18000000
_cell_length_c   7.87400000
_cell_angle_alpha   90.00000000
_cell_angle_beta   90.10100000
_cell_angle_gamma   90.00000000
_symmetry_Int_Tables_number   1
_chemical_formula_structural   NiH10C10(NO2)2
_chemical_formula_sum   'Ni4 H40 C40 N8 O16'
_cell_volume   1274.65861984
_cell_formula_units_Z   4
loop_
 _symmetry_equiv_pos_site_id
 _symmetry_equiv_pos_as_xyz
  1  'x, y, z'
loop_
 _atom_site_type_symbol
 _atom_site_label
 _atom_site_symmetry_multiplicity
 _atom_site_fract_x
 _atom_site_fract_y
 _atom_site_fract_z
 _atom_site_occupancy
 _atom_site_charge
  Ni  Ni1  1  0.119100  0.735300  0.184000  1.0  0.8954
  Ni  Ni2  1  0.619200  0.805500  0.688100  1.0  0.9191
  Ni  Ni3  1  0.880900  0.235300  0.816000  1.0  0.8955
  Ni  Ni4  1  0.380800  0.305500  0.311900  1.0  0.9189
  H  H5  1  0.214200  0.893300  0.285400  1.0  0.1337
  H  H6  1  0.421900  0.879700  0.183800  1.0  0.1465
  H  H7  1  0.106900  0.873400  0.023900  1.0  0.0742
  H  H8  1  0.889400  0.807800  0.072500  1.0  0.3202
  H  H9  1  0.944400  0.821700  0.251600  1.0  0.2543
  H  H10  1  0.699000  0.653200  0.542800  1.0  0.1199
  H  H11  1  0.915900  0.664000  0.636500  1.0  0.1243
  H  H12  1  0.602300  0.664600  0.823000  1.0  0.1085
  H  H13  1  0.368400  0.727900  0.732300  1.0  0.2875
  H  H14  1  0.474600  0.719100  0.565000  1.0  0.2194
  H  H15  1  0.077700  0.624000  0.330900  1.0  0.0893
  H  H16  1  0.288700  0.554200  0.417100  1.0  0.1321
  H  H17  1  0.747600  0.616500  0.126500  1.0  0.1318
  H  H18  1  0.554900  0.693600  0.117400  1.0  0.0795
  H  H19  1  0.596500  0.498500  0.356100  1.0  0.1064
  H  H20  1  0.962400  0.346200  0.397100  1.0  0.0934
  H  H21  1  0.749700  0.419500  0.360800  1.0  0.1246
  H  H22  1  0.225900  0.492400  0.117900  1.0  0.1368
  H  H23  1  0.400400  0.412600  0.125600  1.0  0.0937
  H  H24  1  0.879800  0.537000  0.127400  1.0  0.1156
  H  H25  1  0.785800  0.393300  0.714600  1.0  0.1337
  H  H26  1  0.578100  0.379700  0.816200  1.0  0.1456
  H  H27  1  0.893100  0.373400  0.976100  1.0  0.0731
  H  H28  1  0.110600  0.307800  0.927500  1.0  0.321
  H  H29  1  0.055600  0.321700  0.748400  1.0  0.256
  H  H30  1  0.301000  0.153200  0.457200  1.0  0.1204
  H  H31  1  0.084100  0.164000  0.363500  1.0  0.1235
  H  H32  1  0.397700  0.164600  0.177000  1.0  0.1074
  H  H33  1  0.631600  0.227900  0.267700  1.0  0.2874
  H  H34  1  0.525400  0.219100  0.435000  1.0  0.2201
  H  H35  1  0.922300  0.124000  0.669100  1.0  0.0886
  H  H36  1  0.711300  0.054200  0.582900  1.0  0.1326
  H  H37  1  0.252400  0.116500  0.873500  1.0  0.132
  H  H38  1  0.445100  0.193600  0.882600  1.0  0.0795
  H  H39  1  0.403500  0.998500  0.643900  1.0  0.1056
  H  H40  1  0.037600  0.846200  0.602900  1.0  0.0933
  H  H41  1  0.250300  0.919500  0.639200  1.0  0.125
  H  H42  1  0.774100  0.992400  0.882100  1.0  0.1361
  H  H43  1  0.599600  0.912600  0.874400  1.0  0.0948
  H  H44  1  0.120200  0.037000  0.872600  1.0  0.115
  C  C45  1  0.358000  0.824100  0.373000  1.0  0.7029
  C  C46  1  0.293500  0.864100  0.231600  1.0  -0.3374
  C  C47  1  0.167400  0.842900  0.088800  1.0  0.0495
  C  C48  1  0.307000  0.809900  0.968200  1.0  0.6415
  C  C49  1  0.824000  0.728200  0.482300  1.0  0.5427
  C  C50  1  0.781000  0.680300  0.604200  1.0  -0.3314
  C  C51  1  0.664300  0.696400  0.766300  1.0  0.042
  C  C52  1  0.839000  0.720800  0.877300  1.0  0.6094
  C  C53  1  0.220100  0.623800  0.299000  1.0  0.1606
  C  C54  1  0.341500  0.580300  0.341500  1.0  -0.134
  C  C55  1  0.542600  0.574600  0.273400  1.0  0.0985
  C  C56  1  0.615300  0.617900  0.179800  1.0  -0.2229
  C  C57  1  0.493800  0.662700  0.165500  1.0  0.1764
  C  C58  1  0.656000  0.525000  0.285000  1.0  -0.1171
  C  C59  1  0.013400  0.375800  0.334900  1.0  0.1592
  C  C60  1  0.886900  0.420000  0.316400  1.0  -0.1887
  C  C61  1  0.960200  0.465600  0.232300  1.0  0.1089
  C  C62  1  0.162800  0.462300  0.169300  1.0  -0.2201
  C  C63  1  0.270400  0.415200  0.182200  1.0  0.1736
  C  C64  1  0.831000  0.512200  0.209000  1.0  -0.0957
  C  C65  1  0.642000  0.324100  0.627000  1.0  0.7037
  C  C66  1  0.706500  0.364100  0.768400  1.0  -0.3372
  C  C67  1  0.832600  0.342900  0.911200  1.0  0.0492
  C  C68  1  0.693000  0.309900  0.031800  1.0  0.642
  C  C69  1  0.176000  0.228200  0.517700  1.0  0.5404
  C  C70  1  0.219000  0.180300  0.395800  1.0  -0.33
  C  C71  1  0.335700  0.196400  0.233700  1.0  0.0417
  C  C72  1  0.161000  0.220800  0.122700  1.0  0.6097
  C  C73  1  0.779900  0.123800  0.701000  1.0  0.1589
  C  C74  1  0.658500  0.080300  0.658500  1.0  -0.135
  C  C75  1  0.457400  0.074600  0.726600  1.0  0.0988
  C  C76  1  0.384700  0.117900  0.820200  1.0  -0.224
  C  C77  1  0.506200  0.162700  0.834500  1.0  0.1766
  C  C78  1  0.344000  0.025000  0.715000  1.0  -0.1163
  C  C79  1  0.986600  0.875800  0.665100  1.0  0.1593
  C  C80  1  0.113100  0.920000  0.683600  1.0  -0.1903
  C  C81  1  0.039800  0.965600  0.767700  1.0  0.1092
  C  C82  1  0.837200  0.962300  0.830700  1.0  -0.22
  C  C83  1  0.729600  0.915200  0.817800  1.0  0.1755
  C  C84  1  0.169000  0.012200  0.791000  1.0  -0.0948
  N  N85  1  0.995800  0.808900  0.150700  1.0  -0.6197
  N  N86  1  0.493000  0.729800  0.676000  1.0  -0.6279
  N  N87  1  0.296500  0.665500  0.214500  1.0  -0.3148
  N  N88  1  0.204300  0.373200  0.268600  1.0  -0.3185
  N  N89  1  0.004200  0.308900  0.849300  1.0  -0.6193
  N  N90  1  0.507000  0.229800  0.324000  1.0  -0.6291
  N  N91  1  0.703500  0.165500  0.785500  1.0  -0.3154
  N  N92  1  0.795700  0.873200  0.731400  1.0  -0.3207
  O  O93  1  0.318900  0.775300  0.355100  1.0  -0.6028
  O  O94  1  0.455000  0.843600  0.494700  1.0  -0.5757
  O  O95  1  0.301600  0.761800  0.993200  1.0  -0.551
  O  O96  1  0.418500  0.834900  0.867300  1.0  -0.5759
  O  O97  1  0.917200  0.707900  0.359500  1.0  -0.604
  O  O98  1  0.819000  0.778600  0.500500  1.0  -0.5625
  O  O99  1  0.935400  0.696400  0.986600  1.0  -0.5546
  O  O100  1  0.807000  0.770400  0.874700  1.0  -0.615
  O  O101  1  0.681100  0.275300  0.644900  1.0  -0.6023
  O  O102  1  0.545000  0.343600  0.505300  1.0  -0.5755
  O  O103  1  0.698400  0.261800  0.006800  1.0  -0.5506
  O  O104  1  0.581500  0.334900  0.132700  1.0  -0.576
  O  O105  1  0.082800  0.207900  0.640500  1.0  -0.6034
  O  O106  1  0.181000  0.278600  0.499500  1.0  -0.5636
  O  O107  1  0.064600  0.196400  0.013400  1.0  -0.5541
  O  O108  1  0.193000  0.270400  0.125300  1.0  -0.615
