# generated using pymatgen
data_NiH11C12(NO2)2
_symmetry_space_group_name_H-M   'P 1'
_cell_length_a   27.83700000
_cell_length_b   9.89200000
_cell_length_c   10.44600000
_cell_angle_alpha   90.00000000
_cell_angle_beta   90.00000000
_cell_angle_gamma   90.00000000
_symmetry_Int_Tables_number   1
_chemical_formula_structural   NiH11C12(NO2)2
_chemical_formula_sum   'Ni8 H88 C96 N16 O32'
_cell_volume   2876.44820738
_cell_formula_units_Z   8
loop_
 _symmetry_equiv_pos_site_id
 _symmetry_equiv_pos_as_xyz
  1  'x, y, z'
loop_
 _atom_site_type_symbol
 _atom_site_label
 _atom_site_symmetry_multiplicity
 _atom_site_fract_x
 _atom_site_fract_y
 _atom_site_fract_z
 _atom_site_occupancy
 _atom_site_charge
  Ni  Ni1  1  0.723400  0.155390  0.478700  1.0  0.9041
  Ni  Ni2  1  0.781810  0.164360  0.990580  1.0  0.84
  Ni  Ni3  1  0.276600  0.844610  0.478700  1.0  0.9015
  Ni  Ni4  1  0.218190  0.835640  0.990580  1.0  0.8414
  Ni  Ni5  1  0.776600  0.655390  0.521300  1.0  0.9018
  Ni  Ni6  1  0.718190  0.664360  0.009420  1.0  0.8422
  Ni  Ni7  1  0.223400  0.344610  0.521300  1.0  0.9041
  Ni  Ni8  1  0.281810  0.335640  0.009420  1.0  0.84
  H  H9  1  0.710900  0.219700  0.130900  1.0  0.2432
  H  H10  1  0.702600  0.286600  0.004400  1.0  0.2457
  H  H11  1  0.789300  0.326400  0.514200  1.0  0.2477
  H  H12  1  0.802300  0.202600  0.588800  1.0  0.2276
  H  H13  1  0.617000  0.124100  0.543500  1.0  0.0834
  H  H14  1  0.551000  0.004300  0.482900  1.0  0.1259
  H  H15  1  0.629100  0.844300  0.192400  1.0  0.1276
  H  H16  1  0.693600  0.969300  0.268000  1.0  0.0837
  H  H17  1  0.518100  0.763600  0.463600  1.0  0.1218
  H  H18  1  0.455000  0.630800  0.391500  1.0  0.1088
  H  H19  1  0.482200  0.738700  0.031000  1.0  0.123
  H  H20  1  0.549800  0.855000  0.099300  1.0  0.0921
  H  H21  1  0.374700  0.636600  0.301700  1.0  0.0863
  H  H22  1  0.311900  0.508000  0.233400  1.0  0.0996
  H  H23  1  0.386400  0.380800  0.941200  1.0  0.0849
  H  H24  1  0.450600  0.510100  0.002700  1.0  0.1072
  H  H25  1  0.653300  0.026200  0.834400  1.0  0.1455
  H  H26  1  0.650500  0.186200  0.850300  1.0  0.141
  H  H27  1  0.653900  0.088500  0.053400  1.0  0.0821
  H  H28  1  0.848400  0.250700  0.394000  1.0  0.091
  H  H29  1  0.863600  0.052000  0.501500  1.0  0.1255
  H  H30  1  0.857600  0.015100  0.353500  1.0  0.1415
  H  H31  1  0.289100  0.780300  0.130900  1.0  0.2441
  H  H32  1  0.297400  0.713400  0.004400  1.0  0.2461
  H  H33  1  0.210700  0.673600  0.514200  1.0  0.2482
  H  H34  1  0.197700  0.797400  0.588800  1.0  0.2278
  H  H35  1  0.383000  0.875900  0.543500  1.0  0.083
  H  H36  1  0.449000  0.995700  0.482900  1.0  0.1258
  H  H37  1  0.370900  0.155700  0.192400  1.0  0.1281
  H  H38  1  0.306400  0.030700  0.268000  1.0  0.0833
  H  H39  1  0.481900  0.236400  0.463600  1.0  0.1219
  H  H40  1  0.545000  0.369200  0.391500  1.0  0.1083
  H  H41  1  0.517800  0.261300  0.031000  1.0  0.1238
  H  H42  1  0.450200  0.145000  0.099300  1.0  0.0927
  H  H43  1  0.625300  0.363400  0.301700  1.0  0.0866
  H  H44  1  0.688100  0.492000  0.233400  1.0  0.0999
  H  H45  1  0.613600  0.619200  0.941200  1.0  0.0848
  H  H46  1  0.549400  0.489900  0.002700  1.0  0.1076
  H  H47  1  0.346700  0.973800  0.834400  1.0  0.1426
  H  H48  1  0.349500  0.813800  0.850300  1.0  0.1402
  H  H49  1  0.346100  0.911500  0.053400  1.0  0.0833
  H  H50  1  0.151600  0.749300  0.394000  1.0  0.0891
  H  H51  1  0.136400  0.948000  0.501500  1.0  0.1252
  H  H52  1  0.142400  0.984900  0.353500  1.0  0.1419
  H  H53  1  0.789100  0.719700  0.869100  1.0  0.2432
  H  H54  1  0.797400  0.786600  0.995600  1.0  0.2461
  H  H55  1  0.710700  0.826400  0.485800  1.0  0.2481
  H  H56  1  0.697700  0.702600  0.411200  1.0  0.2291
  H  H57  1  0.883000  0.624100  0.456500  1.0  0.0835
  H  H58  1  0.949000  0.504300  0.517100  1.0  0.1256
  H  H59  1  0.870900  0.344300  0.807600  1.0  0.1272
  H  H60  1  0.806400  0.469300  0.732000  1.0  0.0837
  H  H61  1  0.981900  0.263600  0.536400  1.0  0.1224
  H  H62  1  0.045000  0.130800  0.608500  1.0  0.1087
  H  H63  1  0.017800  0.238700  0.969000  1.0  0.1224
  H  H64  1  0.950200  0.355000  0.900700  1.0  0.0926
  H  H65  1  0.125300  0.136600  0.698300  1.0  0.0862
  H  H66  1  0.188100  0.008000  0.766600  1.0  0.0995
  H  H67  1  0.113600  0.880800  0.058800  1.0  0.0857
  H  H68  1  0.049400  0.010100  0.997300  1.0  0.1077
  H  H69  1  0.846700  0.526200  0.165600  1.0  0.144
  H  H70  1  0.849500  0.686200  0.149700  1.0  0.1395
  H  H71  1  0.846100  0.588500  0.946600  1.0  0.0833
  H  H72  1  0.651600  0.750700  0.606000  1.0  0.0892
  H  H73  1  0.636400  0.552000  0.498500  1.0  0.1238
  H  H74  1  0.642400  0.515100  0.646500  1.0  0.1431
  H  H75  1  0.210900  0.280300  0.869100  1.0  0.2437
  H  H76  1  0.202600  0.213400  0.995600  1.0  0.2466
  H  H77  1  0.289300  0.173600  0.485800  1.0  0.2479
  H  H78  1  0.302300  0.297400  0.411200  1.0  0.2288
  H  H79  1  0.117000  0.375900  0.456500  1.0  0.0833
  H  H80  1  0.051000  0.495700  0.517100  1.0  0.1255
  H  H81  1  0.129100  0.655700  0.807600  1.0  0.127
  H  H82  1  0.193600  0.530700  0.732000  1.0  0.0838
  H  H83  1  0.018100  0.736400  0.536400  1.0  0.1228
  H  H84  1  0.955000  0.869200  0.608500  1.0  0.1089
  H  H85  1  0.982200  0.761300  0.969000  1.0  0.1224
  H  H86  1  0.049800  0.645000  0.900700  1.0  0.0921
  H  H87  1  0.874700  0.863400  0.698300  1.0  0.0863
  H  H88  1  0.811900  0.992000  0.766600  1.0  0.0992
  H  H89  1  0.886400  0.119200  0.058800  1.0  0.0846
  H  H90  1  0.950600  0.989900  0.997300  1.0  0.1077
  H  H91  1  0.153300  0.473800  0.165600  1.0  0.1443
  H  H92  1  0.150500  0.313800  0.149700  1.0  0.1413
  H  H93  1  0.153900  0.411500  0.946600  1.0  0.0819
  H  H94  1  0.348400  0.249300  0.606000  1.0  0.0909
  H  H95  1  0.363600  0.448000  0.498500  1.0  0.1235
  H  H96  1  0.357600  0.484900  0.646500  1.0  0.1415
  C  C97  1  0.619520  0.066100  0.471300  1.0  0.1932
  C  C98  1  0.580140  0.994900  0.436400  1.0  -0.2165
  C  C99  1  0.582660  0.907600  0.331700  1.0  0.0872
  C  C100  1  0.625700  0.900000  0.265900  1.0  -0.2264
  C  C101  1  0.663660  0.976600  0.311200  1.0  0.1662
  C  C102  1  0.540640  0.830100  0.285900  1.0  0.0775
  C  C103  1  0.511390  0.758500  0.374600  1.0  -0.1459
  C  C104  1  0.473320  0.681500  0.331700  1.0  -0.1265
  C  C105  1  0.461570  0.676800  0.206000  1.0  0.0255
  C  C106  1  0.489730  0.742400  0.119700  1.0  -0.1598
  C  C107  1  0.529450  0.814600  0.161500  1.0  -0.1389
  C  C108  1  0.420840  0.592300  0.163500  1.0  0.0815
  C  C109  1  0.378590  0.584900  0.225700  1.0  -0.163
  C  C110  1  0.340920  0.507100  0.185400  1.0  0.1498
  C  C111  1  0.383730  0.433900  0.016700  1.0  0.1606
  C  C112  1  0.422270  0.511300  0.053300  1.0  -0.2243
  C  C113  1  0.712800  0.122800  0.768000  1.0  0.7411
  C  C114  1  0.671930  0.106900  0.860100  1.0  -0.4111
  C  C115  1  0.684220  0.092800  0.002100  1.0  0.0683
  C  C116  1  0.712980  0.962200  0.021200  1.0  0.6625
  C  C117  1  0.790730  0.187300  0.283000  1.0  0.6792
  C  C118  1  0.820880  0.186800  0.404700  1.0  0.0821
  C  C119  1  0.840170  0.046600  0.430500  1.0  -0.3603
  C  C120  1  0.802310  0.942200  0.464700  1.0  0.7436
  C  C121  1  0.380480  0.933900  0.471300  1.0  0.1935
  C  C122  1  0.419860  0.005100  0.436400  1.0  -0.217
  C  C123  1  0.417340  0.092400  0.331700  1.0  0.0884
  C  C124  1  0.374300  0.100000  0.265900  1.0  -0.2264
  C  C125  1  0.336340  0.023400  0.311200  1.0  0.1666
  C  C126  1  0.459360  0.169900  0.285900  1.0  0.0776
  C  C127  1  0.488610  0.241500  0.374600  1.0  -0.1456
  C  C128  1  0.526680  0.318500  0.331700  1.0  -0.1262
  C  C129  1  0.538430  0.323200  0.206000  1.0  0.0244
  C  C130  1  0.510270  0.257600  0.119700  1.0  -0.1604
  C  C131  1  0.470550  0.185400  0.161500  1.0  -0.1384
  C  C132  1  0.579160  0.407700  0.163500  1.0  0.0798
  C  C133  1  0.621410  0.415100  0.225700  1.0  -0.1623
  C  C134  1  0.659080  0.492900  0.185400  1.0  0.149
  C  C135  1  0.616270  0.566100  0.016700  1.0  0.1608
  C  C136  1  0.577730  0.488700  0.053300  1.0  -0.2232
  C  C137  1  0.287200  0.877200  0.768000  1.0  0.7407
  C  C138  1  0.328070  0.893100  0.860100  1.0  -0.4088
  C  C139  1  0.315780  0.907200  0.002100  1.0  0.0692
  C  C140  1  0.287020  0.037800  0.021200  1.0  0.6629
  C  C141  1  0.209270  0.812700  0.283000  1.0  0.6792
  C  C142  1  0.179120  0.813200  0.404700  1.0  0.0789
  C  C143  1  0.159830  0.953400  0.430500  1.0  -0.361
  C  C144  1  0.197690  0.057800  0.464700  1.0  0.7432
  C  C145  1  0.880480  0.566100  0.528700  1.0  0.1931
  C  C146  1  0.919860  0.494900  0.563600  1.0  -0.2159
  C  C147  1  0.917340  0.407600  0.668300  1.0  0.0882
  C  C148  1  0.874300  0.400000  0.734100  1.0  -0.2261
  C  C149  1  0.836340  0.476600  0.688800  1.0  0.1665
  C  C150  1  0.959360  0.330100  0.714100  1.0  0.0778
  C  C151  1  0.988610  0.258500  0.625400  1.0  -0.1456
  C  C152  1  0.026680  0.181500  0.668300  1.0  -0.1268
  C  C153  1  0.038430  0.176800  0.794000  1.0  0.0243
  C  C154  1  0.010270  0.242400  0.880300  1.0  -0.1621
  C  C155  1  0.970550  0.314600  0.838500  1.0  -0.1389
  C  C156  1  0.079160  0.092300  0.836500  1.0  0.0798
  C  C157  1  0.121410  0.084900  0.774300  1.0  -0.1614
  C  C158  1  0.159080  0.007100  0.814600  1.0  0.1484
  C  C159  1  0.116270  0.933900  0.983300  1.0  0.16
  C  C160  1  0.077730  0.011300  0.946700  1.0  -0.2246
  C  C161  1  0.787200  0.622800  0.232000  1.0  0.7404
  C  C162  1  0.828070  0.606900  0.139900  1.0  -0.4093
  C  C163  1  0.815780  0.592800  0.997900  1.0  0.0694
  C  C164  1  0.787020  0.462200  0.978800  1.0  0.6629
  C  C165  1  0.709270  0.687300  0.717000  1.0  0.682
  C  C166  1  0.679120  0.686800  0.595300  1.0  0.0794
  C  C167  1  0.659830  0.546600  0.569500  1.0  -0.3602
  C  C168  1  0.697690  0.442200  0.535300  1.0  0.7429
  C  C169  1  0.119520  0.433900  0.528700  1.0  0.1944
  C  C170  1  0.080140  0.505100  0.563600  1.0  -0.2143
  C  C171  1  0.082660  0.592400  0.668300  1.0  0.0869
  C  C172  1  0.125700  0.600000  0.734100  1.0  -0.2257
  C  C173  1  0.163660  0.523400  0.688800  1.0  0.1657
  C  C174  1  0.040640  0.669900  0.714100  1.0  0.0776
  C  C175  1  0.011390  0.741500  0.625400  1.0  -0.1478
  C  C176  1  0.973320  0.818500  0.668300  1.0  -0.1276
  C  C177  1  0.961570  0.823200  0.794000  1.0  0.0249
  C  C178  1  0.989730  0.757600  0.880300  1.0  -0.1631
  C  C179  1  0.029450  0.685400  0.838500  1.0  -0.1373
  C  C180  1  0.920840  0.907700  0.836500  1.0  0.0807
  C  C181  1  0.878590  0.915100  0.774300  1.0  -0.1622
  C  C182  1  0.840920  0.992900  0.814600  1.0  0.15
  C  C183  1  0.883730  0.066100  0.983300  1.0  0.16
  C  C184  1  0.922270  0.988700  0.946700  1.0  -0.2245
  C  C185  1  0.212800  0.377200  0.232000  1.0  0.7408
  C  C186  1  0.171930  0.393100  0.139900  1.0  -0.4108
  C  C187  1  0.184220  0.407200  0.997900  1.0  0.0693
  C  C188  1  0.212980  0.537800  0.978800  1.0  0.662
  C  C189  1  0.290730  0.312700  0.717000  1.0  0.681
  C  C190  1  0.320880  0.313200  0.595300  1.0  0.083
  C  C191  1  0.340170  0.453400  0.569500  1.0  -0.3595
  C  C192  1  0.302310  0.557800  0.535300  1.0  0.7433
  N  N193  1  0.712940  0.208600  0.043630  1.0  -0.6148
  N  N194  1  0.790370  0.233400  0.511950  1.0  -0.6078
  N  N195  1  0.661200  0.060100  0.411180  1.0  -0.297
  N  N196  1  0.343510  0.430000  0.081200  1.0  -0.3179
  N  N197  1  0.287060  0.791400  0.043630  1.0  -0.6153
  N  N198  1  0.209630  0.766600  0.511950  1.0  -0.6081
  N  N199  1  0.338800  0.939900  0.411180  1.0  -0.2978
  N  N200  1  0.656490  0.570000  0.081200  1.0  -0.3173
  N  N201  1  0.787060  0.708600  0.956370  1.0  -0.6144
  N  N202  1  0.709630  0.733400  0.488050  1.0  -0.6058
  N  N203  1  0.838800  0.560100  0.588820  1.0  -0.2989
  N  N204  1  0.156490  0.930000  0.918800  1.0  -0.3175
  N  N205  1  0.212940  0.291400  0.956370  1.0  -0.6145
  N  N206  1  0.290370  0.266600  0.488050  1.0  -0.6055
  N  N207  1  0.161200  0.439900  0.588820  1.0  -0.2962
  N  N208  1  0.843510  0.070000  0.918800  1.0  -0.3185
  O  O209  1  0.753740  0.156500  0.802440  1.0  -0.5815
  O  O210  1  0.700450  0.100000  0.655830  1.0  -0.598
  O  O211  1  0.757490  0.971980  0.025990  1.0  -0.5548
  O  O212  1  0.689510  0.855890  0.026480  1.0  -0.5699
  O  O213  1  0.811910  0.172900  0.179240  1.0  -0.585
  O  O214  1  0.746050  0.202870  0.295980  1.0  -0.5692
  O  O215  1  0.758910  0.971760  0.454900  1.0  -0.5616
  O  O216  1  0.817580  0.827740  0.497400  1.0  -0.567
  O  O217  1  0.246260  0.843500  0.802440  1.0  -0.5812
  O  O218  1  0.299550  0.900000  0.655830  1.0  -0.5947
  O  O219  1  0.242510  0.028020  0.025990  1.0  -0.556
  O  O220  1  0.310490  0.144110  0.026480  1.0  -0.568
  O  O221  1  0.188090  0.827100  0.179240  1.0  -0.5862
  O  O222  1  0.253950  0.797130  0.295980  1.0  -0.57
  O  O223  1  0.241090  0.028240  0.454900  1.0  -0.5622
  O  O224  1  0.182420  0.172260  0.497400  1.0  -0.5686
  O  O225  1  0.746260  0.656500  0.197560  1.0  -0.5814
  O  O226  1  0.799550  0.600000  0.344170  1.0  -0.5953
  O  O227  1  0.742510  0.471980  0.974010  1.0  -0.5562
  O  O228  1  0.810490  0.355890  0.973520  1.0  -0.5676
  O  O229  1  0.688090  0.672900  0.820760  1.0  -0.5854
  O  O230  1  0.753950  0.702870  0.704020  1.0  -0.5706
  O  O231  1  0.741090  0.471760  0.545100  1.0  -0.5617
  O  O232  1  0.682420  0.327740  0.502600  1.0  -0.5676
  O  O233  1  0.253740  0.343500  0.197560  1.0  -0.5811
  O  O234  1  0.200450  0.400000  0.344170  1.0  -0.5987
  O  O235  1  0.257490  0.528020  0.974010  1.0  -0.5563
  O  O236  1  0.189510  0.644110  0.973520  1.0  -0.5694
  O  O237  1  0.311910  0.327100  0.820760  1.0  -0.5844
  O  O238  1  0.246050  0.297130  0.704020  1.0  -0.5698
  O  O239  1  0.258910  0.528240  0.545100  1.0  -0.5617
  O  O240  1  0.317580  0.672260  0.502600  1.0  -0.5671
