# generated using pymatgen
data_CoPH2C2O7
_symmetry_space_group_name_H-M   'P 1'
_cell_length_a   8.87490000
_cell_length_b   7.41040000
_cell_length_c   15.23330000
_cell_angle_alpha   90.00000000
_cell_angle_beta   102.17200000
_cell_angle_gamma   90.00000000
_symmetry_Int_Tables_number   1
_chemical_formula_structural   CoPH2C2O7
_chemical_formula_sum   'Co4 P4 H8 C8 O28'
_cell_volume   979.31936928
_cell_formula_units_Z   4
loop_
 _symmetry_equiv_pos_site_id
 _symmetry_equiv_pos_as_xyz
  1  'x, y, z'
loop_
 _atom_site_type_symbol
 _atom_site_label
 _atom_site_symmetry_multiplicity
 _atom_site_fract_x
 _atom_site_fract_y
 _atom_site_fract_z
 _atom_site_occupancy
 _atom_site_charge
  Co  Co1  1  0.789690  0.529450  0.105890  1.0  1.1904
  Co  Co2  1  0.710310  0.029450  0.394110  1.0  1.195
  Co  Co3  1  0.210310  0.470550  0.894110  1.0  1.1945
  Co  Co4  1  0.289690  0.970550  0.605890  1.0  1.1899
  P  P5  1  0.870640  0.885560  0.233560  1.0  1.567
  P  P6  1  0.629360  0.385560  0.266440  1.0  1.5543
  P  P7  1  0.129360  0.114440  0.766440  1.0  1.5567
  P  P8  1  0.370640  0.614440  0.733560  1.0  1.5669
  H  H9  1  0.996000  0.945400  0.284500  1.0  -0.0728
  H  H10  1  0.799900  0.124200  0.181200  1.0  0.4104
  H  H11  1  0.504000  0.445400  0.215500  1.0  -0.0733
  H  H12  1  0.700100  0.624200  0.318800  1.0  0.4098
  H  H13  1  0.004000  0.054600  0.715500  1.0  -0.0727
  H  H14  1  0.200100  0.875800  0.818800  1.0  0.4103
  H  H15  1  0.496000  0.554600  0.784500  1.0  -0.0723
  H  H16  1  0.299900  0.375800  0.681200  1.0  0.4113
  C  C17  1  0.523000  0.410300  0.980320  1.0  0.6427
  C  C18  1  0.041700  0.424500  0.030600  1.0  0.5512
  C  C19  1  0.977000  0.910300  0.519680  1.0  0.6427
  C  C20  1  0.458300  0.924500  0.469400  1.0  0.5505
  C  C21  1  0.477000  0.589700  0.019680  1.0  0.6433
  C  C22  1  0.958300  0.575500  0.969400  1.0  0.5503
  C  C23  1  0.023000  0.089700  0.480320  1.0  0.6438
  C  C24  1  0.541700  0.075500  0.530600  1.0  0.5487
  O  O25  1  0.818100  0.028500  0.158440  1.0  -0.6089
  O  O26  1  0.753400  0.864400  0.291710  1.0  -0.7914
  O  O27  1  0.911370  0.716500  0.190590  1.0  -0.7731
  O  O28  1  0.654980  0.351500  0.012050  1.0  -0.5306
  O  O29  1  0.425370  0.338800  0.918940  1.0  -0.5435
  O  O30  1  0.994120  0.387800  0.100560  1.0  -0.5259
  O  O31  1  0.151600  0.348300  0.006000  1.0  -0.5111
  O  O32  1  0.681900  0.528500  0.341560  1.0  -0.6099
  O  O33  1  0.746600  0.364400  0.208290  1.0  -0.7929
  O  O34  1  0.588630  0.216500  0.309410  1.0  -0.7703
  O  O35  1  0.845020  0.851500  0.487950  1.0  -0.5301
  O  O36  1  0.074630  0.838800  0.581060  1.0  -0.5413
  O  O37  1  0.505880  0.887800  0.399440  1.0  -0.5279
  O  O38  1  0.348400  0.848300  0.494000  1.0  -0.512
  O  O39  1  0.181900  0.971500  0.841560  1.0  -0.6092
  O  O40  1  0.246600  0.135600  0.708290  1.0  -0.7925
  O  O41  1  0.088630  0.283500  0.809410  1.0  -0.7704
  O  O42  1  0.345020  0.648500  0.987950  1.0  -0.5294
  O  O43  1  0.574630  0.661200  0.081060  1.0  -0.5427
  O  O44  1  0.005880  0.612200  0.899440  1.0  -0.5282
  O  O45  1  0.848400  0.651700  0.994000  1.0  -0.5112
  O  O46  1  0.318100  0.471500  0.658440  1.0  -0.6088
  O  O47  1  0.253400  0.635600  0.791710  1.0  -0.791
  O  O48  1  0.411370  0.783500  0.690590  1.0  -0.773
  O  O49  1  0.154980  0.148500  0.512050  1.0  -0.5308
  O  O50  1  0.925370  0.161200  0.418940  1.0  -0.5442
  O  O51  1  0.494120  0.112200  0.600560  1.0  -0.5268
  O  O52  1  0.651600  0.151700  0.506000  1.0  -0.5115
