# generated using pymatgen
data_Mn5P2H2(C5O13)2
_symmetry_space_group_name_H-M   'P 1'
_cell_length_a   9.72050000
_cell_length_b   9.74680000
_cell_length_c   10.89260000
_cell_angle_alpha   83.98900000
_cell_angle_beta   75.46700000
_cell_angle_gamma   78.54500000
_symmetry_Int_Tables_number   1
_chemical_formula_structural   Mn5P2H2(C5O13)2
_chemical_formula_sum   'Mn5 P2 H2 C10 O26'
_cell_volume   977.44667254
_cell_formula_units_Z   1
loop_
 _symmetry_equiv_pos_site_id
 _symmetry_equiv_pos_as_xyz
  1  'x, y, z'
loop_
 _atom_site_type_symbol
 _atom_site_label
 _atom_site_symmetry_multiplicity
 _atom_site_fract_x
 _atom_site_fract_y
 _atom_site_fract_z
 _atom_site_occupancy
 _atom_site_charge
  Mn  Mn1  1  0.364650  0.255340  0.523070  1.0  1.1107
  Mn  Mn2  1  0.240860  0.550130  0.281650  1.0  1.0669
  Mn  Mn3  1  0.635350  0.744660  0.476930  1.0  1.1096
  Mn  Mn4  1  0.759140  0.449870  0.718350  1.0  1.0686
  Mn  Mn5  1  0.500000  0.000000  0.000000  1.0  1.1279
  P  P6  1  0.475560  0.977490  0.696890  1.0  1.6401
  P  P7  1  0.524440  0.022510  0.303110  1.0  1.6425
  H  H8  1  0.593000  0.042100  0.668600  1.0  -0.0707
  H  H9  1  0.407000  0.957900  0.331400  1.0  -0.0711
  C  C10  1  0.699800  0.173100  0.843200  1.0  0.6549
  C  C11  1  0.560800  0.279200  0.893700  1.0  0.6142
  C  C12  1  0.923500  0.610700  0.321900  1.0  0.5498
  C  C13  1  0.952800  0.651100  0.445200  1.0  0.6127
  C  C14  1  0.453600  0.541100  0.454700  1.0  0.6121
  C  C15  1  0.300200  0.826900  0.156800  1.0  0.6525
  C  C16  1  0.439200  0.720800  0.106300  1.0  0.6157
  C  C17  1  0.076500  0.389300  0.678100  1.0  0.5516
  C  C18  1  0.047200  0.348900  0.554800  1.0  0.6139
  C  C19  1  0.546400  0.458900  0.545300  1.0  0.6143
  O  O20  1  0.417400  0.976300  0.839800  1.0  -0.7307
  O  O21  1  0.367900  0.060800  0.625400  1.0  -0.7017
  O  O22  1  0.527600  0.828300  0.653900  1.0  -0.7146
  O  O23  1  0.702100  0.046100  0.878200  1.0  -0.5158
  O  O24  1  0.800400  0.222100  0.769700  1.0  -0.4867
  O  O25  1  0.457100  0.232300  0.967900  1.0  -0.5062
  O  O26  1  0.565400  0.403900  0.858000  1.0  -0.5008
  O  O27  1  0.029900  0.554000  0.241700  1.0  -0.4971
  O  O28  1  0.795400  0.638600  0.311100  1.0  -0.5091
  O  O29  1  0.080200  0.625900  0.455300  1.0  -0.5197
  O  O30  1  0.845500  0.708900  0.524700  1.0  -0.5224
  O  O31  1  0.375500  0.472400  0.418600  1.0  -0.6004
  O  O32  1  0.464300  0.665100  0.423700  1.0  -0.5493
  O  O33  1  0.582600  0.023700  0.160200  1.0  -0.7303
  O  O34  1  0.632100  0.939200  0.374600  1.0  -0.7043
  O  O35  1  0.472400  0.171700  0.346100  1.0  -0.7125
  O  O36  1  0.297900  0.953900  0.121800  1.0  -0.5191
  O  O37  1  0.199600  0.777900  0.230300  1.0  -0.4877
  O  O38  1  0.542900  0.767700  0.032100  1.0  -0.5077
  O  O39  1  0.434600  0.596100  0.142000  1.0  -0.5016
  O  O40  1  0.970100  0.446000  0.758300  1.0  -0.4982
  O  O41  1  0.204600  0.361400  0.688900  1.0  -0.5085
  O  O42  1  0.919800  0.374100  0.544700  1.0  -0.5205
  O  O43  1  0.154500  0.291100  0.475300  1.0  -0.5219
  O  O44  1  0.624500  0.527600  0.581400  1.0  -0.5999
  O  O45  1  0.535700  0.334900  0.576300  1.0  -0.5496
