# generated using pymatgen
data_Cd3H26(C9N4)2
_symmetry_space_group_name_H-M   'P 1'
_cell_length_a   9.04940000
_cell_length_b   17.47500000
_cell_length_c   10.53570000
_cell_angle_alpha   90.00000000
_cell_angle_beta   106.35900000
_cell_angle_gamma   90.00000000
_symmetry_Int_Tables_number   1
_chemical_formula_structural   Cd3H26(C9N4)2
_chemical_formula_sum   'Cd6 H52 C36 N16'
_cell_volume   1598.64664854
_cell_formula_units_Z   2
loop_
 _symmetry_equiv_pos_site_id
 _symmetry_equiv_pos_as_xyz
  1  'x, y, z'
loop_
 _atom_site_type_symbol
 _atom_site_label
 _atom_site_symmetry_multiplicity
 _atom_site_fract_x
 _atom_site_fract_y
 _atom_site_fract_z
 _atom_site_occupancy
 _atom_site_charge
  Cd  Cd1  1  0.000000  0.000000  0.000000  1.0  1.044
  Cd  Cd2  1  0.000000  0.500000  0.000000  1.0  1.044
  Cd  Cd3  1  0.167940  0.250000  0.348980  1.0  0.7295
  Cd  Cd4  1  0.772300  0.250000  0.668310  1.0  0.7181
  Cd  Cd5  1  0.832060  0.750000  0.651020  1.0  0.7305
  Cd  Cd6  1  0.227700  0.750000  0.331690  1.0  0.7183
  H  H7  1  0.222600  0.081800  0.932500  1.0  0.307
  H  H8  1  0.299600  0.014900  0.000100  1.0  0.2376
  H  H9  1  0.185400  0.956200  0.801800  1.0  0.0724
  H  H10  1  0.188700  0.099000  0.706100  1.0  0.0756
  H  H11  1  0.048900  0.043500  0.691700  1.0  0.0686
  H  H12  1  0.130600  0.964800  0.547800  1.0  0.0774
  H  H13  1  0.134500  0.048700  0.495200  1.0  0.0698
  H  H14  1  0.403400  0.053600  0.611800  1.0  0.0625
  H  H15  1  0.366800  0.991800  0.498000  1.0  0.0629
  H  H16  1  0.508900  0.928300  0.688400  1.0  0.0572
  H  H17  1  0.338600  0.898400  0.660000  1.0  0.0666
  H  H18  1  0.424500  0.934000  0.882500  1.0  0.0788
  H  H19  1  0.472000  0.015000  0.844000  1.0  0.0731
  H  H20  1  0.777400  0.581800  0.067500  1.0  0.3058
  H  H21  1  0.700400  0.514900  0.999900  1.0  0.2397
  H  H22  1  0.814600  0.456200  0.198200  1.0  0.0719
  H  H23  1  0.811300  0.599000  0.293900  1.0  0.0749
  H  H24  1  0.951100  0.543500  0.308300  1.0  0.0716
  H  H25  1  0.869400  0.464800  0.452200  1.0  0.0761
  H  H26  1  0.865500  0.548700  0.504800  1.0  0.0689
  H  H27  1  0.596600  0.553600  0.388200  1.0  0.0635
  H  H28  1  0.633200  0.491800  0.502000  1.0  0.0644
  H  H29  1  0.491100  0.428300  0.311600  1.0  0.0639
  H  H30  1  0.661400  0.398400  0.340000  1.0  0.0661
  H  H31  1  0.575500  0.434000  0.117500  1.0  0.0797
  H  H32  1  0.528000  0.515000  0.156000  1.0  0.0739
  H  H33  1  0.777400  0.918200  0.067500  1.0  0.3015
  H  H34  1  0.700400  0.985100  0.999900  1.0  0.2396
  H  H35  1  0.814600  0.043800  0.198200  1.0  0.0759
  H  H36  1  0.811300  0.901000  0.293900  1.0  0.0737
  H  H37  1  0.951100  0.956500  0.308300  1.0  0.0712
  H  H38  1  0.869400  0.035200  0.452200  1.0  0.0722
  H  H39  1  0.865500  0.951300  0.504800  1.0  0.0692
  H  H40  1  0.596600  0.946400  0.388200  1.0  0.0622
  H  H41  1  0.633200  0.008200  0.502000  1.0  0.0643
  H  H42  1  0.491100  0.071700  0.311600  1.0  0.0635
  H  H43  1  0.661400  0.101600  0.340000  1.0  0.0682
  H  H44  1  0.575500  0.066000  0.117500  1.0  0.0789
  H  H45  1  0.528000  0.985000  0.156000  1.0  0.0745
  H  H46  1  0.222600  0.418200  0.932500  1.0  0.3018
  H  H47  1  0.299600  0.485100  0.000100  1.0  0.2371
  H  H48  1  0.185400  0.543800  0.801800  1.0  0.0753
  H  H49  1  0.188700  0.401000  0.706100  1.0  0.0741
  H  H50  1  0.048900  0.456500  0.691700  1.0  0.0689
  H  H51  1  0.130600  0.535200  0.547800  1.0  0.0745
  H  H52  1  0.134500  0.451300  0.495200  1.0  0.0691
  H  H53  1  0.403400  0.446400  0.611800  1.0  0.0615
  H  H54  1  0.366800  0.508200  0.498000  1.0  0.0627
  H  H55  1  0.508900  0.571700  0.688400  1.0  0.0572
  H  H56  1  0.338600  0.601600  0.660000  1.0  0.0679
  H  H57  1  0.424500  0.566000  0.882500  1.0  0.0763
  H  H58  1  0.472000  0.485000  0.844000  1.0  0.0741
  C  C59  1  0.120400  0.144600  0.231200  1.0  0.0063
  C  C60  1  0.820400  0.146200  0.790500  1.0  -0.0464
  C  C61  1  0.244100  0.004100  0.814100  1.0  0.1003
  C  C62  1  0.157600  0.045700  0.697000  1.0  -0.1425
  C  C63  1  0.181000  0.014200  0.567600  1.0  -0.1748
  C  C64  1  0.350000  0.006000  0.581700  1.0  -0.122
  C  C65  1  0.404000  0.943100  0.683900  1.0  -0.147
  C  C66  1  0.396800  0.974400  0.816900  1.0  -0.1748
  C  C67  1  0.879600  0.644600  0.768800  1.0  0.0065
  C  C68  1  0.179600  0.646200  0.209500  1.0  -0.0453
  C  C69  1  0.755900  0.504100  0.185900  1.0  0.1023
  C  C70  1  0.842400  0.545700  0.303000  1.0  -0.1402
  C  C71  1  0.819000  0.514200  0.432400  1.0  -0.1747
  C  C72  1  0.650000  0.506000  0.418300  1.0  -0.1217
  C  C73  1  0.596000  0.443100  0.316100  1.0  -0.1472
  C  C74  1  0.603200  0.474400  0.183100  1.0  -0.1746
  C  C75  1  0.879600  0.855400  0.768800  1.0  0.0066
  C  C76  1  0.179600  0.853800  0.209500  1.0  -0.0441
  C  C77  1  0.755900  0.995900  0.185900  1.0  0.1018
  C  C78  1  0.842400  0.954300  0.303000  1.0  -0.1402
  C  C79  1  0.819000  0.985800  0.432400  1.0  -0.1743
  C  C80  1  0.650000  0.994000  0.418300  1.0  -0.1215
  C  C81  1  0.596000  0.056900  0.316100  1.0  -0.1509
  C  C82  1  0.603200  0.025600  0.183100  1.0  -0.1746
  C  C83  1  0.120400  0.355400  0.231200  1.0  0.0071
  C  C84  1  0.820400  0.353800  0.790500  1.0  -0.0459
  C  C85  1  0.244100  0.495900  0.814100  1.0  0.1011
  C  C86  1  0.157600  0.454300  0.697000  1.0  -0.1415
  C  C87  1  0.181000  0.485800  0.567600  1.0  -0.1748
  C  C88  1  0.350000  0.494000  0.581700  1.0  -0.1224
  C  C89  1  0.404000  0.556900  0.683900  1.0  -0.1494
  C  C90  1  0.396800  0.525600  0.816900  1.0  -0.176
  C  C91  1  0.408900  0.250000  0.468900  1.0  0.0102
  C  C92  1  0.021200  0.250000  0.482900  1.0  0.0071
  C  C93  1  0.591100  0.750000  0.531100  1.0  0.0099
  C  C94  1  0.978800  0.750000  0.517100  1.0  0.0066
  N  N95  1  0.088600  0.092900  0.164300  1.0  -0.3876
  N  N96  1  0.855900  0.095100  0.856800  1.0  -0.419
  N  N97  1  0.218000  0.030400  0.934300  1.0  -0.6476
  N  N98  1  0.911400  0.592900  0.835700  1.0  -0.3862
  N  N99  1  0.144100  0.595100  0.143200  1.0  -0.4189
  N  N100  1  0.782000  0.530400  0.065700  1.0  -0.6472
  N  N101  1  0.911400  0.907100  0.835700  1.0  -0.3847
  N  N102  1  0.144100  0.904900  0.143200  1.0  -0.4158
  N  N103  1  0.782000  0.969600  0.065700  1.0  -0.6465
  N  N104  1  0.088600  0.407100  0.164300  1.0  -0.3846
  N  N105  1  0.855900  0.404900  0.856800  1.0  -0.4168
  N  N106  1  0.218000  0.469600  0.934300  1.0  -0.6488
  N  N107  1  0.533100  0.250000  0.532000  1.0  -0.422
  N  N108  1  0.937200  0.250000  0.541600  1.0  -0.4105
  N  N109  1  0.466900  0.750000  0.468000  1.0  -0.4209
  N  N110  1  0.062800  0.750000  0.458400  1.0  -0.4116
