# generated using pymatgen
data_LaCuH24C38N3O10
_symmetry_space_group_name_H-M   'P 1'
_cell_length_a   11.76100000
_cell_length_b   27.13000000
_cell_length_c   34.66700000
_cell_angle_alpha   89.94140000
_cell_angle_beta   90.00000000
_cell_angle_gamma   90.00000000
_symmetry_Int_Tables_number   1
_chemical_formula_structural   LaCuH24C38N3O10
_chemical_formula_sum   'La8 Cu8 H192 C304 N24 O80'
_cell_volume   11061.39947995
_cell_formula_units_Z   8
loop_
 _symmetry_equiv_pos_site_id
 _symmetry_equiv_pos_as_xyz
  1  'x, y, z'
loop_
 _atom_site_type_symbol
 _atom_site_label
 _atom_site_symmetry_multiplicity
 _atom_site_fract_x
 _atom_site_fract_y
 _atom_site_fract_z
 _atom_site_occupancy
 _atom_site_charge
  La  La1  1  0.558940  0.249580  0.699490  1.0  2.101
  La  La2  1  0.089250  0.748110  0.699460  1.0  2.0866
  La  La3  1  0.058940  0.250420  0.800510  1.0  2.1008
  La  La4  1  0.441060  0.750420  0.300510  1.0  2.101
  La  La5  1  0.941060  0.749580  0.199490  1.0  2.1012
  La  La6  1  0.410750  0.248110  0.199460  1.0  2.0866
  La  La7  1  0.589250  0.751890  0.800540  1.0  2.0864
  La  La8  1  0.910750  0.251890  0.300540  1.0  2.0865
  Cu  Cu9  1  0.102410  0.750910  0.813130  1.0  0.7261
  Cu  Cu10  1  0.397590  0.250910  0.313130  1.0  0.7278
  Cu  Cu11  1  0.078920  0.247550  0.686490  1.0  0.7195
  Cu  Cu12  1  0.578920  0.252450  0.813510  1.0  0.7197
  Cu  Cu13  1  0.897590  0.249090  0.186870  1.0  0.7271
  Cu  Cu14  1  0.421080  0.747550  0.186490  1.0  0.7193
  Cu  Cu15  1  0.602410  0.749090  0.686870  1.0  0.7256
  Cu  Cu16  1  0.921080  0.752450  0.313510  1.0  0.7196
  H  H17  1  0.708400  0.735600  0.550100  1.0  0.096
  H  H18  1  0.239000  0.164400  0.312800  1.0  0.0744
  H  H19  1  0.567300  0.924200  0.342100  1.0  0.0972
  H  H20  1  0.382600  0.304000  0.572600  1.0  0.1102
  H  H21  1  0.243400  0.082100  0.309900  1.0  0.0945
  H  H22  1  0.952200  0.487700  0.723000  1.0  0.0855
  H  H23  1  0.256600  0.582100  0.809900  1.0  0.0945
  H  H24  1  0.415700  0.335400  0.809100  1.0  0.0712
  H  H25  1  0.123100  0.758900  0.365800  1.0  0.0918
  H  H26  1  0.434500  0.513000  0.720300  1.0  0.0997
  H  H27  1  0.426100  0.585400  0.690600  1.0  0.1165
  H  H28  1  0.738200  0.577400  0.779400  1.0  0.1015
  H  H29  1  0.764300  0.578300  0.694100  1.0  0.1087
  H  H30  1  0.239500  0.914400  0.180400  1.0  0.1271
  H  H31  1  0.643200  0.210500  0.558000  1.0  0.0933
  H  H32  1  0.876500  0.753300  0.934800  1.0  0.0902
  H  H33  1  0.623100  0.741100  0.134200  1.0  0.0935
  H  H34  1  0.229400  0.336900  0.308600  1.0  0.0724
  H  H35  1  0.422600  0.085400  0.812900  1.0  0.0928
  H  H36  1  0.073700  0.927800  0.226400  1.0  0.096
  H  H37  1  0.926300  0.072200  0.773600  1.0  0.0957
  H  H38  1  0.934500  0.987000  0.779700  1.0  0.0994
  H  H39  1  0.238600  0.998500  0.829300  1.0  0.0983
  H  H40  1  0.935900  0.003900  0.663300  1.0  0.1215
  H  H41  1  0.672800  0.253900  0.951100  1.0  0.0964
  H  H42  1  0.251800  0.329400  0.679400  1.0  0.0681
  H  H43  1  0.077900  0.413000  0.175700  1.0  0.0968
  H  H44  1  0.760500  0.085600  0.819600  1.0  0.128
  H  H45  1  0.105800  0.289200  0.494700  1.0  0.1005
  H  H46  1  0.756600  0.917900  0.690100  1.0  0.0942
  H  H47  1  0.941100  0.829800  0.815500  1.0  0.0725
  H  H48  1  0.573700  0.572200  0.273600  1.0  0.0956
  H  H49  1  0.193900  0.794300  0.559100  1.0  0.0957
  H  H50  1  0.717200  0.991700  0.722400  1.0  0.1032
  H  H51  1  0.853900  0.195500  0.993400  1.0  0.1017
  H  H52  1  0.327200  0.746100  0.048900  1.0  0.0964
  H  H53  1  0.452200  0.012300  0.777000  1.0  0.086
  H  H54  1  0.753100  0.834000  0.317000  1.0  0.0924
  H  H55  1  0.914600  0.080000  0.691500  1.0  0.1083
  H  H56  1  0.353900  0.304500  0.506600  1.0  0.1026
  H  H57  1  0.841800  0.235900  0.567600  1.0  0.0994
  H  H58  1  0.751000  0.418400  0.815200  1.0  0.1005
  H  H59  1  0.356800  0.789500  0.442000  1.0  0.0936
  H  H60  1  0.791600  0.235600  0.050100  1.0  0.0962
  H  H61  1  0.827200  0.753900  0.451100  1.0  0.0965
  H  H62  1  0.064100  0.996100  0.336700  1.0  0.1216
  H  H63  1  0.763400  0.235200  0.116300  1.0  0.111
  H  H64  1  0.415800  0.787900  0.930100  1.0  0.0972
  H  H65  1  0.926100  0.914600  0.809400  1.0  0.1162
  H  H66  1  0.749000  0.918400  0.315200  1.0  0.1007
  H  H67  1  0.584200  0.212100  0.069900  1.0  0.0965
  H  H68  1  0.856800  0.710500  0.058000  1.0  0.0929
  H  H69  1  0.735700  0.078300  0.194100  1.0  0.1089
  H  H70  1  0.617900  0.213200  0.491500  1.0  0.1086
  H  H71  1  0.268000  0.991500  0.157700  1.0  0.1074
  H  H72  1  0.266800  0.076600  0.162000  1.0  0.1043
  H  H73  1  0.054800  0.491400  0.151200  1.0  0.1156
  H  H74  1  0.235700  0.421700  0.305900  1.0  0.1094
  H  H75  1  0.738600  0.501500  0.670700  1.0  0.0971
  H  H76  1  0.836400  0.202400  0.507400  1.0  0.0982
  H  H77  1  0.939600  0.918400  0.667900  1.0  0.0947
  H  H78  1  0.584300  0.664600  0.190900  1.0  0.0705
  H  H79  1  0.876900  0.241100  0.634200  1.0  0.0922
  H  H80  1  0.231600  0.082200  0.823900  1.0  0.1054
  H  H81  1  0.306100  0.294300  0.059100  1.0  0.096
  H  H82  1  0.922100  0.587000  0.824300  1.0  0.096
  H  H83  1  0.617400  0.696000  0.427400  1.0  0.1096
  H  H84  1  0.761000  0.835600  0.687200  1.0  0.0759
  H  H85  1  0.382100  0.786800  0.508500  1.0  0.1079
  H  H86  1  0.743400  0.417900  0.190100  1.0  0.0942
  H  H87  1  0.882100  0.713200  0.991500  1.0  0.1085
  H  H88  1  0.429800  0.829000  0.681000  1.0  0.0812
  H  H89  1  0.067300  0.575800  0.157900  1.0  0.0961
  H  H90  1  0.146100  0.804500  0.006600  1.0  0.1026
  H  H91  1  0.117400  0.804000  0.072600  1.0  0.1097
  H  H92  1  0.663600  0.702400  0.007400  1.0  0.0983
  H  H93  1  0.565500  0.487000  0.279700  1.0  0.0994
  H  H94  1  0.422700  0.168900  0.811500  1.0  0.079
  H  H95  1  0.163600  0.797600  0.492600  1.0  0.0982
  H  H96  1  0.739500  0.585600  0.319600  1.0  0.1279
  H  H97  1  0.733200  0.923400  0.838000  1.0  0.1043
  H  H98  1  0.260500  0.414400  0.680400  1.0  0.1272
  H  H99  1  0.376500  0.746700  0.565200  1.0  0.0901
  H  H100  1  0.748200  0.670600  0.320600  1.0  0.0677
  H  H101  1  0.746900  0.334000  0.817000  1.0  0.0923
  H  H102  1  0.238200  0.922600  0.720600  1.0  0.101
  H  H103  1  0.291600  0.264400  0.449900  1.0  0.0963
  H  H104  1  0.729400  0.163100  0.191400  1.0  0.0721
  H  H105  1  0.261400  0.498500  0.329300  1.0  0.0979
  H  H106  1  0.441100  0.670200  0.684500  1.0  0.0723
  H  H107  1  0.341800  0.264100  0.932400  1.0  0.0989
  H  H108  1  0.761400  0.001500  0.170700  1.0  0.097
  H  H109  1  0.432700  0.075800  0.657900  1.0  0.096
  H  H110  1  0.731600  0.417800  0.676100  1.0  0.1039
  H  H111  1  0.047300  0.427700  0.273000  1.0  0.1038
  H  H112  1  0.238400  0.007600  0.716400  1.0  0.0972
  H  H113  1  0.143200  0.289500  0.942000  1.0  0.0935
  H  H114  1  0.558900  0.329800  0.315500  1.0  0.072
  H  H115  1  0.249000  0.581600  0.184800  1.0  0.1004
  H  H116  1  0.761600  0.992400  0.283600  1.0  0.097
  H  H117  1  0.248200  0.829400  0.179400  1.0  0.068
  H  H118  1  0.084300  0.835400  0.309100  1.0  0.071
  H  H119  1  0.693900  0.705700  0.940900  1.0  0.0952
  H  H120  1  0.806100  0.205700  0.440900  1.0  0.0952
  H  H121  1  0.158200  0.764100  0.432400  1.0  0.0994
  H  H122  1  0.560400  0.418400  0.167900  1.0  0.0943
  H  H123  1  0.251000  0.081600  0.684800  1.0  0.1001
  H  H124  1  0.766800  0.423400  0.338000  1.0  0.1047
  H  H125  1  0.336400  0.297600  0.992600  1.0  0.0984
  H  H126  1  0.445200  0.991400  0.651200  1.0  0.1153
  H  H127  1  0.736600  0.735200  0.616300  1.0  0.1107
  H  H128  1  0.060400  0.081600  0.332100  1.0  0.0953
  H  H129  1  0.732000  0.008500  0.842300  1.0  0.1074
  H  H130  1  0.208400  0.764400  0.949900  1.0  0.0962
  H  H131  1  0.577400  0.914600  0.187100  1.0  0.0922
  H  H132  1  0.770600  0.663100  0.691400  1.0  0.0718
  H  H133  1  0.077400  0.585400  0.312900  1.0  0.0932
  H  H134  1  0.623500  0.253300  0.434800  1.0  0.0902
  H  H135  1  0.796200  0.577100  0.226800  1.0  0.0888
  H  H136  1  0.797000  0.753200  0.386200  1.0  0.0722
  H  H137  1  0.945200  0.508600  0.848800  1.0  0.1161
  H  H138  1  0.394200  0.789200  0.994700  1.0  0.101
  H  H139  1  0.233200  0.576600  0.662000  1.0  0.1038
  H  H140  1  0.658200  0.735900  0.067600  1.0  0.0998
  H  H141  1  0.751800  0.170600  0.820600  1.0  0.0677
  H  H142  1  0.203000  0.246800  0.613800  1.0  0.072
  H  H143  1  0.084200  0.287900  0.430100  1.0  0.097
  H  H144  1  0.703000  0.253200  0.886200  1.0  0.0719
  H  H145  1  0.761800  0.077400  0.279400  1.0  0.1014
  H  H146  1  0.422100  0.913000  0.675700  1.0  0.0959
  H  H147  1  0.264300  0.921700  0.805900  1.0  0.1091
  H  H148  1  0.739000  0.335600  0.187200  1.0  0.0757
  H  H149  1  0.915800  0.712100  0.569900  1.0  0.0965
  H  H150  1  0.236600  0.764800  0.883700  1.0  0.1108
  H  H151  1  0.564100  0.503900  0.163300  1.0  0.1214
  H  H152  1  0.414600  0.420000  0.808500  1.0  0.1086
  H  H153  1  0.894200  0.710800  0.505300  1.0  0.1004
  H  H154  1  0.922700  0.331100  0.688500  1.0  0.0788
  H  H155  1  0.768400  0.917800  0.176100  1.0  0.1044
  H  H156  1  0.270600  0.836900  0.808600  1.0  0.072
  H  H157  1  0.217200  0.508300  0.777600  1.0  0.1038
  H  H158  1  0.952700  0.572300  0.727000  1.0  0.1038
  H  H159  1  0.882600  0.196000  0.927400  1.0  0.1099
  H  H160  1  0.065500  0.013000  0.220300  1.0  0.0996
  H  H161  1  0.261600  0.507600  0.216400  1.0  0.0968
  H  H162  1  0.554800  0.008600  0.348800  1.0  0.1163
  H  H163  1  0.077300  0.668900  0.311500  1.0  0.079
  H  H164  1  0.070200  0.329000  0.181000  1.0  0.0813
  H  H165  1  0.376900  0.258900  0.865800  1.0  0.094
  H  H166  1  0.232000  0.491500  0.657700  1.0  0.1072
  H  H167  1  0.403900  0.750300  0.631800  1.0  0.0985
  H  H168  1  0.261000  0.664400  0.812800  1.0  0.076
  H  H169  1  0.570200  0.171000  0.319000  1.0  0.0813
  H  H170  1  0.646100  0.695500  0.493400  1.0  0.1021
  H  H171  1  0.577300  0.831100  0.188500  1.0  0.0788
  H  H172  1  0.117900  0.286800  0.008500  1.0  0.1083
  H  H173  1  0.573900  0.414600  0.309400  1.0  0.1168
  H  H174  1  0.203800  0.422900  0.773200  1.0  0.0887
  H  H175  1  0.297000  0.746800  0.113800  1.0  0.072
  H  H176  1  0.296200  0.922900  0.273200  1.0  0.0886
  H  H177  1  0.282800  0.008300  0.277600  1.0  0.1038
  H  H178  1  0.903900  0.749700  0.868200  1.0  0.0992
  H  H179  1  0.585400  0.580000  0.191500  1.0  0.1087
  H  H180  1  0.073900  0.085400  0.190600  1.0  0.117
  H  H181  1  0.261800  0.422600  0.220600  1.0  0.1008
  H  H182  1  0.426300  0.427800  0.726400  1.0  0.096
  H  H183  1  0.268400  0.582200  0.323900  1.0  0.1051
  H  H184  1  0.263400  0.264800  0.383700  1.0  0.1105
  H  H185  1  0.605800  0.210800  0.005300  1.0  0.1002
  H  H186  1  0.085400  0.920000  0.308500  1.0  0.1088
  H  H187  1  0.596100  0.249700  0.368200  1.0  0.0992
  H  H188  1  0.435900  0.496100  0.836700  1.0  0.1213
  H  H189  1  0.915700  0.164600  0.690900  1.0  0.0704
  H  H190  1  0.246900  0.166000  0.683000  1.0  0.0924
  H  H191  1  0.922600  0.414600  0.687100  1.0  0.0919
  H  H192  1  0.047800  0.512300  0.277000  1.0  0.0855
  H  H193  1  0.439600  0.581600  0.832100  1.0  0.096
  H  H194  1  0.096100  0.250300  0.131800  1.0  0.0988
  H  H195  1  0.577900  0.087000  0.324300  1.0  0.0968
  H  H196  1  0.058900  0.170200  0.184500  1.0  0.0721
  H  H197  1  0.547300  0.072300  0.227000  1.0  0.1037
  H  H198  1  0.452700  0.927700  0.773000  1.0  0.1039
  H  H199  1  0.782800  0.491700  0.222400  1.0  0.1031
  H  H200  1  0.768000  0.508500  0.342300  1.0  0.1076
  H  H201  1  0.738400  0.492400  0.783600  1.0  0.0973
  H  H202  1  0.932700  0.424200  0.842100  1.0  0.0964
  H  H203  1  0.253100  0.666000  0.183000  1.0  0.0923
  H  H204  1  0.547800  0.987700  0.223000  1.0  0.0853
  H  H205  1  0.172800  0.246100  0.548900  1.0  0.0965
  H  H206  1  0.929800  0.671000  0.819000  1.0  0.081
  H  H207  1  0.123500  0.246700  0.065200  1.0  0.0903
  H  H208  1  0.703800  0.077100  0.726800  1.0  0.0887
  C  C209  1  0.515600  0.647700  0.189600  1.0  0.1564
  C  C210  1  0.889000  0.755600  0.434400  1.0  -0.1936
  C  C211  1  0.670800  0.436700  0.684700  1.0  -0.0922
  C  C212  1  0.809100  0.601800  0.317500  1.0  -0.2085
  C  C213  1  0.094000  0.928100  0.808500  1.0  0.0842
  C  C214  1  0.085500  0.270000  0.952200  1.0  -0.0545
  C  C215  1  0.089800  0.983200  0.805900  1.0  0.0626
  C  C216  1  0.413400  0.980000  0.188700  1.0  0.0336
  C  C217  1  0.990500  0.443800  0.286700  1.0  -0.0638
  C  C218  1  0.994200  0.006200  0.788800  1.0  -0.128
  C  C219  1  0.722300  0.753170  0.267230  1.0  0.653
  C  C220  1  0.411200  0.924800  0.186400  1.0  0.0935
  C  C221  1  0.818700  0.902200  0.314000  1.0  -0.1421
  C  C222  1  0.983600  0.096700  0.690200  1.0  -0.1798
  C  C223  1  0.008400  0.652300  0.313300  1.0  0.1415
  C  C224  1  0.966000  0.752600  0.884700  1.0  0.1463
  C  C225  1  0.517000  0.740100  0.508200  1.0  0.0301
  C  C226  1  0.676800  0.941400  0.825500  1.0  -0.0437
  C  C227  1  0.047700  0.270300  0.484200  1.0  -0.1294
  C  C228  1  0.423100  0.018500  0.312900  1.0  0.044
  C  C229  1  0.371200  0.745500  0.104600  1.0  0.1513
  C  C230  1  0.492800  0.348400  0.313000  1.0  0.1599
  C  C231  1  0.589800  0.516800  0.694100  1.0  0.0619
  C  C232  1  0.806200  0.750000  0.731800  1.0  0.5501
  C  C233  1  0.112800  0.780500  0.508100  1.0  -0.1265
  C  C234  1  0.676800  0.510100  0.793200  1.0  -0.0952
  C  C235  1  0.659400  0.008400  0.709600  1.0  -0.1218
  C  C236  1  0.008200  0.601900  0.313200  1.0  -0.1608
  C  C237  1  0.387200  0.280500  0.008100  1.0  -0.1274
  C  C238  1  0.501000  0.436600  0.178300  1.0  -0.0172
  C  C239  1  0.197000  0.903800  0.807700  1.0  -0.1716
  C  C240  1  0.018700  0.757400  0.491500  1.0  0.0608
  C  C241  1  0.562800  0.741500  0.116900  1.0  0.1318
  C  C242  1  0.914500  0.730000  0.047800  1.0  -0.0529
  C  C243  1  0.444400  0.859800  0.303500  1.0  0.7159
  C  C244  1  0.868300  0.221900  0.451500  1.0  -0.0596
  C  C245  1  0.370100  0.749500  0.729600  1.0  0.6432
  C  C246  1  0.128800  0.245500  0.604600  1.0  0.1517
  C  C247  1  0.005800  0.993800  0.211200  1.0  -0.1276
  C  C248  1  0.001000  0.063400  0.321700  1.0  -0.0171
  C  C249  1  0.075600  0.750100  0.614600  1.0  0.7139
  C  C250  1  0.518400  0.256500  0.572500  1.0  -0.1032
  C  C251  1  0.586300  0.642700  0.801600  1.0  0.6625
  C  C252  1  0.963100  0.240400  0.051100  1.0  0.0611
  C  C253  1  0.094900  0.582700  0.696100  1.0  -0.1457
  C  C254  1  0.612800  0.719500  0.991900  1.0  -0.125
  C  C255  1  0.944400  0.640200  0.196500  1.0  0.7154
  C  C256  1  0.803000  0.096200  0.192300  1.0  -0.1734
  C  C257  1  0.496800  0.512000  0.824900  1.0  -0.1627
  C  C258  1  0.693800  0.250000  0.231800  1.0  0.5505
  C  C259  1  0.594900  0.917300  0.803900  1.0  -0.1442
  C  C260  1  0.131700  0.778100  0.548500  1.0  -0.0576
  C  C261  1  0.628800  0.254500  0.895400  1.0  0.1511
  C  C262  1  0.870100  0.750500  0.770400  1.0  0.6433
  C  C263  1  0.179200  0.148500  0.685100  1.0  0.1429
  C  C264  1  0.688700  0.900600  0.687700  1.0  -0.2084
  C  C265  1  0.823200  0.010100  0.293200  1.0  -0.0947
  C  C266  1  0.588800  0.075200  0.813600  1.0  0.095
  C  C267  1  0.570400  0.714500  0.443400  1.0  -0.0646
  C  C268  1  0.353700  0.262100  0.433400  1.0  -0.1182
  C  C269  1  0.584000  0.739000  0.076500  1.0  -0.1339
  C  C270  1  0.483600  0.403300  0.809800  1.0  -0.1804
  C  C271  1  0.911200  0.575200  0.313600  1.0  0.0955
  C  C272  1  0.509500  0.943800  0.786700  1.0  -0.0635
  C  C273  1  0.929600  0.214500  0.943400  1.0  -0.064
  C  C274  1  0.990200  0.441200  0.829300  1.0  -0.038
  C  C275  1  0.429600  0.285500  0.556600  1.0  -0.0642
  C  C276  1  0.570300  0.231200  0.507600  1.0  -0.1607
  C  C277  1  0.007200  0.848400  0.813000  1.0  0.1615
  C  C278  1  0.502500  0.399900  0.310100  1.0  -0.1861
  C  C279  1  0.586300  0.587300  0.803800  1.0  -0.0943
  C  C280  1  0.414500  0.770000  0.452200  1.0  -0.0581
  C  C281  1  0.656400  0.750310  0.228090  1.0  0.6653
  C  C282  1  0.159400  0.491600  0.790400  1.0  -0.1229
  C  C283  1  0.491600  0.152300  0.813300  1.0  0.1416
  C  C284  1  0.075500  0.086300  0.799300  1.0  -0.1319
  C  C285  1  0.151500  0.440300  0.788000  1.0  -0.0128
  C  C286  1  0.184400  0.347100  0.681700  1.0  0.1644
  C  C287  1  0.518700  0.742600  0.008500  1.0  0.0608
  C  C288  1  0.913700  0.142700  0.301600  1.0  0.6632
  C  C289  1  0.086600  0.786000  0.016800  1.0  -0.1177
  C  C290  1  0.508300  0.102300  0.319700  1.0  -0.1552
  C  C291  1  0.674600  0.487000  0.681800  1.0  -0.0941
  C  C292  1  0.825400  0.987000  0.181800  1.0  -0.0931
  C  C293  1  0.809200  0.351400  0.186400  1.0  0.1639
  C  C294  1  0.840600  0.508400  0.209600  1.0  -0.1209
  C  C295  1  0.566800  0.084800  0.692600  1.0  -0.1179
  C  C296  1  0.416000  0.570200  0.188900  1.0  0.0585
  C  C297  1  0.050100  0.245000  0.075100  1.0  -0.1623
  C  C298  1  0.996900  0.653000  0.818300  1.0  0.1389
  C  C299  1  0.497500  0.600100  0.689900  1.0  -0.1858
  C  C300  1  0.411600  0.515100  0.190100  1.0  0.0006
  C  C301  1  0.848500  0.559700  0.212000  1.0  -0.0104
  C  C302  1  0.836000  0.238800  0.106100  1.0  0.1253
  C  C303  1  0.496200  0.007700  0.667200  1.0  -0.1135
  C  C304  1  0.999000  0.936600  0.678300  1.0  -0.0153
  C  C305  1  0.505800  0.506200  0.288800  1.0  -0.1288
  C  C306  1  0.323400  0.438900  0.209600  1.0  -0.0523
  C  C307  1  0.311300  0.099400  0.312300  1.0  -0.2109
  C  C308  1  0.309200  0.148600  0.313600  1.0  0.164
  C  C309  1  0.996500  0.759200  0.449200  1.0  0.0545
  C  C310  1  0.996800  0.988000  0.675100  1.0  -0.1617
  C  C311  1  0.490200  0.058800  0.670700  1.0  -0.0314
  C  C312  1  0.516400  0.596700  0.190200  1.0  -0.1785
  C  C313  1  0.981300  0.242600  0.508500  1.0  0.0611
  C  C314  1  0.174900  0.507700  0.671300  1.0  -0.1339
  C  C315  1  0.494200  0.493800  0.711200  1.0  -0.1255
  C  C316  1  0.584000  0.429800  0.811100  1.0  0.0616
  C  C317  1  0.086300  0.912700  0.696200  1.0  -0.0937
  C  C318  1  0.368300  0.278100  0.048500  1.0  -0.0592
  C  C319  1  0.325100  0.007700  0.171300  1.0  -0.1336
  C  C320  1  0.481600  0.743500  0.427500  1.0  -0.1018
  C  C321  1  0.507200  0.651600  0.687000  1.0  0.16
  C  C322  1  0.084000  0.070200  0.688900  1.0  0.0583
  C  C323  1  0.676600  0.561100  0.790400  1.0  -0.0543
  C  C324  1  0.336000  0.261200  0.393900  1.0  0.1274
  C  C325  1  0.156400  0.749690  0.271910  1.0  0.6645
  C  C326  1  0.903400  0.360700  0.299600  1.0  0.7021
  C  C327  1  0.076900  0.518500  0.812900  1.0  0.044
  C  C328  1  0.596600  0.860700  0.799600  1.0  0.7024
  C  C329  1  0.306200  0.750000  0.768200  1.0  0.5507
  C  C330  1  0.823400  0.061100  0.290400  1.0  -0.0539
  C  C331  1  0.003500  0.240800  0.550800  1.0  0.0545
  C  C332  1  0.697000  0.596200  0.692300  1.0  -0.173
  C  C333  1  0.084000  0.761000  0.423500  1.0  -0.1344
  C  C334  1  0.072200  0.141500  0.797600  1.0  0.7025
  C  C335  1  0.088800  0.424800  0.686400  1.0  0.0935
  C  C336  1  0.424400  0.250100  0.114600  1.0  0.7139
  C  C337  1  0.887200  0.219500  0.491900  1.0  -0.1259
  C  C338  1  0.496500  0.740800  0.050800  1.0  0.0545
  C  C339  1  0.437200  0.258500  0.883100  1.0  0.1332
  C  C340  1  0.016400  0.903300  0.309800  1.0  -0.1795
  C  C341  1  0.488800  0.442500  0.714600  1.0  -0.0411
  C  C342  1  0.929700  0.731200  0.007600  1.0  -0.1589
  C  C343  1  0.299600  0.352600  0.309400  1.0  0.1638
  C  C344  1  0.011200  0.942500  0.214600  1.0  -0.0496
  C  C345  1  0.509800  0.941200  0.329300  1.0  -0.0342
  C  C346  1  0.575500  0.413700  0.700700  1.0  -0.1314
  C  C347  1  0.811300  0.400600  0.187700  1.0  -0.2109
  C  C348  1  0.594000  0.571900  0.691500  1.0  0.0796
  C  C349  1  0.429700  0.768800  0.492400  1.0  -0.1621
  C  C350  1  0.449900  0.745000  0.575100  1.0  -0.1633
  C  C351  1  0.200400  0.852600  0.809400  1.0  0.1625
  C  C352  1  0.853700  0.237900  0.066600  1.0  -0.1181
  C  C353  1  0.983000  0.240100  0.008200  1.0  0.0301
  C  C354  1  0.008400  0.505300  0.710100  1.0  -0.0992
  C  C355  1  0.461200  0.741300  0.384600  1.0  0.7266
  C  C356  1  0.829200  0.936700  0.184700  1.0  -0.0898
  C  C357  1  0.825100  0.492300  0.328700  1.0  -0.1335
  C  C358  1  0.003100  0.347000  0.181700  1.0  0.1389
  C  C359  1  0.413400  0.286000  0.516800  1.0  -0.1188
  C  C360  1  0.031900  0.271100  0.445300  1.0  -0.0255
  C  C361  1  0.427800  0.641500  0.297600  1.0  0.7024
  C  C362  1  0.679200  0.351500  0.814900  1.0  0.1423
  C  C363  1  0.991600  0.494700  0.289900  1.0  -0.1015
  C  C364  1  0.531900  0.228900  0.054700  1.0  -0.0257
  C  C365  1  0.681300  0.402200  0.814000  1.0  -0.1403
  C  C366  1  0.468100  0.771100  0.945300  1.0  -0.0247
  C  C367  1  0.646300  0.737900  0.566600  1.0  -0.1186
  C  C368  1  0.508200  0.898100  0.186800  1.0  -0.1546
  C  C369  1  0.176800  0.558600  0.674500  1.0  -0.0437
  C  C370  1  0.924400  0.249900  0.385400  1.0  0.7137
  C  C371  1  0.913400  0.214000  0.983200  1.0  -0.1181
  C  C372  1  0.181300  0.097800  0.686000  1.0  -0.1418
  C  C373  1  0.318700  0.597800  0.186000  1.0  -0.1415
  C  C374  1  0.575600  0.749900  0.885400  1.0  0.7136
  C  C375  1  0.490500  0.056200  0.213300  1.0  -0.0618
  C  C376  1  0.927800  0.858500  0.202400  1.0  0.7013
  C  C377  1  0.815600  0.652900  0.318300  1.0  0.1661
  C  C378  1  0.690900  0.101800  0.817500  1.0  -0.2079
  C  C379  1  0.111000  0.244400  0.565600  1.0  -0.1947
  C  C380  1  0.674900  0.992300  0.828700  1.0  -0.1321
  C  C381  1  0.916000  0.929800  0.311100  1.0  0.0616
  C  C382  1  0.491600  0.005300  0.210100  1.0  -0.1006
  C  C383  1  0.176800  0.989900  0.706800  1.0  -0.0937
  C  C384  1  0.511200  0.557500  0.285400  1.0  -0.0419
  C  C385  1  0.992800  0.151600  0.187000  1.0  0.1601
  C  C386  1  0.413700  0.412700  0.196200  1.0  -0.0931
  C  C387  1  0.174600  0.013000  0.818200  1.0  -0.0937
  C  C388  1  0.910200  0.016800  0.194100  1.0  0.0615
  C  C389  1  0.690800  0.851400  0.686400  1.0  0.1639
  C  C390  1  0.503100  0.153000  0.318300  1.0  0.1416
  C  C391  1  0.555600  0.140200  0.696500  1.0  0.7147
  C  C392  1  0.799600  0.147400  0.190600  1.0  0.1625
  C  C393  1  0.508400  0.994700  0.789900  1.0  -0.1
  C  C394  1  0.466000  0.747400  0.615300  1.0  0.149
  C  C395  1  0.968100  0.728900  0.554700  1.0  -0.0244
  C  C396  1  0.452300  0.770300  0.984200  1.0  -0.1301
  C  C397  1  0.055600  0.359800  0.803500  1.0  0.716
  C  C398  1  0.911600  0.984900  0.309900  1.0  0.0044
  C  C399  1  0.651500  0.059700  0.712000  1.0  -0.0119
  C  C400  1  0.906000  0.071900  0.191500  1.0  0.0794
  C  C401  1  0.017000  0.759900  0.991800  1.0  0.0304
  C  C402  1  0.036900  0.759600  0.948900  1.0  0.0593
  C  C403  1  0.277700  0.246830  0.732770  1.0  0.6498
  C  C404  1  0.997500  0.899900  0.810100  1.0  -0.1868
  C  C405  1  0.916000  0.239000  0.576500  1.0  -0.1351
  C  C406  1  0.942000  0.248200  0.427600  1.0  -0.1166
  C  C407  1  0.631700  0.721900  0.951500  1.0  -0.0567
  C  C408  1  0.576900  0.981500  0.687100  1.0  0.0381
  C  C409  1  0.664000  0.738800  0.606100  1.0  0.1257
  C  C410  1  0.499000  0.563400  0.821700  1.0  -0.0178
  C  C411  1  0.913700  0.087300  0.303800  1.0  -0.0938
  C  C412  1  0.088400  0.015100  0.690100  1.0  0.0007
  C  C413  1  0.003800  0.507700  0.167200  1.0  -0.1137
  C  C414  1  0.913100  0.426400  0.185500  1.0  0.0826
  C  C415  1  0.629900  0.250500  0.270400  1.0  0.6434
  C  C416  1  0.015600  0.852300  0.310400  1.0  0.1583
  C  C417  1  0.170800  0.063300  0.815300  1.0  -0.0918
  C  C418  1  0.961200  0.758700  0.115400  1.0  0.7268
  C  C419  1  0.413700  0.357300  0.198400  1.0  0.6632
  C  C420  1  0.190800  0.648600  0.813600  1.0  0.1643
  C  C421  1  0.586900  0.926400  0.685500  1.0  0.0829
  C  C422  1  0.585500  0.230000  0.547800  1.0  -0.0566
  C  C423  1  0.405100  0.082700  0.196100  1.0  -0.1456
  C  C424  1  0.871200  0.754500  0.395400  1.0  0.1508
  C  C425  1  0.086600  0.480000  0.688700  1.0  0.0337
  C  C426  1  0.410200  0.483200  0.305900  1.0  0.0622
  C  C427  1  0.343600  0.249690  0.771910  1.0  0.6654
  C  C428  1  0.340600  0.991600  0.290400  1.0  -0.1217
  C  C429  1  0.406000  0.428100  0.308500  1.0  0.0841
  C  C430  1  0.823200  0.441400  0.325500  1.0  -0.0444
  C  C431  1  0.066800  0.415200  0.807400  1.0  -0.1155
  C  C432  1  0.086300  0.857300  0.698400  1.0  0.6622
  C  C433  1  0.933200  0.584800  0.192600  1.0  -0.1179
  C  C434  1  0.991800  0.398100  0.686800  1.0  -0.1568
  C  C435  1  0.320800  0.648500  0.185100  1.0  0.1434
  C  C436  1  0.038800  0.241300  0.884600  1.0  0.7267
  C  C437  1  0.547700  0.229700  0.015800  1.0  -0.1284
  C  C438  1  0.433200  0.915200  0.307400  1.0  -0.1159
  C  C439  1  0.550100  0.255000  0.424900  1.0  -0.1625
  C  C440  1  0.442000  0.251800  0.072400  1.0  -0.1179
  C  C441  1  0.070300  0.268800  0.992400  1.0  -0.1575
  C  C442  1  0.558000  0.748200  0.927600  1.0  -0.1163
  C  C443  1  0.329200  0.563300  0.315300  1.0  -0.0923
  C  C444  1  0.503200  0.488000  0.175100  1.0  -0.1613
  C  C445  1  0.009500  0.556200  0.713300  1.0  -0.0621
  C  C446  1  0.586600  0.714000  0.483200  1.0  -0.1178
  C  C447  1  0.996200  0.492300  0.832800  1.0  -0.1179
  C  C448  1  0.483000  0.259900  0.491800  1.0  0.0304
  C  C449  1  0.991700  0.602300  0.819700  1.0  -0.1523
  C  C450  1  0.777700  0.253170  0.767230  1.0  0.652
  C  C451  1  0.096600  0.639300  0.700400  1.0  0.7002
  C  C452  1  0.496900  0.847000  0.681700  1.0  0.1393
  C  C453  1  0.222300  0.746830  0.232770  1.0  0.6522
  C  C454  1  0.323200  0.058600  0.174500  1.0  -0.0443
  C  C455  1  0.586600  0.020000  0.811300  1.0  0.0385
  C  C456  1  0.538800  0.258700  0.615400  1.0  0.7282
  C  C457  1  0.164000  0.761200  0.893900  1.0  0.1232
  C  C458  1  0.988800  0.057500  0.785400  1.0  -0.0413
  C  C459  1  0.389000  0.744400  0.065600  1.0  -0.1943
  C  C460  1  0.070400  0.785500  0.056600  1.0  -0.0635
  C  C461  1  0.315600  0.847100  0.181700  1.0  0.1658
  C  C462  1  0.188700  0.599400  0.812300  1.0  -0.2077
  C  C463  1  0.463100  0.259600  0.448900  1.0  0.059
  C  C464  1  0.503500  0.259200  0.949200  1.0  0.0546
  C  C465  1  0.981600  0.756500  0.072500  1.0  -0.103
  C  C466  1  0.508400  0.847700  0.186700  1.0  0.1404
  C  C467  1  0.588400  0.484900  0.809900  1.0  0.0044
  C  C468  1  0.484400  0.352300  0.810400  1.0  0.1578
  C  C469  1  0.913400  0.520000  0.311300  1.0  0.0388
  C  C470  1  0.481300  0.257400  0.991500  1.0  0.0612
  C  C471  1  0.008300  0.397700  0.180300  1.0  -0.1557
  C  C472  1  0.003200  0.012000  0.324900  1.0  -0.1591
  C  C473  1  0.905100  0.417300  0.303900  1.0  -0.1443
  C  C474  1  0.952300  0.729700  0.515800  1.0  -0.1289
  C  C475  1  0.611000  0.255600  0.934400  1.0  -0.1946
  C  C476  1  0.303000  0.403800  0.307700  1.0  -0.1721
  C  C477  1  0.684400  0.152900  0.818300  1.0  0.1652
  C  C478  1  0.062800  0.758500  0.383100  1.0  0.1345
  C  C479  1  0.503800  0.992300  0.332800  1.0  -0.1163
  C  C480  1  0.193800  0.250000  0.268200  1.0  0.5512
  C  C481  1  0.534000  0.252600  0.384700  1.0  0.147
  C  C482  1  0.323200  0.489900  0.206800  1.0  -0.093
  C  C483  1  0.009800  0.558800  0.170700  1.0  -0.0296
  C  C484  1  0.018400  0.243500  0.927500  1.0  -0.102
  C  C485  1  0.176600  0.938900  0.709600  1.0  -0.0534
  C  C486  1  0.923100  0.481500  0.187100  1.0  0.0383
  C  C487  1  0.034000  0.247400  0.115300  1.0  0.1485
  C  C488  1  0.129900  0.249500  0.229600  1.0  0.6432
  C  C489  1  0.984400  0.147700  0.689600  1.0  0.1572
  C  C490  1  0.843600  0.250310  0.728090  1.0  0.6657
  C  C491  1  0.491700  0.897700  0.680300  1.0  -0.1544
  C  C492  1  0.058000  0.751800  0.572400  1.0  -0.1177
  C  C493  1  0.190900  0.398200  0.682500  1.0  -0.208
  C  C494  1  0.937200  0.241500  0.616900  1.0  0.1332
  C  C495  1  0.309100  0.898200  0.182500  1.0  -0.2085
  C  C496  1  0.700400  0.647400  0.690600  1.0  0.1634
  C  C497  1  0.572200  0.358500  0.702400  1.0  0.7011
  C  C498  1  0.416000  0.261000  0.923500  1.0  -0.1351
  C  C499  1  0.820800  0.851500  0.314900  1.0  0.1431
  C  C500  1  0.924500  0.913700  0.200700  1.0  -0.1317
  C  C501  1  0.491800  0.101900  0.813200  1.0  -0.1576
  C  C502  1  0.348500  0.940300  0.288000  1.0  -0.0112
  C  C503  1  0.403400  0.139300  0.200400  1.0  0.7001
  C  C504  1  0.991600  0.347700  0.686700  1.0  0.1413
  C  C505  1  0.002500  0.100100  0.189900  1.0  -0.1849
  C  C506  1  0.536900  0.740400  0.551100  1.0  0.0615
  C  C507  1  0.325400  0.513000  0.318200  1.0  -0.0946
  C  C508  1  0.424500  0.586300  0.299300  1.0  -0.1326
  C  C509  1  0.146300  0.762100  0.933400  1.0  -0.1185
  C  C510  1  0.413100  0.073600  0.314500  1.0  0.0825
  C  C511  1  0.949900  0.755000  0.924900  1.0  -0.1644
  C  C512  1  0.086900  0.573600  0.814500  1.0  0.083
  N  N513  1  0.456200  0.744740  0.129660  1.0  -0.3228
  N  N514  1  0.587700  0.178000  0.816000  1.0  -0.318
  N  N515  1  0.920100  0.826800  0.312900  1.0  -0.308
  N  N516  1  0.596100  0.823400  0.683900  1.0  -0.3364
  N  N517  1  0.606400  0.675000  0.687800  1.0  -0.3236
  N  N518  1  0.420100  0.673200  0.187100  1.0  -0.3084
  N  N519  1  0.079900  0.173200  0.687100  1.0  -0.3082
  N  N520  1  0.412300  0.822000  0.184000  1.0  -0.3193
  N  N521  1  0.096100  0.676600  0.816100  1.0  -0.3351
  N  N522  1  0.087700  0.322000  0.684000  1.0  -0.3196
  N  N523  1  0.928300  0.245200  0.129700  1.0  -0.3308
  N  N524  1  0.912300  0.678000  0.316000  1.0  -0.3186
  N  N525  1  0.403900  0.176600  0.316100  1.0  -0.3347
  N  N526  1  0.043800  0.244740  0.629660  1.0  -0.3227
  N  N527  1  0.579900  0.326800  0.812900  1.0  -0.3079
  N  N528  1  0.106400  0.825000  0.812200  1.0  -0.3237
  N  N529  1  0.893600  0.175000  0.187800  1.0  -0.3236
  N  N530  1  0.393600  0.325000  0.312200  1.0  -0.3239
  N  N531  1  0.071700  0.754800  0.870300  1.0  -0.332
  N  N532  1  0.428300  0.254800  0.370300  1.0  -0.3319
  N  N533  1  0.903900  0.323400  0.183900  1.0  -0.3361
  N  N534  1  0.543800  0.255260  0.870340  1.0  -0.3237
  N  N535  1  0.571700  0.745200  0.629700  1.0  -0.3311
  N  N536  1  0.956200  0.755260  0.370340  1.0  -0.3238
  O  O537  1  0.292700  0.255430  0.801370  1.0  -0.577
  O  O538  1  0.123200  0.338100  0.782400  1.0  -0.6337
  O  O539  1  0.015000  0.837800  0.217600  1.0  -0.6601
  O  O540  1  0.017300  0.659800  0.717400  1.0  -0.5936
  O  O541  1  0.498700  0.334200  0.186100  1.0  -0.64
  O  O542  1  0.878600  0.747270  0.700130  1.0  -0.657
  O  O543  1  0.515000  0.662200  0.282400  1.0  -0.6599
  O  O544  1  0.166900  0.834900  0.714000  1.0  -0.6317
  O  O545  1  0.502100  0.773600  0.865600  1.0  -0.7104
  O  O546  1  0.485000  0.337800  0.717600  1.0  -0.6594
  O  O547  1  0.018500  0.662100  0.178100  1.0  -0.6087
  O  O548  1  0.832500  0.253150  0.798450  1.0  -0.6576
  O  O549  1  0.341600  0.269800  0.129700  1.0  -0.6404
  O  O550  1  0.207300  0.755430  0.301370  1.0  -0.5767
  O  O551  1  0.623200  0.161900  0.717600  1.0  -0.6335
  O  O552  1  0.497900  0.226400  0.134400  1.0  -0.7119
  O  O553  1  0.018700  0.246200  0.234000  1.0  -0.6737
  O  O554  1  0.002100  0.726400  0.634400  1.0  -0.7115
  O  O555  1  0.332500  0.246850  0.701550  1.0  -0.6582
  O  O556  1  0.951400  0.252250  0.732450  1.0  -0.705
  O  O557  1  0.125100  0.263400  0.871500  1.0  -0.6553
  O  O558  1  0.517300  0.840200  0.782600  1.0  -0.5937
  O  O559  1  0.374900  0.763400  0.371500  1.0  -0.6546
  O  O560  1  0.172600  0.247400  0.735100  1.0  -0.6255
  O  O561  1  0.672600  0.252600  0.764900  1.0  -0.6252
  O  O562  1  0.327400  0.747400  0.235100  1.0  -0.6261
  O  O563  1  0.548600  0.752250  0.232450  1.0  -0.7039
  O  O564  1  0.621400  0.247270  0.200130  1.0  -0.6581
  O  O565  1  0.121400  0.252730  0.299870  1.0  -0.656
  O  O566  1  0.482700  0.159800  0.217400  1.0  -0.593
  O  O567  1  0.966900  0.221400  0.864000  1.0  -0.6375
  O  O568  1  0.301000  0.245150  0.265850  1.0  -0.6307
  O  O569  1  0.048600  0.747750  0.267550  1.0  -0.7034
  O  O570  1  0.982700  0.340200  0.282600  1.0  -0.5932
  O  O571  1  0.333100  0.334900  0.214000  1.0  -0.6314
  O  O572  1  0.827400  0.752600  0.264900  1.0  -0.6257
  O  O573  1  0.876800  0.661900  0.217600  1.0  -0.6337
  O  O574  1  0.001300  0.834200  0.686100  1.0  -0.6388
  O  O575  1  0.181400  0.248690  0.199410  1.0  -0.5792
  O  O576  1  0.998700  0.165800  0.313900  1.0  -0.64
  O  O577  1  0.841600  0.230200  0.370300  1.0  -0.6411
  O  O578  1  0.154600  0.166300  0.808500  1.0  -0.6071
  O  O579  1  0.981500  0.337900  0.821900  1.0  -0.6094
  O  O580  1  0.997900  0.273600  0.365600  1.0  -0.7113
  O  O581  1  0.451400  0.247750  0.767550  1.0  -0.7043
  O  O582  1  0.681400  0.251310  0.300590  1.0  -0.5784
  O  O583  1  0.481300  0.746200  0.734000  1.0  -0.6744
  O  O584  1  0.699000  0.754850  0.734150  1.0  -0.6301
  O  O585  1  0.667500  0.753150  0.298450  1.0  -0.6573
  O  O586  1  0.654600  0.333700  0.691500  1.0  -0.6087
  O  O587  1  0.625100  0.236600  0.628500  1.0  -0.655
  O  O588  1  0.501300  0.665800  0.813900  1.0  -0.6394
  O  O589  1  0.833100  0.165100  0.286000  1.0  -0.6321
  O  O590  1  0.466900  0.278600  0.636000  1.0  -0.6381
  O  O591  1  0.199000  0.745150  0.765850  1.0  -0.6304
  O  O592  1  0.481500  0.162100  0.678100  1.0  -0.6086
  O  O593  1  0.677500  0.838200  0.815500  1.0  -0.6305
  O  O594  1  0.845400  0.833700  0.191500  1.0  -0.6082
  O  O595  1  0.518700  0.253800  0.266000  1.0  -0.6737
  O  O596  1  0.658400  0.730200  0.870300  1.0  -0.6419
  O  O597  1  0.345400  0.666300  0.308500  1.0  -0.6093
  O  O598  1  0.981300  0.753800  0.766000  1.0  -0.675
  O  O599  1  0.707300  0.744570  0.198630  1.0  -0.5755
  O  O600  1  0.818600  0.751310  0.800590  1.0  -0.5782
  O  O601  1  0.533100  0.721400  0.364000  1.0  -0.638
  O  O602  1  0.378600  0.752730  0.799870  1.0  -0.655
  O  O603  1  0.318600  0.748690  0.699410  1.0  -0.5784
  O  O604  1  0.985000  0.162200  0.782400  1.0  -0.6594
  O  O605  1  0.666900  0.665100  0.786000  1.0  -0.6326
  O  O606  1  0.167500  0.746850  0.201550  1.0  -0.6569
  O  O607  1  0.322500  0.161800  0.184500  1.0  -0.6278
  O  O608  1  0.874900  0.736600  0.128500  1.0  -0.6541
  O  O609  1  0.801000  0.254850  0.234150  1.0  -0.6305
  O  O610  1  0.792700  0.244570  0.698630  1.0  -0.5751
  O  O611  1  0.033100  0.778600  0.136000  1.0  -0.6388
  O  O612  1  0.177500  0.661800  0.684500  1.0  -0.6298
  O  O613  1  0.158400  0.769800  0.629700  1.0  -0.6411
  O  O614  1  0.822500  0.338200  0.315500  1.0  -0.6289
  O  O615  1  0.376800  0.838100  0.282400  1.0  -0.6334
  O  O616  1  0.518500  0.837900  0.321900  1.0  -0.6093
