# generated using pymatgen
data_ZnH17C17N5O4
_symmetry_space_group_name_H-M   'P 1'
_cell_length_a   19.68500000
_cell_length_b   14.33200000
_cell_length_c   16.93000000
_cell_angle_alpha   90.00000000
_cell_angle_beta   121.20500000
_cell_angle_gamma   90.00000000
_symmetry_Int_Tables_number   1
_chemical_formula_structural   ZnH17C17N5O4
_chemical_formula_sum   'Zn8 H136 C136 N40 O32'
_cell_volume   4085.33168090
_cell_formula_units_Z   8
loop_
 _symmetry_equiv_pos_site_id
 _symmetry_equiv_pos_as_xyz
  1  'x, y, z'
loop_
 _atom_site_type_symbol
 _atom_site_label
 _atom_site_symmetry_multiplicity
 _atom_site_fract_x
 _atom_site_fract_y
 _atom_site_fract_z
 _atom_site_occupancy
 _atom_site_charge
  Zn  Zn1  1  0.243220  0.432390  0.368070  1.0  0.8324
  Zn  Zn2  1  0.743220  0.932390  0.368070  1.0  0.8324
  Zn  Zn3  1  0.756780  0.432390  0.131930  1.0  0.8319
  Zn  Zn4  1  0.256780  0.932390  0.131930  1.0  0.8319
  Zn  Zn5  1  0.756780  0.567610  0.631930  1.0  0.8307
  Zn  Zn6  1  0.256780  0.067610  0.631930  1.0  0.8307
  Zn  Zn7  1  0.243220  0.567610  0.868070  1.0  0.8313
  Zn  Zn8  1  0.743220  0.067610  0.868070  1.0  0.8313
  H  H9  1  0.274100  0.621900  0.088500  1.0  0.1117
  H  H10  1  0.253600  0.464600  0.074700  1.0  0.0964
  H  H11  1  0.236500  0.382700  0.179300  1.0  0.1179
  H  H12  1  0.113700  0.550500  0.381400  1.0  0.1099
  H  H13  1  0.121600  0.279000  0.369200  1.0  0.1032
  H  H14  1  0.001100  0.318900  0.369100  1.0  0.1223
  H  H15  1  0.923300  0.501100  0.317200  1.0  0.0931
  H  H16  1  0.986600  0.578900  0.371400  1.0  0.0839
  H  H17  1  0.928400  0.544500  0.452800  1.0  0.0651
  H  H18  1  0.940900  0.437600  0.448000  1.0  0.0678
  H  H19  1  0.375300  0.566600  0.517100  1.0  0.1108
  H  H20  1  0.398900  0.301100  0.493300  1.0  0.1024
  H  H21  1  0.525200  0.356800  0.622300  1.0  0.1342
  H  H22  1  0.513100  0.614300  0.636800  1.0  0.0766
  H  H23  1  0.581300  0.541800  0.662500  1.0  0.0884
  H  H24  1  0.572800  0.585700  0.792800  1.0  0.0839
  H  H25  1  0.566100  0.477500  0.776900  1.0  0.0753
  H  H26  1  0.774100  0.121900  0.088500  1.0  0.1117
  H  H27  1  0.753600  0.964600  0.074700  1.0  0.0964
  H  H28  1  0.736500  0.882700  0.179300  1.0  0.1179
  H  H29  1  0.613700  0.050500  0.381400  1.0  0.1099
  H  H30  1  0.621600  0.779000  0.369200  1.0  0.1032
  H  H31  1  0.501100  0.818900  0.369100  1.0  0.1223
  H  H32  1  0.423300  0.001100  0.317200  1.0  0.0931
  H  H33  1  0.486600  0.078900  0.371400  1.0  0.0839
  H  H34  1  0.428400  0.044500  0.452800  1.0  0.0651
  H  H35  1  0.440900  0.937600  0.448000  1.0  0.0678
  H  H36  1  0.875300  0.066600  0.517100  1.0  0.1108
  H  H37  1  0.898900  0.801100  0.493300  1.0  0.1024
  H  H38  1  0.025200  0.856800  0.622300  1.0  0.1342
  H  H39  1  0.013100  0.114300  0.636800  1.0  0.0766
  H  H40  1  0.081300  0.041800  0.662500  1.0  0.0884
  H  H41  1  0.072800  0.085700  0.792800  1.0  0.0839
  H  H42  1  0.066100  0.977500  0.776900  1.0  0.0753
  H  H43  1  0.725900  0.621900  0.411500  1.0  0.1111
  H  H44  1  0.746400  0.464600  0.425300  1.0  0.096
  H  H45  1  0.763500  0.382700  0.320700  1.0  0.1185
  H  H46  1  0.886300  0.550500  0.118600  1.0  0.1099
  H  H47  1  0.878400  0.279000  0.130800  1.0  0.1036
  H  H48  1  0.998900  0.318900  0.130900  1.0  0.1223
  H  H49  1  0.076700  0.501100  0.182800  1.0  0.0947
  H  H50  1  0.013400  0.578900  0.128600  1.0  0.0826
  H  H51  1  0.071600  0.544500  0.047200  1.0  0.0647
  H  H52  1  0.059100  0.437600  0.052000  1.0  0.0667
  H  H53  1  0.624700  0.566600  0.982900  1.0  0.1107
  H  H54  1  0.601100  0.301100  0.006700  1.0  0.1025
  H  H55  1  0.474800  0.356800  0.877700  1.0  0.1342
  H  H56  1  0.486900  0.614300  0.863200  1.0  0.0758
  H  H57  1  0.418700  0.541800  0.837500  1.0  0.0876
  H  H58  1  0.427200  0.585700  0.707200  1.0  0.0846
  H  H59  1  0.433900  0.477500  0.723100  1.0  0.075
  H  H60  1  0.225900  0.121900  0.411500  1.0  0.1111
  H  H61  1  0.246400  0.964600  0.425300  1.0  0.096
  H  H62  1  0.263500  0.882700  0.320700  1.0  0.1185
  H  H63  1  0.386300  0.050500  0.118600  1.0  0.1099
  H  H64  1  0.378400  0.779000  0.130800  1.0  0.1036
  H  H65  1  0.498900  0.818900  0.130900  1.0  0.1223
  H  H66  1  0.576700  0.001100  0.182800  1.0  0.0947
  H  H67  1  0.513400  0.078900  0.128600  1.0  0.0826
  H  H68  1  0.571600  0.044500  0.047200  1.0  0.0647
  H  H69  1  0.559100  0.937600  0.052000  1.0  0.0667
  H  H70  1  0.124700  0.066600  0.982900  1.0  0.1107
  H  H71  1  0.101100  0.801100  0.006700  1.0  0.1025
  H  H72  1  0.974800  0.856800  0.877700  1.0  0.1342
  H  H73  1  0.986900  0.114300  0.863200  1.0  0.0758
  H  H74  1  0.918700  0.041800  0.837500  1.0  0.0876
  H  H75  1  0.927200  0.085700  0.707200  1.0  0.0846
  H  H76  1  0.933900  0.977500  0.723100  1.0  0.075
  H  H77  1  0.725900  0.378100  0.911500  1.0  0.1112
  H  H78  1  0.746400  0.535400  0.925300  1.0  0.0963
  H  H79  1  0.763500  0.617300  0.820700  1.0  0.1183
  H  H80  1  0.886300  0.449500  0.618600  1.0  0.1097
  H  H81  1  0.878400  0.721000  0.630800  1.0  0.1032
  H  H82  1  0.998900  0.681100  0.630900  1.0  0.1224
  H  H83  1  0.076700  0.498900  0.682800  1.0  0.0951
  H  H84  1  0.013400  0.421100  0.628600  1.0  0.08
  H  H85  1  0.071600  0.455500  0.547200  1.0  0.0643
  H  H86  1  0.059100  0.562400  0.552000  1.0  0.0679
  H  H87  1  0.624700  0.433400  0.482900  1.0  0.1101
  H  H88  1  0.601100  0.698900  0.506700  1.0  0.1019
  H  H89  1  0.474800  0.643200  0.377700  1.0  0.1344
  H  H90  1  0.486900  0.385700  0.363200  1.0  0.0778
  H  H91  1  0.418700  0.458200  0.337500  1.0  0.0879
  H  H92  1  0.427200  0.414300  0.207200  1.0  0.0849
  H  H93  1  0.433900  0.522500  0.223100  1.0  0.0747
  H  H94  1  0.225900  0.878100  0.911500  1.0  0.1112
  H  H95  1  0.246400  0.035400  0.925300  1.0  0.0963
  H  H96  1  0.263500  0.117300  0.820700  1.0  0.1183
  H  H97  1  0.386300  0.949500  0.618600  1.0  0.1097
  H  H98  1  0.378400  0.221000  0.630800  1.0  0.1032
  H  H99  1  0.498900  0.181100  0.630900  1.0  0.1224
  H  H100  1  0.576700  0.998900  0.682800  1.0  0.0951
  H  H101  1  0.513400  0.921100  0.628600  1.0  0.08
  H  H102  1  0.571600  0.955500  0.547200  1.0  0.0643
  H  H103  1  0.559100  0.062400  0.552000  1.0  0.0679
  H  H104  1  0.124700  0.933400  0.482900  1.0  0.1101
  H  H105  1  0.101100  0.198900  0.506700  1.0  0.1019
  H  H106  1  0.974800  0.143200  0.377700  1.0  0.1344
  H  H107  1  0.986900  0.885700  0.363200  1.0  0.0778
  H  H108  1  0.918700  0.958200  0.337500  1.0  0.0879
  H  H109  1  0.927200  0.914300  0.207200  1.0  0.0849
  H  H110  1  0.933900  0.022500  0.223100  1.0  0.0747
  H  H111  1  0.274100  0.378100  0.588500  1.0  0.1113
  H  H112  1  0.253600  0.535400  0.574700  1.0  0.0966
  H  H113  1  0.236500  0.617300  0.679300  1.0  0.1194
  H  H114  1  0.113700  0.449500  0.881400  1.0  0.1097
  H  H115  1  0.121600  0.721000  0.869200  1.0  0.103
  H  H116  1  0.001100  0.681100  0.869100  1.0  0.1223
  H  H117  1  0.923300  0.498900  0.817200  1.0  0.0926
  H  H118  1  0.986600  0.421100  0.871400  1.0  0.0802
  H  H119  1  0.928400  0.455500  0.952800  1.0  0.0635
  H  H120  1  0.940900  0.562400  0.948000  1.0  0.0686
  H  H121  1  0.375300  0.433400  0.017100  1.0  0.1097
  H  H122  1  0.398900  0.698900  0.993300  1.0  0.1022
  H  H123  1  0.525200  0.643200  0.122300  1.0  0.1344
  H  H124  1  0.513100  0.385700  0.136800  1.0  0.0768
  H  H125  1  0.581300  0.458200  0.162500  1.0  0.088
  H  H126  1  0.572800  0.414300  0.292800  1.0  0.0854
  H  H127  1  0.566100  0.522500  0.276900  1.0  0.0745
  H  H128  1  0.774100  0.878100  0.588500  1.0  0.1113
  H  H129  1  0.753600  0.035400  0.574700  1.0  0.0966
  H  H130  1  0.736500  0.117300  0.679300  1.0  0.1194
  H  H131  1  0.613700  0.949500  0.881400  1.0  0.1097
  H  H132  1  0.621600  0.221000  0.869200  1.0  0.103
  H  H133  1  0.501100  0.181100  0.869100  1.0  0.1223
  H  H134  1  0.423300  0.998900  0.817200  1.0  0.0926
  H  H135  1  0.486600  0.921100  0.871400  1.0  0.0802
  H  H136  1  0.428400  0.955500  0.952800  1.0  0.0635
  H  H137  1  0.440900  0.062400  0.948000  1.0  0.0686
  H  H138  1  0.875300  0.933400  0.017100  1.0  0.1097
  H  H139  1  0.898900  0.198900  0.993300  1.0  0.1022
  H  H140  1  0.025200  0.143200  0.122300  1.0  0.1344
  H  H141  1  0.013100  0.885700  0.136800  1.0  0.0768
  H  H142  1  0.081300  0.958200  0.162500  1.0  0.088
  H  H143  1  0.072800  0.914300  0.292800  1.0  0.0854
  H  H144  1  0.066100  0.022500  0.276900  1.0  0.0745
  C  C145  1  0.242000  0.635200  0.336400  1.0  0.6459
  C  C146  1  0.290300  0.741200  0.217300  1.0  0.7006
  C  C147  1  0.250800  0.584900  0.262900  1.0  0.0503
  C  C148  1  0.268800  0.639100  0.203100  1.0  -0.0647
  C  C149  1  0.266900  0.590300  0.131600  1.0  -0.1158
  C  C150  1  0.254500  0.496000  0.123400  1.0  -0.0931
  C  C151  1  0.243600  0.447000  0.184900  1.0  0.0946
  C  C152  1  0.100500  0.487700  0.377500  1.0  0.1331
  C  C153  1  0.104900  0.339200  0.371500  1.0  0.0203
  C  C154  1  0.038000  0.360500  0.370700  1.0  -0.1517
  C  C155  1  0.973900  0.513800  0.373000  1.0  -0.0246
  C  C156  1  0.965400  0.498300  0.455100  1.0  -0.1377
  C  C157  1  0.396800  0.507000  0.526300  1.0  0.1339
  C  C158  1  0.409700  0.362300  0.514500  1.0  0.0326
  C  C159  1  0.480300  0.392600  0.584700  1.0  -0.1613
  C  C160  1  0.530300  0.550800  0.657300  1.0  -0.0245
  C  C161  1  0.539400  0.536500  0.751500  1.0  -0.1083
  C  C162  1  0.742000  0.135200  0.336400  1.0  0.6459
  C  C163  1  0.790300  0.241200  0.217300  1.0  0.7006
  C  C164  1  0.750800  0.084900  0.262900  1.0  0.0503
  C  C165  1  0.768800  0.139100  0.203100  1.0  -0.0647
  C  C166  1  0.766900  0.090300  0.131600  1.0  -0.1158
  C  C167  1  0.754500  0.996000  0.123400  1.0  -0.0931
  C  C168  1  0.743600  0.947000  0.184900  1.0  0.0946
  C  C169  1  0.600500  0.987700  0.377500  1.0  0.1331
  C  C170  1  0.604900  0.839200  0.371500  1.0  0.0203
  C  C171  1  0.538000  0.860500  0.370700  1.0  -0.1517
  C  C172  1  0.473900  0.013800  0.373000  1.0  -0.0246
  C  C173  1  0.465400  0.998300  0.455100  1.0  -0.1377
  C  C174  1  0.896800  0.007000  0.526300  1.0  0.1339
  C  C175  1  0.909700  0.862300  0.514500  1.0  0.0326
  C  C176  1  0.980300  0.892600  0.584700  1.0  -0.1613
  C  C177  1  0.030300  0.050800  0.657300  1.0  -0.0245
  C  C178  1  0.039400  0.036500  0.751500  1.0  -0.1083
  C  C179  1  0.758000  0.635200  0.163600  1.0  0.649
  C  C180  1  0.709700  0.741200  0.282700  1.0  0.7025
  C  C181  1  0.749200  0.584900  0.237100  1.0  0.0509
  C  C182  1  0.731200  0.639100  0.296900  1.0  -0.0636
  C  C183  1  0.733100  0.590300  0.368400  1.0  -0.1175
  C  C184  1  0.745500  0.496000  0.376600  1.0  -0.0935
  C  C185  1  0.756400  0.447000  0.315100  1.0  0.0952
  C  C186  1  0.899500  0.487700  0.122500  1.0  0.1325
  C  C187  1  0.895100  0.339200  0.128500  1.0  0.0196
  C  C188  1  0.962000  0.360500  0.129300  1.0  -0.1507
  C  C189  1  0.026100  0.513800  0.127000  1.0  -0.0241
  C  C190  1  0.034600  0.498300  0.044900  1.0  -0.1355
  C  C191  1  0.603200  0.507000  0.973700  1.0  0.134
  C  C192  1  0.590300  0.362300  0.985500  1.0  0.0336
  C  C193  1  0.519700  0.392600  0.915300  1.0  -0.16
  C  C194  1  0.469700  0.550800  0.842700  1.0  -0.024
  C  C195  1  0.460600  0.536500  0.748500  1.0  -0.1098
  C  C196  1  0.258000  0.135200  0.163600  1.0  0.649
  C  C197  1  0.209700  0.241200  0.282700  1.0  0.7025
  C  C198  1  0.249200  0.084900  0.237100  1.0  0.0509
  C  C199  1  0.231200  0.139100  0.296900  1.0  -0.0636
  C  C200  1  0.233100  0.090300  0.368400  1.0  -0.1175
  C  C201  1  0.245500  0.996000  0.376600  1.0  -0.0935
  C  C202  1  0.256400  0.947000  0.315100  1.0  0.0952
  C  C203  1  0.399500  0.987700  0.122500  1.0  0.1325
  C  C204  1  0.395100  0.839200  0.128500  1.0  0.0196
  C  C205  1  0.462000  0.860500  0.129300  1.0  -0.1507
  C  C206  1  0.526100  0.013800  0.127000  1.0  -0.0241
  C  C207  1  0.534600  0.998300  0.044900  1.0  -0.1355
  C  C208  1  0.103200  0.007000  0.973700  1.0  0.134
  C  C209  1  0.090300  0.862300  0.985500  1.0  0.0336
  C  C210  1  0.019700  0.892600  0.915300  1.0  -0.16
  C  C211  1  0.969700  0.050800  0.842700  1.0  -0.024
  C  C212  1  0.960600  0.036500  0.748500  1.0  -0.1098
  C  C213  1  0.758000  0.364800  0.663600  1.0  0.6474
  C  C214  1  0.709700  0.258800  0.782700  1.0  0.7034
  C  C215  1  0.749200  0.415100  0.737100  1.0  0.0506
  C  C216  1  0.731200  0.360900  0.796900  1.0  -0.0647
  C  C217  1  0.733100  0.409700  0.868400  1.0  -0.1181
  C  C218  1  0.745500  0.504000  0.876600  1.0  -0.0938
  C  C219  1  0.756400  0.553000  0.815100  1.0  0.0956
  C  C220  1  0.899500  0.512300  0.622500  1.0  0.1334
  C  C221  1  0.895100  0.660800  0.628500  1.0  0.0198
  C  C222  1  0.962000  0.639500  0.629300  1.0  -0.1509
  C  C223  1  0.026100  0.486200  0.627000  1.0  -0.0254
  C  C224  1  0.034600  0.501700  0.544900  1.0  -0.1356
  C  C225  1  0.603200  0.493000  0.473700  1.0  0.1344
  C  C226  1  0.590300  0.637700  0.485500  1.0  0.0337
  C  C227  1  0.519700  0.607400  0.415300  1.0  -0.1605
  C  C228  1  0.469700  0.449200  0.342700  1.0  -0.0246
  C  C229  1  0.460600  0.463500  0.248500  1.0  -0.1098
  C  C230  1  0.258000  0.864800  0.663600  1.0  0.6474
  C  C231  1  0.209700  0.758800  0.782700  1.0  0.7034
  C  C232  1  0.249200  0.915100  0.737100  1.0  0.0506
  C  C233  1  0.231200  0.860900  0.796900  1.0  -0.0647
  C  C234  1  0.233100  0.909700  0.868400  1.0  -0.1181
  C  C235  1  0.245500  0.004000  0.876600  1.0  -0.0938
  C  C236  1  0.256400  0.053000  0.815100  1.0  0.0956
  C  C237  1  0.399500  0.012300  0.622500  1.0  0.1334
  C  C238  1  0.395100  0.160800  0.628500  1.0  0.0198
  C  C239  1  0.462000  0.139500  0.629300  1.0  -0.1509
  C  C240  1  0.526100  0.986200  0.627000  1.0  -0.0254
  C  C241  1  0.534600  0.001700  0.544900  1.0  -0.1356
  C  C242  1  0.103200  0.993000  0.473700  1.0  0.1344
  C  C243  1  0.090300  0.137700  0.485500  1.0  0.0337
  C  C244  1  0.019700  0.107400  0.415300  1.0  -0.1605
  C  C245  1  0.969700  0.949200  0.342700  1.0  -0.0246
  C  C246  1  0.960600  0.963500  0.248500  1.0  -0.1098
  C  C247  1  0.242000  0.364800  0.836400  1.0  0.6467
  C  C248  1  0.290300  0.258800  0.717300  1.0  0.7015
  C  C249  1  0.250800  0.415100  0.762900  1.0  0.0514
  C  C250  1  0.268800  0.360900  0.703100  1.0  -0.0656
  C  C251  1  0.266900  0.409700  0.631600  1.0  -0.1171
  C  C252  1  0.254500  0.504000  0.623400  1.0  -0.0938
  C  C253  1  0.243600  0.553000  0.684900  1.0  0.095
  C  C254  1  0.100500  0.512300  0.877500  1.0  0.1337
  C  C255  1  0.104900  0.660800  0.871500  1.0  0.0213
  C  C256  1  0.038000  0.639500  0.870700  1.0  -0.1523
  C  C257  1  0.973900  0.486200  0.873000  1.0  -0.0251
  C  C258  1  0.965400  0.501700  0.955100  1.0  -0.1379
  C  C259  1  0.396800  0.493000  0.026300  1.0  0.134
  C  C260  1  0.409700  0.637700  0.014500  1.0  0.0331
  C  C261  1  0.480300  0.607400  0.084700  1.0  -0.1612
  C  C262  1  0.530300  0.449200  0.157300  1.0  -0.0262
  C  C263  1  0.539400  0.463500  0.251500  1.0  -0.1088
  C  C264  1  0.742000  0.864800  0.836400  1.0  0.6467
  C  C265  1  0.790300  0.758800  0.717300  1.0  0.7015
  C  C266  1  0.750800  0.915100  0.762900  1.0  0.0514
  C  C267  1  0.768800  0.860900  0.703100  1.0  -0.0656
  C  C268  1  0.766900  0.909700  0.631600  1.0  -0.1171
  C  C269  1  0.754500  0.004000  0.623400  1.0  -0.0938
  C  C270  1  0.743600  0.053000  0.684900  1.0  0.095
  C  C271  1  0.600500  0.012300  0.877500  1.0  0.1337
  C  C272  1  0.604900  0.160800  0.871500  1.0  0.0213
  C  C273  1  0.538000  0.139500  0.870700  1.0  -0.1523
  C  C274  1  0.473900  0.986200  0.873000  1.0  -0.0251
  C  C275  1  0.465400  0.001700  0.955100  1.0  -0.1379
  C  C276  1  0.896800  0.993000  0.026300  1.0  0.134
  C  C277  1  0.909700  0.137700  0.014500  1.0  0.0331
  C  C278  1  0.980300  0.107400  0.084700  1.0  -0.1612
  C  C279  1  0.030300  0.949200  0.157300  1.0  -0.0262
  C  C280  1  0.039400  0.963500  0.251500  1.0  -0.1088
  N  N281  1  0.243300  0.494700  0.256100  1.0  -0.3621
  N  N282  1  0.035300  0.455600  0.372800  1.0  0.056
  N  N283  1  0.144400  0.418400  0.376100  1.0  -0.3791
  N  N284  1  0.472400  0.485600  0.589100  1.0  0.051
  N  N285  1  0.357000  0.432900  0.479300  1.0  -0.3863
  N  N286  1  0.743300  0.994700  0.256100  1.0  -0.3621
  N  N287  1  0.535300  0.955600  0.372800  1.0  0.056
  N  N288  1  0.644400  0.918400  0.376100  1.0  -0.3791
  N  N289  1  0.972400  0.985600  0.589100  1.0  0.051
  N  N290  1  0.857000  0.932900  0.479300  1.0  -0.3863
  N  N291  1  0.756700  0.494700  0.243900  1.0  -0.3637
  N  N292  1  0.964700  0.455600  0.127200  1.0  0.0558
  N  N293  1  0.855600  0.418400  0.123900  1.0  -0.3799
  N  N294  1  0.527600  0.485600  0.910900  1.0  0.0494
  N  N295  1  0.643000  0.432900  0.020700  1.0  -0.3833
  N  N296  1  0.256700  0.994700  0.243900  1.0  -0.3637
  N  N297  1  0.464700  0.955600  0.127200  1.0  0.0558
  N  N298  1  0.355600  0.918400  0.123900  1.0  -0.3799
  N  N299  1  0.027600  0.985600  0.910900  1.0  0.0494
  N  N300  1  0.143000  0.932900  0.020700  1.0  -0.3833
  N  N301  1  0.756700  0.505300  0.743900  1.0  -0.3627
  N  N302  1  0.964700  0.544400  0.627200  1.0  0.0559
  N  N303  1  0.855600  0.581600  0.623900  1.0  -0.3799
  N  N304  1  0.527600  0.514400  0.410900  1.0  0.0494
  N  N305  1  0.643000  0.567100  0.520700  1.0  -0.3832
  N  N306  1  0.256700  0.005300  0.743900  1.0  -0.3627
  N  N307  1  0.464700  0.044400  0.627200  1.0  0.0559
  N  N308  1  0.355600  0.081600  0.623900  1.0  -0.3799
  N  N309  1  0.027600  0.014400  0.410900  1.0  0.0494
  N  N310  1  0.143000  0.067100  0.520700  1.0  -0.3832
  N  N311  1  0.243300  0.505300  0.756100  1.0  -0.3616
  N  N312  1  0.035300  0.544400  0.872800  1.0  0.056
  N  N313  1  0.144400  0.581600  0.876100  1.0  -0.3792
  N  N314  1  0.472400  0.514400  0.089100  1.0  0.0505
  N  N315  1  0.357000  0.567100  0.979300  1.0  -0.3852
  N  N316  1  0.743300  0.005300  0.756100  1.0  -0.3616
  N  N317  1  0.535300  0.044400  0.872800  1.0  0.056
  N  N318  1  0.644400  0.081600  0.876100  1.0  -0.3792
  N  N319  1  0.972400  0.014400  0.089100  1.0  0.0505
  N  N320  1  0.857000  0.067100  0.979300  1.0  -0.3852
  O  O321  1  0.239400  0.579500  0.392600  1.0  -0.6169
  O  O322  1  0.236100  0.719200  0.335700  1.0  -0.5821
  O  O323  1  0.356500  0.764400  0.285800  1.0  -0.5948
  O  O324  1  0.241300  0.796000  0.155000  1.0  -0.5923
  O  O325  1  0.739400  0.079500  0.392600  1.0  -0.6169
  O  O326  1  0.736100  0.219200  0.335700  1.0  -0.5821
  O  O327  1  0.856500  0.264400  0.285800  1.0  -0.5948
  O  O328  1  0.741300  0.296000  0.155000  1.0  -0.5923
  O  O329  1  0.760600  0.579500  0.107400  1.0  -0.6146
  O  O330  1  0.763900  0.719200  0.164300  1.0  -0.5809
  O  O331  1  0.643500  0.764400  0.214200  1.0  -0.5945
  O  O332  1  0.758700  0.796000  0.345000  1.0  -0.5911
  O  O333  1  0.260600  0.079500  0.107400  1.0  -0.6146
  O  O334  1  0.263900  0.219200  0.164300  1.0  -0.5809
  O  O335  1  0.143500  0.264400  0.214200  1.0  -0.5945
  O  O336  1  0.258700  0.296000  0.345000  1.0  -0.5911
  O  O337  1  0.760600  0.420500  0.607400  1.0  -0.6152
  O  O338  1  0.763900  0.280800  0.664300  1.0  -0.5825
  O  O339  1  0.643500  0.235600  0.714200  1.0  -0.5945
  O  O340  1  0.758700  0.204000  0.845000  1.0  -0.5915
  O  O341  1  0.260600  0.920500  0.607400  1.0  -0.6152
  O  O342  1  0.263900  0.780800  0.664300  1.0  -0.5825
  O  O343  1  0.143500  0.735600  0.714200  1.0  -0.5945
  O  O344  1  0.258700  0.704000  0.845000  1.0  -0.5915
  O  O345  1  0.239400  0.420500  0.892600  1.0  -0.6165
  O  O346  1  0.236100  0.280800  0.835700  1.0  -0.5834
  O  O347  1  0.356500  0.235600  0.785800  1.0  -0.5947
  O  O348  1  0.241300  0.204000  0.655000  1.0  -0.5925
  O  O349  1  0.739400  0.920500  0.892600  1.0  -0.6165
  O  O350  1  0.736100  0.780800  0.835700  1.0  -0.5834
  O  O351  1  0.856500  0.735600  0.785800  1.0  -0.5947
  O  O352  1  0.741300  0.704000  0.655000  1.0  -0.5925
