# generated using pymatgen
data_CuH8(C2N)4
_symmetry_space_group_name_H-M   'P 1'
_cell_length_a   11.12400000
_cell_length_b   15.70900000
_cell_length_c   11.33700000
_cell_angle_alpha   90.00000000
_cell_angle_beta   106.48000000
_cell_angle_gamma   90.00000000
_symmetry_Int_Tables_number   1
_chemical_formula_structural   CuH8(C2N)4
_chemical_formula_sum   'Cu4 H32 C32 N16'
_cell_volume   1899.71961635
_cell_formula_units_Z   4
loop_
 _symmetry_equiv_pos_site_id
 _symmetry_equiv_pos_as_xyz
  1  'x, y, z'
loop_
 _atom_site_type_symbol
 _atom_site_label
 _atom_site_symmetry_multiplicity
 _atom_site_fract_x
 _atom_site_fract_y
 _atom_site_fract_z
 _atom_site_occupancy
 _atom_site_charge
  Cu  Cu1  1  0.761050  0.126960  0.033420  1.0  0.384
  Cu  Cu2  1  0.238950  0.626960  0.466580  1.0  0.3842
  Cu  Cu3  1  0.238950  0.873040  0.966580  1.0  0.3842
  Cu  Cu4  1  0.761050  0.373040  0.533420  1.0  0.384
  H  H5  1  0.911600  0.271300  0.967000  1.0  0.0409
  H  H6  1  0.609600  0.161600  0.772600  1.0  0.0388
  H  H7  1  0.915400  0.351600  0.802000  1.0  0.0426
  H  H8  1  0.613200  0.241600  0.608400  1.0  0.0372
  H  H9  1  0.044200  0.113200  0.127300  1.0  0.0551
  H  H10  1  0.798600  0.967000  0.904900  1.0  0.0425
  H  H11  1  0.694100  0.950500  0.090600  1.0  0.0433
  H  H12  1  0.475500  0.133900  0.926000  1.0  0.0449
  H  H13  1  0.088400  0.771300  0.533000  1.0  0.0415
  H  H14  1  0.390400  0.661600  0.727400  1.0  0.0387
  H  H15  1  0.084600  0.851600  0.698000  1.0  0.0429
  H  H16  1  0.386800  0.741600  0.891600  1.0  0.037
  H  H17  1  0.955800  0.613200  0.372700  1.0  0.0559
  H  H18  1  0.201400  0.467000  0.595100  1.0  0.0412
  H  H19  1  0.305900  0.450500  0.409400  1.0  0.0434
  H  H20  1  0.524500  0.633900  0.574000  1.0  0.046
  H  H21  1  0.088400  0.728700  0.033000  1.0  0.0414
  H  H22  1  0.390400  0.838400  0.227400  1.0  0.0386
  H  H23  1  0.084600  0.648400  0.198000  1.0  0.0428
  H  H24  1  0.386800  0.758400  0.391600  1.0  0.0369
  H  H25  1  0.955800  0.886800  0.872700  1.0  0.0568
  H  H26  1  0.201400  0.033000  0.095100  1.0  0.0415
  H  H27  1  0.305900  0.049500  0.909400  1.0  0.043
  H  H28  1  0.524500  0.866100  0.074000  1.0  0.0434
  H  H29  1  0.911600  0.228700  0.467000  1.0  0.0411
  H  H30  1  0.609600  0.338400  0.272600  1.0  0.039
  H  H31  1  0.915400  0.148400  0.302000  1.0  0.0424
  H  H32  1  0.613200  0.258400  0.108400  1.0  0.037
  H  H33  1  0.044200  0.386800  0.627300  1.0  0.0554
  H  H34  1  0.798600  0.533000  0.404900  1.0  0.0417
  H  H35  1  0.694100  0.549500  0.590600  1.0  0.0431
  H  H36  1  0.475500  0.366100  0.426000  1.0  0.0436
  C  C37  1  0.848500  0.263900  0.893800  1.0  0.0791
  C  C38  1  0.674200  0.200800  0.781100  1.0  0.1021
  C  C39  1  0.851000  0.312200  0.793700  1.0  0.0872
  C  C40  1  0.676500  0.248800  0.681500  1.0  0.0908
  C  C41  1  0.024000  0.066800  0.074600  1.0  0.0923
  C  C42  1  0.881100  0.981600  0.945100  1.0  0.0986
  C  C43  1  0.614600  0.972100  0.052700  1.0  0.0902
  C  C44  1  0.487700  0.078800  0.957000  1.0  0.0884
  C  C45  1  0.151500  0.763900  0.606200  1.0  0.0792
  C  C46  1  0.325800  0.700800  0.718900  1.0  0.1009
  C  C47  1  0.149000  0.812200  0.706300  1.0  0.0886
  C  C48  1  0.323500  0.748800  0.818500  1.0  0.0899
  C  C49  1  0.976000  0.566800  0.425400  1.0  0.0934
  C  C50  1  0.118900  0.481600  0.554900  1.0  0.0985
  C  C51  1  0.385400  0.472100  0.447300  1.0  0.0889
  C  C52  1  0.512300  0.578800  0.543000  1.0  0.0874
  C  C53  1  0.151500  0.736100  0.106200  1.0  0.0797
  C  C54  1  0.325800  0.799200  0.218900  1.0  0.101
  C  C55  1  0.149000  0.687800  0.206300  1.0  0.0891
  C  C56  1  0.323500  0.751200  0.318500  1.0  0.0895
  C  C57  1  0.976000  0.933200  0.925400  1.0  0.0943
  C  C58  1  0.118900  0.018400  0.054900  1.0  0.0976
  C  C59  1  0.385400  0.027900  0.947300  1.0  0.0886
  C  C60  1  0.512300  0.921200  0.043000  1.0  0.0883
  C  C61  1  0.848500  0.236100  0.393800  1.0  0.0797
  C  C62  1  0.674200  0.299200  0.281100  1.0  0.102
  C  C63  1  0.851000  0.187800  0.293700  1.0  0.0883
  C  C64  1  0.676500  0.251200  0.181500  1.0  0.0909
  C  C65  1  0.024000  0.433200  0.574600  1.0  0.0938
  C  C66  1  0.881100  0.518400  0.445100  1.0  0.0978
  C  C67  1  0.614600  0.527900  0.552700  1.0  0.0905
  C  C68  1  0.487700  0.421200  0.457000  1.0  0.0884
  N  N69  1  0.759700  0.207140  0.890000  1.0  -0.3691
  N  N70  1  0.765400  0.305090  0.685500  1.0  -0.3688
  N  N71  1  0.903000  0.049380  0.020400  1.0  -0.3514
  N  N72  1  0.604200  0.051760  0.009400  1.0  -0.3672
  N  N73  1  0.240300  0.707140  0.610000  1.0  -0.3675
  N  N74  1  0.234600  0.805090  0.814500  1.0  -0.3693
  N  N75  1  0.097000  0.549380  0.479600  1.0  -0.3514
  N  N76  1  0.395800  0.551760  0.490600  1.0  -0.3662
  N  N77  1  0.240300  0.792860  0.110000  1.0  -0.3667
  N  N78  1  0.234600  0.694910  0.314500  1.0  -0.3693
  N  N79  1  0.097000  0.950620  0.979600  1.0  -0.3548
  N  N80  1  0.395800  0.948240  0.990600  1.0  -0.3679
  N  N81  1  0.759700  0.292860  0.390000  1.0  -0.3684
  N  N82  1  0.765400  0.194910  0.185500  1.0  -0.3697
  N  N83  1  0.903000  0.450620  0.520400  1.0  -0.3541
  N  N84  1  0.604200  0.448240  0.509400  1.0  -0.369
