# generated using pymatgen
data_ZnH5C10N3O4
_symmetry_space_group_name_H-M   'P 1'
_cell_length_a   8.90200000
_cell_length_b   11.88700000
_cell_length_c   14.75700000
_cell_angle_alpha   90.00000000
_cell_angle_beta   90.00000000
_cell_angle_gamma   90.00000000
_symmetry_Int_Tables_number   1
_chemical_formula_structural   ZnH5C10N3O4
_chemical_formula_sum   'Zn4 H20 C40 N12 O16'
_cell_volume   1561.55731802
_cell_formula_units_Z   4
loop_
 _symmetry_equiv_pos_site_id
 _symmetry_equiv_pos_as_xyz
  1  'x, y, z'
loop_
 _atom_site_type_symbol
 _atom_site_label
 _atom_site_symmetry_multiplicity
 _atom_site_fract_x
 _atom_site_fract_y
 _atom_site_fract_z
 _atom_site_occupancy
 _atom_site_charge
  Zn  Zn1  1  0.203580  0.600870  0.612560  1.0  0.8652
  Zn  Zn2  1  0.296420  0.399130  0.112560  1.0  0.8645
  Zn  Zn3  1  0.703580  0.899130  0.387440  1.0  0.8664
  Zn  Zn4  1  0.796420  0.100870  0.887440  1.0  0.8645
  H  H5  1  0.024200  0.015000  0.154400  1.0  0.4036
  H  H6  1  0.524200  0.485000  0.845600  1.0  0.4027
  H  H7  1  0.573000  0.260300  0.230100  1.0  0.1117
  H  H8  1  0.927000  0.739700  0.730100  1.0  0.1118
  H  H9  1  0.632100  0.884100  0.181100  1.0  0.0895
  H  H10  1  0.396400  0.637800  0.151300  1.0  0.0952
  H  H11  1  0.598100  0.999200  0.060100  1.0  0.1192
  H  H12  1  0.901900  0.000800  0.560100  1.0  0.1193
  H  H13  1  0.367900  0.384100  0.318900  1.0  0.0893
  H  H14  1  0.401900  0.499200  0.439900  1.0  0.119
  H  H15  1  0.867900  0.115900  0.681100  1.0  0.0892
  H  H16  1  0.132100  0.615900  0.818900  1.0  0.0894
  H  H17  1  0.975800  0.515000  0.345600  1.0  0.403
  H  H18  1  0.475800  0.985000  0.654400  1.0  0.4036
  H  H19  1  0.896400  0.862200  0.848700  1.0  0.0943
  H  H20  1  0.427000  0.760300  0.269900  1.0  0.112
  H  H21  1  0.603600  0.137800  0.348700  1.0  0.0942
  H  H22  1  0.103600  0.362200  0.651300  1.0  0.0947
  H  H23  1  0.073000  0.239700  0.769900  1.0  0.1119
  H  H24  1  0.098100  0.500800  0.939900  1.0  0.1189
  C  C25  1  0.957900  0.019900  0.043030  1.0  0.7056
  C  C26  1  0.620200  0.960700  0.191300  1.0  0.1663
  C  C27  1  0.895900  0.890500  0.789900  1.0  0.1658
  C  C28  1  0.604100  0.109500  0.289900  1.0  0.1646
  C  C29  1  0.877300  0.696600  0.426870  1.0  -0.0057
  C  C30  1  0.413100  0.645300  0.369160  1.0  0.0213
  C  C31  1  0.377300  0.803400  0.573130  1.0  -0.0059
  C  C32  1  0.586900  0.145300  0.130840  1.0  0.0224
  C  C33  1  0.622700  0.303400  0.926870  1.0  -0.0061
  C  C34  1  0.086900  0.354700  0.869160  1.0  0.0218
  C  C35  1  0.042100  0.519900  0.456970  1.0  0.7043
  C  C36  1  0.101300  0.470600  0.881800  1.0  -0.168
  C  C37  1  0.601300  0.029400  0.118200  1.0  -0.1689
  C  C38  1  0.120200  0.539300  0.808700  1.0  0.1665
  C  C39  1  0.585900  0.183900  0.218600  1.0  -0.1221
  C  C40  1  0.085900  0.316100  0.781400  1.0  -0.1215
  C  C41  1  0.395900  0.609500  0.210100  1.0  0.166
  C  C42  1  0.542100  0.980100  0.543030  1.0  0.7081
  C  C43  1  0.472800  0.871000  0.523070  1.0  0.0256
  C  C44  1  0.972800  0.629000  0.476930  1.0  0.0251
  C  C45  1  0.913100  0.854700  0.630840  1.0  0.0219
  C  C46  1  0.457900  0.480100  0.956970  1.0  0.7052
  C  C47  1  0.879800  0.039300  0.691300  1.0  0.1664
  C  C48  1  0.423000  0.723700  0.446550  1.0  0.3608
  C  C49  1  0.527200  0.371000  0.976930  1.0  0.0251
  C  C50  1  0.122700  0.196600  0.073130  1.0  -0.0053
  C  C51  1  0.077000  0.276300  0.946550  1.0  0.3611
  C  C52  1  0.914100  0.816100  0.718600  1.0  -0.1207
  C  C53  1  0.815100  0.683500  0.334020  1.0  0.6861
  C  C54  1  0.577000  0.223700  0.053450  1.0  0.3611
  C  C55  1  0.923000  0.776300  0.553450  1.0  0.361
  C  C56  1  0.414100  0.683900  0.281400  1.0  -0.1211
  C  C57  1  0.184900  0.183500  0.165980  1.0  0.6894
  C  C58  1  0.104100  0.390500  0.710100  1.0  0.1657
  C  C59  1  0.684900  0.316500  0.834020  1.0  0.6865
  C  C60  1  0.379800  0.460700  0.308700  1.0  0.166
  C  C61  1  0.898700  0.970600  0.618200  1.0  -0.1699
  C  C62  1  0.027200  0.129000  0.023070  1.0  0.0255
  C  C63  1  0.315100  0.816500  0.665980  1.0  0.6889
  C  C64  1  0.398700  0.529400  0.381800  1.0  -0.1686
  N  N65  1  0.843500  0.791000  0.476250  1.0  -0.4961
  N  N66  1  0.000500  0.679800  0.557290  1.0  -0.4677
  N  N67  1  0.500500  0.820200  0.442710  1.0  -0.4687
  N  N68  1  0.999500  0.179800  0.942710  1.0  -0.4698
  N  N69  1  0.377400  0.497900  0.222090  1.0  -0.3277
  N  N70  1  0.343500  0.709000  0.523750  1.0  -0.4894
  N  N71  1  0.122600  0.502100  0.722090  1.0  -0.3259
  N  N72  1  0.877400  0.002100  0.777910  1.0  -0.3246
  N  N73  1  0.656500  0.209000  0.976250  1.0  -0.4886
  N  N74  1  0.622600  0.997900  0.277910  1.0  -0.3251
  N  N75  1  0.156500  0.291000  0.023750  1.0  -0.4804
  N  N76  1  0.499500  0.320200  0.057290  1.0  -0.469
  O  O77  1  0.492200  0.530920  0.882290  1.0  -0.5008
  O  O78  1  0.246500  0.736240  0.699340  1.0  -0.5638
  O  O79  1  0.338300  0.909500  0.705820  1.0  -0.6033
  O  O80  1  0.507800  0.030920  0.617710  1.0  -0.5003
  O  O81  1  0.661700  0.409500  0.794180  1.0  -0.5999
  O  O82  1  0.633600  0.019490  0.488070  1.0  -0.5723
  O  O83  1  0.133600  0.480510  0.511930  1.0  -0.5711
  O  O84  1  0.007800  0.469080  0.382290  1.0  -0.5016
  O  O85  1  0.753500  0.236240  0.800660  1.0  -0.5642
  O  O86  1  0.746500  0.763760  0.300660  1.0  -0.564
  O  O87  1  0.161700  0.090500  0.205820  1.0  -0.6002
  O  O88  1  0.838300  0.590500  0.294180  1.0  -0.6012
  O  O89  1  0.253500  0.263760  0.199340  1.0  -0.5643
  O  O90  1  0.992200  0.969080  0.117710  1.0  -0.5006
  O  O91  1  0.866400  0.980510  0.988070  1.0  -0.5709
  O  O92  1  0.366400  0.519490  0.011930  1.0  -0.572
