# generated using pymatgen
data_ZnH3C8NO4
_symmetry_space_group_name_H-M   'P 1'
_cell_length_a   19.42530000
_cell_length_b   19.42530000
_cell_length_c   21.70500000
_cell_angle_alpha   64.17890000
_cell_angle_beta   64.17890000
_cell_angle_gamma   60.61990000
_symmetry_Int_Tables_number   1
_chemical_formula_structural   ZnH3C8NO4
_chemical_formula_sum   'Zn12 H36 C96 N12 O48'
_cell_volume   6161.90218357
_cell_formula_units_Z   12
loop_
 _symmetry_equiv_pos_site_id
 _symmetry_equiv_pos_as_xyz
  1  'x, y, z'
loop_
 _atom_site_type_symbol
 _atom_site_label
 _atom_site_symmetry_multiplicity
 _atom_site_fract_x
 _atom_site_fract_y
 _atom_site_fract_z
 _atom_site_occupancy
 _atom_site_charge
  Zn  Zn1  1  0.302040  0.188010  0.312600  1.0  1.1181
  Zn  Zn2  1  0.260910  0.275320  0.173110  1.0  1.1367
  Zn  Zn3  1  0.820410  0.269860  0.180760  1.0  1.1528
  Zn  Zn4  1  0.811990  0.697960  0.187400  1.0  1.1179
  Zn  Zn5  1  0.724680  0.739090  0.326890  1.0  1.1392
  Zn  Zn6  1  0.730140  0.179590  0.319240  1.0  1.151
  Zn  Zn7  1  0.697960  0.811990  0.687400  1.0  1.1175
  Zn  Zn8  1  0.739090  0.724680  0.826890  1.0  1.1389
  Zn  Zn9  1  0.179590  0.730140  0.819240  1.0  1.1511
  Zn  Zn10  1  0.188010  0.302040  0.812600  1.0  1.1175
  Zn  Zn11  1  0.275320  0.260910  0.673110  1.0  1.1373
  Zn  Zn12  1  0.269860  0.820410  0.680760  1.0  1.1526
  H  H13  1  0.132900  0.378300  0.408500  1.0  0.1244
  H  H14  1  0.039700  0.485700  0.240100  1.0  0.1109
  H  H15  1  0.920200  0.579000  0.409900  1.0  0.1112
  H  H16  1  0.414100  0.414300  0.085500  1.0  0.1197
  H  H17  1  0.625700  0.406100  0.089100  1.0  0.123
  H  H18  1  0.515200  0.251400  0.248700  1.0  0.1132
  H  H19  1  0.136200  0.072000  0.401400  1.0  0.1187
  H  H20  1  0.924700  0.074100  0.406700  1.0  0.11
  H  H21  1  0.046600  0.206000  0.230300  1.0  0.108
  H  H22  1  0.621700  0.867100  0.091500  1.0  0.1243
  H  H23  1  0.514300  0.960300  0.259900  1.0  0.1113
  H  H24  1  0.421000  0.079800  0.090100  1.0  0.1112
  H  H25  1  0.585700  0.585900  0.414500  1.0  0.1204
  H  H26  1  0.593900  0.374300  0.410900  1.0  0.1229
  H  H27  1  0.748600  0.484800  0.251300  1.0  0.1124
  H  H28  1  0.928000  0.863800  0.098600  1.0  0.1187
  H  H29  1  0.925900  0.075300  0.093300  1.0  0.1102
  H  H30  1  0.794000  0.953400  0.269700  1.0  0.108
  H  H31  1  0.867100  0.621700  0.591500  1.0  0.1242
  H  H32  1  0.960300  0.514300  0.759900  1.0  0.1111
  H  H33  1  0.079800  0.421000  0.590100  1.0  0.1111
  H  H34  1  0.585900  0.585700  0.914500  1.0  0.12
  H  H35  1  0.374300  0.593900  0.910900  1.0  0.1229
  H  H36  1  0.484800  0.748600  0.751300  1.0  0.1127
  H  H37  1  0.863800  0.928000  0.598600  1.0  0.1187
  H  H38  1  0.075300  0.925900  0.593300  1.0  0.1101
  H  H39  1  0.953400  0.794000  0.769700  1.0  0.1083
  H  H40  1  0.378300  0.132900  0.908500  1.0  0.1243
  H  H41  1  0.485700  0.039700  0.740100  1.0  0.111
  H  H42  1  0.579000  0.920200  0.909900  1.0  0.1111
  H  H43  1  0.414300  0.414100  0.585500  1.0  0.1197
  H  H44  1  0.406100  0.625700  0.589100  1.0  0.1232
  H  H45  1  0.251400  0.515200  0.748700  1.0  0.1131
  H  H46  1  0.072000  0.136200  0.901400  1.0  0.119
  H  H47  1  0.074100  0.924700  0.906700  1.0  0.1099
  H  H48  1  0.206000  0.046600  0.730300  1.0  0.1079
  C  C49  1  0.165800  0.356580  0.285660  1.0  0.7029
  C  C50  1  0.095610  0.422490  0.319580  1.0  -0.1527
  C  C51  1  0.091440  0.420020  0.385800  1.0  -0.1033
  C  C52  1  0.035620  0.483160  0.286190  1.0  0.0059
  C  C53  1  0.026080  0.479120  0.419100  1.0  0.0871
  C  C54  1  0.964720  0.539160  0.386800  1.0  -0.0126
  C  C55  1  0.968270  0.541230  0.321130  1.0  -0.1575
  C  C56  1  0.900770  0.605370  0.288050  1.0  0.7304
  C  C57  1  0.390310  0.291490  0.201240  1.0  0.6994
  C  C58  1  0.456430  0.325870  0.170490  1.0  -0.1583
  C  C59  1  0.456510  0.390710  0.107700  1.0  -0.0135
  C  C60  1  0.519950  0.420150  0.078500  1.0  0.0496
  C  C61  1  0.582400  0.385800  0.110200  1.0  -0.0718
  C  C62  1  0.581760  0.321880  0.172510  1.0  -0.1589
  C  C63  1  0.517510  0.292990  0.204360  1.0  0.0102
  C  C64  1  0.650680  0.283000  0.205630  1.0  0.6957
  C  C65  1  0.169220  0.177400  0.276220  1.0  0.7096
  C  C66  1  0.100810  0.146790  0.310510  1.0  -0.172
  C  C67  1  0.094880  0.091280  0.379200  1.0  -0.0755
  C  C68  1  0.029850  0.064250  0.415000  1.0  0.1253
  C  C69  1  0.969930  0.091730  0.382010  1.0  -0.0205
  C  C70  1  0.975790  0.144110  0.313870  1.0  -0.1397
  C  C71  1  0.041890  0.170890  0.277810  1.0  0.0169
  C  C72  1  0.908180  0.175560  0.281200  1.0  0.7268
  C  C73  1  0.643420  0.834200  0.214340  1.0  0.702
  C  C74  1  0.577510  0.904390  0.180420  1.0  -0.1525
  C  C75  1  0.579980  0.908560  0.114200  1.0  -0.1058
  C  C76  1  0.516840  0.964380  0.213810  1.0  0.0056
  C  C77  1  0.520880  0.973920  0.080900  1.0  0.0874
  C  C78  1  0.460840  0.035280  0.113200  1.0  -0.0131
  C  C79  1  0.458770  0.031730  0.178870  1.0  -0.1573
  C  C80  1  0.394630  0.099230  0.211950  1.0  0.7325
  C  C81  1  0.708510  0.609690  0.298760  1.0  0.7015
  C  C82  1  0.674130  0.543570  0.329510  1.0  -0.1579
  C  C83  1  0.609290  0.543490  0.392300  1.0  -0.0147
  C  C84  1  0.579850  0.480050  0.421500  1.0  0.0503
  C  C85  1  0.614200  0.417600  0.389800  1.0  -0.0741
  C  C86  1  0.678120  0.418240  0.327490  1.0  -0.1587
  C  C87  1  0.707010  0.482490  0.295640  1.0  0.0101
  C  C88  1  0.717000  0.349320  0.294370  1.0  0.6964
  C  C89  1  0.822600  0.830780  0.223780  1.0  0.708
  C  C90  1  0.853210  0.899190  0.189490  1.0  -0.1731
  C  C91  1  0.908720  0.905120  0.120800  1.0  -0.0785
  C  C92  1  0.935750  0.970150  0.085000  1.0  0.1254
  C  C93  1  0.908270  0.030070  0.117990  1.0  -0.0173
  C  C94  1  0.855890  0.024210  0.186130  1.0  -0.1403
  C  C95  1  0.829110  0.958110  0.222190  1.0  0.0154
  C  C96  1  0.824440  0.091820  0.218800  1.0  0.7278
  C  C97  1  0.834200  0.643420  0.714340  1.0  0.7024
  C  C98  1  0.904390  0.577510  0.680420  1.0  -0.1522
  C  C99  1  0.908560  0.579980  0.614200  1.0  -0.1058
  C  C100  1  0.964380  0.516840  0.713810  1.0  0.005
  C  C101  1  0.973920  0.520880  0.580900  1.0  0.088
  C  C102  1  0.035280  0.460840  0.613200  1.0  -0.0138
  C  C103  1  0.031730  0.458770  0.678870  1.0  -0.1573
  C  C104  1  0.099230  0.394630  0.711950  1.0  0.7311
  C  C105  1  0.609690  0.708510  0.798760  1.0  0.7004
  C  C106  1  0.543570  0.674130  0.829510  1.0  -0.1584
  C  C107  1  0.543490  0.609290  0.892300  1.0  -0.0139
  C  C108  1  0.480050  0.579850  0.921500  1.0  0.0491
  C  C109  1  0.417600  0.614200  0.889800  1.0  -0.0722
  C  C110  1  0.418240  0.678120  0.827490  1.0  -0.1592
  C  C111  1  0.482490  0.707010  0.795640  1.0  0.0091
  C  C112  1  0.349320  0.717000  0.794370  1.0  0.6954
  C  C113  1  0.830780  0.822600  0.723780  1.0  0.7094
  C  C114  1  0.899190  0.853210  0.689490  1.0  -0.1723
  C  C115  1  0.905120  0.908720  0.620800  1.0  -0.0786
  C  C116  1  0.970150  0.935750  0.585000  1.0  0.1285
  C  C117  1  0.030070  0.908270  0.617990  1.0  -0.0164
  C  C118  1  0.024210  0.855890  0.686130  1.0  -0.1408
  C  C119  1  0.958110  0.829110  0.722190  1.0  0.0153
  C  C120  1  0.091820  0.824440  0.718800  1.0  0.7271
  C  C121  1  0.356580  0.165800  0.785660  1.0  0.7017
  C  C122  1  0.422490  0.095610  0.819580  1.0  -0.1523
  C  C123  1  0.420020  0.091440  0.885800  1.0  -0.1049
  C  C124  1  0.483160  0.035620  0.786190  1.0  0.0063
  C  C125  1  0.479120  0.026080  0.919100  1.0  0.0873
  C  C126  1  0.539160  0.964720  0.886800  1.0  -0.0121
  C  C127  1  0.541230  0.968270  0.821130  1.0  -0.1575
  C  C128  1  0.605370  0.900770  0.788050  1.0  0.7322
  C  C129  1  0.291490  0.390310  0.701240  1.0  0.7005
  C  C130  1  0.325870  0.456430  0.670490  1.0  -0.1585
  C  C131  1  0.390710  0.456510  0.607700  1.0  -0.0142
  C  C132  1  0.420150  0.519950  0.578500  1.0  0.0513
  C  C133  1  0.385800  0.582400  0.610200  1.0  -0.073
  C  C134  1  0.321880  0.581760  0.672510  1.0  -0.1586
  C  C135  1  0.292990  0.517510  0.704360  1.0  0.0094
  C  C136  1  0.283000  0.650680  0.705630  1.0  0.6974
  C  C137  1  0.177400  0.169220  0.776220  1.0  0.7097
  C  C138  1  0.146790  0.100810  0.810510  1.0  -0.1724
  C  C139  1  0.091280  0.094880  0.879200  1.0  -0.0767
  C  C140  1  0.064250  0.029850  0.915000  1.0  0.126
  C  C141  1  0.091730  0.969930  0.882010  1.0  -0.0202
  C  C142  1  0.144110  0.975790  0.813870  1.0  -0.1401
  C  C143  1  0.170890  0.041890  0.777810  1.0  0.0166
  C  C144  1  0.175560  0.908180  0.781200  1.0  0.7279
  N  N145  1  0.028410  0.473210  0.486300  1.0  -0.1633
  N  N146  1  0.525970  0.486970  0.014400  1.0  -0.279
  N  N147  1  0.029910  0.009510  0.484790  1.0  -0.1031
  N  N148  1  0.526790  0.971590  0.013700  1.0  -0.1637
  N  N149  1  0.513030  0.474030  0.485600  1.0  -0.2767
  N  N150  1  0.990490  0.970090  0.015210  1.0  -0.105
  N  N151  1  0.971590  0.526790  0.513700  1.0  -0.1651
  N  N152  1  0.474030  0.513030  0.985600  1.0  -0.2775
  N  N153  1  0.970090  0.990490  0.515210  1.0  -0.1048
  N  N154  1  0.473210  0.028410  0.986300  1.0  -0.1653
  N  N155  1  0.486970  0.525970  0.514400  1.0  -0.2772
  N  N156  1  0.009510  0.029910  0.984790  1.0  -0.1038
  O  O157  1  0.213840  0.300380  0.322250  1.0  -0.6319
  O  O158  1  0.170080  0.361420  0.224610  1.0  -0.5946
  O  O159  1  0.910830  0.612670  0.224420  1.0  -0.5896
  O  O160  1  0.837510  0.645770  0.327790  1.0  -0.6064
  O  O161  1  0.387690  0.238790  0.262370  1.0  -0.587
  O  O162  1  0.343750  0.317010  0.163590  1.0  -0.6336
  O  O163  1  0.210940  0.160900  0.315100  1.0  -0.597
  O  O164  1  0.177860  0.221200  0.211480  1.0  -0.587
  O  O165  1  0.708290  0.309470  0.170700  1.0  -0.6138
  O  O166  1  0.646360  0.227260  0.264080  1.0  -0.583
  O  O167  1  0.919750  0.216690  0.216210  1.0  -0.5909
  O  O168  1  0.844670  0.159430  0.321340  1.0  -0.6043
  O  O169  1  0.699620  0.786160  0.177750  1.0  -0.6326
  O  O170  1  0.638580  0.829920  0.275390  1.0  -0.5955
  O  O171  1  0.387330  0.089170  0.275580  1.0  -0.5912
  O  O172  1  0.354230  0.162490  0.172210  1.0  -0.6064
  O  O173  1  0.761210  0.612310  0.237630  1.0  -0.5855
  O  O174  1  0.682990  0.656250  0.336410  1.0  -0.6358
  O  O175  1  0.839100  0.789060  0.184900  1.0  -0.5977
  O  O176  1  0.778800  0.822140  0.288520  1.0  -0.5859
  O  O177  1  0.690530  0.291710  0.329300  1.0  -0.6147
  O  O178  1  0.772740  0.353640  0.235920  1.0  -0.5829
  O  O179  1  0.783310  0.080250  0.283790  1.0  -0.5928
  O  O180  1  0.840570  0.155330  0.178660  1.0  -0.6051
  O  O181  1  0.786160  0.699620  0.677750  1.0  -0.6321
  O  O182  1  0.829920  0.638580  0.775390  1.0  -0.5943
  O  O183  1  0.089170  0.387330  0.775580  1.0  -0.5928
  O  O184  1  0.162490  0.354230  0.672210  1.0  -0.6076
  O  O185  1  0.612310  0.761210  0.737630  1.0  -0.5859
  O  O186  1  0.656250  0.682990  0.836410  1.0  -0.6356
  O  O187  1  0.789060  0.839100  0.684900  1.0  -0.5976
  O  O188  1  0.822140  0.778800  0.788520  1.0  -0.5852
  O  O189  1  0.291710  0.690530  0.829300  1.0  -0.6133
  O  O190  1  0.353640  0.772740  0.735920  1.0  -0.5836
  O  O191  1  0.080250  0.783310  0.783790  1.0  -0.5925
  O  O192  1  0.155330  0.840570  0.678660  1.0  -0.6052
  O  O193  1  0.300380  0.213840  0.822250  1.0  -0.6327
  O  O194  1  0.361420  0.170080  0.724610  1.0  -0.5954
  O  O195  1  0.612670  0.910830  0.724420  1.0  -0.5905
  O  O196  1  0.645770  0.837510  0.827790  1.0  -0.6065
  O  O197  1  0.238790  0.387690  0.762370  1.0  -0.5854
  O  O198  1  0.317010  0.343750  0.663590  1.0  -0.634
  O  O199  1  0.160900  0.210940  0.815100  1.0  -0.5972
  O  O200  1  0.221200  0.177860  0.711480  1.0  -0.5851
  O  O201  1  0.309470  0.708290  0.670700  1.0  -0.6144
  O  O202  1  0.227260  0.646360  0.764080  1.0  -0.5826
  O  O203  1  0.216690  0.919750  0.716210  1.0  -0.5911
  O  O204  1  0.159430  0.844670  0.821340  1.0  -0.605
