# generated using pymatgen
data_Mn2Cr3(CO2)18
_symmetry_space_group_name_H-M   'P 1'
_cell_length_a   8.83450000
_cell_length_b   35.59100000
_cell_length_c   16.24600000
_cell_angle_alpha   90.00000000
_cell_angle_beta   93.43700000
_cell_angle_gamma   90.00000000
_symmetry_Int_Tables_number   1
_chemical_formula_structural   Mn2Cr3(CO2)18
_chemical_formula_sum   'Mn8 Cr12 C72 O144'
_cell_volume   5099.02046431
_cell_formula_units_Z   4
loop_
 _symmetry_equiv_pos_site_id
 _symmetry_equiv_pos_as_xyz
  1  'x, y, z'
loop_
 _atom_site_type_symbol
 _atom_site_label
 _atom_site_symmetry_multiplicity
 _atom_site_fract_x
 _atom_site_fract_y
 _atom_site_fract_z
 _atom_site_occupancy
 _atom_site_charge
  Mn  Mn1  1  0.000000  0.449480  0.250000  1.0  0.919
  Mn  Mn2  1  0.500000  0.949480  0.250000  1.0  0.9178
  Mn  Mn3  1  0.000000  0.550520  0.750000  1.0  0.9184
  Mn  Mn4  1  0.500000  0.050520  0.750000  1.0  0.9183
  Mn  Mn5  1  0.500000  0.194660  0.250000  1.0  0.9298
  Mn  Mn6  1  0.000000  0.694660  0.250000  1.0  0.9298
  Mn  Mn7  1  0.500000  0.805340  0.750000  1.0  0.9306
  Mn  Mn8  1  0.000000  0.305340  0.750000  1.0  0.9306
  Cr  Cr9  1  0.316440  0.072840  0.435260  1.0  1.536
  Cr  Cr10  1  0.816440  0.572840  0.435260  1.0  1.536
  Cr  Cr11  1  0.683560  0.072840  0.064740  1.0  1.535
  Cr  Cr12  1  0.183560  0.572840  0.064740  1.0  1.535
  Cr  Cr13  1  0.683560  0.927160  0.564740  1.0  1.5355
  Cr  Cr14  1  0.183560  0.427160  0.564740  1.0  1.5355
  Cr  Cr15  1  0.316440  0.927160  0.935260  1.0  1.5365
  Cr  Cr16  1  0.816440  0.427160  0.935260  1.0  1.5365
  Cr  Cr17  1  0.000000  0.291170  0.250000  1.0  1.434
  Cr  Cr18  1  0.500000  0.791170  0.250000  1.0  1.434
  Cr  Cr19  1  0.000000  0.708830  0.750000  1.0  1.4345
  Cr  Cr20  1  0.500000  0.208830  0.750000  1.0  1.4345
  C  C21  1  0.785800  0.239100  0.293000  1.0  0.5697
  C  C22  1  0.329500  0.124200  0.309900  1.0  0.6164
  C  C23  1  0.410400  0.142310  0.386700  1.0  0.6109
  C  C24  1  0.500800  0.022140  0.360200  1.0  0.5996
  C  C25  1  0.345800  0.002710  0.365200  1.0  0.6217
  C  C26  1  0.270700  0.067280  0.599800  1.0  0.7107
  C  C27  1  0.117100  0.080000  0.558200  1.0  0.6276
  C  C28  1  0.958000  0.365980  0.290500  1.0  0.5889
  C  C29  1  0.720200  0.258330  0.212600  1.0  0.6068
  C  C30  1  0.285800  0.739100  0.293000  1.0  0.5697
  C  C31  1  0.829500  0.624200  0.309900  1.0  0.6164
  C  C32  1  0.910400  0.642310  0.386700  1.0  0.6109
  C  C33  1  0.000800  0.522140  0.360200  1.0  0.5996
  C  C34  1  0.845800  0.502710  0.365200  1.0  0.6217
  C  C35  1  0.770700  0.567280  0.599800  1.0  0.7107
  C  C36  1  0.617100  0.580000  0.558200  1.0  0.6276
  C  C37  1  0.458000  0.865980  0.290500  1.0  0.5889
  C  C38  1  0.220200  0.758330  0.212600  1.0  0.6068
  C  C39  1  0.214200  0.239100  0.207000  1.0  0.5699
  C  C40  1  0.670500  0.124200  0.190100  1.0  0.6161
  C  C41  1  0.589600  0.142310  0.113300  1.0  0.6116
  C  C42  1  0.499200  0.022140  0.139800  1.0  0.6006
  C  C43  1  0.654200  0.002710  0.134800  1.0  0.6228
  C  C44  1  0.729300  0.067280  0.900200  1.0  0.7119
  C  C45  1  0.882900  0.080000  0.941800  1.0  0.6253
  C  C46  1  0.042000  0.365980  0.209500  1.0  0.5913
  C  C47  1  0.279800  0.258330  0.287400  1.0  0.6091
  C  C48  1  0.714200  0.739100  0.207000  1.0  0.5699
  C  C49  1  0.170500  0.624200  0.190100  1.0  0.6161
  C  C50  1  0.089600  0.642310  0.113300  1.0  0.6116
  C  C51  1  0.999200  0.522140  0.139800  1.0  0.6006
  C  C52  1  0.154200  0.502710  0.134800  1.0  0.6228
  C  C53  1  0.229300  0.567280  0.900200  1.0  0.7119
  C  C54  1  0.382900  0.580000  0.941800  1.0  0.6253
  C  C55  1  0.542000  0.865980  0.209500  1.0  0.5913
  C  C56  1  0.779800  0.758330  0.287400  1.0  0.6091
  C  C57  1  0.214200  0.760900  0.707000  1.0  0.5699
  C  C58  1  0.670500  0.875800  0.690100  1.0  0.6159
  C  C59  1  0.589600  0.857690  0.613300  1.0  0.6106
  C  C60  1  0.499200  0.977860  0.639800  1.0  0.6009
  C  C61  1  0.654200  0.997290  0.634800  1.0  0.6224
  C  C62  1  0.729300  0.932720  0.400200  1.0  0.7121
  C  C63  1  0.882900  0.920000  0.441800  1.0  0.6254
  C  C64  1  0.042000  0.634020  0.709500  1.0  0.5911
  C  C65  1  0.279800  0.741670  0.787400  1.0  0.6086
  C  C66  1  0.714200  0.260900  0.707000  1.0  0.5699
  C  C67  1  0.170500  0.375800  0.690100  1.0  0.6159
  C  C68  1  0.089600  0.357690  0.613300  1.0  0.6106
  C  C69  1  0.999200  0.477860  0.639800  1.0  0.6009
  C  C70  1  0.154200  0.497290  0.634800  1.0  0.6224
  C  C71  1  0.229300  0.432720  0.400200  1.0  0.7121
  C  C72  1  0.382900  0.420000  0.441800  1.0  0.6254
  C  C73  1  0.542000  0.134020  0.709500  1.0  0.5911
  C  C74  1  0.779800  0.241670  0.787400  1.0  0.6086
  C  C75  1  0.785800  0.760900  0.793000  1.0  0.5703
  C  C76  1  0.329500  0.875800  0.809900  1.0  0.6167
  C  C77  1  0.410400  0.857690  0.886700  1.0  0.6123
  C  C78  1  0.500800  0.977860  0.860200  1.0  0.6001
  C  C79  1  0.345800  0.997290  0.865200  1.0  0.622
  C  C80  1  0.270700  0.932720  0.099800  1.0  0.711
  C  C81  1  0.117100  0.920000  0.058200  1.0  0.6271
  C  C82  1  0.958000  0.634020  0.790500  1.0  0.5885
  C  C83  1  0.720200  0.741670  0.712600  1.0  0.6065
  C  C84  1  0.285800  0.260900  0.793000  1.0  0.5703
  C  C85  1  0.829500  0.375800  0.809900  1.0  0.6167
  C  C86  1  0.910400  0.357690  0.886700  1.0  0.6123
  C  C87  1  0.000800  0.477860  0.860200  1.0  0.6001
  C  C88  1  0.845800  0.497290  0.865200  1.0  0.622
  C  C89  1  0.770700  0.432720  0.099800  1.0  0.711
  C  C90  1  0.617100  0.420000  0.058200  1.0  0.6271
  C  C91  1  0.458000  0.134020  0.790500  1.0  0.5885
  C  C92  1  0.220200  0.241670  0.712600  1.0  0.6065
  O  O93  1  0.914100  0.252270  0.321200  1.0  -0.4865
  O  O94  1  0.712800  0.213790  0.323100  1.0  -0.4443
  O  O95  1  0.799100  0.285910  0.187700  1.0  -0.4937
  O  O96  1  0.935100  0.332730  0.320300  1.0  -0.4918
  O  O97  1  0.471000  0.173230  0.378300  1.0  -0.4853
  O  O98  1  0.328500  0.141410  0.243600  1.0  -0.5079
  O  O99  1  0.403800  0.123390  0.453400  1.0  -0.4909
  O  O100  1  0.263000  0.092730  0.323900  1.0  -0.5011
  O  O101  1  0.511800  0.054190  0.397900  1.0  -0.5153
  O  O102  1  0.246100  0.021960  0.402800  1.0  -0.5033
  O  O103  1  0.120500  0.085670  0.480400  1.0  -0.4933
  O  O104  1  0.372800  0.059570  0.550100  1.0  -0.5082
  O  O105  1  0.323200  0.971800  0.333500  1.0  -0.4932
  O  O106  1  0.599100  0.006860  0.322600  1.0  -0.5194
  O  O107  1  0.927400  0.396040  0.322000  1.0  -0.4811
  O  O108  1  0.283300  0.065940  0.676100  1.0  -0.4988
  O  O109  1  0.005300  0.084900  0.598200  1.0  -0.358
  O  O110  1  0.602200  0.246590  0.181100  1.0  -0.463
  O  O111  1  0.414100  0.752270  0.321200  1.0  -0.4865
  O  O112  1  0.212800  0.713790  0.323100  1.0  -0.4443
  O  O113  1  0.299100  0.785910  0.187700  1.0  -0.4937
  O  O114  1  0.435100  0.832730  0.320300  1.0  -0.4918
  O  O115  1  0.971000  0.673230  0.378300  1.0  -0.4853
  O  O116  1  0.828500  0.641410  0.243600  1.0  -0.5079
  O  O117  1  0.903800  0.623390  0.453400  1.0  -0.4909
  O  O118  1  0.763000  0.592730  0.323900  1.0  -0.5011
  O  O119  1  0.011800  0.554190  0.397900  1.0  -0.5153
  O  O120  1  0.746100  0.521960  0.402800  1.0  -0.5033
  O  O121  1  0.620500  0.585670  0.480400  1.0  -0.4933
  O  O122  1  0.872800  0.559570  0.550100  1.0  -0.5082
  O  O123  1  0.823200  0.471800  0.333500  1.0  -0.4932
  O  O124  1  0.099100  0.506860  0.322600  1.0  -0.5194
  O  O125  1  0.427400  0.896040  0.322000  1.0  -0.4811
  O  O126  1  0.783300  0.565940  0.676100  1.0  -0.4988
  O  O127  1  0.505300  0.584900  0.598200  1.0  -0.3581
  O  O128  1  0.102200  0.746590  0.181100  1.0  -0.463
  O  O129  1  0.085900  0.252270  0.178800  1.0  -0.4867
  O  O130  1  0.287200  0.213790  0.176900  1.0  -0.4454
  O  O131  1  0.200900  0.285910  0.312300  1.0  -0.4907
  O  O132  1  0.064900  0.332730  0.179700  1.0  -0.4936
  O  O133  1  0.529000  0.173230  0.121700  1.0  -0.4847
  O  O134  1  0.671500  0.141410  0.256400  1.0  -0.5075
  O  O135  1  0.596200  0.123390  0.046600  1.0  -0.4875
  O  O136  1  0.737000  0.092730  0.176100  1.0  -0.5001
  O  O137  1  0.488200  0.054190  0.102100  1.0  -0.5164
  O  O138  1  0.753900  0.021960  0.097200  1.0  -0.5019
  O  O139  1  0.879500  0.085670  0.019600  1.0  -0.4915
  O  O140  1  0.627200  0.059570  0.949900  1.0  -0.5078
  O  O141  1  0.676800  0.971800  0.166500  1.0  -0.4947
  O  O142  1  0.400900  0.006860  0.177400  1.0  -0.5205
  O  O143  1  0.072600  0.396040  0.178000  1.0  -0.4815
  O  O144  1  0.716700  0.065940  0.823900  1.0  -0.5013
  O  O145  1  0.994700  0.084900  0.901800  1.0  -0.3556
  O  O146  1  0.397800  0.246590  0.318900  1.0  -0.4632
  O  O147  1  0.585900  0.752270  0.178800  1.0  -0.4867
  O  O148  1  0.787200  0.713790  0.176900  1.0  -0.4454
  O  O149  1  0.700900  0.785910  0.312300  1.0  -0.4907
  O  O150  1  0.564900  0.832730  0.179700  1.0  -0.4936
  O  O151  1  0.029000  0.673230  0.121700  1.0  -0.4847
  O  O152  1  0.171500  0.641410  0.256400  1.0  -0.5075
  O  O153  1  0.096200  0.623390  0.046600  1.0  -0.4875
  O  O154  1  0.237000  0.592730  0.176100  1.0  -0.5001
  O  O155  1  0.988200  0.554190  0.102100  1.0  -0.5164
  O  O156  1  0.253900  0.521960  0.097200  1.0  -0.5019
  O  O157  1  0.379500  0.585670  0.019600  1.0  -0.4915
  O  O158  1  0.127200  0.559570  0.949900  1.0  -0.5078
  O  O159  1  0.176800  0.471800  0.166500  1.0  -0.4947
  O  O160  1  0.900900  0.506860  0.177400  1.0  -0.5205
  O  O161  1  0.572600  0.896040  0.178000  1.0  -0.4815
  O  O162  1  0.216700  0.565940  0.823900  1.0  -0.5013
  O  O163  1  0.494700  0.584900  0.901800  1.0  -0.3557
  O  O164  1  0.897800  0.746590  0.318900  1.0  -0.4632
  O  O165  1  0.085900  0.747730  0.678800  1.0  -0.4867
  O  O166  1  0.287200  0.786210  0.676900  1.0  -0.4453
  O  O167  1  0.200900  0.714090  0.812300  1.0  -0.4921
  O  O168  1  0.064900  0.667270  0.679700  1.0  -0.4926
  O  O169  1  0.529000  0.826770  0.621700  1.0  -0.4849
  O  O170  1  0.671500  0.858590  0.756400  1.0  -0.5079
  O  O171  1  0.596200  0.876610  0.546600  1.0  -0.4875
  O  O172  1  0.737000  0.907270  0.676100  1.0  -0.4995
  O  O173  1  0.488200  0.945810  0.602100  1.0  -0.516
  O  O174  1  0.753900  0.978040  0.597200  1.0  -0.5021
  O  O175  1  0.879500  0.914330  0.519600  1.0  -0.4914
  O  O176  1  0.627200  0.940430  0.449900  1.0  -0.5075
  O  O177  1  0.676800  0.028200  0.666500  1.0  -0.4931
  O  O178  1  0.400900  0.993140  0.677400  1.0  -0.5183
  O  O179  1  0.072600  0.603960  0.678000  1.0  -0.4829
  O  O180  1  0.716700  0.934060  0.323900  1.0  -0.5015
  O  O181  1  0.994700  0.915100  0.401800  1.0  -0.3558
  O  O182  1  0.397800  0.753410  0.818900  1.0  -0.4634
  O  O183  1  0.585900  0.247730  0.678800  1.0  -0.4867
  O  O184  1  0.787200  0.286210  0.676900  1.0  -0.4453
  O  O185  1  0.700900  0.214090  0.812300  1.0  -0.4921
  O  O186  1  0.564900  0.167270  0.679700  1.0  -0.4926
  O  O187  1  0.029000  0.326770  0.621700  1.0  -0.4849
  O  O188  1  0.171500  0.358590  0.756400  1.0  -0.5079
  O  O189  1  0.096200  0.376610  0.546600  1.0  -0.4875
  O  O190  1  0.237000  0.407270  0.676100  1.0  -0.4995
  O  O191  1  0.988200  0.445810  0.602100  1.0  -0.516
  O  O192  1  0.253900  0.478040  0.597200  1.0  -0.5021
  O  O193  1  0.379500  0.414330  0.519600  1.0  -0.4914
  O  O194  1  0.127200  0.440430  0.449900  1.0  -0.5075
  O  O195  1  0.176800  0.528200  0.666500  1.0  -0.4931
  O  O196  1  0.900900  0.493140  0.677400  1.0  -0.5183
  O  O197  1  0.572600  0.103960  0.678000  1.0  -0.4829
  O  O198  1  0.216700  0.434060  0.323900  1.0  -0.5015
  O  O199  1  0.494700  0.415100  0.401800  1.0  -0.3558
  O  O200  1  0.897800  0.253410  0.818900  1.0  -0.4634
  O  O201  1  0.914100  0.747730  0.821200  1.0  -0.486
  O  O202  1  0.712800  0.786210  0.823100  1.0  -0.4437
  O  O203  1  0.799100  0.714090  0.687700  1.0  -0.4935
  O  O204  1  0.935100  0.667270  0.820300  1.0  -0.4912
  O  O205  1  0.471000  0.826770  0.878300  1.0  -0.4866
  O  O206  1  0.328500  0.858590  0.743600  1.0  -0.5087
  O  O207  1  0.403800  0.876610  0.953400  1.0  -0.49
  O  O208  1  0.263000  0.907270  0.823900  1.0  -0.4999
  O  O209  1  0.511800  0.945810  0.897900  1.0  -0.5157
  O  O210  1  0.246100  0.978040  0.902800  1.0  -0.5038
  O  O211  1  0.120500  0.914330  0.980400  1.0  -0.4935
  O  O212  1  0.372800  0.940430  0.050100  1.0  -0.5077
  O  O213  1  0.323200  0.028200  0.833500  1.0  -0.4942
  O  O214  1  0.599100  0.993140  0.822600  1.0  -0.5194
  O  O215  1  0.927400  0.603960  0.822000  1.0  -0.4836
  O  O216  1  0.283300  0.934060  0.176100  1.0  -0.4988
  O  O217  1  0.005300  0.915100  0.098200  1.0  -0.3575
  O  O218  1  0.602200  0.753410  0.681100  1.0  -0.4626
  O  O219  1  0.414100  0.247730  0.821200  1.0  -0.486
  O  O220  1  0.212800  0.286210  0.823100  1.0  -0.4437
  O  O221  1  0.299100  0.214090  0.687700  1.0  -0.4935
  O  O222  1  0.435100  0.167270  0.820300  1.0  -0.4912
  O  O223  1  0.971000  0.326770  0.878300  1.0  -0.4866
  O  O224  1  0.828500  0.358590  0.743600  1.0  -0.5087
  O  O225  1  0.903800  0.376610  0.953400  1.0  -0.49
  O  O226  1  0.763000  0.407270  0.823900  1.0  -0.4999
  O  O227  1  0.011800  0.445810  0.897900  1.0  -0.5157
  O  O228  1  0.746100  0.478040  0.902800  1.0  -0.5038
  O  O229  1  0.620500  0.414330  0.980400  1.0  -0.4935
  O  O230  1  0.872800  0.440430  0.050100  1.0  -0.5077
  O  O231  1  0.823200  0.528200  0.833500  1.0  -0.4942
  O  O232  1  0.099100  0.493140  0.822600  1.0  -0.5194
  O  O233  1  0.427400  0.103960  0.822000  1.0  -0.4836
  O  O234  1  0.783300  0.434060  0.176100  1.0  -0.4988
  O  O235  1  0.505300  0.415100  0.098200  1.0  -0.3575
  O  O236  1  0.102200  0.253410  0.681100  1.0  -0.4626
