# generated using pymatgen
data_H13Ru2C34SN4O8F7
_symmetry_space_group_name_H-M   'P 1'
_cell_length_a   17.48100000
_cell_length_b   24.50500000
_cell_length_c   21.04900000
_cell_angle_alpha   90.00000000
_cell_angle_beta   92.99500000
_cell_angle_gamma   90.00000000
_symmetry_Int_Tables_number   1
_chemical_formula_structural   H13Ru2C34SN4O8F7
_chemical_formula_sum   'H104 Ru16 C272 S8 N32 O64 F56'
_cell_volume   9004.48416401
_cell_formula_units_Z   8
loop_
 _symmetry_equiv_pos_site_id
 _symmetry_equiv_pos_as_xyz
  1  'x, y, z'
loop_
 _atom_site_type_symbol
 _atom_site_label
 _atom_site_symmetry_multiplicity
 _atom_site_fract_x
 _atom_site_fract_y
 _atom_site_fract_z
 _atom_site_occupancy
 _atom_site_charge
  H  H1  1  0.087300  0.553800  0.298500  1.0  0.148
  H  H2  1  0.297100  0.519700  0.233800  1.0  0.1388
  H  H3  1  0.239200  0.462800  0.405200  1.0  0.1435
  H  H4  1  0.078800  0.680900  0.552400  1.0  0.123
  H  H5  1  0.235500  0.722300  0.693900  1.0  0.1354
  H  H6  1  0.166500  0.565200  0.668100  1.0  0.1267
  H  H7  1  0.276900  0.608200  0.374400  1.0  0.138
  H  H8  1  0.277600  0.627400  0.565300  1.0  0.1279
  H  H9  1  0.413000  0.638000  0.569400  1.0  0.132
  H  H10  1  0.477900  0.631700  0.476200  1.0  0.1334
  H  H11  1  0.598400  0.439500  0.305400  1.0  0.1431
  H  H12  1  0.595700  0.796000  0.305900  1.0  0.1202
  H  H13  1  0.587300  0.053800  0.298500  1.0  0.148
  H  H14  1  0.797100  0.019700  0.233800  1.0  0.1388
  H  H15  1  0.739200  0.962800  0.405200  1.0  0.1435
  H  H16  1  0.578800  0.180900  0.552400  1.0  0.123
  H  H17  1  0.735500  0.222300  0.693900  1.0  0.1354
  H  H18  1  0.666500  0.065200  0.668100  1.0  0.1267
  H  H19  1  0.776900  0.108200  0.374400  1.0  0.138
  H  H20  1  0.777600  0.127400  0.565300  1.0  0.1279
  H  H21  1  0.913000  0.138000  0.569400  1.0  0.132
  H  H22  1  0.977900  0.131700  0.476200  1.0  0.1334
  H  H23  1  0.098400  0.939500  0.305400  1.0  0.1431
  H  H24  1  0.095700  0.296000  0.305900  1.0  0.1202
  H  H25  1  0.912700  0.553800  0.201500  1.0  0.1473
  H  H26  1  0.702900  0.519700  0.266200  1.0  0.1394
  H  H27  1  0.760800  0.462800  0.094800  1.0  0.1438
  H  H28  1  0.921200  0.680900  0.947600  1.0  0.1224
  H  H29  1  0.764500  0.722300  0.806100  1.0  0.1363
  H  H30  1  0.833500  0.565200  0.831900  1.0  0.1266
  H  H31  1  0.723100  0.608200  0.125600  1.0  0.1379
  H  H32  1  0.722400  0.627400  0.934700  1.0  0.1287
  H  H33  1  0.587000  0.638000  0.930600  1.0  0.133
  H  H34  1  0.522100  0.631700  0.023800  1.0  0.1341
  H  H35  1  0.401600  0.439500  0.194600  1.0  0.1431
  H  H36  1  0.404300  0.796000  0.194100  1.0  0.121
  H  H37  1  0.412700  0.053800  0.201500  1.0  0.1473
  H  H38  1  0.202900  0.019700  0.266200  1.0  0.1394
  H  H39  1  0.260800  0.962800  0.094800  1.0  0.1438
  H  H40  1  0.421200  0.180900  0.947600  1.0  0.1224
  H  H41  1  0.264500  0.222300  0.806100  1.0  0.1363
  H  H42  1  0.333500  0.065200  0.831900  1.0  0.1266
  H  H43  1  0.223100  0.108200  0.125600  1.0  0.1379
  H  H44  1  0.222400  0.127400  0.934700  1.0  0.1287
  H  H45  1  0.087000  0.138000  0.930600  1.0  0.133
  H  H46  1  0.022100  0.131700  0.023800  1.0  0.1341
  H  H47  1  0.901600  0.939500  0.194600  1.0  0.1431
  H  H48  1  0.904300  0.296000  0.194100  1.0  0.121
  H  H49  1  0.912700  0.446200  0.701500  1.0  0.1474
  H  H50  1  0.702900  0.480300  0.766200  1.0  0.1397
  H  H51  1  0.760800  0.537200  0.594800  1.0  0.144
  H  H52  1  0.921200  0.319100  0.447600  1.0  0.1225
  H  H53  1  0.764500  0.277700  0.306100  1.0  0.137
  H  H54  1  0.833500  0.434800  0.331900  1.0  0.1265
  H  H55  1  0.723100  0.391800  0.625600  1.0  0.1382
  H  H56  1  0.722400  0.372600  0.434700  1.0  0.1287
  H  H57  1  0.587000  0.362000  0.430600  1.0  0.133
  H  H58  1  0.522100  0.368300  0.523800  1.0  0.1339
  H  H59  1  0.401600  0.560500  0.694600  1.0  0.143
  H  H60  1  0.404300  0.204000  0.694100  1.0  0.121
  H  H61  1  0.412700  0.946200  0.701500  1.0  0.1474
  H  H62  1  0.202900  0.980300  0.766200  1.0  0.1397
  H  H63  1  0.260800  0.037200  0.594800  1.0  0.144
  H  H64  1  0.421200  0.819100  0.447600  1.0  0.1225
  H  H65  1  0.264500  0.777700  0.306100  1.0  0.137
  H  H66  1  0.333500  0.934800  0.331900  1.0  0.1265
  H  H67  1  0.223100  0.891800  0.625600  1.0  0.1382
  H  H68  1  0.222400  0.872600  0.434700  1.0  0.1287
  H  H69  1  0.087000  0.862000  0.430600  1.0  0.133
  H  H70  1  0.022100  0.868300  0.523800  1.0  0.1339
  H  H71  1  0.901600  0.060500  0.694600  1.0  0.143
  H  H72  1  0.904300  0.704000  0.694100  1.0  0.121
  H  H73  1  0.087300  0.446200  0.798500  1.0  0.1477
  H  H74  1  0.297100  0.480300  0.733800  1.0  0.1391
  H  H75  1  0.239200  0.537200  0.905200  1.0  0.1435
  H  H76  1  0.078800  0.319100  0.052400  1.0  0.1227
  H  H77  1  0.235500  0.277700  0.193900  1.0  0.1368
  H  H78  1  0.166500  0.434800  0.168100  1.0  0.1266
  H  H79  1  0.276900  0.391800  0.874400  1.0  0.1377
  H  H80  1  0.277600  0.372600  0.065300  1.0  0.1278
  H  H81  1  0.413000  0.362000  0.069400  1.0  0.1327
  H  H82  1  0.477900  0.368300  0.976200  1.0  0.1334
  H  H83  1  0.598400  0.560500  0.805400  1.0  0.1435
  H  H84  1  0.595700  0.204000  0.805900  1.0  0.1202
  H  H85  1  0.587300  0.946200  0.798500  1.0  0.1477
  H  H86  1  0.797100  0.980300  0.733800  1.0  0.1391
  H  H87  1  0.739200  0.037200  0.905200  1.0  0.1435
  H  H88  1  0.578800  0.819100  0.052400  1.0  0.1227
  H  H89  1  0.735500  0.777700  0.193900  1.0  0.1368
  H  H90  1  0.666500  0.934800  0.168100  1.0  0.1266
  H  H91  1  0.776900  0.891800  0.874400  1.0  0.1377
  H  H92  1  0.777600  0.872600  0.065300  1.0  0.1278
  H  H93  1  0.913000  0.862000  0.069400  1.0  0.1327
  H  H94  1  0.977900  0.868300  0.976200  1.0  0.1334
  H  H95  1  0.098400  0.060500  0.805400  1.0  0.1435
  H  H96  1  0.095700  0.704000  0.805900  1.0  0.1202
  H  H97  1  0.500000  0.294700  0.250000  1.0  0.1558
  H  H98  1  0.500000  0.939200  0.250000  1.0  0.1486
  H  H99  1  0.000000  0.794700  0.250000  1.0  0.1558
  H  H100  1  0.000000  0.439200  0.250000  1.0  0.1486
  H  H101  1  0.500000  0.705300  0.750000  1.0  0.1549
  H  H102  1  0.500000  0.060800  0.750000  1.0  0.1479
  H  H103  1  0.000000  0.205300  0.750000  1.0  0.1553
  H  H104  1  0.000000  0.560800  0.750000  1.0  0.1479
  Ru  Ru105  1  0.964380  0.532670  0.474020  1.0  0.9962
  Ru  Ru106  1  0.557060  0.617620  0.278790  1.0  0.9509
  Ru  Ru107  1  0.464380  0.032670  0.474020  1.0  0.9962
  Ru  Ru108  1  0.057060  0.117620  0.278790  1.0  0.9509
  Ru  Ru109  1  0.035620  0.532670  0.025980  1.0  0.9934
  Ru  Ru110  1  0.442940  0.617620  0.221210  1.0  0.9522
  Ru  Ru111  1  0.535620  0.032670  0.025980  1.0  0.9934
  Ru  Ru112  1  0.942940  0.117620  0.221210  1.0  0.9522
  Ru  Ru113  1  0.035620  0.467330  0.525980  1.0  0.9938
  Ru  Ru114  1  0.442940  0.382380  0.721210  1.0  0.9524
  Ru  Ru115  1  0.535620  0.967330  0.525980  1.0  0.9938
  Ru  Ru116  1  0.942940  0.882380  0.721210  1.0  0.9524
  Ru  Ru117  1  0.964380  0.467330  0.974020  1.0  0.9963
  Ru  Ru118  1  0.557060  0.382380  0.778790  1.0  0.951
  Ru  Ru119  1  0.464380  0.967330  0.974020  1.0  0.9963
  Ru  Ru120  1  0.057060  0.882380  0.778790  1.0  0.951
  C  C121  1  0.099800  0.505400  0.411000  1.0  0.6975
  C  C122  1  0.156300  0.509100  0.361200  1.0  -0.1073
  C  C123  1  0.136400  0.537600  0.304900  1.0  -0.126
  C  C124  1  0.189900  0.541400  0.258900  1.0  0.3402
  C  C125  1  0.261100  0.516700  0.265900  1.0  -0.1958
  C  C126  1  0.278200  0.487300  0.321100  1.0  0.4095
  C  C127  1  0.226500  0.483400  0.367900  1.0  -0.0985
  C  C128  1  0.076000  0.575800  0.565700  1.0  0.699
  C  C129  1  0.119300  0.617700  0.602700  1.0  -0.1181
  C  C130  1  0.113800  0.670500  0.586300  1.0  -0.0788
  C  C131  1  0.157700  0.710400  0.617500  1.0  0.1502
  C  C132  1  0.206600  0.695400  0.670600  1.0  -0.2182
  C  C133  1  0.211500  0.639700  0.688100  1.0  0.0153
  C  C134  1  0.165900  0.602300  0.654900  1.0  -0.0139
  C  C135  1  0.425800  0.618300  0.356000  1.0  0.716
  C  C136  1  0.384100  0.619900  0.417100  1.0  -0.1356
  C  C137  1  0.304600  0.613600  0.413900  1.0  -0.0946
  C  C138  1  0.268800  0.615500  0.469200  1.0  0.2445
  C  C139  1  0.305400  0.625100  0.527800  1.0  -0.1409
  C  C140  1  0.385600  0.631500  0.530000  1.0  -0.063
  C  C141  1  0.423700  0.628200  0.474800  1.0  -0.0279
  C  C142  1  0.558700  0.420000  0.282700  1.0  -0.0575
  C  C143  1  0.558700  0.363000  0.281800  1.0  0.3338
  C  C144  1  0.556000  0.815400  0.283200  1.0  -0.0814
  C  C145  1  0.556600  0.872000  0.284900  1.0  -0.0614
  C  C146  1  0.836100  0.621800  0.425100  1.0  0.4692
  C  C147  1  0.768300  0.653400  0.422200  1.0  -0.3214
  C  C148  1  0.711400  0.635000  0.376800  1.0  0.4693
  C  C149  1  0.759600  0.699700  0.460700  1.0  -0.0996
  C  C150  1  0.689400  0.729200  0.460700  1.0  0.2005
  C  C151  1  0.680000  0.777500  0.498100  1.0  0.1868
  C  C152  1  0.599800  0.005400  0.411000  1.0  0.6975
  C  C153  1  0.656300  0.009100  0.361200  1.0  -0.1073
  C  C154  1  0.636400  0.037600  0.304900  1.0  -0.126
  C  C155  1  0.689900  0.041400  0.258900  1.0  0.3402
  C  C156  1  0.761100  0.016700  0.265900  1.0  -0.1958
  C  C157  1  0.778200  0.987300  0.321100  1.0  0.4095
  C  C158  1  0.726500  0.983400  0.367900  1.0  -0.0985
  C  C159  1  0.576000  0.075800  0.565700  1.0  0.699
  C  C160  1  0.619300  0.117700  0.602700  1.0  -0.1181
  C  C161  1  0.613800  0.170500  0.586300  1.0  -0.0788
  C  C162  1  0.657700  0.210400  0.617500  1.0  0.1502
  C  C163  1  0.706600  0.195400  0.670600  1.0  -0.2182
  C  C164  1  0.711500  0.139700  0.688100  1.0  0.0153
  C  C165  1  0.665900  0.102300  0.654900  1.0  -0.0139
  C  C166  1  0.925800  0.118300  0.356000  1.0  0.716
  C  C167  1  0.884100  0.119900  0.417100  1.0  -0.1356
  C  C168  1  0.804600  0.113600  0.413900  1.0  -0.0946
  C  C169  1  0.768800  0.115500  0.469200  1.0  0.2445
  C  C170  1  0.805400  0.125100  0.527800  1.0  -0.1409
  C  C171  1  0.885600  0.131500  0.530000  1.0  -0.063
  C  C172  1  0.923700  0.128200  0.474800  1.0  -0.0279
  C  C173  1  0.058700  0.920000  0.282700  1.0  -0.0575
  C  C174  1  0.058700  0.863000  0.281800  1.0  0.3338
  C  C175  1  0.056000  0.315400  0.283200  1.0  -0.0814
  C  C176  1  0.056600  0.372000  0.284900  1.0  -0.0614
  C  C177  1  0.336100  0.121800  0.425100  1.0  0.4692
  C  C178  1  0.268300  0.153400  0.422200  1.0  -0.3214
  C  C179  1  0.211400  0.135000  0.376800  1.0  0.4693
  C  C180  1  0.259600  0.199700  0.460700  1.0  -0.0996
  C  C181  1  0.189400  0.229200  0.460700  1.0  0.2005
  C  C182  1  0.180000  0.277500  0.498100  1.0  0.1868
  C  C183  1  0.900200  0.505400  0.089000  1.0  0.6974
  C  C184  1  0.843700  0.509100  0.138800  1.0  -0.1082
  C  C185  1  0.863600  0.537600  0.195100  1.0  -0.1281
  C  C186  1  0.810100  0.541400  0.241100  1.0  0.3383
  C  C187  1  0.738900  0.516700  0.234100  1.0  -0.197
  C  C188  1  0.721800  0.487300  0.178900  1.0  0.4097
  C  C189  1  0.773500  0.483400  0.132100  1.0  -0.0967
  C  C190  1  0.924000  0.575800  0.934300  1.0  0.6987
  C  C191  1  0.880700  0.617700  0.897300  1.0  -0.118
  C  C192  1  0.886200  0.670500  0.913700  1.0  -0.0765
  C  C193  1  0.842300  0.710400  0.882500  1.0  0.1495
  C  C194  1  0.793400  0.695400  0.829400  1.0  -0.2196
  C  C195  1  0.788500  0.639700  0.811900  1.0  0.0135
  C  C196  1  0.834100  0.602300  0.845100  1.0  -0.0137
  C  C197  1  0.574200  0.618300  0.144000  1.0  0.7146
  C  C198  1  0.615900  0.619900  0.082900  1.0  -0.1338
  C  C199  1  0.695400  0.613600  0.086100  1.0  -0.0958
  C  C200  1  0.731200  0.615500  0.030800  1.0  0.2455
  C  C201  1  0.694600  0.625100  0.972200  1.0  -0.1399
  C  C202  1  0.614400  0.631500  0.970000  1.0  -0.0634
  C  C203  1  0.576300  0.628200  0.025200  1.0  -0.0282
  C  C204  1  0.441300  0.420000  0.217300  1.0  -0.0565
  C  C205  1  0.441300  0.363000  0.218200  1.0  0.3301
  C  C206  1  0.444000  0.815400  0.216800  1.0  -0.0821
  C  C207  1  0.443400  0.872000  0.215100  1.0  -0.0672
  C  C208  1  0.163900  0.621800  0.074900  1.0  0.469
  C  C209  1  0.231700  0.653400  0.077800  1.0  -0.3217
  C  C210  1  0.288600  0.635000  0.123200  1.0  0.4695
  C  C211  1  0.240400  0.699700  0.039300  1.0  -0.0993
  C  C212  1  0.310600  0.729200  0.039300  1.0  0.2005
  C  C213  1  0.320000  0.777500  0.001900  1.0  0.1864
  C  C214  1  0.400200  0.005400  0.089000  1.0  0.6974
  C  C215  1  0.343700  0.009100  0.138800  1.0  -0.1082
  C  C216  1  0.363600  0.037600  0.195100  1.0  -0.1281
  C  C217  1  0.310100  0.041400  0.241100  1.0  0.3383
  C  C218  1  0.238900  0.016700  0.234100  1.0  -0.197
  C  C219  1  0.221800  0.987300  0.178900  1.0  0.4097
  C  C220  1  0.273500  0.983400  0.132100  1.0  -0.0967
  C  C221  1  0.424000  0.075800  0.934300  1.0  0.6987
  C  C222  1  0.380700  0.117700  0.897300  1.0  -0.118
  C  C223  1  0.386200  0.170500  0.913700  1.0  -0.0765
  C  C224  1  0.342300  0.210400  0.882500  1.0  0.1495
  C  C225  1  0.293400  0.195400  0.829400  1.0  -0.2196
  C  C226  1  0.288500  0.139700  0.811900  1.0  0.0135
  C  C227  1  0.334100  0.102300  0.845100  1.0  -0.0137
  C  C228  1  0.074200  0.118300  0.144000  1.0  0.7146
  C  C229  1  0.115900  0.119900  0.082900  1.0  -0.1338
  C  C230  1  0.195400  0.113600  0.086100  1.0  -0.0958
  C  C231  1  0.231200  0.115500  0.030800  1.0  0.2455
  C  C232  1  0.194600  0.125100  0.972200  1.0  -0.1399
  C  C233  1  0.114400  0.131500  0.970000  1.0  -0.0634
  C  C234  1  0.076300  0.128200  0.025200  1.0  -0.0282
  C  C235  1  0.941300  0.920000  0.217300  1.0  -0.0565
  C  C236  1  0.941300  0.863000  0.218200  1.0  0.3301
  C  C237  1  0.944000  0.315400  0.216800  1.0  -0.0821
  C  C238  1  0.943400  0.372000  0.215100  1.0  -0.0672
  C  C239  1  0.663900  0.121800  0.074900  1.0  0.469
  C  C240  1  0.731700  0.153400  0.077800  1.0  -0.3217
  C  C241  1  0.788600  0.135000  0.123200  1.0  0.4695
  C  C242  1  0.740400  0.199700  0.039300  1.0  -0.0993
  C  C243  1  0.810600  0.229200  0.039300  1.0  0.2005
  C  C244  1  0.820000  0.277500  0.001900  1.0  0.1864
  C  C245  1  0.900200  0.494600  0.589000  1.0  0.6975
  C  C246  1  0.843700  0.490900  0.638800  1.0  -0.1084
  C  C247  1  0.863600  0.462400  0.695100  1.0  -0.1269
  C  C248  1  0.810100  0.458600  0.741100  1.0  0.3371
  C  C249  1  0.738900  0.483300  0.734100  1.0  -0.1972
  C  C250  1  0.721800  0.512700  0.678900  1.0  0.4106
  C  C251  1  0.773500  0.516600  0.632100  1.0  -0.0972
  C  C252  1  0.924000  0.424200  0.434300  1.0  0.6991
  C  C253  1  0.880700  0.382300  0.397300  1.0  -0.1175
  C  C254  1  0.886200  0.329500  0.413700  1.0  -0.0762
  C  C255  1  0.842300  0.289600  0.382500  1.0  0.1511
  C  C256  1  0.793400  0.304600  0.329400  1.0  -0.2197
  C  C257  1  0.788500  0.360300  0.311900  1.0  0.0139
  C  C258  1  0.834100  0.397700  0.345100  1.0  -0.0139
  C  C259  1  0.574200  0.381700  0.644000  1.0  0.7144
  C  C260  1  0.615900  0.380100  0.582900  1.0  -0.1337
  C  C261  1  0.695400  0.386400  0.586100  1.0  -0.0956
  C  C262  1  0.731200  0.384500  0.530800  1.0  0.2454
  C  C263  1  0.694600  0.374900  0.472200  1.0  -0.1398
  C  C264  1  0.614400  0.368500  0.470000  1.0  -0.0634
  C  C265  1  0.576300  0.371800  0.525200  1.0  -0.0277
  C  C266  1  0.441300  0.580000  0.717300  1.0  -0.0565
  C  C267  1  0.441300  0.637000  0.718200  1.0  0.3368
  C  C268  1  0.444000  0.184600  0.716800  1.0  -0.0825
  C  C269  1  0.443400  0.128000  0.715100  1.0  -0.0661
  C  C270  1  0.163900  0.378200  0.574900  1.0  0.469
  C  C271  1  0.231700  0.346600  0.577800  1.0  -0.3213
  C  C272  1  0.288600  0.365000  0.623200  1.0  0.4696
  C  C273  1  0.240400  0.300300  0.539300  1.0  -0.099
  C  C274  1  0.310600  0.270800  0.539300  1.0  0.1997
  C  C275  1  0.320000  0.222500  0.501900  1.0  0.1871
  C  C276  1  0.400200  0.994600  0.589000  1.0  0.6975
  C  C277  1  0.343700  0.990900  0.638800  1.0  -0.1084
  C  C278  1  0.363600  0.962400  0.695100  1.0  -0.1269
  C  C279  1  0.310100  0.958600  0.741100  1.0  0.3371
  C  C280  1  0.238900  0.983300  0.734100  1.0  -0.1972
  C  C281  1  0.221800  0.012700  0.678900  1.0  0.4106
  C  C282  1  0.273500  0.016600  0.632100  1.0  -0.0972
  C  C283  1  0.424000  0.924200  0.434300  1.0  0.6991
  C  C284  1  0.380700  0.882300  0.397300  1.0  -0.1175
  C  C285  1  0.386200  0.829500  0.413700  1.0  -0.0762
  C  C286  1  0.342300  0.789600  0.382500  1.0  0.1511
  C  C287  1  0.293400  0.804600  0.329400  1.0  -0.2197
  C  C288  1  0.288500  0.860300  0.311900  1.0  0.0139
  C  C289  1  0.334100  0.897700  0.345100  1.0  -0.0139
  C  C290  1  0.074200  0.881700  0.644000  1.0  0.7144
  C  C291  1  0.115900  0.880100  0.582900  1.0  -0.1337
  C  C292  1  0.195400  0.886400  0.586100  1.0  -0.0956
  C  C293  1  0.231200  0.884500  0.530800  1.0  0.2454
  C  C294  1  0.194600  0.874900  0.472200  1.0  -0.1398
  C  C295  1  0.114400  0.868500  0.470000  1.0  -0.0634
  C  C296  1  0.076300  0.871800  0.525200  1.0  -0.0277
  C  C297  1  0.941300  0.080000  0.717300  1.0  -0.0565
  C  C298  1  0.941300  0.137000  0.718200  1.0  0.3333
  C  C299  1  0.944000  0.684600  0.716800  1.0  -0.0825
  C  C300  1  0.943400  0.628000  0.715100  1.0  -0.0661
  C  C301  1  0.663900  0.878200  0.574900  1.0  0.469
  C  C302  1  0.731700  0.846600  0.577800  1.0  -0.3213
  C  C303  1  0.788600  0.865000  0.623200  1.0  0.4696
  C  C304  1  0.740400  0.800300  0.539300  1.0  -0.099
  C  C305  1  0.810600  0.770800  0.539300  1.0  0.1997
  C  C306  1  0.820000  0.722500  0.501900  1.0  0.1871
  C  C307  1  0.099800  0.494600  0.911000  1.0  0.6977
  C  C308  1  0.156300  0.490900  0.861200  1.0  -0.1074
  C  C309  1  0.136400  0.462400  0.804900  1.0  -0.1248
  C  C310  1  0.189900  0.458600  0.758900  1.0  0.3394
  C  C311  1  0.261100  0.483300  0.765900  1.0  -0.1961
  C  C312  1  0.278200  0.512700  0.821100  1.0  0.4097
  C  C313  1  0.226500  0.516600  0.867900  1.0  -0.0989
  C  C314  1  0.076000  0.424200  0.065700  1.0  0.6993
  C  C315  1  0.119300  0.382300  0.102700  1.0  -0.1173
  C  C316  1  0.113800  0.329500  0.086300  1.0  -0.0775
  C  C317  1  0.157700  0.289600  0.117500  1.0  0.1505
  C  C318  1  0.206600  0.304600  0.170600  1.0  -0.2187
  C  C319  1  0.211500  0.360300  0.188100  1.0  0.0158
  C  C320  1  0.165900  0.397700  0.154900  1.0  -0.0147
  C  C321  1  0.425800  0.381700  0.856000  1.0  0.7158
  C  C322  1  0.384100  0.380100  0.917100  1.0  -0.1352
  C  C323  1  0.304600  0.386400  0.913900  1.0  -0.0942
  C  C324  1  0.268800  0.384500  0.969200  1.0  0.2443
  C  C325  1  0.305400  0.374900  0.027800  1.0  -0.1407
  C  C326  1  0.385600  0.368500  0.030000  1.0  -0.0629
  C  C327  1  0.423700  0.371800  0.974800  1.0  -0.0275
  C  C328  1  0.558700  0.580000  0.782700  1.0  -0.0574
  C  C329  1  0.558700  0.637000  0.781800  1.0  0.3361
  C  C330  1  0.556000  0.184600  0.783200  1.0  -0.0805
  C  C331  1  0.556600  0.128000  0.784900  1.0  -0.061
  C  C332  1  0.836100  0.378200  0.925100  1.0  0.4691
  C  C333  1  0.768300  0.346600  0.922200  1.0  -0.3209
  C  C334  1  0.711400  0.365000  0.876800  1.0  0.4697
  C  C335  1  0.759600  0.300300  0.960700  1.0  -0.0992
  C  C336  1  0.689400  0.270800  0.960700  1.0  0.1997
  C  C337  1  0.680000  0.222500  0.998100  1.0  0.1877
  C  C338  1  0.599800  0.994600  0.911000  1.0  0.6977
  C  C339  1  0.656300  0.990900  0.861200  1.0  -0.1074
  C  C340  1  0.636400  0.962400  0.804900  1.0  -0.1248
  C  C341  1  0.689900  0.958600  0.758900  1.0  0.3394
  C  C342  1  0.761100  0.983300  0.765900  1.0  -0.1961
  C  C343  1  0.778200  0.012700  0.821100  1.0  0.4097
  C  C344  1  0.726500  0.016600  0.867900  1.0  -0.0989
  C  C345  1  0.576000  0.924200  0.065700  1.0  0.6993
  C  C346  1  0.619300  0.882300  0.102700  1.0  -0.1173
  C  C347  1  0.613800  0.829500  0.086300  1.0  -0.0775
  C  C348  1  0.657700  0.789600  0.117500  1.0  0.1505
  C  C349  1  0.706600  0.804600  0.170600  1.0  -0.2187
  C  C350  1  0.711500  0.860300  0.188100  1.0  0.0158
  C  C351  1  0.665900  0.897700  0.154900  1.0  -0.0147
  C  C352  1  0.925800  0.881700  0.856000  1.0  0.7158
  C  C353  1  0.884100  0.880100  0.917100  1.0  -0.1352
  C  C354  1  0.804600  0.886400  0.913900  1.0  -0.0942
  C  C355  1  0.768800  0.884500  0.969200  1.0  0.2443
  C  C356  1  0.805400  0.874900  0.027800  1.0  -0.1407
  C  C357  1  0.885600  0.868500  0.030000  1.0  -0.0629
  C  C358  1  0.923700  0.871800  0.974800  1.0  -0.0275
  C  C359  1  0.058700  0.080000  0.782700  1.0  -0.0574
  C  C360  1  0.058700  0.137000  0.781800  1.0  0.3326
  C  C361  1  0.056000  0.684600  0.783200  1.0  -0.0805
  C  C362  1  0.056600  0.628000  0.784900  1.0  -0.061
  C  C363  1  0.336100  0.878200  0.925100  1.0  0.4691
  C  C364  1  0.268300  0.846600  0.922200  1.0  -0.3209
  C  C365  1  0.211400  0.865000  0.876800  1.0  0.4697
  C  C366  1  0.259600  0.800300  0.960700  1.0  -0.0992
  C  C367  1  0.189400  0.770800  0.960700  1.0  0.1997
  C  C368  1  0.180000  0.722500  0.998100  1.0  0.1877
  C  C369  1  0.500000  0.508800  0.250000  1.0  0.6815
  C  C370  1  0.500000  0.447600  0.250000  1.0  -0.074
  C  C371  1  0.500000  0.333400  0.250000  1.0  -0.2005
  C  C372  1  0.500000  0.724700  0.250000  1.0  0.6985
  C  C373  1  0.500000  0.786900  0.250000  1.0  -0.0848
  C  C374  1  0.500000  0.900500  0.250000  1.0  -0.1552
  C  C375  1  0.000000  0.008800  0.250000  1.0  0.6815
  C  C376  1  0.000000  0.947600  0.250000  1.0  -0.074
  C  C377  1  0.000000  0.833400  0.250000  1.0  -0.2005
  C  C378  1  0.000000  0.224700  0.250000  1.0  0.6985
  C  C379  1  0.000000  0.286900  0.250000  1.0  -0.0848
  C  C380  1  0.000000  0.400500  0.250000  1.0  -0.1552
  C  C381  1  0.500000  0.491200  0.750000  1.0  0.6806
  C  C382  1  0.500000  0.552400  0.750000  1.0  -0.0743
  C  C383  1  0.500000  0.666667  0.750000  1.0  -0.201
  C  C384  1  0.500000  0.275300  0.750000  1.0  0.6984
  C  C385  1  0.500000  0.213100  0.750000  1.0  -0.0866
  C  C386  1  0.500000  0.099500  0.750000  1.0  -0.1539
  C  C387  1  0.000000  0.991200  0.750000  1.0  0.6806
  C  C388  1  0.000000  0.052400  0.750000  1.0  -0.0743
  C  C389  1  0.000000  0.166600  0.750000  1.0  -0.1988
  C  C390  1  0.000000  0.775300  0.750000  1.0  0.6984
  C  C391  1  0.000000  0.713100  0.750000  1.0  -0.0866
  C  C392  1  0.000000  0.599500  0.750000  1.0  -0.1539
  S  S393  1  0.561920  0.759160  0.442410  1.0  0.1263
  S  S394  1  0.061920  0.259160  0.442410  1.0  0.1263
  S  S395  1  0.438080  0.759160  0.057590  1.0  0.1266
  S  S396  1  0.938080  0.259160  0.057590  1.0  0.1266
  S  S397  1  0.438080  0.240840  0.557590  1.0  0.1267
  S  S398  1  0.938080  0.740840  0.557590  1.0  0.1267
  S  S399  1  0.561920  0.240840  0.942410  1.0  0.1265
  S  S400  1  0.061920  0.740840  0.942410  1.0  0.1265
  N  N401  1  0.888500  0.594100  0.425900  1.0  -0.4723
  N  N402  1  0.668700  0.620100  0.338200  1.0  -0.4239
  N  N403  1  0.625600  0.714500  0.428000  1.0  -0.2953
  N  N404  1  0.610000  0.799300  0.491000  1.0  -0.3336
  N  N405  1  0.388500  0.094100  0.425900  1.0  -0.4723
  N  N406  1  0.168700  0.120100  0.338200  1.0  -0.4239
  N  N407  1  0.125600  0.214500  0.428000  1.0  -0.2953
  N  N408  1  0.110000  0.299300  0.491000  1.0  -0.3336
  N  N409  1  0.111500  0.594100  0.074100  1.0  -0.4721
  N  N410  1  0.331300  0.620100  0.161800  1.0  -0.4249
  N  N411  1  0.374400  0.714500  0.072000  1.0  -0.2966
  N  N412  1  0.390000  0.799300  0.009000  1.0  -0.3363
  N  N413  1  0.611500  0.094100  0.074100  1.0  -0.4721
  N  N414  1  0.831300  0.120100  0.161800  1.0  -0.4249
  N  N415  1  0.874400  0.214500  0.072000  1.0  -0.2966
  N  N416  1  0.890000  0.299300  0.009000  1.0  -0.3363
  N  N417  1  0.111500  0.405900  0.574100  1.0  -0.4714
  N  N418  1  0.331300  0.379900  0.661800  1.0  -0.4257
  N  N419  1  0.374400  0.285500  0.572000  1.0  -0.2979
  N  N420  1  0.390000  0.200700  0.509000  1.0  -0.3305
  N  N421  1  0.611500  0.905900  0.574100  1.0  -0.4714
  N  N422  1  0.831300  0.879900  0.661800  1.0  -0.4257
  N  N423  1  0.874400  0.785500  0.572000  1.0  -0.2979
  N  N424  1  0.890000  0.700700  0.509000  1.0  -0.3305
  N  N425  1  0.888500  0.405900  0.925900  1.0  -0.4716
  N  N426  1  0.668700  0.379900  0.838200  1.0  -0.4246
  N  N427  1  0.625600  0.285500  0.928000  1.0  -0.2964
  N  N428  1  0.610000  0.200700  0.991000  1.0  -0.3287
  N  N429  1  0.388500  0.905900  0.925900  1.0  -0.4716
  N  N430  1  0.168700  0.879900  0.838200  1.0  -0.4246
  N  N431  1  0.125600  0.785500  0.928000  1.0  -0.2964
  N  N432  1  0.110000  0.700700  0.991000  1.0  -0.3287
  O  O433  1  0.041000  0.536180  0.406100  1.0  -0.5511
  O  O434  1  0.112100  0.472040  0.456600  1.0  -0.5605
  O  O435  1  0.024200  0.591150  0.524900  1.0  -0.5712
  O  O436  1  0.093600  0.526440  0.576500  1.0  -0.5622
  O  O437  1  0.386000  0.616260  0.304200  1.0  -0.5517
  O  O438  1  0.498000  0.619120  0.360600  1.0  -0.5602
  O  O439  1  0.555400  0.533120  0.279980  1.0  -0.5756
  O  O440  1  0.556800  0.701620  0.277200  1.0  -0.5476
  O  O441  1  0.541000  0.036180  0.406100  1.0  -0.5511
  O  O442  1  0.612100  0.972040  0.456600  1.0  -0.5605
  O  O443  1  0.524200  0.091150  0.524900  1.0  -0.5712
  O  O444  1  0.593600  0.026440  0.576500  1.0  -0.5622
  O  O445  1  0.886000  0.116260  0.304200  1.0  -0.5517
  O  O446  1  0.998000  0.119120  0.360600  1.0  -0.5602
  O  O447  1  0.055400  0.033120  0.279980  1.0  -0.5756
  O  O448  1  0.056800  0.201620  0.277200  1.0  -0.5476
  O  O449  1  0.959000  0.536180  0.093900  1.0  -0.5508
  O  O450  1  0.887900  0.472040  0.043400  1.0  -0.5628
  O  O451  1  0.975800  0.591150  0.975100  1.0  -0.5705
  O  O452  1  0.906400  0.526440  0.923500  1.0  -0.5618
  O  O453  1  0.614000  0.616260  0.195800  1.0  -0.5504
  O  O454  1  0.502000  0.619120  0.139400  1.0  -0.5606
  O  O455  1  0.444600  0.533120  0.220020  1.0  -0.5771
  O  O456  1  0.443200  0.701620  0.222800  1.0  -0.5483
  O  O457  1  0.459000  0.036180  0.093900  1.0  -0.5508
  O  O458  1  0.387900  0.972040  0.043400  1.0  -0.5628
  O  O459  1  0.475800  0.091150  0.975100  1.0  -0.5705
  O  O460  1  0.406400  0.026440  0.923500  1.0  -0.5618
  O  O461  1  0.114000  0.116260  0.195800  1.0  -0.5504
  O  O462  1  0.002000  0.119120  0.139400  1.0  -0.5606
  O  O463  1  0.944600  0.033120  0.220020  1.0  -0.5771
  O  O464  1  0.943200  0.201620  0.222800  1.0  -0.5483
  O  O465  1  0.959000  0.463820  0.593900  1.0  -0.5509
  O  O466  1  0.887900  0.527960  0.543400  1.0  -0.562
  O  O467  1  0.975800  0.408850  0.475100  1.0  -0.5706
  O  O468  1  0.906400  0.473560  0.423500  1.0  -0.5626
  O  O469  1  0.614000  0.383740  0.695800  1.0  -0.5505
  O  O470  1  0.502000  0.380880  0.639400  1.0  -0.5603
  O  O471  1  0.444600  0.466880  0.720020  1.0  -0.5767
  O  O472  1  0.443200  0.298380  0.722800  1.0  -0.5489
  O  O473  1  0.459000  0.963820  0.593900  1.0  -0.5509
  O  O474  1  0.387900  0.027960  0.543400  1.0  -0.562
  O  O475  1  0.475800  0.908850  0.475100  1.0  -0.5706
  O  O476  1  0.406400  0.973560  0.423500  1.0  -0.5626
  O  O477  1  0.114000  0.883740  0.695800  1.0  -0.5505
  O  O478  1  0.002000  0.880880  0.639400  1.0  -0.5603
  O  O479  1  0.944600  0.966880  0.720020  1.0  -0.5767
  O  O480  1  0.943200  0.798380  0.722800  1.0  -0.5489
  O  O481  1  0.041000  0.463820  0.906100  1.0  -0.5507
  O  O482  1  0.112100  0.527960  0.956600  1.0  -0.5603
  O  O483  1  0.024200  0.408850  0.024900  1.0  -0.5714
  O  O484  1  0.093600  0.473560  0.076500  1.0  -0.5631
  O  O485  1  0.386000  0.383740  0.804200  1.0  -0.5521
  O  O486  1  0.498000  0.380880  0.860600  1.0  -0.5601
  O  O487  1  0.555400  0.466880  0.779980  1.0  -0.5754
  O  O488  1  0.556800  0.298380  0.777200  1.0  -0.548
  O  O489  1  0.541000  0.963820  0.906100  1.0  -0.5507
  O  O490  1  0.612100  0.027960  0.956600  1.0  -0.5603
  O  O491  1  0.524200  0.908850  0.024900  1.0  -0.5714
  O  O492  1  0.593600  0.973560  0.076500  1.0  -0.5631
  O  O493  1  0.886000  0.883740  0.804200  1.0  -0.5521
  O  O494  1  0.998000  0.880880  0.860600  1.0  -0.5601
  O  O495  1  0.055400  0.966880  0.779980  1.0  -0.5754
  O  O496  1  0.056800  0.798380  0.777200  1.0  -0.548
  F  F497  1  0.172600  0.569300  0.209300  1.0  -0.1256
  F  F498  1  0.345100  0.467300  0.327400  1.0  -0.1345
  F  F499  1  0.151400  0.757900  0.609700  1.0  -0.1787
  F  F500  1  0.249200  0.635800  0.732900  1.0  -0.2009
  F  F501  1  0.191300  0.607700  0.468300  1.0  -0.1341
  F  F502  1  0.605800  0.333700  0.313200  1.0  -0.1779
  F  F503  1  0.589900  0.903300  0.305000  1.0  -0.1975
  F  F504  1  0.672600  0.069300  0.209300  1.0  -0.1256
  F  F505  1  0.845100  0.967300  0.327400  1.0  -0.1345
  F  F506  1  0.651400  0.257900  0.609700  1.0  -0.1787
  F  F507  1  0.749200  0.135800  0.732900  1.0  -0.2009
  F  F508  1  0.691300  0.107700  0.468300  1.0  -0.1341
  F  F509  1  0.105800  0.833700  0.313200  1.0  -0.1779
  F  F510  1  0.089900  0.403300  0.305000  1.0  -0.1975
  F  F511  1  0.827400  0.569300  0.290700  1.0  -0.1264
  F  F512  1  0.654900  0.467300  0.172600  1.0  -0.1346
  F  F513  1  0.848600  0.757900  0.890300  1.0  -0.179
  F  F514  1  0.750800  0.635800  0.767100  1.0  -0.1991
  F  F515  1  0.808700  0.607700  0.031700  1.0  -0.1373
  F  F516  1  0.394200  0.333700  0.186800  1.0  -0.1764
  F  F517  1  0.410100  0.903300  0.195000  1.0  -0.2006
  F  F518  1  0.327400  0.069300  0.290700  1.0  -0.1264
  F  F519  1  0.154900  0.967300  0.172600  1.0  -0.1346
  F  F520  1  0.348600  0.257900  0.890300  1.0  -0.179
  F  F521  1  0.250800  0.135800  0.767100  1.0  -0.1991
  F  F522  1  0.308700  0.107700  0.031700  1.0  -0.1373
  F  F523  1  0.894200  0.833700  0.186800  1.0  -0.1764
  F  F524  1  0.910100  0.403300  0.195000  1.0  -0.2006
  F  F525  1  0.827400  0.430700  0.790700  1.0  -0.1246
  F  F526  1  0.654900  0.532700  0.672600  1.0  -0.1339
  F  F527  1  0.848600  0.242100  0.390300  1.0  -0.1838
  F  F528  1  0.750800  0.364200  0.267100  1.0  -0.1984
  F  F529  1  0.808700  0.392300  0.531700  1.0  -0.1372
  F  F530  1  0.394200  0.666300  0.686800  1.0  -0.1753
  F  F531  1  0.410100  0.096700  0.695000  1.0  -0.1993
  F  F532  1  0.327400  0.930700  0.790700  1.0  -0.1246
  F  F533  1  0.154900  0.032700  0.672600  1.0  -0.1339
  F  F534  1  0.348600  0.742100  0.390300  1.0  -0.1838
  F  F535  1  0.250800  0.864200  0.267100  1.0  -0.1984
  F  F536  1  0.308700  0.892300  0.531700  1.0  -0.1372
  F  F537  1  0.894200  0.166300  0.686800  1.0  -0.1751
  F  F538  1  0.910100  0.596700  0.695000  1.0  -0.1993
  F  F539  1  0.172600  0.430700  0.709300  1.0  -0.1231
  F  F540  1  0.345100  0.532700  0.827400  1.0  -0.1341
  F  F541  1  0.151400  0.242100  0.109700  1.0  -0.1836
  F  F542  1  0.249200  0.364200  0.232900  1.0  -0.2006
  F  F543  1  0.191300  0.392300  0.968300  1.0  -0.134
  F  F544  1  0.605800  0.666300  0.813200  1.0  -0.1782
  F  F545  1  0.589900  0.096700  0.805000  1.0  -0.197
  F  F546  1  0.672600  0.930700  0.709300  1.0  -0.1231
  F  F547  1  0.845100  0.032700  0.827400  1.0  -0.1342
  F  F548  1  0.651400  0.742100  0.109700  1.0  -0.1836
  F  F549  1  0.749200  0.864200  0.232900  1.0  -0.2006
  F  F550  1  0.691300  0.892300  0.968300  1.0  -0.134
  F  F551  1  0.105800  0.166300  0.813200  1.0  -0.178
  F  F552  1  0.089900  0.596700  0.805000  1.0  -0.197
