# generated using pymatgen
data_Cu2H8C17O8
_symmetry_space_group_name_H-M   'P 1'
_cell_length_a   18.07000000
_cell_length_b   18.07000000
_cell_length_c   19.34000000
_cell_angle_alpha   90.00000000
_cell_angle_beta   90.00000000
_cell_angle_gamma   120.00000000
_symmetry_Int_Tables_number   1
_chemical_formula_structural   Cu2H8C17O8
_chemical_formula_sum   'Cu12 H48 C102 O48'
_cell_volume   5468.94312084
_cell_formula_units_Z   6
loop_
 _symmetry_equiv_pos_site_id
 _symmetry_equiv_pos_as_xyz
  1  'x, y, z'
loop_
 _atom_site_type_symbol
 _atom_site_label
 _atom_site_symmetry_multiplicity
 _atom_site_fract_x
 _atom_site_fract_y
 _atom_site_fract_z
 _atom_site_occupancy
 _atom_site_charge
  Cu  Cu1  1  0.526780  0.053560  0.053480  1.0  0.9113
  Cu  Cu2  1  0.526780  0.473220  0.053480  1.0  0.9134
  Cu  Cu3  1  0.946440  0.473220  0.053480  1.0  0.9122
  Cu  Cu4  1  0.473220  0.946440  0.553480  1.0  0.9108
  Cu  Cu5  1  0.473220  0.526780  0.553480  1.0  0.9121
  Cu  Cu6  1  0.053560  0.526780  0.553480  1.0  0.913
  Cu  Cu7  1  0.473220  0.946440  0.946520  1.0  0.9127
  Cu  Cu8  1  0.053560  0.526780  0.946520  1.0  0.9136
  Cu  Cu9  1  0.473220  0.526780  0.946520  1.0  0.9138
  Cu  Cu10  1  0.526780  0.053560  0.446520  1.0  0.9117
  Cu  Cu11  1  0.946440  0.473220  0.446520  1.0  0.9141
  Cu  Cu12  1  0.526780  0.473220  0.446520  1.0  0.9138
  H  H13  1  0.712600  0.064100  0.827500  1.0  0.1177
  H  H14  1  0.351500  0.287400  0.827500  1.0  0.1165
  H  H15  1  0.935900  0.648500  0.827500  1.0  0.1164
  H  H16  1  0.287400  0.935900  0.327500  1.0  0.1172
  H  H17  1  0.648500  0.712600  0.327500  1.0  0.1161
  H  H18  1  0.064100  0.351500  0.327500  1.0  0.1155
  H  H19  1  0.648500  0.935900  0.172500  1.0  0.1175
  H  H20  1  0.064100  0.712600  0.172500  1.0  0.1162
  H  H21  1  0.287400  0.351500  0.172500  1.0  0.116
  H  H22  1  0.351500  0.064100  0.672500  1.0  0.1177
  H  H23  1  0.935900  0.287400  0.672500  1.0  0.1164
  H  H24  1  0.712600  0.648500  0.672500  1.0  0.1158
  H  H25  1  0.287400  0.935900  0.172500  1.0  0.1173
  H  H26  1  0.648500  0.712600  0.172500  1.0  0.1161
  H  H27  1  0.064100  0.351500  0.172500  1.0  0.1158
  H  H28  1  0.712600  0.064100  0.672500  1.0  0.1176
  H  H29  1  0.351500  0.287400  0.672500  1.0  0.1164
  H  H30  1  0.935900  0.648500  0.672500  1.0  0.1163
  H  H31  1  0.351500  0.064100  0.827500  1.0  0.1177
  H  H32  1  0.935900  0.287400  0.827500  1.0  0.1164
  H  H33  1  0.712600  0.648500  0.827500  1.0  0.1158
  H  H34  1  0.648500  0.935900  0.327500  1.0  0.1175
  H  H35  1  0.064100  0.712600  0.327500  1.0  0.1159
  H  H36  1  0.287400  0.351500  0.327500  1.0  0.1158
  H  H37  1  0.761600  0.238400  0.970400  1.0  0.1084
  H  H38  1  0.476800  0.238400  0.970400  1.0  0.1081
  H  H39  1  0.761600  0.523200  0.970400  1.0  0.1089
  H  H40  1  0.238400  0.761600  0.470400  1.0  0.1086
  H  H41  1  0.523200  0.761600  0.470400  1.0  0.1086
  H  H42  1  0.238400  0.476800  0.470400  1.0  0.1084
  H  H43  1  0.523200  0.761600  0.029600  1.0  0.1082
  H  H44  1  0.238400  0.761600  0.029600  1.0  0.1084
  H  H45  1  0.238400  0.476800  0.029600  1.0  0.1082
  H  H46  1  0.476800  0.238400  0.529600  1.0  0.1078
  H  H47  1  0.761600  0.238400  0.529600  1.0  0.1079
  H  H48  1  0.761600  0.523200  0.529600  1.0  0.1087
  H  H49  1  0.918100  0.169500  0.750000  1.0  0.1116
  H  H50  1  0.251400  0.081900  0.750000  1.0  0.1111
  H  H51  1  0.830500  0.748600  0.750000  1.0  0.1109
  H  H52  1  0.081900  0.830500  0.250000  1.0  0.1085
  H  H53  1  0.748600  0.918100  0.250000  1.0  0.1113
  H  H54  1  0.169500  0.251400  0.250000  1.0  0.1117
  H  H55  1  0.748600  0.830500  0.250000  1.0  0.1113
  H  H56  1  0.169500  0.918100  0.250000  1.0  0.1118
  H  H57  1  0.081900  0.251400  0.250000  1.0  0.1114
  H  H58  1  0.251400  0.169500  0.750000  1.0  0.1075
  H  H59  1  0.830500  0.081900  0.750000  1.0  0.1114
  H  H60  1  0.918100  0.748600  0.750000  1.0  0.111
  C  C61  1  0.725900  0.143000  0.904000  1.0  -0.1355
  C  C62  1  0.750200  0.116800  0.845600  1.0  -0.0573
  C  C63  1  0.639800  0.083900  0.936700  1.0  0.6579
  C  C64  1  0.417100  0.274100  0.904000  1.0  -0.135
  C  C65  1  0.366600  0.249800  0.845600  1.0  -0.0581
  C  C66  1  0.444100  0.360200  0.936700  1.0  0.6586
  C  C67  1  0.857000  0.582900  0.904000  1.0  -0.1357
  C  C68  1  0.883200  0.633400  0.845600  1.0  -0.0595
  C  C69  1  0.916100  0.555900  0.936700  1.0  0.6583
  C  C70  1  0.274100  0.857000  0.404000  1.0  -0.1359
  C  C71  1  0.249800  0.883200  0.345600  1.0  -0.0573
  C  C72  1  0.360200  0.916100  0.436700  1.0  0.6585
  C  C73  1  0.582900  0.725900  0.404000  1.0  -0.1355
  C  C74  1  0.633400  0.750200  0.345600  1.0  -0.0589
  C  C75  1  0.555900  0.639800  0.436700  1.0  0.6583
  C  C76  1  0.143000  0.417100  0.404000  1.0  -0.1352
  C  C77  1  0.116800  0.366600  0.345600  1.0  -0.0586
  C  C78  1  0.083900  0.444100  0.436700  1.0  0.6582
  C  C79  1  0.582900  0.857000  0.096000  1.0  -0.1352
  C  C80  1  0.633400  0.883200  0.154400  1.0  -0.0576
  C  C81  1  0.555900  0.916100  0.063300  1.0  0.6578
  C  C82  1  0.143000  0.725900  0.096000  1.0  -0.1352
  C  C83  1  0.116800  0.750200  0.154400  1.0  -0.058
  C  C84  1  0.083900  0.639800  0.063300  1.0  0.6584
  C  C85  1  0.274100  0.417100  0.096000  1.0  -0.1357
  C  C86  1  0.249800  0.366600  0.154400  1.0  -0.0595
  C  C87  1  0.360200  0.444100  0.063300  1.0  0.6583
  C  C88  1  0.417100  0.143000  0.596000  1.0  -0.1361
  C  C89  1  0.366600  0.116800  0.654400  1.0  -0.0567
  C  C90  1  0.444100  0.083900  0.563300  1.0  0.6582
  C  C91  1  0.857000  0.274100  0.596000  1.0  -0.1355
  C  C92  1  0.883200  0.249800  0.654400  1.0  -0.0591
  C  C93  1  0.916100  0.360200  0.563300  1.0  0.6581
  C  C94  1  0.725900  0.582900  0.596000  1.0  -0.1352
  C  C95  1  0.750200  0.633400  0.654400  1.0  -0.0586
  C  C96  1  0.639800  0.555900  0.563300  1.0  0.6578
  C  C97  1  0.274100  0.857000  0.096000  1.0  -0.1357
  C  C98  1  0.249800  0.883200  0.154400  1.0  -0.0568
  C  C99  1  0.360200  0.916100  0.063300  1.0  0.6583
  C  C100  1  0.582900  0.725900  0.096000  1.0  -0.1357
  C  C101  1  0.633400  0.750200  0.154400  1.0  -0.0589
  C  C102  1  0.555900  0.639800  0.063300  1.0  0.6581
  C  C103  1  0.143000  0.417100  0.096000  1.0  -0.1354
  C  C104  1  0.116800  0.366600  0.154400  1.0  -0.0588
  C  C105  1  0.083900  0.444100  0.063300  1.0  0.658
  C  C106  1  0.725900  0.143000  0.596000  1.0  -0.1356
  C  C107  1  0.750200  0.116800  0.654400  1.0  -0.0573
  C  C108  1  0.639800  0.083900  0.563300  1.0  0.6577
  C  C109  1  0.417100  0.274100  0.596000  1.0  -0.1349
  C  C110  1  0.366600  0.249800  0.654400  1.0  -0.058
  C  C111  1  0.444100  0.360200  0.563300  1.0  0.6584
  C  C112  1  0.857000  0.582900  0.596000  1.0  -0.1356
  C  C113  1  0.883200  0.633400  0.654400  1.0  -0.0595
  C  C114  1  0.916100  0.555900  0.563300  1.0  0.6581
  C  C115  1  0.417100  0.143000  0.904000  1.0  -0.1361
  C  C116  1  0.366600  0.116800  0.845600  1.0  -0.0568
  C  C117  1  0.444100  0.083900  0.936700  1.0  0.6584
  C  C118  1  0.857000  0.274100  0.904000  1.0  -0.1356
  C  C119  1  0.883200  0.249800  0.845600  1.0  -0.0594
  C  C120  1  0.916100  0.360200  0.936700  1.0  0.6584
  C  C121  1  0.725900  0.582900  0.904000  1.0  -0.135
  C  C122  1  0.750200  0.633400  0.845600  1.0  -0.0582
  C  C123  1  0.639800  0.555900  0.936700  1.0  0.658
  C  C124  1  0.582900  0.857000  0.404000  1.0  -0.1353
  C  C125  1  0.633400  0.883200  0.345600  1.0  -0.0579
  C  C126  1  0.555900  0.916100  0.436700  1.0  0.658
  C  C127  1  0.143000  0.725900  0.404000  1.0  -0.1351
  C  C128  1  0.116800  0.750200  0.345600  1.0  -0.0578
  C  C129  1  0.083900  0.639800  0.436700  1.0  0.6586
  C  C130  1  0.274100  0.417100  0.404000  1.0  -0.1359
  C  C131  1  0.249800  0.366600  0.345600  1.0  -0.0596
  C  C132  1  0.360200  0.444100  0.436700  1.0  0.6585
  C  C133  1  0.829600  0.170400  0.814000  1.0  0.0579
  C  C134  1  0.779100  0.220900  0.931500  1.0  0.0104
  C  C135  1  0.340800  0.170400  0.814000  1.0  0.0574
  C  C136  1  0.441800  0.220900  0.931500  1.0  0.0103
  C  C137  1  0.829600  0.659200  0.814000  1.0  0.0582
  C  C138  1  0.779100  0.558200  0.931500  1.0  0.0108
  C  C139  1  0.170400  0.829600  0.314000  1.0  0.0573
  C  C140  1  0.220900  0.779100  0.431500  1.0  0.0098
  C  C141  1  0.659200  0.829600  0.314000  1.0  0.0574
  C  C142  1  0.558200  0.779100  0.431500  1.0  0.0101
  C  C143  1  0.170400  0.340800  0.314000  1.0  0.0582
  C  C144  1  0.220900  0.441800  0.431500  1.0  0.011
  C  C145  1  0.659200  0.829600  0.186000  1.0  0.0584
  C  C146  1  0.558200  0.779100  0.068500  1.0  0.0109
  C  C147  1  0.170400  0.829600  0.186000  1.0  0.0583
  C  C148  1  0.220900  0.779100  0.068500  1.0  0.01
  C  C149  1  0.170400  0.340800  0.186000  1.0  0.0586
  C  C150  1  0.220900  0.441800  0.068500  1.0  0.0115
  C  C151  1  0.340800  0.170400  0.686000  1.0  0.0577
  C  C152  1  0.441800  0.220900  0.568500  1.0  0.0103
  C  C153  1  0.829600  0.170400  0.686000  1.0  0.0583
  C  C154  1  0.779100  0.220900  0.568500  1.0  0.0113
  C  C155  1  0.829600  0.659200  0.686000  1.0  0.0592
  C  C156  1  0.779100  0.558200  0.568500  1.0  0.0108
  C  C157  1  0.856950  0.143050  0.750000  1.0  -0.1961
  C  C158  1  0.286100  0.143050  0.750000  1.0  -0.1946
  C  C159  1  0.856950  0.713900  0.750000  1.0  -0.1989
  C  C160  1  0.143050  0.856950  0.250000  1.0  -0.1955
  C  C161  1  0.713900  0.856950  0.250000  1.0  -0.1967
  C  C162  1  0.143050  0.286100  0.250000  1.0  -0.1953
  O  O163  1  0.630800  0.109000  0.997300  1.0  -0.581
  O  O164  1  0.584000  0.017200  0.905500  1.0  -0.5524
  O  O165  1  0.478200  0.369200  0.997300  1.0  -0.5795
  O  O166  1  0.433200  0.416000  0.905500  1.0  -0.5513
  O  O167  1  0.891000  0.521800  0.997300  1.0  -0.5804
  O  O168  1  0.982800  0.566800  0.905500  1.0  -0.5511
  O  O169  1  0.369200  0.891000  0.497300  1.0  -0.5811
  O  O170  1  0.416000  0.982800  0.405500  1.0  -0.553
  O  O171  1  0.521800  0.630800  0.497300  1.0  -0.5802
  O  O172  1  0.566800  0.584000  0.405500  1.0  -0.5506
  O  O173  1  0.109000  0.478200  0.497300  1.0  -0.5803
  O  O174  1  0.017200  0.433200  0.405500  1.0  -0.5516
  O  O175  1  0.521800  0.891000  0.002700  1.0  -0.5801
  O  O176  1  0.566800  0.982800  0.094500  1.0  -0.554
  O  O177  1  0.109000  0.630800  0.002700  1.0  -0.5799
  O  O178  1  0.017200  0.584000  0.094500  1.0  -0.5518
  O  O179  1  0.369200  0.478200  0.002700  1.0  -0.5796
  O  O180  1  0.416000  0.433200  0.094500  1.0  -0.5516
  O  O181  1  0.478200  0.109000  0.502700  1.0  -0.5813
  O  O182  1  0.433200  0.017200  0.594500  1.0  -0.5535
  O  O183  1  0.891000  0.369200  0.502700  1.0  -0.5794
  O  O184  1  0.982800  0.416000  0.594500  1.0  -0.5515
  O  O185  1  0.630800  0.521800  0.502700  1.0  -0.5802
  O  O186  1  0.584000  0.566800  0.594500  1.0  -0.5531
  O  O187  1  0.369200  0.891000  0.002700  1.0  -0.5807
  O  O188  1  0.416000  0.982800  0.094500  1.0  -0.5528
  O  O189  1  0.521800  0.630800  0.002700  1.0  -0.5797
  O  O190  1  0.566800  0.584000  0.094500  1.0  -0.5513
  O  O191  1  0.109000  0.478200  0.002700  1.0  -0.5801
  O  O192  1  0.017200  0.433200  0.094500  1.0  -0.5517
  O  O193  1  0.630800  0.109000  0.502700  1.0  -0.5807
  O  O194  1  0.584000  0.017200  0.594500  1.0  -0.5529
  O  O195  1  0.478200  0.369200  0.502700  1.0  -0.5796
  O  O196  1  0.433200  0.416000  0.594500  1.0  -0.5513
  O  O197  1  0.891000  0.521800  0.502700  1.0  -0.5799
  O  O198  1  0.982800  0.566800  0.594500  1.0  -0.5514
  O  O199  1  0.478200  0.109000  0.997300  1.0  -0.5818
  O  O200  1  0.433200  0.017200  0.905500  1.0  -0.552
  O  O201  1  0.891000  0.369200  0.997300  1.0  -0.58
  O  O202  1  0.982800  0.416000  0.905500  1.0  -0.5509
  O  O203  1  0.630800  0.521800  0.997300  1.0  -0.5807
  O  O204  1  0.584000  0.566800  0.905500  1.0  -0.5516
  O  O205  1  0.521800  0.891000  0.497300  1.0  -0.5809
  O  O206  1  0.566800  0.982800  0.405500  1.0  -0.5531
  O  O207  1  0.109000  0.630800  0.497300  1.0  -0.58
  O  O208  1  0.017200  0.584000  0.405500  1.0  -0.5509
  O  O209  1  0.369200  0.478200  0.497300  1.0  -0.5805
  O  O210  1  0.416000  0.433200  0.405500  1.0  -0.5506
