# generated using pymatgen
data_ErH3(C5O4)2
_symmetry_space_group_name_H-M   'P 1'
_cell_length_a   18.89910000
_cell_length_b   15.52290000
_cell_length_c   9.07020000
_cell_angle_alpha   90.00000000
_cell_angle_beta   90.00000000
_cell_angle_gamma   90.00000000
_symmetry_Int_Tables_number   1
_chemical_formula_structural   ErH3(C5O4)2
_chemical_formula_sum   'Er8 H24 C80 O64'
_cell_volume   2660.91404704
_cell_formula_units_Z   8
loop_
 _symmetry_equiv_pos_site_id
 _symmetry_equiv_pos_as_xyz
  1  'x, y, z'
loop_
 _atom_site_type_symbol
 _atom_site_label
 _atom_site_symmetry_multiplicity
 _atom_site_fract_x
 _atom_site_fract_y
 _atom_site_fract_z
 _atom_site_occupancy
 _atom_site_charge
  Er  Er1  1  0.165500  0.177740  0.204790  1.0  1.444
  Er  Er2  1  0.846930  0.152560  0.317140  1.0  1.4426
  Er  Er3  1  0.834500  0.822260  0.704790  1.0  1.441
  Er  Er4  1  0.153070  0.847440  0.817140  1.0  1.4402
  Er  Er5  1  0.665500  0.322260  0.204790  1.0  1.4428
  Er  Er6  1  0.346930  0.347440  0.317140  1.0  1.4422
  Er  Er7  1  0.334500  0.677740  0.704790  1.0  1.4422
  Er  Er8  1  0.653070  0.652560  0.817140  1.0  1.4399
  H  H9  1  0.795800  0.483300  0.003100  1.0  0.1555
  H  H10  1  0.974400  0.603500  0.886500  1.0  0.1567
  H  H11  1  0.983200  0.382000  0.112700  1.0  0.1553
  H  H12  1  0.077900  0.629100  0.975900  1.0  0.1605
  H  H13  1  0.268400  0.515300  0.009400  1.0  0.1568
  H  H14  1  0.092500  0.373800  0.030500  1.0  0.1622
  H  H15  1  0.204200  0.516700  0.503100  1.0  0.155
  H  H16  1  0.025600  0.396500  0.386500  1.0  0.1578
  H  H17  1  0.016800  0.618000  0.612700  1.0  0.1555
  H  H18  1  0.922100  0.370900  0.475900  1.0  0.1605
  H  H19  1  0.731600  0.484700  0.509400  1.0  0.1526
  H  H20  1  0.907500  0.626200  0.530500  1.0  0.1617
  H  H21  1  0.295800  0.016700  0.003100  1.0  0.1554
  H  H22  1  0.474400  0.896500  0.886500  1.0  0.1574
  H  H23  1  0.483200  0.118000  0.112700  1.0  0.1549
  H  H24  1  0.577900  0.870900  0.975900  1.0  0.1609
  H  H25  1  0.768400  0.984700  0.009400  1.0  0.1559
  H  H26  1  0.592500  0.126200  0.030500  1.0  0.1622
  H  H27  1  0.704200  0.983300  0.503100  1.0  0.155
  H  H28  1  0.525600  0.103500  0.386500  1.0  0.1574
  H  H29  1  0.516800  0.882000  0.612700  1.0  0.1555
  H  H30  1  0.422100  0.129100  0.475900  1.0  0.1606
  H  H31  1  0.231600  0.015300  0.509400  1.0  0.1542
  H  H32  1  0.407500  0.873800  0.530500  1.0  0.1618
  C  C33  1  0.013800  0.155600  0.356600  1.0  0.6358
  C  C34  1  0.000000  0.153700  0.187100  1.0  0.669
  C  C35  1  0.843300  0.013100  0.577700  1.0  0.6032
  C  C36  1  0.845300  0.958600  0.433600  1.0  0.6521
  C  C37  1  0.845900  0.348000  0.145000  1.0  0.7459
  C  C38  1  0.884100  0.420400  0.067300  1.0  -0.0917
  C  C39  1  0.845000  0.485700  0.000600  1.0  0.0577
  C  C40  1  0.878000  0.554200  0.930400  1.0  -0.0983
  C  C41  1  0.951700  0.557400  0.931800  1.0  -0.0306
  C  C42  1  0.993000  0.493300  0.999700  1.0  0.0823
  C  C43  1  0.957200  0.425300  0.066900  1.0  -0.0131
  C  C44  1  0.836600  0.626500  0.863500  1.0  0.7437
  C  C45  1  0.071200  0.499900  0.003500  1.0  0.0406
  C  C46  1  0.104900  0.579600  0.988500  1.0  -0.0202
  C  C47  1  0.178900  0.585800  0.992100  1.0  -0.1033
  C  C48  1  0.219300  0.511700  0.010100  1.0  0.0442
  C  C49  1  0.187400  0.433900  0.028700  1.0  -0.0977
  C  C50  1  0.113600  0.427600  0.022200  1.0  -0.028
  C  C51  1  0.230700  0.354000  0.057000  1.0  0.7879
  C  C52  1  0.214100  0.669400  0.962000  1.0  0.7787
  C  C53  1  0.986200  0.844400  0.856600  1.0  0.6363
  C  C54  1  0.000000  0.846300  0.687100  1.0  0.6694
  C  C55  1  0.156700  0.986900  0.077700  1.0  0.6045
  C  C56  1  0.154700  0.041400  0.933600  1.0  0.6525
  C  C57  1  0.154100  0.652000  0.645000  1.0  0.7479
  C  C58  1  0.115900  0.579600  0.567300  1.0  -0.0909
  C  C59  1  0.155000  0.514300  0.500600  1.0  0.0599
  C  C60  1  0.122000  0.445800  0.430400  1.0  -0.0978
  C  C61  1  0.048300  0.442600  0.431800  1.0  -0.0303
  C  C62  1  0.007000  0.506700  0.499700  1.0  0.0824
  C  C63  1  0.042800  0.574700  0.566900  1.0  -0.0144
  C  C64  1  0.163400  0.373500  0.363500  1.0  0.7559
  C  C65  1  0.928800  0.500100  0.503500  1.0  0.0403
  C  C66  1  0.895100  0.420400  0.488500  1.0  -0.0196
  C  C67  1  0.821100  0.414200  0.492100  1.0  -0.1029
  C  C68  1  0.780700  0.488300  0.510100  1.0  0.0442
  C  C69  1  0.812600  0.566100  0.528700  1.0  -0.0976
  C  C70  1  0.886400  0.572400  0.522200  1.0  -0.0291
  C  C71  1  0.769300  0.646000  0.557000  1.0  0.7906
  C  C72  1  0.785900  0.330600  0.462000  1.0  0.777
  C  C73  1  0.513800  0.344400  0.356600  1.0  0.6365
  C  C74  1  0.500000  0.346300  0.187100  1.0  0.6701
  C  C75  1  0.343300  0.486900  0.577700  1.0  0.5971
  C  C76  1  0.345300  0.541400  0.433600  1.0  0.652
  C  C77  1  0.345900  0.152000  0.145000  1.0  0.7471
  C  C78  1  0.384100  0.079600  0.067300  1.0  -0.0908
  C  C79  1  0.345000  0.014300  0.000600  1.0  0.0577
  C  C80  1  0.378000  0.945800  0.930400  1.0  -0.0985
  C  C81  1  0.451700  0.942600  0.931800  1.0  -0.0294
  C  C82  1  0.493000  0.006700  0.999700  1.0  0.0822
  C  C83  1  0.457200  0.074700  0.066900  1.0  -0.0144
  C  C84  1  0.336600  0.873500  0.863500  1.0  0.7568
  C  C85  1  0.571200  0.000100  0.003500  1.0  0.0407
  C  C86  1  0.604900  0.920400  0.988500  1.0  -0.0189
  C  C87  1  0.678900  0.914200  0.992100  1.0  -0.103
  C  C88  1  0.719300  0.988300  0.010100  1.0  0.0443
  C  C89  1  0.687400  0.066100  0.028700  1.0  -0.0973
  C  C90  1  0.613600  0.072400  0.022200  1.0  -0.0297
  C  C91  1  0.730700  0.146000  0.057000  1.0  0.7736
  C  C92  1  0.714100  0.830600  0.962000  1.0  0.7789
  C  C93  1  0.486200  0.655600  0.856600  1.0  0.6355
  C  C94  1  0.500000  0.653700  0.687100  1.0  0.6681
  C  C95  1  0.656700  0.513100  0.077700  1.0  0.6043
  C  C96  1  0.654700  0.458600  0.933600  1.0  0.6521
  C  C97  1  0.654100  0.848000  0.645000  1.0  0.7594
  C  C98  1  0.615900  0.920400  0.567300  1.0  -0.0914
  C  C99  1  0.655000  0.985700  0.500600  1.0  0.06
  C  C100  1  0.622000  0.054200  0.430400  1.0  -0.0992
  C  C101  1  0.548300  0.057400  0.431800  1.0  -0.0316
  C  C102  1  0.507000  0.993300  0.499700  1.0  0.0825
  C  C103  1  0.542800  0.925300  0.566900  1.0  -0.0127
  C  C104  1  0.663400  0.126500  0.363500  1.0  0.7427
  C  C105  1  0.428800  0.999900  0.503500  1.0  0.0403
  C  C106  1  0.395100  0.079600  0.488500  1.0  -0.0197
  C  C107  1  0.321100  0.085800  0.492100  1.0  -0.1034
  C  C108  1  0.280700  0.011700  0.510100  1.0  0.0442
  C  C109  1  0.312600  0.933900  0.528700  1.0  -0.0984
  C  C110  1  0.386400  0.927600  0.522200  1.0  -0.0274
  C  C111  1  0.269300  0.854000  0.557000  1.0  0.7899
  C  C112  1  0.285900  0.169400  0.462000  1.0  0.7773
  O  O113  1  0.077000  0.149700  0.395300  1.0  -0.5275
  O  O114  1  0.050000  0.177800  0.106900  1.0  -0.5324
  O  O115  1  0.940500  0.127200  0.150200  1.0  -0.5459
  O  O116  1  0.959600  0.162400  0.434600  1.0  -0.5388
  O  O117  1  0.840700  0.092600  0.562800  1.0  -0.5273
  O  O118  1  0.843580  0.972200  0.698700  1.0  -0.5547
  O  O119  1  0.855000  0.000700  0.317700  1.0  -0.5484
  O  O120  1  0.838800  0.879900  0.447200  1.0  -0.5113
  O  O121  1  0.881700  0.285900  0.194900  1.0  -0.6185
  O  O122  1  0.780100  0.356400  0.157400  1.0  -0.6086
  O  O123  1  0.771200  0.620500  0.859600  1.0  -0.608
  O  O124  1  0.871700  0.690800  0.816100  1.0  -0.6098
  O  O125  1  0.176800  0.736500  0.972100  1.0  -0.6064
  O  O126  1  0.279000  0.669700  0.931100  1.0  -0.6187
  O  O127  1  0.294300  0.364200  0.088200  1.0  -0.6393
  O  O128  1  0.198200  0.284000  0.051800  1.0  -0.6005
  O  O129  1  0.923000  0.850300  0.895300  1.0  -0.5264
  O  O130  1  0.950000  0.822200  0.606900  1.0  -0.5336
  O  O131  1  0.059500  0.872800  0.650200  1.0  -0.5427
  O  O132  1  0.040400  0.837600  0.934600  1.0  -0.5388
  O  O133  1  0.159300  0.907400  0.062800  1.0  -0.5285
  O  O134  1  0.156420  0.027800  0.198700  1.0  -0.555
  O  O135  1  0.145000  0.999300  0.817700  1.0  -0.5487
  O  O136  1  0.161200  0.120100  0.947200  1.0  -0.5119
  O  O137  1  0.118300  0.714100  0.694900  1.0  -0.6154
  O  O138  1  0.219900  0.643600  0.657400  1.0  -0.6078
  O  O139  1  0.228800  0.379500  0.359600  1.0  -0.6081
  O  O140  1  0.128300  0.309200  0.316100  1.0  -0.6098
  O  O141  1  0.823200  0.263500  0.472100  1.0  -0.6057
  O  O142  1  0.721000  0.330300  0.431100  1.0  -0.6187
  O  O143  1  0.705700  0.635800  0.588200  1.0  -0.6408
  O  O144  1  0.801800  0.716000  0.551800  1.0  -0.5998
  O  O145  1  0.577000  0.350300  0.395300  1.0  -0.5274
  O  O146  1  0.550000  0.322200  0.106900  1.0  -0.5326
  O  O147  1  0.440500  0.372800  0.150200  1.0  -0.5451
  O  O148  1  0.459600  0.337600  0.434600  1.0  -0.5382
  O  O149  1  0.340700  0.407400  0.562800  1.0  -0.5299
  O  O150  1  0.343580  0.527800  0.698700  1.0  -0.5541
  O  O151  1  0.355000  0.499300  0.317700  1.0  -0.5487
  O  O152  1  0.338800  0.620100  0.447200  1.0  -0.5093
  O  O153  1  0.381700  0.214100  0.194900  1.0  -0.6174
  O  O154  1  0.280100  0.143600  0.157400  1.0  -0.6076
  O  O155  1  0.271200  0.879500  0.859600  1.0  -0.6084
  O  O156  1  0.371700  0.809200  0.816100  1.0  -0.6095
  O  O157  1  0.676800  0.763500  0.972100  1.0  -0.6053
  O  O158  1  0.779000  0.830300  0.931100  1.0  -0.619
  O  O159  1  0.794300  0.135800  0.088200  1.0  -0.6431
  O  O160  1  0.698200  0.216000  0.051800  1.0  -0.6003
  O  O161  1  0.423000  0.649700  0.895300  1.0  -0.527
  O  O162  1  0.450000  0.677800  0.606900  1.0  -0.5336
  O  O163  1  0.559500  0.627200  0.650200  1.0  -0.5433
  O  O164  1  0.540400  0.662400  0.934600  1.0  -0.5394
  O  O165  1  0.659300  0.592600  0.062800  1.0  -0.5277
  O  O166  1  0.656420  0.472200  0.198700  1.0  -0.5559
  O  O167  1  0.645000  0.500700  0.817700  1.0  -0.548
  O  O168  1  0.661200  0.379900  0.947200  1.0  -0.5134
  O  O169  1  0.618300  0.785900  0.694900  1.0  -0.6162
  O  O170  1  0.719900  0.856400  0.657400  1.0  -0.6072
  O  O171  1  0.728800  0.120500  0.359600  1.0  -0.6078
  O  O172  1  0.628300  0.190800  0.316100  1.0  -0.6102
  O  O173  1  0.323200  0.236500  0.472100  1.0  -0.6074
  O  O174  1  0.221000  0.169700  0.431100  1.0  -0.6184
  O  O175  1  0.205700  0.864200  0.588200  1.0  -0.6407
  O  O176  1  0.301800  0.784000  0.551800  1.0  -0.5997
