# generated using pymatgen
data_SmH3(C5O4)2
_symmetry_space_group_name_H-M   'P 1'
_cell_length_a   19.11600000
_cell_length_b   15.71400000
_cell_length_c   9.06900000
_cell_angle_alpha   90.00000000
_cell_angle_beta   90.00000000
_cell_angle_gamma   90.00000000
_symmetry_Int_Tables_number   1
_chemical_formula_structural   SmH3(C5O4)2
_chemical_formula_sum   'Sm8 H24 C80 O64'
_cell_volume   2724.22624486
_cell_formula_units_Z   8
loop_
 _symmetry_equiv_pos_site_id
 _symmetry_equiv_pos_as_xyz
  1  'x, y, z'
loop_
 _atom_site_type_symbol
 _atom_site_label
 _atom_site_symmetry_multiplicity
 _atom_site_fract_x
 _atom_site_fract_y
 _atom_site_fract_z
 _atom_site_occupancy
 _atom_site_charge
  Sm  Sm1  1  0.167060  0.179400  0.206440  1.0  2.2908
  Sm  Sm2  1  0.846200  0.152860  0.315650  1.0  2.2963
  Sm  Sm3  1  0.832940  0.820600  0.706440  1.0  2.2871
  Sm  Sm4  1  0.153800  0.847140  0.815650  1.0  2.298
  Sm  Sm5  1  0.667060  0.320600  0.206440  1.0  2.2946
  Sm  Sm6  1  0.346200  0.347140  0.315650  1.0  2.2965
  Sm  Sm7  1  0.332940  0.679400  0.706440  1.0  2.2888
  Sm  Sm8  1  0.653800  0.652860  0.815650  1.0  2.3013
  H  H9  1  0.798900  0.480300  0.003700  1.0  0.1226
  H  H10  1  0.974400  0.601900  0.888700  1.0  0.1224
  H  H11  1  0.984000  0.382500  0.111000  1.0  0.1205
  H  H12  1  0.077100  0.627600  0.981500  1.0  0.1294
  H  H13  1  0.266000  0.517600  0.011800  1.0  0.1277
  H  H14  1  0.092000  0.375800  0.029400  1.0  0.1282
  H  H15  1  0.201100  0.519700  0.503700  1.0  0.1221
  H  H16  1  0.025600  0.398100  0.388700  1.0  0.1229
  H  H17  1  0.016000  0.617500  0.611000  1.0  0.1207
  H  H18  1  0.922900  0.372400  0.481500  1.0  0.1288
  H  H19  1  0.734000  0.482400  0.511800  1.0  0.1261
  H  H20  1  0.908000  0.624200  0.529400  1.0  0.1283
  H  H21  1  0.298900  0.019700  0.003700  1.0  0.1227
  H  H22  1  0.474400  0.898100  0.888700  1.0  0.1227
  H  H23  1  0.484000  0.117500  0.111000  1.0  0.1203
  H  H24  1  0.577100  0.872400  0.981500  1.0  0.129
  H  H25  1  0.766000  0.982400  0.011800  1.0  0.1273
  H  H26  1  0.592000  0.124200  0.029400  1.0  0.1284
  H  H27  1  0.701100  0.980300  0.503700  1.0  0.1221
  H  H28  1  0.525600  0.101900  0.388700  1.0  0.1228
  H  H29  1  0.516000  0.882500  0.611000  1.0  0.1208
  H  H30  1  0.422900  0.127600  0.481500  1.0  0.1294
  H  H31  1  0.234000  0.017600  0.511800  1.0  0.126
  H  H32  1  0.408000  0.875800  0.529400  1.0  0.128
  C  C33  1  0.014100  0.154200  0.356200  1.0  0.6244
  C  C34  1  0.000000  0.152200  0.185900  1.0  0.6533
  C  C35  1  0.841900  0.011900  0.577400  1.0  0.609
  C  C36  1  0.844000  0.958600  0.434100  1.0  0.6373
  C  C37  1  0.849500  0.347400  0.144700  1.0  0.7483
  C  C38  1  0.886700  0.421100  0.069000  1.0  -0.1353
  C  C39  1  0.847400  0.483900  0.002600  1.0  0.0234
  C  C40  1  0.879600  0.552400  0.934100  1.0  -0.1235
  C  C41  1  0.952500  0.556200  0.934600  1.0  -0.0657
  C  C42  1  0.993800  0.493800  0.001800  1.0  0.0224
  C  C43  1  0.958200  0.425900  0.067300  1.0  -0.0565
  C  C44  1  0.838300  0.624000  0.864900  1.0  0.7096
  C  C45  1  0.070700  0.500200  0.004800  1.0  0.0228
  C  C46  1  0.104100  0.578700  0.991200  1.0  -0.0385
  C  C47  1  0.176600  0.585600  0.991800  1.0  -0.1393
  C  C48  1  0.217500  0.513500  0.010100  1.0  0.0352
  C  C49  1  0.184900  0.434900  0.025900  1.0  -0.1197
  C  C50  1  0.112900  0.429100  0.021200  1.0  -0.0524
  C  C51  1  0.228500  0.357600  0.052600  1.0  0.7447
  C  C52  1  0.211900  0.668900  0.967700  1.0  0.7736
  C  C53  1  0.985900  0.845800  0.856200  1.0  0.6247
  C  C54  1  0.000000  0.847800  0.685900  1.0  0.6529
  C  C55  1  0.158100  0.988100  0.077400  1.0  0.6097
  C  C56  1  0.156000  0.041400  0.934100  1.0  0.6396
  C  C57  1  0.150500  0.652600  0.644700  1.0  0.7506
  C  C58  1  0.113300  0.578900  0.569000  1.0  -0.1376
  C  C59  1  0.152600  0.516100  0.502600  1.0  0.0255
  C  C60  1  0.120400  0.447600  0.434100  1.0  -0.1242
  C  C61  1  0.047500  0.443800  0.434600  1.0  -0.0649
  C  C62  1  0.006200  0.506200  0.501800  1.0  0.0229
  C  C63  1  0.041800  0.574100  0.567300  1.0  -0.0571
  C  C64  1  0.161700  0.376000  0.364900  1.0  0.7092
  C  C65  1  0.929300  0.499800  0.504800  1.0  0.0224
  C  C66  1  0.895900  0.421300  0.491200  1.0  -0.0365
  C  C67  1  0.823400  0.414400  0.491800  1.0  -0.1401
  C  C68  1  0.782500  0.486500  0.510100  1.0  0.0348
  C  C69  1  0.815100  0.565100  0.525900  1.0  -0.1218
  C  C70  1  0.887100  0.570900  0.521200  1.0  -0.0522
  C  C71  1  0.771500  0.642400  0.552600  1.0  0.7649
  C  C72  1  0.788100  0.331100  0.467700  1.0  0.7713
  C  C73  1  0.514100  0.345800  0.356200  1.0  0.625
  C  C74  1  0.500000  0.347800  0.185900  1.0  0.6538
  C  C75  1  0.341900  0.488100  0.577400  1.0  0.6097
  C  C76  1  0.344000  0.541400  0.434100  1.0  0.6385
  C  C77  1  0.349500  0.152600  0.144700  1.0  0.7501
  C  C78  1  0.386700  0.078900  0.069000  1.0  -0.1354
  C  C79  1  0.347400  0.016100  0.002600  1.0  0.0233
  C  C80  1  0.379600  0.947600  0.934100  1.0  -0.1242
  C  C81  1  0.452500  0.943800  0.934600  1.0  -0.0652
  C  C82  1  0.493800  0.006200  0.001800  1.0  0.0224
  C  C83  1  0.458200  0.074100  0.067300  1.0  -0.0568
  C  C84  1  0.338300  0.876000  0.864900  1.0  0.7098
  C  C85  1  0.570700  0.999800  0.004800  1.0  0.0228
  C  C86  1  0.604100  0.921300  0.991200  1.0  -0.0366
  C  C87  1  0.676600  0.914400  0.991800  1.0  -0.1401
  C  C88  1  0.717500  0.986500  0.010100  1.0  0.0354
  C  C89  1  0.684900  0.065100  0.025900  1.0  -0.1187
  C  C90  1  0.612900  0.070900  0.021200  1.0  -0.0529
  C  C91  1  0.728500  0.142400  0.052600  1.0  0.7461
  C  C92  1  0.711900  0.831100  0.967700  1.0  0.7733
  C  C93  1  0.485900  0.654200  0.856200  1.0  0.6241
  C  C94  1  0.500000  0.652200  0.685900  1.0  0.652
  C  C95  1  0.658100  0.511900  0.077400  1.0  0.6095
  C  C96  1  0.656000  0.458600  0.934100  1.0  0.6382
  C  C97  1  0.650500  0.847400  0.644700  1.0  0.7488
  C  C98  1  0.613300  0.921100  0.569000  1.0  -0.1369
  C  C99  1  0.652600  0.983900  0.502600  1.0  0.0255
  C  C100  1  0.620400  0.052400  0.434100  1.0  -0.1237
  C  C101  1  0.547500  0.056200  0.434600  1.0  -0.0655
  C  C102  1  0.506200  0.993800  0.501800  1.0  0.0229
  C  C103  1  0.541800  0.925900  0.567300  1.0  -0.0563
  C  C104  1  0.661700  0.124000  0.364900  1.0  0.7089
  C  C105  1  0.429300  0.000200  0.504800  1.0  0.0224
  C  C106  1  0.395900  0.078700  0.491200  1.0  -0.0378
  C  C107  1  0.323400  0.085600  0.491800  1.0  -0.1394
  C  C108  1  0.282500  0.013500  0.510100  1.0  0.0351
  C  C109  1  0.315100  0.934900  0.525900  1.0  -0.1228
  C  C110  1  0.387100  0.929100  0.521200  1.0  -0.0514
  C  C111  1  0.271500  0.857600  0.552600  1.0  0.7629
  C  C112  1  0.288100  0.168900  0.467700  1.0  0.7725
  O  O113  1  0.076800  0.149900  0.395100  1.0  -0.5721
  O  O114  1  0.049100  0.176700  0.105600  1.0  -0.5821
  O  O115  1  0.941600  0.125400  0.148900  1.0  -0.5812
  O  O116  1  0.961100  0.160000  0.436100  1.0  -0.5915
  O  O117  1  0.840700  0.090600  0.563600  1.0  -0.5932
  O  O118  1  0.841700  0.972800  0.698200  1.0  -0.6051
  O  O119  1  0.853800  0.998400  0.319000  1.0  -0.5798
  O  O120  1  0.836200  0.880900  0.448400  1.0  -0.5675
  O  O121  1  0.885600  0.286500  0.190300  1.0  -0.6761
  O  O122  1  0.784400  0.352700  0.157300  1.0  -0.6963
  O  O123  1  0.773500  0.617500  0.860500  1.0  -0.6961
  O  O124  1  0.872700  0.688000  0.820300  1.0  -0.6617
  O  O125  1  0.175200  0.734500  0.978000  1.0  -0.6894
  O  O126  1  0.276400  0.669100  0.938300  1.0  -0.6989
  O  O127  1  0.292700  0.366400  0.079800  1.0  -0.7239
  O  O128  1  0.197700  0.287500  0.046800  1.0  -0.7053
  O  O129  1  0.923200  0.850100  0.895100  1.0  -0.5703
  O  O130  1  0.950900  0.823300  0.605600  1.0  -0.5828
  O  O131  1  0.058400  0.874600  0.648900  1.0  -0.5812
  O  O132  1  0.038900  0.840000  0.936100  1.0  -0.5928
  O  O133  1  0.159300  0.909400  0.063600  1.0  -0.5955
  O  O134  1  0.158300  0.027200  0.198200  1.0  -0.6046
  O  O135  1  0.146200  0.001600  0.819000  1.0  -0.5801
  O  O136  1  0.163800  0.119100  0.948400  1.0  -0.5676
  O  O137  1  0.114400  0.713500  0.690300  1.0  -0.6768
  O  O138  1  0.215600  0.647300  0.657300  1.0  -0.6964
  O  O139  1  0.226500  0.382500  0.360500  1.0  -0.6956
  O  O140  1  0.127300  0.312000  0.320300  1.0  -0.6614
  O  O141  1  0.824800  0.265500  0.478000  1.0  -0.6894
  O  O142  1  0.723600  0.330900  0.438300  1.0  -0.699
  O  O143  1  0.707300  0.633600  0.579800  1.0  -0.725
  O  O144  1  0.802300  0.712500  0.546800  1.0  -0.7059
  O  O145  1  0.576800  0.350100  0.395100  1.0  -0.5729
  O  O146  1  0.549100  0.323300  0.105600  1.0  -0.5822
  O  O147  1  0.441600  0.374600  0.148900  1.0  -0.5804
  O  O148  1  0.461100  0.340000  0.436100  1.0  -0.5913
  O  O149  1  0.340700  0.409400  0.563600  1.0  -0.5954
  O  O150  1  0.341700  0.527200  0.698200  1.0  -0.6041
  O  O151  1  0.353800  0.501600  0.319000  1.0  -0.5803
  O  O152  1  0.336200  0.619100  0.448400  1.0  -0.5668
  O  O153  1  0.385600  0.213500  0.190300  1.0  -0.677
  O  O154  1  0.284400  0.147300  0.157300  1.0  -0.6961
  O  O155  1  0.273500  0.882500  0.860500  1.0  -0.6958
  O  O156  1  0.372700  0.812000  0.820300  1.0  -0.6613
  O  O157  1  0.675200  0.765500  0.978000  1.0  -0.6892
  O  O158  1  0.776400  0.830900  0.938300  1.0  -0.6986
  O  O159  1  0.792700  0.133600  0.079800  1.0  -0.7243
  O  O160  1  0.697700  0.212500  0.046800  1.0  -0.7042
  O  O161  1  0.423200  0.649900  0.895100  1.0  -0.5703
  O  O162  1  0.450900  0.676700  0.605600  1.0  -0.5829
  O  O163  1  0.558400  0.625400  0.648900  1.0  -0.5817
  O  O164  1  0.538900  0.660000  0.936100  1.0  -0.5928
  O  O165  1  0.659300  0.590600  0.063600  1.0  -0.5942
  O  O166  1  0.658300  0.472800  0.198200  1.0  -0.6062
  O  O167  1  0.646200  0.498400  0.819000  1.0  -0.5794
  O  O168  1  0.663800  0.380900  0.948400  1.0  -0.5684
  O  O169  1  0.614400  0.786500  0.690300  1.0  -0.6761
  O  O170  1  0.715600  0.852700  0.657300  1.0  -0.6966
  O  O171  1  0.726500  0.117500  0.360500  1.0  -0.6958
  O  O172  1  0.627300  0.188000  0.320300  1.0  -0.6618
  O  O173  1  0.324800  0.234500  0.478000  1.0  -0.6896
  O  O174  1  0.223600  0.169100  0.438300  1.0  -0.6983
  O  O175  1  0.207300  0.866400  0.579800  1.0  -0.7246
  O  O176  1  0.302300  0.787500  0.546800  1.0  -0.7062
