# generated using pymatgen
data_YbH3(C5O4)2
_symmetry_space_group_name_H-M   'P 1'
_cell_length_a   18.82500000
_cell_length_b   15.37300000
_cell_length_c   9.04700000
_cell_angle_alpha   90.00000000
_cell_angle_beta   90.00000000
_cell_angle_gamma   90.00000000
_symmetry_Int_Tables_number   1
_chemical_formula_structural   YbH3(C5O4)2
_chemical_formula_sum   'Yb8 H24 C80 O64'
_cell_volume   2618.17217108
_cell_formula_units_Z   8
loop_
 _symmetry_equiv_pos_site_id
 _symmetry_equiv_pos_as_xyz
  1  'x, y, z'
loop_
 _atom_site_type_symbol
 _atom_site_label
 _atom_site_symmetry_multiplicity
 _atom_site_fract_x
 _atom_site_fract_y
 _atom_site_fract_z
 _atom_site_occupancy
 _atom_site_charge
  Yb  Yb1  1  0.834640  0.822240  0.795650  1.0  1.3732
  Yb  Yb2  1  0.152710  0.847720  0.682510  1.0  1.3758
  Yb  Yb3  1  0.165360  0.177760  0.295650  1.0  1.3778
  Yb  Yb4  1  0.847290  0.152280  0.182510  1.0  1.375
  Yb  Yb5  1  0.334640  0.677760  0.795650  1.0  1.3728
  Yb  Yb6  1  0.652710  0.652280  0.682510  1.0  1.3761
  Yb  Yb7  1  0.665360  0.322240  0.295650  1.0  1.3763
  Yb  Yb8  1  0.347290  0.347720  0.182510  1.0  1.3717
  H  H9  1  0.204300  0.517100  0.997600  1.0  0.1437
  H  H10  1  0.026100  0.397100  0.118100  1.0  0.1577
  H  H11  1  0.017000  0.620100  0.890800  1.0  0.1588
  H  H12  1  0.922100  0.370700  0.023000  1.0  0.1608
  H  H13  1  0.731000  0.483500  0.992900  1.0  0.1562
  H  H14  1  0.906500  0.627600  0.971300  1.0  0.1614
  H  H15  1  0.795700  0.482900  0.497600  1.0  0.1443
  H  H16  1  0.973900  0.602900  0.618100  1.0  0.1573
  H  H17  1  0.983000  0.379900  0.390800  1.0  0.1588
  H  H18  1  0.077900  0.629300  0.523000  1.0  0.1618
  H  H19  1  0.269000  0.516500  0.492900  1.0  0.1575
  H  H20  1  0.093500  0.372400  0.471300  1.0  0.1615
  H  H21  1  0.704300  0.982900  0.997600  1.0  0.1439
  H  H22  1  0.526100  0.102900  0.118100  1.0  0.1575
  H  H23  1  0.517000  0.879900  0.890800  1.0  0.1592
  H  H24  1  0.422100  0.129300  0.023000  1.0  0.1618
  H  H25  1  0.231000  0.016500  0.992900  1.0  0.156
  H  H26  1  0.406500  0.872400  0.971300  1.0  0.1613
  H  H27  1  0.295700  0.017100  0.497600  1.0  0.1441
  H  H28  1  0.473900  0.897100  0.618100  1.0  0.1575
  H  H29  1  0.483000  0.120100  0.390800  1.0  0.1581
  H  H30  1  0.577900  0.870700  0.523000  1.0  0.1613
  H  H31  1  0.769000  0.983500  0.492900  1.0  0.1576
  H  H32  1  0.593500  0.127600  0.471300  1.0  0.1615
  C  C33  1  0.986400  0.844300  0.646100  1.0  0.6595
  C  C34  1  0.000600  0.844900  0.812100  1.0  0.6565
  C  C35  1  0.156600  0.987500  0.422100  1.0  0.6232
  C  C36  1  0.153800  0.041400  0.565600  1.0  0.637
  C  C37  1  0.155000  0.652500  0.854300  1.0  0.7473
  C  C38  1  0.117200  0.578900  0.933600  1.0  -0.1067
  C  C39  1  0.154900  0.515000  0.000200  1.0  0.0672
  C  C40  1  0.122300  0.446900  0.071600  1.0  -0.1057
  C  C41  1  0.048600  0.443200  0.070900  1.0  -0.027
  C  C42  1  0.007600  0.506300  0.001600  1.0  0.0834
  C  C43  1  0.043000  0.575600  0.934800  1.0  -0.0164
  C  C44  1  0.164300  0.372700  0.138600  1.0  0.7542
  C  C45  1  0.928600  0.499600  0.998900  1.0  0.0936
  C  C46  1  0.894800  0.420700  0.011200  1.0  -0.0146
  C  C47  1  0.820300  0.412900  0.006400  1.0  -0.1128
  C  C48  1  0.780300  0.487300  0.991200  1.0  -0.0003
  C  C49  1  0.812000  0.566500  0.973700  1.0  -0.0987
  C  C50  1  0.885400  0.573200  0.979900  1.0  -0.0319
  C  C51  1  0.769200  0.646700  0.940200  1.0  0.7826
  C  C52  1  0.786500  0.329600  0.036700  1.0  0.795
  C  C53  1  0.013600  0.155700  0.146100  1.0  0.659
  C  C54  1  0.999400  0.155100  0.312100  1.0  0.6564
  C  C55  1  0.843400  0.012500  0.922100  1.0  0.6238
  C  C56  1  0.846200  0.958600  0.065600  1.0  0.6381
  C  C57  1  0.845000  0.347500  0.354300  1.0  0.7472
  C  C58  1  0.882800  0.421100  0.433600  1.0  -0.1079
  C  C59  1  0.845100  0.485000  0.500200  1.0  0.0625
  C  C60  1  0.877700  0.553100  0.571600  1.0  -0.1045
  C  C61  1  0.951400  0.556800  0.570900  1.0  -0.0278
  C  C62  1  0.992400  0.493700  0.501600  1.0  0.0828
  C  C63  1  0.957000  0.424400  0.434800  1.0  -0.016
  C  C64  1  0.835700  0.627300  0.638600  1.0  0.7545
  C  C65  1  0.071400  0.500400  0.498900  1.0  0.0935
  C  C66  1  0.105200  0.579300  0.511200  1.0  -0.0166
  C  C67  1  0.179700  0.587100  0.506400  1.0  -0.1098
  C  C68  1  0.219700  0.512700  0.491200  1.0  -0.0003
  C  C69  1  0.188000  0.433500  0.473700  1.0  -0.0985
  C  C70  1  0.114600  0.426800  0.479900  1.0  -0.0316
  C  C71  1  0.230800  0.353300  0.440200  1.0  0.7853
  C  C72  1  0.213500  0.670400  0.536700  1.0  0.7943
  C  C73  1  0.486400  0.655700  0.646100  1.0  0.659
  C  C74  1  0.500600  0.655100  0.812100  1.0  0.656
  C  C75  1  0.656600  0.512500  0.422100  1.0  0.6252
  C  C76  1  0.653800  0.458600  0.565600  1.0  0.6377
  C  C77  1  0.655000  0.847500  0.854300  1.0  0.7472
  C  C78  1  0.617200  0.921100  0.933600  1.0  -0.1081
  C  C79  1  0.654900  0.985000  0.000200  1.0  0.0673
  C  C80  1  0.622300  0.053100  0.071600  1.0  -0.1054
  C  C81  1  0.548600  0.056800  0.070900  1.0  -0.0277
  C  C82  1  0.507600  0.993700  0.001600  1.0  0.0834
  C  C83  1  0.543000  0.924400  0.934800  1.0  -0.0152
  C  C84  1  0.664300  0.127300  0.138600  1.0  0.7548
  C  C85  1  0.428600  0.000400  0.998900  1.0  0.0935
  C  C86  1  0.394800  0.079300  0.011200  1.0  -0.0164
  C  C87  1  0.320300  0.087100  0.006400  1.0  -0.1111
  C  C88  1  0.280300  0.012700  0.991200  1.0  -0.0004
  C  C89  1  0.312000  0.933500  0.973700  1.0  -0.0987
  C  C90  1  0.385400  0.926800  0.979900  1.0  -0.0312
  C  C91  1  0.269200  0.853300  0.940200  1.0  0.7829
  C  C92  1  0.286500  0.170400  0.036700  1.0  0.7955
  C  C93  1  0.513600  0.344300  0.146100  1.0  0.6593
  C  C94  1  0.499400  0.344900  0.312100  1.0  0.6568
  C  C95  1  0.343400  0.487500  0.922100  1.0  0.6226
  C  C96  1  0.346200  0.541400  0.065600  1.0  0.6371
  C  C97  1  0.345000  0.152500  0.354300  1.0  0.7471
  C  C98  1  0.382800  0.078900  0.433600  1.0  -0.1064
  C  C99  1  0.345100  0.015000  0.500200  1.0  0.0624
  C  C100  1  0.377700  0.946900  0.571600  1.0  -0.1051
  C  C101  1  0.451400  0.943200  0.570900  1.0  -0.027
  C  C102  1  0.492400  0.006300  0.501600  1.0  0.0827
  C  C103  1  0.457000  0.075600  0.434800  1.0  -0.0167
  C  C104  1  0.335700  0.872700  0.638600  1.0  0.7541
  C  C105  1  0.571400  0.999600  0.498900  1.0  0.0936
  C  C106  1  0.605200  0.920700  0.511200  1.0  -0.0146
  C  C107  1  0.679700  0.912900  0.506400  1.0  -0.1113
  C  C108  1  0.719700  0.987300  0.491200  1.0  -1e-04
  C  C109  1  0.688000  0.066500  0.473700  1.0  -0.0991
  C  C110  1  0.614600  0.073200  0.479900  1.0  -0.0325
  C  C111  1  0.730800  0.146700  0.440200  1.0  0.7848
  C  C112  1  0.713500  0.829600  0.536700  1.0  0.7938
  O  O113  1  0.922500  0.850800  0.603600  1.0  -0.5559
  O  O114  1  0.949600  0.821500  0.894500  1.0  -0.5577
  O  O115  1  0.060500  0.871500  0.850500  1.0  -0.5403
  O  O116  1  0.040800  0.837200  0.564200  1.0  -0.5529
  O  O117  1  0.158600  0.907000  0.437300  1.0  -0.5113
  O  O118  1  0.156000  0.028700  0.302200  1.0  -0.5392
  O  O119  1  0.145200  0.999100  0.684600  1.0  -0.5453
  O  O120  1  0.161300  0.121200  0.554300  1.0  -0.5106
  O  O121  1  0.119400  0.714400  0.805500  1.0  -0.5949
  O  O122  1  0.221500  0.644200  0.844100  1.0  -0.5867
  O  O123  1  0.230000  0.379800  0.141700  1.0  -0.603
  O  O124  1  0.129100  0.308900  0.185200  1.0  -0.5934
  O  O125  1  0.821900  0.262400  0.029700  1.0  -0.567
  O  O126  1  0.720600  0.329900  0.071100  1.0  -0.611
  O  O127  1  0.705500  0.636300  0.908600  1.0  -0.6171
  O  O128  1  0.801200  0.716800  0.946300  1.0  -0.5868
  O  O129  1  0.077500  0.149200  0.103600  1.0  -0.5566
  O  O130  1  0.050400  0.178500  0.394500  1.0  -0.5577
  O  O131  1  0.939500  0.128500  0.350500  1.0  -0.5403
  O  O132  1  0.959200  0.162800  0.064200  1.0  -0.5523
  O  O133  1  0.841400  0.093000  0.937300  1.0  -0.5109
  O  O134  1  0.844000  0.971300  0.802200  1.0  -0.5391
  O  O135  1  0.854800  0.000900  0.184600  1.0  -0.5445
  O  O136  1  0.838700  0.878800  0.054300  1.0  -0.5128
  O  O137  1  0.880600  0.285600  0.305500  1.0  -0.5956
  O  O138  1  0.778500  0.355800  0.344100  1.0  -0.586
  O  O139  1  0.770000  0.620200  0.641700  1.0  -0.6032
  O  O140  1  0.870900  0.691100  0.685200  1.0  -0.5925
  O  O141  1  0.178100  0.737600  0.529700  1.0  -0.5688
  O  O142  1  0.279400  0.670100  0.571100  1.0  -0.6114
  O  O143  1  0.294500  0.363700  0.408600  1.0  -0.6171
  O  O144  1  0.198800  0.283200  0.446300  1.0  -0.5866
  O  O145  1  0.422500  0.649200  0.603600  1.0  -0.5556
  O  O146  1  0.449600  0.678500  0.894500  1.0  -0.5577
  O  O147  1  0.560500  0.628500  0.850500  1.0  -0.5404
  O  O148  1  0.540800  0.662800  0.564200  1.0  -0.5518
  O  O149  1  0.658600  0.593000  0.437300  1.0  -0.5104
  O  O150  1  0.656000  0.471300  0.302200  1.0  -0.5396
  O  O151  1  0.645200  0.500900  0.684600  1.0  -0.5466
  O  O152  1  0.661300  0.378800  0.554300  1.0  -0.5132
  O  O153  1  0.619400  0.785600  0.805500  1.0  -0.5957
  O  O154  1  0.721500  0.855800  0.844100  1.0  -0.5865
  O  O155  1  0.730000  0.120200  0.141700  1.0  -0.6028
  O  O156  1  0.629100  0.191100  0.185200  1.0  -0.5925
  O  O157  1  0.321900  0.237600  0.029700  1.0  -0.5673
  O  O158  1  0.220600  0.170100  0.071100  1.0  -0.6105
  O  O159  1  0.205500  0.863700  0.908600  1.0  -0.6173
  O  O160  1  0.301200  0.783200  0.946300  1.0  -0.5868
  O  O161  1  0.577500  0.350800  0.103600  1.0  -0.5561
  O  O162  1  0.550400  0.321500  0.394500  1.0  -0.558
  O  O163  1  0.439500  0.371500  0.350500  1.0  -0.5397
  O  O164  1  0.459200  0.337200  0.064200  1.0  -0.5528
  O  O165  1  0.341400  0.407000  0.937300  1.0  -0.5114
  O  O166  1  0.344000  0.528700  0.802200  1.0  -0.5388
  O  O167  1  0.354800  0.499100  0.184600  1.0  -0.5468
  O  O168  1  0.338700  0.621200  0.054300  1.0  -0.5101
  O  O169  1  0.380600  0.214400  0.305500  1.0  -0.5949
  O  O170  1  0.278500  0.144200  0.344100  1.0  -0.586
  O  O171  1  0.270000  0.879800  0.641700  1.0  -0.6035
  O  O172  1  0.370900  0.808900  0.685200  1.0  -0.5935
  O  O173  1  0.678100  0.762400  0.529700  1.0  -0.5685
  O  O174  1  0.779400  0.829900  0.571100  1.0  -0.6113
  O  O175  1  0.794500  0.136300  0.408600  1.0  -0.617
  O  O176  1  0.698800  0.216800  0.446300  1.0  -0.5862
