# generated using pymatgen
data_GdH11(C11O4)2
_symmetry_space_group_name_H-M   'P 1'
_cell_length_a   6.43550000
_cell_length_b   13.46200000
_cell_length_c   13.75300000
_cell_angle_alpha   61.53200000
_cell_angle_beta   82.43300000
_cell_angle_gamma   81.24400000
_symmetry_Int_Tables_number   1
_chemical_formula_structural   GdH11(C11O4)2
_chemical_formula_sum   'Gd2 H22 C44 O16'
_cell_volume   1032.80987266
_cell_formula_units_Z   2
loop_
 _symmetry_equiv_pos_site_id
 _symmetry_equiv_pos_as_xyz
  1  'x, y, z'
loop_
 _atom_site_type_symbol
 _atom_site_label
 _atom_site_symmetry_multiplicity
 _atom_site_fract_x
 _atom_site_fract_y
 _atom_site_fract_z
 _atom_site_occupancy
 _atom_site_charge
  Gd  Gd1  1  0.578500  0.450970  0.829290  1.0  2.2242
  Gd  Gd2  1  0.421500  0.549030  0.170710  1.0  2.2248
  H  H3  1  0.891200  0.385800  0.213200  1.0  0.4036
  H  H4  1  0.654200  0.843200  0.738600  1.0  0.11
  H  H5  1  0.092500  0.803900  0.996000  1.0  0.0998
  H  H6  1  0.147300  0.033500  0.604000  1.0  0.111
  H  H7  1  0.108100  0.192400  0.431900  1.0  0.1038
  H  H8  1  0.479800  0.209300  0.497400  1.0  0.103
  H  H9  1  0.521100  0.049400  0.666100  1.0  0.1007
  H  H10  1  0.886200  0.139600  0.756200  1.0  0.1057
  H  H11  1  0.071600  0.283400  0.735800  1.0  0.1068
  H  H12  1  0.543700  0.052000  0.896100  1.0  0.0938
  H  H13  1  0.362800  0.908900  0.910700  1.0  0.1071
  H  H14  1  0.108800  0.614200  0.786800  1.0  0.405
  H  H15  1  0.345800  0.156800  0.261400  1.0  0.1095
  H  H16  1  0.907500  0.196100  0.004000  1.0  0.0999
  H  H17  1  0.852700  0.966500  0.396000  1.0  0.1101
  H  H18  1  0.891900  0.807600  0.568100  1.0  0.1034
  H  H19  1  0.520200  0.790700  0.502600  1.0  0.1034
  H  H20  1  0.478900  0.950600  0.333900  1.0  0.1014
  H  H21  1  0.113800  0.860400  0.243800  1.0  0.1059
  H  H22  1  0.928400  0.716600  0.264200  1.0  0.1074
  H  H23  1  0.456300  0.948000  0.103900  1.0  0.0934
  H  H24  1  0.637200  0.091100  0.089300  1.0  0.107
  C  C25  1  0.601200  0.650800  0.909500  1.0  0.7421
  C  C26  1  0.919900  0.615700  0.073500  1.0  0.6756
  C  C27  1  0.886200  0.723500  0.968500  1.0  -0.1443
  C  C28  1  0.748000  0.736900  0.891400  1.0  -0.0716
  C  C29  1  0.741200  0.835900  0.791000  1.0  -0.0819
  C  C30  1  0.859400  0.924900  0.765600  1.0  -0.0384
  C  C31  1  0.988900  0.915300  0.846000  1.0  -0.0221
  C  C32  1  0.002100  0.812800  0.944300  1.0  -0.0914
  C  C33  1  0.840500  0.027200  0.652100  1.0  -0.0002
  C  C34  1  0.013400  0.069000  0.582500  1.0  -0.0809
  C  C35  1  0.990300  0.164600  0.479400  1.0  -0.0218
  C  C36  1  0.789500  0.218400  0.448100  1.0  -0.153
  C  C37  1  0.614100  0.174400  0.518500  1.0  -0.0035
  C  C38  1  0.638900  0.079200  0.619500  1.0  -0.1077
  C  C39  1  0.759800  0.323600  0.341400  1.0  0.665
  C  C40  1  0.107400  0.009900  0.833100  1.0  0.0096
  C  C41  1  0.019700  0.122100  0.782700  1.0  -0.0994
  C  C42  1  0.130000  0.208200  0.771500  1.0  -0.0331
  C  C43  1  0.326600  0.183300  0.813200  1.0  -0.136
  C  C44  1  0.413000  0.069900  0.866700  1.0  -0.0848
  C  C45  1  0.304000  0.984000  0.875800  1.0  -0.106
  C  C46  1  0.442400  0.275900  0.804400  1.0  0.6729
  C  C47  1  0.398800  0.349200  0.090500  1.0  0.7418
  C  C48  1  0.080100  0.384300  0.926500  1.0  0.6752
  C  C49  1  0.113800  0.276500  0.031500  1.0  -0.1439
  C  C50  1  0.252000  0.263100  0.108600  1.0  -0.0716
  C  C51  1  0.258800  0.164100  0.209000  1.0  -0.0814
  C  C52  1  0.140600  0.075100  0.234400  1.0  -0.0391
  C  C53  1  0.011100  0.084700  0.154000  1.0  -0.0223
  C  C54  1  0.997900  0.187200  0.055700  1.0  -0.0925
  C  C55  1  0.159500  0.972800  0.347900  1.0  0.0002
  C  C56  1  0.986600  0.931000  0.417500  1.0  -0.0792
  C  C57  1  0.009700  0.835400  0.520600  1.0  -0.0197
  C  C58  1  0.210500  0.781600  0.551900  1.0  -0.1554
  C  C59  1  0.385900  0.825600  0.481500  1.0  -0.004
  C  C60  1  0.361100  0.920800  0.380500  1.0  -0.1082
  C  C61  1  0.240200  0.676400  0.658600  1.0  0.6657
  C  C62  1  0.892600  0.990100  0.166900  1.0  0.0088
  C  C63  1  0.980300  0.877900  0.217300  1.0  -0.101
  C  C64  1  0.870000  0.791800  0.228500  1.0  -0.0319
  C  C65  1  0.673400  0.816700  0.186800  1.0  -0.1355
  C  C66  1  0.587000  0.930100  0.133300  1.0  -0.0844
  C  C67  1  0.696000  0.016000  0.124200  1.0  -0.105
  C  C68  1  0.557600  0.724100  0.195600  1.0  0.6725
  O  O69  1  0.636400  0.605600  0.846900  1.0  -0.6829
  O  O70  1  0.447100  0.636000  0.978890  1.0  -0.6968
  O  O71  1  0.792700  0.540470  0.105360  1.0  -0.6204
  O  O72  1  0.072800  0.601700  0.127540  1.0  -0.7118
  O  O73  1  0.587600  0.380500  0.321200  1.0  -0.6134
  O  O74  1  0.927300  0.351300  0.275500  1.0  -0.5039
  O  O75  1  0.390700  0.378400  0.734300  1.0  -0.6993
  O  O76  1  0.582400  0.253100  0.869500  1.0  -0.6304
  O  O77  1  0.363600  0.394400  0.153100  1.0  -0.6834
  O  O78  1  0.552900  0.364000  0.021110  1.0  -0.6974
  O  O79  1  0.207300  0.459530  0.894640  1.0  -0.6206
  O  O80  1  0.927200  0.398300  0.872460  1.0  -0.7111
  O  O81  1  0.412400  0.619500  0.678800  1.0  -0.6146
  O  O82  1  0.072700  0.648700  0.724500  1.0  -0.5058
  O  O83  1  0.609300  0.621600  0.265700  1.0  -0.6961
  O  O84  1  0.417600  0.746900  0.130500  1.0  -0.6308
