# generated using pymatgen
data_NiH6C9(NO)3
_symmetry_space_group_name_H-M   'P 1'
_cell_length_a   7.60200000
_cell_length_b   14.25100000
_cell_length_c   14.25100000
_cell_angle_alpha   97.95230000
_cell_angle_beta   101.47000000
_cell_angle_gamma   101.47000000
_symmetry_Int_Tables_number   1
_chemical_formula_structural   NiH6C9(NO)3
_chemical_formula_sum   'Ni4 H24 C36 N12 O12'
_cell_volume   1457.19062933
_cell_formula_units_Z   4
loop_
 _symmetry_equiv_pos_site_id
 _symmetry_equiv_pos_as_xyz
  1  'x, y, z'
loop_
 _atom_site_type_symbol
 _atom_site_label
 _atom_site_symmetry_multiplicity
 _atom_site_fract_x
 _atom_site_fract_y
 _atom_site_fract_z
 _atom_site_occupancy
 _atom_site_charge
  Ni  Ni1  1  0.750000  0.589430  0.410570  1.0  0.7497
  Ni  Ni2  1  0.250000  0.410570  0.589430  1.0  0.7601
  Ni  Ni3  1  0.500000  0.000000  0.000000  1.0  0.8174
  Ni  Ni4  1  0.000000  0.000000  0.000000  1.0  0.8174
  H  H5  1  0.957200  0.783000  0.936800  1.0  0.0944
  H  H6  1  0.904200  0.662500  0.801700  1.0  0.127
  H  H7  1  0.863300  0.864700  0.632100  1.0  0.1267
  H  H8  1  0.912600  0.979700  0.771700  1.0  0.0806
  H  H9  1  0.628800  0.774300  0.382500  1.0  0.0972
  H  H10  1  0.620500  0.882400  0.276000  1.0  0.1224
  H  H11  1  0.542800  0.063200  0.217000  1.0  0.0956
  H  H12  1  0.595800  0.198300  0.337500  1.0  0.1275
  H  H13  1  0.636700  0.367900  0.135300  1.0  0.1271
  H  H14  1  0.587400  0.228300  0.020300  1.0  0.0793
  H  H15  1  0.871200  0.617500  0.225700  1.0  0.0964
  H  H16  1  0.879500  0.724000  0.117600  1.0  0.1232
  H  H17  1  0.042800  0.217000  0.063200  1.0  0.0938
  H  H18  1  0.095800  0.337500  0.198300  1.0  0.1271
  H  H19  1  0.136700  0.135300  0.367900  1.0  0.1257
  H  H20  1  0.087400  0.020300  0.228300  1.0  0.0802
  H  H21  1  0.371200  0.225700  0.617500  1.0  0.0973
  H  H22  1  0.379500  0.117600  0.724000  1.0  0.1227
  H  H23  1  0.457200  0.936800  0.783000  1.0  0.0946
  H  H24  1  0.404200  0.801700  0.662500  1.0  0.1281
  H  H25  1  0.363300  0.632100  0.864700  1.0  0.1269
  H  H26  1  0.412600  0.771700  0.979700  1.0  0.0792
  H  H27  1  0.128800  0.382500  0.774300  1.0  0.0962
  H  H28  1  0.120500  0.276000  0.882400  1.0  0.123
  C  C29  1  0.938100  0.799700  0.875300  1.0  0.1436
  C  C30  1  0.906600  0.726400  0.794000  1.0  -0.1356
  C  C31  1  0.878500  0.749700  0.700500  1.0  -0.0021
  C  C32  1  0.881500  0.846400  0.692800  1.0  -0.1382
  C  C33  1  0.912500  0.915500  0.777900  1.0  0.1449
  C  C34  1  0.841700  0.670000  0.610000  1.0  0.6211
  C  C35  1  0.678100  0.763500  0.328300  1.0  0.1483
  C  C36  1  0.673700  0.829800  0.264600  1.0  -0.1359
  C  C37  1  0.561900  0.124700  0.200300  1.0  0.146
  C  C38  1  0.593400  0.206000  0.273600  1.0  -0.1296
  C  C39  1  0.621500  0.299500  0.250300  1.0  0.0018
  C  C40  1  0.618500  0.307200  0.153600  1.0  -0.1403
  C  C41  1  0.587500  0.222100  0.084500  1.0  0.1455
  C  C42  1  0.658300  0.390000  0.330000  1.0  0.6208
  C  C43  1  0.821900  0.671700  0.236500  1.0  0.1534
  C  C44  1  0.826300  0.735400  0.170200  1.0  -0.1379
  C  C45  1  0.061900  0.200300  0.124700  1.0  0.1424
  C  C46  1  0.093400  0.273600  0.206000  1.0  -0.1366
  C  C47  1  0.121500  0.250300  0.299500  1.0  -0.0021
  C  C48  1  0.118500  0.153600  0.307200  1.0  -0.1385
  C  C49  1  0.087500  0.084500  0.222100  1.0  0.1455
  C  C50  1  0.158300  0.330000  0.390000  1.0  0.6216
  C  C51  1  0.321900  0.236500  0.671700  1.0  0.1472
  C  C52  1  0.326300  0.170200  0.735400  1.0  -0.1351
  C  C53  1  0.438100  0.875300  0.799700  1.0  0.146
  C  C54  1  0.406600  0.794000  0.726400  1.0  -0.1284
  C  C55  1  0.378500  0.700500  0.749700  1.0  -0.0015
  C  C56  1  0.381500  0.692800  0.846400  1.0  -0.139
  C  C57  1  0.412500  0.777900  0.915500  1.0  0.144
  C  C58  1  0.341700  0.610000  0.670000  1.0  0.6218
  C  C59  1  0.178100  0.328300  0.763500  1.0  0.1543
  C  C60  1  0.173700  0.264600  0.829800  1.0  -0.138
  C  C61  1  0.750000  0.816200  0.183800  1.0  -0.021
  C  C62  1  0.750000  0.887200  0.112800  1.0  0.6358
  C  C63  1  0.250000  0.183800  0.816200  1.0  -0.0229
  C  C64  1  0.250000  0.112800  0.887200  1.0  0.6347
  N  N65  1  0.942100  0.894490  0.868510  1.0  -0.2992
  N  N66  1  0.557900  0.131490  0.105510  1.0  -0.2977
  N  N67  1  0.057900  0.105510  0.131490  1.0  -0.2983
  N  N68  1  0.442100  0.868510  0.894490  1.0  -0.2989
  N  N69  1  0.750000  0.684500  0.315500  1.0  -0.3105
  N  N70  1  0.250000  0.315500  0.684500  1.0  -0.311
  N  N71  1  0.250000  0.952500  0.047500  1.0  -0.6303
  N  N72  1  0.250000  0.896900  0.103100  1.0  0.5528
  N  N73  1  0.250000  0.843200  0.156800  1.0  -0.4183
  N  N74  1  0.750000  0.047500  0.952500  1.0  -0.6301
  N  N75  1  0.750000  0.103100  0.896900  1.0  0.5561
  N  N76  1  0.750000  0.156800  0.843200  1.0  -0.4176
  O  O77  1  0.824900  0.698000  0.528820  1.0  -0.5769
  O  O78  1  0.829300  0.582000  0.622200  1.0  -0.5563
  O  O79  1  0.627900  0.936590  0.109690  1.0  -0.5568
  O  O80  1  0.675100  0.471180  0.302000  1.0  -0.578
  O  O81  1  0.670700  0.377800  0.418000  1.0  -0.5593
  O  O82  1  0.872100  0.890310  0.063410  1.0  -0.5581
  O  O83  1  0.175100  0.302000  0.471180  1.0  -0.5765
  O  O84  1  0.170700  0.418000  0.377800  1.0  -0.5554
  O  O85  1  0.372100  0.063410  0.890310  1.0  -0.5579
  O  O86  1  0.324900  0.528820  0.698000  1.0  -0.5787
  O  O87  1  0.329300  0.622200  0.582000  1.0  -0.5582
  O  O88  1  0.127900  0.109690  0.936590  1.0  -0.5579
