# generated using pymatgen
data_Pr2Cu3C24(NO4)6
_symmetry_space_group_name_H-M   'P 1'
_cell_length_a   13.42400000
_cell_length_b   13.42400000
_cell_length_c   14.75200000
_cell_angle_alpha   90.00000000
_cell_angle_beta   90.00000000
_cell_angle_gamma   120.00000000
_symmetry_Int_Tables_number   1
_chemical_formula_structural   Pr2Cu3C24(NO4)6
_chemical_formula_sum   'Pr4 Cu6 C48 N12 O48'
_cell_volume   2302.21257824
_cell_formula_units_Z   2
loop_
 _symmetry_equiv_pos_site_id
 _symmetry_equiv_pos_as_xyz
  1  'x, y, z'
loop_
 _atom_site_type_symbol
 _atom_site_label
 _atom_site_symmetry_multiplicity
 _atom_site_fract_x
 _atom_site_fract_y
 _atom_site_fract_z
 _atom_site_occupancy
 _atom_site_charge
  Pr  Pr1  1  0.333333  0.666667  0.168800  1.0  2.2529
  Pr  Pr2  1  0.666667  0.333333  0.331200  1.0  2.2526
  Pr  Pr3  1  0.666667  0.333333  0.831200  1.0  2.2526
  Pr  Pr4  1  0.333333  0.666667  0.668800  1.0  2.2529
  Cu  Cu5  1  0.500000  0.500000  0.000000  1.0  0.7351
  Cu  Cu6  1  0.500000  0.000000  0.000000  1.0  0.7351
  Cu  Cu7  1  0.000000  0.500000  0.000000  1.0  0.7351
  Cu  Cu8  1  0.500000  0.500000  0.500000  1.0  0.7351
  Cu  Cu9  1  0.000000  0.500000  0.500000  1.0  0.7351
  Cu  Cu10  1  0.500000  0.000000  0.500000  1.0  0.7351
  C  C11  1  0.270600  0.449500  0.069900  1.0  0.6586
  C  C12  1  0.256800  0.354000  0.008000  1.0  -0.0394
  C  C13  1  0.339000  0.448000  0.860000  1.0  -0.0344
  C  C14  1  0.436200  0.559100  0.842000  1.0  0.6563
  C  C15  1  0.550500  0.821100  0.069900  1.0  0.66
  C  C16  1  0.646000  0.902800  0.008000  1.0  -0.0338
  C  C17  1  0.552000  0.891000  0.860000  1.0  -0.0308
  C  C18  1  0.440900  0.877100  0.842000  1.0  0.6557
  C  C19  1  0.178900  0.729400  0.069900  1.0  0.6527
  C  C20  1  0.097200  0.743200  0.008000  1.0  -0.0357
  C  C21  1  0.109000  0.661000  0.860000  1.0  -0.0337
  C  C22  1  0.122900  0.563800  0.842000  1.0  0.6562
  C  C23  1  0.449500  0.270600  0.430100  1.0  0.6527
  C  C24  1  0.354000  0.256800  0.492000  1.0  -0.0309
  C  C25  1  0.448000  0.339000  0.640000  1.0  -0.0345
  C  C26  1  0.559100  0.436200  0.658000  1.0  0.6564
  C  C27  1  0.821100  0.550500  0.430100  1.0  0.6587
  C  C28  1  0.902800  0.646000  0.492000  1.0  -0.0404
  C  C29  1  0.891000  0.552000  0.640000  1.0  -0.0345
  C  C30  1  0.877100  0.440900  0.658000  1.0  0.6569
  C  C31  1  0.729400  0.178900  0.430100  1.0  0.6595
  C  C32  1  0.743200  0.097200  0.492000  1.0  -0.0323
  C  C33  1  0.661000  0.109000  0.640000  1.0  -0.0309
  C  C34  1  0.563800  0.122900  0.658000  1.0  0.6564
  C  C35  1  0.729400  0.550500  0.930100  1.0  0.6583
  C  C36  1  0.743200  0.646000  0.992000  1.0  -0.0411
  C  C37  1  0.661000  0.552000  0.140000  1.0  -0.0334
  C  C38  1  0.563800  0.440900  0.158000  1.0  0.6569
  C  C39  1  0.449500  0.178900  0.930100  1.0  0.6588
  C  C40  1  0.354000  0.097200  0.992000  1.0  -0.0348
  C  C41  1  0.448000  0.109000  0.140000  1.0  -0.0316
  C  C42  1  0.559100  0.122900  0.158000  1.0  0.6566
  C  C43  1  0.821100  0.270600  0.930100  1.0  0.653
  C  C44  1  0.902800  0.256800  0.992000  1.0  -0.026
  C  C45  1  0.891000  0.339000  0.140000  1.0  -0.0341
  C  C46  1  0.877100  0.436200  0.158000  1.0  0.6562
  C  C47  1  0.550500  0.729400  0.569900  1.0  0.6528
  C  C48  1  0.646000  0.743200  0.508000  1.0  -0.0298
  C  C49  1  0.552000  0.661000  0.360000  1.0  -0.0335
  C  C50  1  0.440900  0.563800  0.342000  1.0  0.6562
  C  C51  1  0.178900  0.449500  0.569900  1.0  0.6584
  C  C52  1  0.097200  0.354000  0.508000  1.0  -0.0391
  C  C53  1  0.109000  0.448000  0.360000  1.0  -0.0333
  C  C54  1  0.122900  0.559100  0.342000  1.0  0.6563
  C  C55  1  0.270600  0.821100  0.569900  1.0  0.6593
  C  C56  1  0.256800  0.902800  0.508000  1.0  -0.0346
  C  C57  1  0.339000  0.891000  0.360000  1.0  -0.0315
  C  C58  1  0.436200  0.877100  0.342000  1.0  0.6557
  N  N59  1  0.348000  0.387600  0.943000  1.0  -0.0589
  N  N60  1  0.612400  0.960400  0.943000  1.0  -0.064
  N  N61  1  0.039600  0.652000  0.943000  1.0  -0.0697
  N  N62  1  0.387600  0.348000  0.557000  1.0  -0.0748
  N  N63  1  0.960400  0.612400  0.557000  1.0  -0.059
  N  N64  1  0.652000  0.039600  0.557000  1.0  -0.0653
  N  N65  1  0.652000  0.612400  0.057000  1.0  -0.0589
  N  N66  1  0.387600  0.039600  0.057000  1.0  -0.0657
  N  N67  1  0.960400  0.348000  0.057000  1.0  -0.0786
  N  N68  1  0.612400  0.652000  0.443000  1.0  -0.0756
  N  N69  1  0.039600  0.387600  0.443000  1.0  -0.0597
  N  N70  1  0.348000  0.960400  0.443000  1.0  -0.0631
  O  O71  1  0.198500  0.442400  0.127800  1.0  -0.5365
  O  O72  1  0.361400  0.549000  0.059300  1.0  -0.6708
  O  O73  1  0.436300  0.614400  0.774000  1.0  -0.6299
  O  O74  1  0.528800  0.599300  0.895500  1.0  -0.4601
  O  O75  1  0.557600  0.756100  0.127800  1.0  -0.5372
  O  O76  1  0.451000  0.812400  0.059300  1.0  -0.6637
  O  O77  1  0.385600  0.821900  0.774000  1.0  -0.6293
  O  O78  1  0.400700  0.929500  0.895500  1.0  -0.4595
  O  O79  1  0.243900  0.801500  0.127800  1.0  -0.5388
  O  O80  1  0.187600  0.638600  0.059300  1.0  -0.6699
  O  O81  1  0.178100  0.563700  0.774000  1.0  -0.6288
  O  O82  1  0.070500  0.471200  0.895500  1.0  -0.467
  O  O83  1  0.442400  0.198500  0.372200  1.0  -0.5378
  O  O84  1  0.549000  0.361400  0.440700  1.0  -0.6705
  O  O85  1  0.614400  0.436300  0.726000  1.0  -0.6316
  O  O86  1  0.599300  0.528800  0.604500  1.0  -0.4642
  O  O87  1  0.756100  0.557600  0.372200  1.0  -0.5366
  O  O88  1  0.812400  0.451000  0.440700  1.0  -0.6714
  O  O89  1  0.821900  0.385600  0.726000  1.0  -0.6327
  O  O90  1  0.929500  0.400700  0.604500  1.0  -0.459
  O  O91  1  0.801500  0.243900  0.372200  1.0  -0.5363
  O  O92  1  0.638600  0.187600  0.440700  1.0  -0.6643
  O  O93  1  0.563700  0.178100  0.726000  1.0  -0.6306
  O  O94  1  0.471200  0.070500  0.604500  1.0  -0.4572
  O  O95  1  0.801500  0.557600  0.872200  1.0  -0.5374
  O  O96  1  0.638600  0.451000  0.940700  1.0  -0.6707
  O  O97  1  0.563700  0.385600  0.226000  1.0  -0.6328
  O  O98  1  0.471200  0.400700  0.104500  1.0  -0.4629
  O  O99  1  0.442400  0.243900  0.872200  1.0  -0.5368
  O  O100  1  0.549000  0.187600  0.940700  1.0  -0.6691
  O  O101  1  0.614400  0.178100  0.226000  1.0  -0.6309
  O  O102  1  0.599300  0.070500  0.104500  1.0  -0.4545
  O  O103  1  0.756100  0.198500  0.872200  1.0  -0.5371
  O  O104  1  0.812400  0.361400  0.940700  1.0  -0.6682
  O  O105  1  0.821900  0.436300  0.226000  1.0  -0.6318
  O  O106  1  0.929500  0.528800  0.104500  1.0  -0.4639
  O  O107  1  0.557600  0.801500  0.627800  1.0  -0.5382
  O  O108  1  0.451000  0.638600  0.559300  1.0  -0.6676
  O  O109  1  0.385600  0.563700  0.274000  1.0  -0.6294
  O  O110  1  0.400700  0.471200  0.395500  1.0  -0.4662
  O  O111  1  0.243900  0.442400  0.627800  1.0  -0.5361
  O  O112  1  0.187600  0.549000  0.559300  1.0  -0.6704
  O  O113  1  0.178100  0.614400  0.274000  1.0  -0.6306
  O  O114  1  0.070500  0.599300  0.395500  1.0  -0.4637
  O  O115  1  0.198500  0.756100  0.627800  1.0  -0.5363
  O  O116  1  0.361400  0.812400  0.559300  1.0  -0.6681
  O  O117  1  0.436300  0.821900  0.274000  1.0  -0.6292
  O  O118  1  0.528800  0.929500  0.395500  1.0  -0.4568
