# generated using pymatgen
data_Fe2H16C24N4O9
_symmetry_space_group_name_H-M   'P 1'
_cell_length_a   10.48390000
_cell_length_b   11.84000000
_cell_length_c   14.03400000
_cell_angle_alpha   105.64500000
_cell_angle_beta   101.22200000
_cell_angle_gamma   112.35800000
_symmetry_Int_Tables_number   1
_chemical_formula_structural   Fe2H16C24N4O9
_chemical_formula_sum   'Fe4 H32 C48 N8 O18'
_cell_volume   1462.45122380
_cell_formula_units_Z   2
loop_
 _symmetry_equiv_pos_site_id
 _symmetry_equiv_pos_as_xyz
  1  'x, y, z'
loop_
 _atom_site_type_symbol
 _atom_site_label
 _atom_site_symmetry_multiplicity
 _atom_site_fract_x
 _atom_site_fract_y
 _atom_site_fract_z
 _atom_site_occupancy
 _atom_site_charge
  Fe  Fe1  1  0.813880  0.006510  0.785860  1.0  0.9659
  Fe  Fe2  1  0.447800  0.725170  0.691380  1.0  0.9889
  Fe  Fe3  1  0.186120  0.993490  0.214140  1.0  0.9652
  Fe  Fe4  1  0.552200  0.274830  0.308610  1.0  0.9897
  H  H5  1  0.051300  0.104300  0.986200  1.0  0.0903
  H  H6  1  0.449800  0.192300  0.963300  1.0  0.1215
  H  H7  1  0.093900  0.039600  0.709700  1.0  0.074
  H  H8  1  0.340300  0.109300  0.780300  1.0  0.1203
  H  H9  1  0.400400  0.829200  0.899100  1.0  0.0792
  H  H10  1  0.993700  0.780200  0.870100  1.0  0.1198
  H  H11  1  0.704700  0.049100  0.585600  1.0  0.0759
  H  H12  1  0.981400  0.482200  0.805700  1.0  0.1181
  H  H13  1  0.970900  0.314800  0.861900  1.0  0.084
  H  H14  1  0.845600  0.431700  0.634700  1.0  0.1034
  H  H15  1  0.385800  0.485300  0.509100  1.0  0.0789
  H  H16  1  0.113200  0.674800  0.619000  1.0  0.0818
  H  H17  1  0.938100  0.697500  0.687800  1.0  0.1052
  H  H18  1  0.245400  0.491100  0.746900  1.0  0.0811
  H  H19  1  0.143300  0.143700  0.529100  1.0  0.1091
  H  H20  1  0.129800  0.264000  0.684500  1.0  0.1077
  H  H21  1  0.948700  0.895700  0.013800  1.0  0.09
  H  H22  1  0.550200  0.807700  0.036700  1.0  0.1211
  H  H23  1  0.906100  0.960400  0.290300  1.0  0.0732
  H  H24  1  0.659700  0.890700  0.219700  1.0  0.1207
  H  H25  1  0.599600  0.170800  0.100900  1.0  0.0792
  H  H26  1  0.006300  0.219800  0.129900  1.0  0.12
  H  H27  1  0.295300  0.950900  0.414400  1.0  0.0752
  H  H28  1  0.018600  0.517800  0.194300  1.0  0.1183
  H  H29  1  0.029100  0.685200  0.138100  1.0  0.0846
  H  H30  1  0.154400  0.568300  0.365300  1.0  0.1028
  H  H31  1  0.614200  0.514700  0.490900  1.0  0.0789
  H  H32  1  0.886800  0.325200  0.381000  1.0  0.0814
  H  H33  1  0.061900  0.302500  0.312200  1.0  0.1043
  H  H34  1  0.754600  0.508900  0.253100  1.0  0.0814
  H  H35  1  0.856700  0.856300  0.470900  1.0  0.1092
  H  H36  1  0.870200  0.736000  0.315500  1.0  0.1068
  C  C37  1  0.111100  0.108110  0.944870  1.0  0.1732
  C  C38  1  0.259600  0.154510  0.994270  1.0  -0.177
  C  C39  1  0.349300  0.159000  0.932860  1.0  -0.0242
  C  C40  1  0.135700  0.069200  0.782130  1.0  0.1719
  C  C41  1  0.284300  0.111900  0.823970  1.0  -0.1
  C  C42  1  0.312000  0.189280  0.111180  1.0  0.6963
  C  C43  1  0.305500  0.799910  0.856270  1.0  0.1859
  C  C44  1  0.204400  0.812080  0.904050  1.0  -0.1847
  C  C45  1  0.063900  0.773010  0.840830  1.0  0.0106
  C  C46  1  0.760000  0.137340  0.630360  1.0  0.1938
  C  C47  1  0.923600  0.394800  0.759880  1.0  -0.1451
  C  C48  1  0.917300  0.293600  0.792990  1.0  0.167
  C  C49  1  0.759500  0.232890  0.591580  1.0  -0.1993
  C  C50  1  0.843500  0.364900  0.658220  1.0  0.0389
  C  C51  1  0.334700  0.439860  0.545150  1.0  0.1873
  C  C52  1  0.254900  0.871170  0.022460  1.0  0.7009
  C  C53  1  0.295000  0.233820  0.406890  1.0  0.6962
  C  C54  1  0.137300  0.710600  0.691510  1.0  0.1815
  C  C55  1  0.030700  0.722700  0.732310  1.0  -0.0927
  C  C56  1  0.667400  0.192030  0.479420  1.0  0.7042
  C  C57  1  0.270800  0.303410  0.503640  1.0  -0.2122
  C  C58  1  0.251500  0.443800  0.684720  1.0  0.1861
  C  C59  1  0.190400  0.235500  0.555670  1.0  0.0179
  C  C60  1  0.181900  0.307100  0.647700  1.0  -0.1247
  C  C61  1  0.888900  0.891890  0.055130  1.0  0.1721
  C  C62  1  0.740400  0.845490  0.005730  1.0  -0.1741
  C  C63  1  0.650700  0.841000  0.067140  1.0  -0.0274
  C  C64  1  0.864300  0.930800  0.217870  1.0  0.1734
  C  C65  1  0.715700  0.888100  0.176030  1.0  -0.1009
  C  C66  1  0.688000  0.810720  0.888820  1.0  0.6972
  C  C67  1  0.694500  0.200090  0.143730  1.0  0.1875
  C  C68  1  0.795600  0.187920  0.095950  1.0  -0.1845
  C  C69  1  0.936100  0.226990  0.159170  1.0  0.0092
  C  C70  1  0.240000  0.862660  0.369640  1.0  0.1926
  C  C71  1  0.076400  0.605200  0.240120  1.0  -0.1424
  C  C72  1  0.082700  0.706400  0.207010  1.0  0.168
  C  C73  1  0.240500  0.767110  0.408420  1.0  -0.1988
  C  C74  1  0.156500  0.635100  0.341780  1.0  0.0376
  C  C75  1  0.665300  0.560140  0.454850  1.0  0.1881
  C  C76  1  0.745100  0.128830  0.977540  1.0  0.7026
  C  C77  1  0.705000  0.766180  0.593110  1.0  0.6954
  C  C78  1  0.862700  0.289400  0.308490  1.0  0.1807
  C  C79  1  0.969300  0.277300  0.267690  1.0  -0.0913
  C  C80  1  0.332600  0.807970  0.520580  1.0  0.7042
  C  C81  1  0.729200  0.696590  0.496360  1.0  -0.2122
  C  C82  1  0.748500  0.556200  0.315280  1.0  0.1864
  C  C83  1  0.809600  0.764500  0.444330  1.0  0.0183
  C  C84  1  0.818100  0.692900  0.352300  1.0  -0.1242
  N  N85  1  0.049020  0.068560  0.841000  1.0  -0.3398
  N  N86  1  0.274120  0.748460  0.752160  1.0  -0.3434
  N  N87  1  0.836640  0.165890  0.729510  1.0  -0.3324
  N  N88  1  0.326980  0.510210  0.634410  1.0  -0.3447
  N  N89  1  0.950980  0.931440  0.159000  1.0  -0.3378
  N  N90  1  0.725880  0.251540  0.247840  1.0  -0.3445
  N  N91  1  0.163360  0.834110  0.270490  1.0  -0.3323
  N  N92  1  0.673020  0.489790  0.365590  1.0  -0.3458
  O  O93  1  0.447590  0.258450  0.160010  1.0  -0.5953
  O  O94  1  0.215830  0.145110  0.150800  1.0  -0.5969
  O  O95  1  0.574590  0.941100  0.742470  1.0  -0.4757
  O  O96  1  0.396770  0.302500  0.381650  1.0  -0.5965
  O  O97  1  0.158850  0.872050  0.064350  1.0  -0.5915
  O  O98  1  0.210660  0.111310  0.360270  1.0  -0.5951
  O  O99  1  0.665020  0.284850  0.451790  1.0  -0.6165
  O  O100  1  0.600690  0.072120  0.423470  1.0  -0.5765
  O  O101  1  0.387890  0.916990  0.070180  1.0  -0.5527
  O  O102  1  0.552410  0.741550  0.839990  1.0  -0.595
  O  O103  1  0.784170  0.854890  0.849200  1.0  -0.5997
  O  O104  1  0.425410  0.058900  0.257530  1.0  -0.4761
  O  O105  1  0.603230  0.697500  0.618350  1.0  -0.596
  O  O106  1  0.841150  0.127950  0.935650  1.0  -0.5923
  O  O107  1  0.789340  0.888690  0.639730  1.0  -0.5949
  O  O108  1  0.334980  0.715150  0.548210  1.0  -0.6165
  O  O109  1  0.399310  0.927880  0.576530  1.0  -0.5753
  O  O110  1  0.612110  0.083010  0.929820  1.0  -0.5535
