# generated using pymatgen
data_CuH12C20NO5
_symmetry_space_group_name_H-M   'P 1'
_cell_length_a   27.99990000
_cell_length_b   27.99990000
_cell_length_c   29.58580000
_cell_angle_alpha   61.75790000
_cell_angle_beta   61.75790000
_cell_angle_gamma   90.00000000
_symmetry_Int_Tables_number   1
_chemical_formula_structural   CuH12C20NO5
_chemical_formula_sum   'Cu8 H96 C160 N8 O40'
_cell_volume   17235.80092880
_cell_formula_units_Z   8
loop_
 _symmetry_equiv_pos_site_id
 _symmetry_equiv_pos_as_xyz
  1  'x, y, z'
loop_
 _atom_site_type_symbol
 _atom_site_label
 _atom_site_symmetry_multiplicity
 _atom_site_fract_x
 _atom_site_fract_y
 _atom_site_fract_z
 _atom_site_occupancy
 _atom_site_charge
  Cu  Cu1  1  0.956600  0.005610  0.988910  1.0  0.9126
  Cu  Cu2  1  0.554660  0.005640  0.988910  1.0  0.9081
  Cu  Cu3  1  0.505790  0.054200  0.488980  1.0  0.9109
  Cu  Cu4  1  0.505660  0.456890  0.488910  1.0  0.9148
  Cu  Cu5  1  0.445940  0.994680  0.010990  1.0  0.9094
  Cu  Cu6  1  0.043360  0.994540  0.010850  1.0  0.914
  Cu  Cu7  1  0.494700  0.945790  0.511080  1.0  0.9094
  Cu  Cu8  1  0.494580  0.543190  0.511000  1.0  0.9108
  H  H9  1  0.151380  0.161790  0.885150  1.0  0.1198
  H  H10  1  0.197510  0.263440  0.812150  1.0  0.1242
  H  H11  1  0.059400  0.280750  0.783550  1.0  0.1201
  H  H12  1  0.013130  0.179220  0.856320  1.0  0.1105
  H  H13  1  0.463260  0.953160  0.885330  1.0  0.1202
  H  H14  1  0.490130  0.924470  0.812340  1.0  0.1235
  H  H15  1  0.656820  0.935740  0.783790  1.0  0.1211
  H  H16  1  0.630350  0.964540  0.856490  1.0  0.116
  H  H17  1  0.661940  0.963170  0.385110  1.0  0.1213
  H  H18  1  0.763640  0.990210  0.312030  1.0  0.124
  H  H19  1  0.780630  0.156840  0.283670  1.0  0.117
  H  H20  1  0.679140  0.130190  0.356450  1.0  0.1159
  H  H21  1  0.453150  0.651690  0.385120  1.0  0.1217
  H  H22  1  0.424450  0.697750  0.312110  1.0  0.1243
  H  H23  1  0.435680  0.559510  0.283730  1.0  0.1215
  H  H24  1  0.464470  0.513330  0.356460  1.0  0.1164
  H  H25  1  0.536820  0.838240  0.114900  1.0  0.1203
  H  H26  1  0.509730  0.736540  0.187940  1.0  0.1236
  H  H27  1  0.343160  0.719640  0.216170  1.0  0.1224
  H  H28  1  0.369870  0.821180  0.143390  1.0  0.1145
  H  H29  1  0.848490  0.047030  0.114760  1.0  0.1201
  H  H30  1  0.802460  0.075660  0.187810  1.0  0.1236
  H  H31  1  0.940680  0.064260  0.216220  1.0  0.1201
  H  H32  1  0.986850  0.035540  0.143430  1.0  0.1081
  H  H33  1  0.547040  0.036760  0.614930  1.0  0.124
  H  H34  1  0.575460  0.009690  0.688160  1.0  0.1234
  H  H35  1  0.564130  0.843050  0.716550  1.0  0.1219
  H  H36  1  0.535610  0.869740  0.643610  1.0  0.1166
  H  H37  1  0.338210  0.348280  0.614850  1.0  0.1221
  H  H38  1  0.236510  0.302260  0.688010  1.0  0.1235
  H  H39  1  0.219660  0.440590  0.716260  1.0  0.1207
  H  H40  1  0.321150  0.486710  0.643390  1.0  0.1154
  H  H41  1  0.848550  0.838290  0.114770  1.0  0.1203
  H  H42  1  0.802540  0.736620  0.187750  1.0  0.123
  H  H43  1  0.940740  0.719510  0.216190  1.0  0.1201
  H  H44  1  0.986900  0.821050  0.143450  1.0  0.1162
  H  H45  1  0.537040  0.047100  0.114830  1.0  0.1215
  H  H46  1  0.509980  0.075730  0.187910  1.0  0.1216
  H  H47  1  0.343370  0.064370  0.216250  1.0  0.1215
  H  H48  1  0.370030  0.035650  0.143460  1.0  0.1155
  H  H49  1  0.338330  0.036940  0.614720  1.0  0.1228
  H  H50  1  0.236620  0.009900  0.687810  1.0  0.126
  H  H51  1  0.219610  0.843310  0.716140  1.0  0.1217
  H  H52  1  0.321100  0.869930  0.643360  1.0  0.1161
  H  H53  1  0.547050  0.348440  0.614850  1.0  0.1217
  H  H54  1  0.575770  0.302430  0.687840  1.0  0.1248
  H  H55  1  0.564410  0.440660  0.716250  1.0  0.1226
  H  H56  1  0.535590  0.486770  0.643540  1.0  0.1171
  H  H57  1  0.463590  0.161910  0.885140  1.0  0.1203
  H  H58  1  0.490570  0.263570  0.812040  1.0  0.1241
  H  H59  1  0.657240  0.280720  0.783530  1.0  0.122
  H  H60  1  0.630650  0.179220  0.856370  1.0  0.1093
  H  H61  1  0.151480  0.953100  0.885180  1.0  0.12
  H  H62  1  0.197630  0.924480  0.812130  1.0  0.1234
  H  H63  1  0.059490  0.935760  0.783590  1.0  0.1195
  H  H64  1  0.013210  0.964470  0.856380  1.0  0.1159
  H  H65  1  0.453090  0.963190  0.385270  1.0  0.1234
  H  H66  1  0.424490  0.990270  0.312170  1.0  0.1237
  H  H67  1  0.435850  0.156860  0.283870  1.0  0.1238
  H  H68  1  0.464550  0.130180  0.356680  1.0  0.1162
  H  H69  1  0.661970  0.651800  0.385030  1.0  0.121
  H  H70  1  0.763650  0.697850  0.311860  1.0  0.124
  H  H71  1  0.780550  0.559530  0.283580  1.0  0.1216
  H  H72  1  0.679070  0.513390  0.356470  1.0  0.1189
  H  H73  1  0.889360  0.090480  0.970060  1.0  0.1183
  H  H74  1  0.808370  0.097920  0.959330  1.0  0.1143
  H  H75  1  0.640850  0.939740  0.969920  1.0  0.117
  H  H76  1  0.732540  0.943070  0.959220  1.0  0.114
  H  H77  1  0.590430  0.141070  0.470310  1.0  0.1181
  H  H78  1  0.596990  0.232720  0.459040  1.0  0.115
  H  H79  1  0.438840  0.389840  0.467550  1.0  0.1165
  H  H80  1  0.443180  0.309250  0.456520  1.0  0.1098
  H  H81  1  0.357080  0.906240  0.032500  1.0  0.1184
  H  H82  1  0.265420  0.899980  0.043050  1.0  0.1149
  H  H83  1  0.110950  0.060330  0.029680  1.0  0.1215
  H  H84  1  0.191590  0.056370  0.040940  1.0  0.1123
  H  H85  1  0.560350  0.859290  0.530300  1.0  0.1174
  H  H86  1  0.556460  0.767890  0.541390  1.0  0.1098
  H  H87  1  0.409640  0.610470  0.530190  1.0  0.1167
  H  H88  1  0.402420  0.690780  0.541290  1.0  0.1099
  H  H89  1  0.110140  0.909550  0.029840  1.0  0.1164
  H  H90  1  0.190850  0.901510  0.040850  1.0  0.1104
  H  H91  1  0.358860  0.060330  0.029940  1.0  0.1189
  H  H92  1  0.267510  0.056150  0.040550  1.0  0.111
  H  H93  1  0.406830  0.857170  0.531700  1.0  0.1184
  H  H94  1  0.400720  0.765340  0.542840  1.0  0.1114
  H  H95  1  0.561640  0.611080  0.531820  1.0  0.117
  H  H96  1  0.556610  0.691760  0.542960  1.0  0.115
  H  H97  1  0.640850  0.090560  0.969700  1.0  0.1201
  H  H98  1  0.732600  0.098090  0.958910  1.0  0.1144
  H  H99  1  0.889500  0.939890  0.969820  1.0  0.1198
  H  H100  1  0.808560  0.943190  0.959040  1.0  0.1142
  H  H101  1  0.438900  0.142450  0.467740  1.0  0.1156
  H  H102  1  0.443160  0.234090  0.456660  1.0  0.1147
  H  H103  1  0.590280  0.388760  0.470280  1.0  0.1168
  H  H104  1  0.596900  0.308310  0.459130  1.0  0.118
  C  C105  1  0.870890  0.058080  0.968130  1.0  0.157
  C  C106  1  0.823750  0.061990  0.961960  1.0  -0.0953
  C  C107  1  0.049590  0.101210  0.922220  1.0  0.687
  C  C108  1  0.078700  0.162370  0.876360  1.0  -0.0844
  C  C109  1  0.131170  0.187150  0.862750  1.0  -0.0707
  C  C110  1  0.157750  0.245230  0.820750  1.0  -0.124
  C  C111  1  0.132280  0.279710  0.791730  1.0  0.0193
  C  C112  1  0.079940  0.255010  0.805240  1.0  -0.0932
  C  C113  1  0.053570  0.196910  0.846810  1.0  -0.0745
  C  C114  1  0.661220  0.974060  0.968020  1.0  0.1528
  C  C115  1  0.714510  0.976340  0.961880  1.0  -0.094
  C  C116  1  0.528120  0.976680  0.922350  1.0  0.6714
  C  C117  1  0.544750  0.961360  0.876530  1.0  -0.0891
  C  C118  1  0.505860  0.950180  0.862950  1.0  -0.0692
  C  C119  1  0.521270  0.934050  0.820970  1.0  -0.1257
  C  C120  1  0.575770  0.928560  0.792000  1.0  0.0173
  C  C121  1  0.614600  0.939790  0.805470  1.0  -0.0963
  C  C122  1  0.599420  0.956350  0.847000  1.0  -0.0708
  C  C123  1  0.557930  0.161130  0.467980  1.0  0.1839
  C  C124  1  0.561210  0.214570  0.461570  1.0  -0.0961
  C  C125  1  0.601320  0.027890  0.422310  1.0  0.703
  C  C126  1  0.662430  0.044610  0.376410  1.0  -0.0879
  C  C127  1  0.687260  0.005790  0.362750  1.0  -0.0749
  C  C128  1  0.745370  0.021290  0.320730  1.0  -0.1321
  C  C129  1  0.779760  0.075830  0.291760  1.0  0.024
  C  C130  1  0.754970  0.114590  0.305330  1.0  -0.0962
  C  C131  1  0.696890  0.099310  0.346890  1.0  -0.0795
  C  C132  1  0.472760  0.370980  0.466580  1.0  0.1533
  C  C133  1  0.475760  0.324140  0.460300  1.0  -0.0969
  C  C134  1  0.476640  0.549790  0.422260  1.0  0.6763
  C  C135  1  0.461310  0.578940  0.376430  1.0  -0.0862
  C  C136  1  0.450140  0.631430  0.362780  1.0  -0.0746
  C  C137  1  0.434020  0.657970  0.320780  1.0  -0.1256
  C  C138  1  0.428530  0.632420  0.291820  1.0  0.0227
  C  C139  1  0.439740  0.580090  0.305380  1.0  -0.095
  C  C140  1  0.456290  0.553770  0.346920  1.0  -0.0747
  C  C141  1  0.337410  0.939340  0.033220  1.0  0.1633
  C  C142  1  0.284320  0.936250  0.039270  1.0  -0.097
  C  C143  1  0.472240  0.899010  0.077620  1.0  0.6726
  C  C144  1  0.455430  0.837850  0.123490  1.0  -0.0825
  C  C145  1  0.494200  0.812950  0.137210  1.0  -0.0684
  C  C146  1  0.478660  0.754840  0.179240  1.0  -0.1256
  C  C147  1  0.424120  0.720470  0.208190  1.0  0.0229
  C  C148  1  0.385400  0.745300  0.194560  1.0  -0.0944
  C  C149  1  0.400730  0.803400  0.152970  1.0  -0.0736
  C  C150  1  0.129180  0.025840  0.031770  1.0  0.1519
  C  C151  1  0.176180  0.023210  0.038180  1.0  -0.0942
  C  C152  1  0.950370  0.023520  0.077570  1.0  0.6794
  C  C153  1  0.921250  0.038800  0.123440  1.0  -0.0808
  C  C154  1  0.868760  0.049990  0.137100  1.0  -0.0674
  C  C155  1  0.842240  0.066070  0.179130  1.0  -0.1234
  C  C156  1  0.867790  0.071480  0.208110  1.0  0.0226
  C  C157  1  0.920110  0.060260  0.194540  1.0  -0.093
  C  C158  1  0.946420  0.043750  0.152960  1.0  -0.0709
  C  C159  1  0.525790  0.839070  0.532390  1.0  0.1772
  C  C160  1  0.523110  0.785710  0.538730  1.0  -0.0894
  C  C161  1  0.523620  0.972050  0.577750  1.0  0.6773
  C  C162  1  0.538830  0.955310  0.623650  1.0  -0.0874
  C  C163  1  0.549960  0.994130  0.637330  1.0  -0.0745
  C  C164  1  0.565940  0.978610  0.679440  1.0  -0.1296
  C  C165  1  0.571330  0.924070  0.708440  1.0  0.0199
  C  C166  1  0.560160  0.885310  0.694850  1.0  -0.1001
  C  C167  1  0.543750  0.900610  0.653200  1.0  -0.0758
  C  C168  1  0.442080  0.628580  0.532330  1.0  0.1453
  C  C169  1  0.438410  0.675590  0.538680  1.0  -0.0919
  C  C170  1  0.398970  0.450190  0.577590  1.0  0.6785
  C  C171  1  0.337810  0.421060  0.623470  1.0  -0.0874
  C  C172  1  0.312920  0.368560  0.637190  1.0  -0.0692
  C  C173  1  0.254810  0.342060  0.679260  1.0  -0.1283
  C  C174  1  0.220440  0.367660  0.708200  1.0  0.0188
  C  C175  1  0.245290  0.419980  0.694600  1.0  -0.0962
  C  C176  1  0.303380  0.446260  0.652980  1.0  -0.0784
  C  C177  1  0.128730  0.941810  0.031860  1.0  0.1575
  C  C178  1  0.175750  0.937560  0.038200  1.0  -0.091
  C  C179  1  0.950360  0.898960  0.077590  1.0  0.6736
  C  C180  1  0.921280  0.837810  0.123470  1.0  -0.0829
  C  C181  1  0.868810  0.812970  0.137130  1.0  -0.0683
  C  C182  1  0.842290  0.754870  0.179110  1.0  -0.1252
  C  C183  1  0.867830  0.720450  0.208080  1.0  0.0213
  C  C184  1  0.920160  0.745210  0.194540  1.0  -0.0931
  C  C185  1  0.946460  0.803320  0.152980  1.0  -0.0734
  C  C186  1  0.338850  0.025660  0.032030  1.0  0.182
  C  C187  1  0.285530  0.022810  0.038120  1.0  -0.0929
  C  C188  1  0.472350  0.023620  0.077620  1.0  0.6739
  C  C189  1  0.455610  0.038890  0.123500  1.0  -0.0874
  C  C190  1  0.494420  0.050060  0.137180  1.0  -0.0704
  C  C191  1  0.478890  0.066130  0.179220  1.0  -0.1246
  C  C192  1  0.424360  0.071550  0.208190  1.0  0.0236
  C  C193  1  0.385620  0.060350  0.194600  1.0  -0.0941
  C  C194  1  0.400910  0.043840  0.153020  1.0  -0.0716
  C  C195  1  0.439760  0.837430  0.532970  1.0  0.1656
  C  C196  1  0.436820  0.784260  0.539280  1.0  -0.1026
  C  C197  1  0.399050  0.972180  0.577620  1.0  0.6775
  C  C198  1  0.337870  0.955500  0.623410  1.0  -0.0878
  C  C199  1  0.313020  0.994320  0.637070  1.0  -0.0749
  C  C200  1  0.254900  0.978810  0.679120  1.0  -0.1319
  C  C201  1  0.220500  0.924280  0.708110  1.0  0.0221
  C  C202  1  0.245290  0.885540  0.694500  1.0  -0.0972
  C  C203  1  0.303380  0.900820  0.652920  1.0  -0.0759
  C  C204  1  0.527460  0.629580  0.533030  1.0  0.1636
  C  C205  1  0.524090  0.676430  0.539350  1.0  -0.0996
  C  C206  1  0.523550  0.450320  0.577680  1.0  0.6806
  C  C207  1  0.538830  0.421180  0.623550  1.0  -0.0834
  C  C208  1  0.550030  0.368700  0.637200  1.0  -0.0694
  C  C209  1  0.566160  0.342190  0.679180  1.0  -0.1294
  C  C210  1  0.571630  0.367760  0.708130  1.0  0.0181
  C  C211  1  0.560370  0.420070  0.694600  1.0  -0.0947
  C  C212  1  0.543800  0.446350  0.653070  1.0  -0.0775
  C  C213  1  0.661230  0.058120  0.967890  1.0  0.1553
  C  C214  1  0.714530  0.062060  0.961730  1.0  -0.0948
  C  C215  1  0.528310  0.101280  0.922260  1.0  0.6787
  C  C216  1  0.545050  0.162430  0.876380  1.0  -0.0838
  C  C217  1  0.506210  0.187240  0.862740  1.0  -0.0694
  C  C218  1  0.521690  0.245340  0.820700  1.0  -0.1215
  C  C219  1  0.576200  0.279770  0.791670  1.0  0.0251
  C  C220  1  0.615000  0.255020  0.805220  1.0  -0.0941
  C  C221  1  0.599750  0.196940  0.846830  1.0  -0.0741
  C  C222  1  0.870960  0.974150  0.968000  1.0  0.1572
  C  C223  1  0.823840  0.976420  0.961820  1.0  -0.0914
  C  C224  1  0.049630  0.976610  0.922220  1.0  0.6728
  C  C225  1  0.078780  0.961310  0.876390  1.0  -0.0866
  C  C226  1  0.131270  0.950140  0.862780  1.0  -0.0692
  C  C227  1  0.157860  0.934070  0.820760  1.0  -0.1248
  C  C228  1  0.132390  0.928650  0.791720  1.0  0.0247
  C  C229  1  0.080030  0.939810  0.805270  1.0  -0.0925
  C  C230  1  0.053660  0.956310  0.846850  1.0  -0.0753
  C  C231  1  0.472810  0.162340  0.466740  1.0  0.1537
  C  C232  1  0.475770  0.215480  0.460410  1.0  -0.0956
  C  C233  1  0.476670  0.027880  0.422430  1.0  0.6798
  C  C234  1  0.461330  0.044610  0.376610  1.0  -0.0849
  C  C235  1  0.450140  0.005810  0.362930  1.0  -0.0756
  C  C236  1  0.434080  0.021350  0.320880  1.0  -0.1296
  C  C237  1  0.428690  0.075890  0.291890  1.0  0.024
  C  C238  1  0.439870  0.114620  0.305510  1.0  -0.0989
  C  C239  1  0.456360  0.099310  0.347110  1.0  -0.0778
  C  C240  1  0.557830  0.371000  0.467920  1.0  0.1815
  C  C241  1  0.561140  0.323930  0.461570  1.0  -0.0908
  C  C242  1  0.601250  0.549880  0.422300  1.0  0.6768
  C  C243  1  0.662390  0.579020  0.376400  1.0  -0.0851
  C  C244  1  0.687260  0.631530  0.362680  1.0  -0.0693
  C  C245  1  0.745370  0.658050  0.320600  1.0  -0.1268
  C  C246  1  0.779750  0.632460  0.291660  1.0  0.0171
  C  C247  1  0.754910  0.580130  0.305250  1.0  -0.0966
  C  C248  1  0.696830  0.553840  0.346880  1.0  -0.0628
  C  C249  1  0.797400  0.019900  0.960490  1.0  0.0296
  C  C250  1  0.742290  0.019890  0.960450  1.0  0.0292
  C  C251  1  0.519220  0.242620  0.459630  1.0  0.0129
  C  C252  1  0.519210  0.297790  0.459600  1.0  0.012
  C  C253  1  0.257410  0.979100  0.039880  1.0  0.0177
  C  C254  1  0.202320  0.979480  0.039720  1.0  0.0341
  C  C255  1  0.479600  0.757400  0.540350  1.0  0.0168
  C  C256  1  0.480270  0.702250  0.540360  1.0  0.0175
  C  C257  1  0.158340  0.341770  0.750010  1.0  0.1562
  C  C258  1  0.591500  0.908180  0.750320  1.0  0.1605
  C  C259  1  0.841820  0.091700  0.249950  1.0  0.1612
  C  C260  1  0.408240  0.658400  0.250040  1.0  0.1598
  C  C261  1  0.841830  0.658390  0.249810  1.0  0.1606
  C  C262  1  0.408500  0.091790  0.250020  1.0  0.1564
  C  C263  1  0.158420  0.908400  0.749910  1.0  0.1589
  C  C264  1  0.591980  0.341830  0.749870  1.0  0.1597
  N  N265  1  0.892910  0.013730  0.972820  1.0  -0.3163
  N  N266  1  0.634490  0.013710  0.972700  1.0  -0.3155
  N  N267  1  0.514100  0.133820  0.472600  1.0  -0.3187
  N  N268  1  0.514010  0.393670  0.472480  1.0  -0.3224
  N  N269  1  0.366090  0.986420  0.027420  1.0  -0.3188
  N  N270  1  0.106980  0.986320  0.027050  1.0  -0.3151
  N  N271  1  0.486540  0.866150  0.527510  1.0  -0.3135
  N  N272  1  0.486200  0.606380  0.527460  1.0  -0.3138
  O  O273  1  0.002410  0.079770  0.933190  1.0  -0.6047
  O  O274  1  0.071760  0.071060  0.950480  1.0  -0.6016
  O  O275  1  0.564390  0.987200  0.933210  1.0  -0.6036
  O  O276  1  0.477680  0.978510  0.950700  1.0  -0.5966
  O  O277  1  0.579920  0.064120  0.433220  1.0  -0.6073
  O  O278  1  0.571160  0.977450  0.450710  1.0  -0.5934
  O  O279  1  0.487190  0.502660  0.433170  1.0  -0.5968
  O  O280  1  0.478450  0.571860  0.450630  1.0  -0.5993
  O  O281  1  0.436040  0.920520  0.066720  1.0  -0.5982
  O  O282  1  0.522720  0.929110  0.049270  1.0  -0.5991
  O  O283  1  0.997510  0.012970  0.066620  1.0  -0.5955
  O  O284  1  0.928220  0.021740  0.049250  1.0  -0.6
  O  O285  1  0.513070  0.935830  0.566850  1.0  -0.6042
  O  O286  1  0.521890  0.022500  0.549340  1.0  -0.5929
  O  O287  1  0.420420  0.497300  0.566710  1.0  -0.6063
  O  O288  1  0.429130  0.428130  0.549200  1.0  -0.6015
  O  O289  1  0.997530  0.920410  0.066590  1.0  -0.6063
  O  O290  1  0.928180  0.929090  0.049320  1.0  -0.5998
  O  O291  1  0.436110  0.013120  0.066700  1.0  -0.6042
  O  O292  1  0.522790  0.021790  0.049280  1.0  -0.5974
  O  O293  1  0.420490  0.935910  0.566780  1.0  -0.5982
  O  O294  1  0.429250  0.022610  0.549250  1.0  -0.5953
  O  O295  1  0.513020  0.497460  0.566760  1.0  -0.6002
  O  O296  1  0.521760  0.428250  0.549310  1.0  -0.5991
  O  O297  1  0.564540  0.079810  0.933150  1.0  -0.6001
  O  O298  1  0.477830  0.071170  0.950640  1.0  -0.5984
  O  O299  1  0.002490  0.987170  0.933140  1.0  -0.5939
  O  O300  1  0.071760  0.978400  0.950550  1.0  -0.6008
  O  O301  1  0.487310  0.064130  0.433270  1.0  -0.6004
  O  O302  1  0.478450  0.977430  0.450810  1.0  -0.5947
  O  O303  1  0.579810  0.502760  0.433180  1.0  -0.6055
  O  O304  1  0.571090  0.571930  0.450690  1.0  -0.6001
  O  O305  1  0.127590  0.372640  0.750140  1.0  -0.4286
  O  O306  1  0.622150  0.877200  0.750490  1.0  -0.4237
  O  O307  1  0.872620  0.122520  0.249960  1.0  -0.4394
  O  O308  1  0.377370  0.627590  0.250090  1.0  -0.4364
  O  O309  1  0.872620  0.627540  0.249660  1.0  -0.4291
  O  O310  1  0.377710  0.122640  0.249980  1.0  -0.4301
  O  O311  1  0.127640  0.877530  0.749930  1.0  -0.4335
  O  O312  1  0.622790  0.372690  0.749840  1.0  -0.4228
