# generated using pymatgen
data_NiH17C21(NO2)3
_symmetry_space_group_name_H-M   'P 1'
_cell_length_a   8.40300000
_cell_length_b   10.98500000
_cell_length_c   24.23500000
_cell_angle_alpha   90.00000000
_cell_angle_beta   90.00000000
_cell_angle_gamma   90.00000000
_symmetry_Int_Tables_number   1
_chemical_formula_structural   NiH17C21(NO2)3
_chemical_formula_sum   'Ni4 H68 C84 N12 O24'
_cell_volume   2237.05905442
_cell_formula_units_Z   4
loop_
 _symmetry_equiv_pos_site_id
 _symmetry_equiv_pos_as_xyz
  1  'x, y, z'
loop_
 _atom_site_type_symbol
 _atom_site_label
 _atom_site_symmetry_multiplicity
 _atom_site_fract_x
 _atom_site_fract_y
 _atom_site_fract_z
 _atom_site_occupancy
 _atom_site_charge
  Ni  Ni1  1  0.602230  0.114990  0.485550  1.0  0.7217
  Ni  Ni2  1  0.897770  0.885010  0.985550  1.0  0.7264
  Ni  Ni3  1  0.397770  0.614990  0.014450  1.0  0.7238
  Ni  Ni4  1  0.102230  0.385010  0.514450  1.0  0.7231
  H  H5  1  0.095800  0.224000  0.366700  1.0  0.1211
  H  H6  1  0.958200  0.956200  0.264700  1.0  0.1429
  H  H7  1  0.819800  0.866400  0.336500  1.0  0.1148
  H  H8  1  0.470600  0.065000  0.373800  1.0  0.0969
  H  H9  1  0.459900  0.140800  0.286500  1.0  0.1166
  H  H10  1  0.697400  0.432900  0.338200  1.0  0.1448
  H  H11  1  0.694900  0.351300  0.425500  1.0  0.0932
  H  H12  1  0.645600  0.417800  0.242000  1.0  0.1185
  H  H13  1  0.463600  0.388500  0.239200  1.0  0.1325
  H  H14  1  0.517000  0.201700  0.196600  1.0  0.0988
  H  H15  1  0.591000  0.307900  0.161800  1.0  0.1068
  H  H16  1  0.842000  0.266800  0.203600  1.0  0.1083
  H  H17  1  0.765500  0.155200  0.233700  1.0  0.1083
  H  H18  1  0.711100  0.871300  0.093700  1.0  0.0847
  H  H19  1  0.653800  0.986100  0.169500  1.0  0.1278
  H  H20  1  0.965200  0.231500  0.117100  1.0  0.1306
  H  H21  1  0.013800  0.111300  0.042500  1.0  0.0942
  H  H22  1  0.404200  0.776000  0.866700  1.0  0.1211
  H  H23  1  0.541800  0.043800  0.764700  1.0  0.1429
  H  H24  1  0.680200  0.133600  0.836500  1.0  0.1147
  H  H25  1  0.029400  0.935000  0.873800  1.0  0.0967
  H  H26  1  0.040100  0.859200  0.786500  1.0  0.117
  H  H27  1  0.802600  0.567100  0.838200  1.0  0.1456
  H  H28  1  0.805100  0.648700  0.925500  1.0  0.0932
  H  H29  1  0.854400  0.582200  0.742000  1.0  0.1192
  H  H30  1  0.036400  0.611500  0.739200  1.0  0.1337
  H  H31  1  0.983000  0.798300  0.696600  1.0  0.1004
  H  H32  1  0.909000  0.692100  0.661800  1.0  0.1063
  H  H33  1  0.658000  0.733200  0.703600  1.0  0.1082
  H  H34  1  0.734500  0.844800  0.733700  1.0  0.1085
  H  H35  1  0.788900  0.128700  0.593700  1.0  0.0845
  H  H36  1  0.846200  0.013900  0.669500  1.0  0.1278
  H  H37  1  0.534800  0.768500  0.617100  1.0  0.1305
  H  H38  1  0.486200  0.888700  0.542500  1.0  0.0938
  H  H39  1  0.904200  0.724000  0.133300  1.0  0.1211
  H  H40  1  0.041800  0.456200  0.235300  1.0  0.1423
  H  H41  1  0.180200  0.366400  0.163500  1.0  0.1144
  H  H42  1  0.529400  0.565000  0.126200  1.0  0.0969
  H  H43  1  0.540100  0.640800  0.213500  1.0  0.1167
  H  H44  1  0.302600  0.932900  0.161800  1.0  0.1457
  H  H45  1  0.305100  0.851300  0.074500  1.0  0.0929
  H  H46  1  0.354400  0.917800  0.258000  1.0  0.1195
  H  H47  1  0.536400  0.888500  0.260800  1.0  0.1341
  H  H48  1  0.483000  0.701700  0.303400  1.0  0.0986
  H  H49  1  0.409000  0.807900  0.338200  1.0  0.1062
  H  H50  1  0.158000  0.766800  0.296400  1.0  0.1084
  H  H51  1  0.234500  0.655200  0.266300  1.0  0.1095
  H  H52  1  0.288900  0.371300  0.406300  1.0  0.0848
  H  H53  1  0.346200  0.486100  0.330500  1.0  0.1279
  H  H54  1  0.034800  0.731500  0.382900  1.0  0.1312
  H  H55  1  0.986200  0.611300  0.457500  1.0  0.0947
  H  H56  1  0.595800  0.276000  0.633300  1.0  0.1211
  H  H57  1  0.458200  0.543800  0.735300  1.0  0.1418
  H  H58  1  0.319800  0.633600  0.663500  1.0  0.1151
  H  H59  1  0.970600  0.435000  0.626200  1.0  0.0966
  H  H60  1  0.959900  0.359200  0.713500  1.0  0.1173
  H  H61  1  0.197400  0.067100  0.661800  1.0  0.1455
  H  H62  1  0.194900  0.148700  0.574500  1.0  0.0931
  H  H63  1  0.145600  0.082200  0.758000  1.0  0.1184
  H  H64  1  0.963600  0.111500  0.760800  1.0  0.1322
  H  H65  1  0.017000  0.298300  0.803400  1.0  0.0995
  H  H66  1  0.091000  0.192100  0.838200  1.0  0.1066
  H  H67  1  0.342000  0.233200  0.796400  1.0  0.1089
  H  H68  1  0.265500  0.344800  0.766300  1.0  0.1089
  H  H69  1  0.211100  0.628700  0.906300  1.0  0.0848
  H  H70  1  0.153800  0.513900  0.830500  1.0  0.128
  H  H71  1  0.465200  0.268500  0.882900  1.0  0.1305
  H  H72  1  0.513800  0.388700  0.957500  1.0  0.0944
  C  C73  1  0.876700  0.989200  0.395190  1.0  -0.0444
  C  C74  1  0.959100  0.097700  0.404290  1.0  -0.124
  C  C75  1  0.040500  0.151800  0.360980  1.0  -0.0501
  C  C76  1  0.039500  0.099300  0.310130  1.0  0.0291
  C  C77  1  0.957700  0.991200  0.299660  1.0  -0.1168
  C  C78  1  0.876200  0.937900  0.342690  1.0  -0.0112
  C  C79  1  0.787200  0.921300  0.440110  1.0  0.7149
  C  C80  1  0.959000  0.162900  0.458980  1.0  0.713
  C  C81  1  0.515700  0.140800  0.366830  1.0  0.197
  C  C82  1  0.509500  0.185900  0.314060  1.0  -0.1988
  C  C83  1  0.575900  0.296800  0.301500  1.0  0.1523
  C  C84  1  0.648400  0.358200  0.344400  1.0  -0.2145
  C  C85  1  0.647700  0.307700  0.396930  1.0  0.1942
  C  C86  1  0.568000  0.352600  0.244150  1.0  -0.1877
  C  C87  1  0.598600  0.264100  0.196490  1.0  -0.039
  C  C88  1  0.761600  0.203900  0.200360  1.0  -0.1835
  C  C89  1  0.763200  0.945300  0.098150  1.0  0.1879
  C  C90  1  0.727800  0.014200  0.144000  1.0  -0.2142
  C  C91  1  0.801700  0.124300  0.152090  1.0  0.1712
  C  C92  1  0.910600  0.158400  0.113210  1.0  -0.2149
  C  C93  1  0.939600  0.085100  0.068370  1.0  0.1851
  C  C94  1  0.623300  0.010800  0.895190  1.0  -0.043
  C  C95  1  0.540900  0.902300  0.904290  1.0  -0.1234
  C  C96  1  0.459500  0.848200  0.860980  1.0  -0.0502
  C  C97  1  0.460500  0.900700  0.810130  1.0  0.0302
  C  C98  1  0.542300  0.008800  0.799660  1.0  -0.1168
  C  C99  1  0.623800  0.062100  0.842690  1.0  -0.0113
  C  C100  1  0.712800  0.078700  0.940110  1.0  0.7144
  C  C101  1  0.541000  0.837100  0.958980  1.0  0.7122
  C  C102  1  0.984300  0.859200  0.866830  1.0  0.196
  C  C103  1  0.990500  0.814100  0.814060  1.0  -0.1987
  C  C104  1  0.924100  0.703200  0.801500  1.0  0.1524
  C  C105  1  0.851600  0.641800  0.844400  1.0  -0.2142
  C  C106  1  0.852300  0.692300  0.896930  1.0  0.1937
  C  C107  1  0.932000  0.647400  0.744150  1.0  -0.1862
  C  C108  1  0.901400  0.735900  0.696490  1.0  -0.0415
  C  C109  1  0.738400  0.796100  0.700360  1.0  -0.1832
  C  C110  1  0.736800  0.054700  0.598150  1.0  0.1884
  C  C111  1  0.772200  0.985800  0.644000  1.0  -0.2149
  C  C112  1  0.698300  0.875700  0.652090  1.0  0.1716
  C  C113  1  0.589400  0.841600  0.613210  1.0  -0.2137
  C  C114  1  0.560400  0.914900  0.568370  1.0  0.1853
  C  C115  1  0.123300  0.489200  0.104810  1.0  -0.0439
  C  C116  1  0.040900  0.597700  0.095710  1.0  -0.1248
  C  C117  1  0.959500  0.651800  0.139020  1.0  -0.0512
  C  C118  1  0.960500  0.599300  0.189870  1.0  0.0302
  C  C119  1  0.042300  0.491200  0.200340  1.0  -0.1157
  C  C120  1  0.123800  0.437900  0.157310  1.0  -0.0113
  C  C121  1  0.212800  0.421300  0.059890  1.0  0.7143
  C  C122  1  0.041000  0.662900  0.041020  1.0  0.7129
  C  C123  1  0.484300  0.640800  0.133170  1.0  0.1965
  C  C124  1  0.490500  0.685900  0.185940  1.0  -0.1985
  C  C125  1  0.424100  0.796800  0.198500  1.0  0.1531
  C  C126  1  0.351600  0.858200  0.155600  1.0  -0.2152
  C  C127  1  0.352300  0.807700  0.103070  1.0  0.1942
  C  C128  1  0.432000  0.852600  0.255850  1.0  -0.1886
  C  C129  1  0.401400  0.764100  0.303510  1.0  -0.0414
  C  C130  1  0.238400  0.703900  0.299640  1.0  -0.1818
  C  C131  1  0.236800  0.445300  0.401850  1.0  0.1885
  C  C132  1  0.272200  0.514200  0.356000  1.0  -0.2154
  C  C133  1  0.198300  0.624300  0.347910  1.0  0.1723
  C  C134  1  0.089400  0.658400  0.386790  1.0  -0.2141
  C  C135  1  0.060400  0.585100  0.431630  1.0  0.1848
  C  C136  1  0.376700  0.510800  0.604810  1.0  -0.0435
  C  C137  1  0.459100  0.402300  0.595710  1.0  -0.1233
  C  C138  1  0.540500  0.348200  0.639020  1.0  -0.0491
  C  C139  1  0.539500  0.400700  0.689870  1.0  0.0294
  C  C140  1  0.457700  0.508800  0.700340  1.0  -0.1167
  C  C141  1  0.376200  0.562100  0.657310  1.0  -0.0116
  C  C142  1  0.287200  0.578700  0.559890  1.0  0.7147
  C  C143  1  0.459000  0.337100  0.541020  1.0  0.7124
  C  C144  1  0.015700  0.359200  0.633170  1.0  0.1971
  C  C145  1  0.009500  0.314100  0.685940  1.0  -0.1984
  C  C146  1  0.075900  0.203200  0.698500  1.0  0.1536
  C  C147  1  0.148400  0.141800  0.655600  1.0  -0.2157
  C  C148  1  0.147700  0.192300  0.603070  1.0  0.1936
  C  C149  1  0.068000  0.147400  0.755850  1.0  -0.187
  C  C150  1  0.098600  0.235900  0.803510  1.0  -0.0405
  C  C151  1  0.261600  0.296100  0.799640  1.0  -0.1818
  C  C152  1  0.263200  0.554700  0.901850  1.0  0.1892
  C  C153  1  0.227800  0.485800  0.856000  1.0  -0.2146
  C  C154  1  0.301700  0.375700  0.847910  1.0  0.1724
  C  C155  1  0.410600  0.341600  0.886790  1.0  -0.2132
  C  C156  1  0.439600  0.414900  0.931630  1.0  0.1857
  N  N157  1  0.124600  0.158700  0.264700  1.0  0.3107
  N  N158  1  0.583300  0.200500  0.408560  1.0  -0.3263
  N  N159  1  0.867700  0.978800  0.059870  1.0  -0.304
  N  N160  1  0.375400  0.841300  0.764700  1.0  0.3099
  N  N161  1  0.916700  0.799500  0.908560  1.0  -0.327
  N  N162  1  0.632300  0.021200  0.559870  1.0  -0.3023
  N  N163  1  0.875400  0.658700  0.235300  1.0  0.3095
  N  N164  1  0.416700  0.700500  0.091440  1.0  -0.3291
  N  N165  1  0.132300  0.478800  0.440130  1.0  -0.296
  N  N166  1  0.624600  0.341300  0.735300  1.0  0.3118
  N  N167  1  0.083300  0.299500  0.591440  1.0  -0.3281
  N  N168  1  0.367700  0.521200  0.940130  1.0  -0.2956
  O  O169  1  0.642700  0.949700  0.447460  1.0  -0.5852
  O  O170  1  0.860000  0.839300  0.464010  1.0  -0.5447
  O  O171  1  0.841900  0.156160  0.490650  1.0  -0.578
  O  O172  1  0.082000  0.226450  0.469110  1.0  -0.5824
  O  O173  1  0.165500  0.265700  0.271010  1.0  -0.5303
  O  O174  1  0.154500  0.100300  0.223150  1.0  -0.4781
  O  O175  1  0.857300  0.050300  0.947460  1.0  -0.5841
  O  O176  1  0.640000  0.160700  0.964010  1.0  -0.5444
  O  O177  1  0.658100  0.843840  0.990650  1.0  -0.5773
  O  O178  1  0.418000  0.773550  0.969110  1.0  -0.5827
  O  O179  1  0.334500  0.734300  0.771010  1.0  -0.53
  O  O180  1  0.345500  0.899700  0.723150  1.0  -0.4772
  O  O181  1  0.357300  0.449700  0.052540  1.0  -0.5836
  O  O182  1  0.140000  0.339300  0.035990  1.0  -0.5462
  O  O183  1  0.158100  0.656160  0.009350  1.0  -0.5776
  O  O184  1  0.918000  0.726450  0.030890  1.0  -0.5828
  O  O185  1  0.834500  0.765700  0.228990  1.0  -0.5305
  O  O186  1  0.845500  0.600300  0.276850  1.0  -0.4773
  O  O187  1  0.142700  0.550300  0.552540  1.0  -0.5852
  O  O188  1  0.360000  0.660700  0.535990  1.0  -0.5452
  O  O189  1  0.341900  0.343840  0.509350  1.0  -0.5779
  O  O190  1  0.582000  0.273550  0.530890  1.0  -0.5826
  O  O191  1  0.665500  0.234300  0.728990  1.0  -0.5307
  O  O192  1  0.654500  0.399700  0.776850  1.0  -0.4769
