# generated using pymatgen
data_CuH16C13(NO2)2
_symmetry_space_group_name_H-M   'P 1'
_cell_length_a   8.71300000
_cell_length_b   13.05400000
_cell_length_c   13.56800000
_cell_angle_alpha   90.00000000
_cell_angle_beta   90.00000000
_cell_angle_gamma   90.18400000
_symmetry_Int_Tables_number   1
_chemical_formula_structural   CuH16C13(NO2)2
_chemical_formula_sum   'Cu4 H64 C52 N8 O16'
_cell_volume   1543.20960544
_cell_formula_units_Z   4
loop_
 _symmetry_equiv_pos_site_id
 _symmetry_equiv_pos_as_xyz
  1  'x, y, z'
loop_
 _atom_site_type_symbol
 _atom_site_label
 _atom_site_symmetry_multiplicity
 _atom_site_fract_x
 _atom_site_fract_y
 _atom_site_fract_z
 _atom_site_occupancy
 _atom_site_charge
  Cu  Cu1  1  0.954830  0.412380  0.959830  1.0  0.8162
  Cu  Cu2  1  0.545170  0.587620  0.459830  1.0  0.8164
  Cu  Cu3  1  0.045170  0.587620  0.040170  1.0  0.8164
  Cu  Cu4  1  0.454830  0.412380  0.540170  1.0  0.816
  H  H5  1  0.785700  0.378100  0.772100  1.0  0.0764
  H  H6  1  0.737100  0.262000  0.650200  1.0  0.1167
  H  H7  1  0.914000  0.043700  0.822900  1.0  0.1252
  H  H8  1  0.959800  0.166300  0.939800  1.0  0.0704
  H  H9  1  0.716700  0.091300  0.594200  1.0  0.0651
  H  H10  1  0.727000  0.003700  0.672800  1.0  0.0949
  H  H11  1  0.813000  0.887300  0.552900  1.0  0.0778
  H  H12  1  0.793400  0.975100  0.474900  1.0  0.0573
  H  H13  1  0.932300  0.135200  0.495500  1.0  0.0545
  H  H14  1  0.041400  0.149900  0.586500  1.0  0.0683
  H  H15  1  0.409700  0.303400  0.053700  1.0  0.104
  H  H16  1  0.490500  0.396200  0.001500  1.0  0.1139
  H  H17  1  0.579000  0.382500  0.163600  1.0  0.0717
  H  H18  1  0.494400  0.487500  0.149900  1.0  0.0693
  H  H19  1  0.360300  0.312000  0.238000  1.0  0.1175
  H  H20  1  0.269800  0.413700  0.220000  1.0  0.1192
  H  H21  1  0.714300  0.621900  0.272100  1.0  0.076
  H  H22  1  0.762900  0.738000  0.150200  1.0  0.1164
  H  H23  1  0.586000  0.956300  0.322900  1.0  0.1251
  H  H24  1  0.540200  0.833700  0.439800  1.0  0.0692
  H  H25  1  0.783300  0.908700  0.094200  1.0  0.0639
  H  H26  1  0.773000  0.996300  0.172800  1.0  0.0923
  H  H27  1  0.687000  0.112700  0.052900  1.0  0.0756
  H  H28  1  0.706600  0.024900  0.974900  1.0  0.0545
  H  H29  1  0.567700  0.864800  0.995500  1.0  0.0526
  H  H30  1  0.458600  0.850100  0.086500  1.0  0.0698
  H  H31  1  0.090300  0.696600  0.553700  1.0  0.103
  H  H32  1  0.009500  0.603800  0.501500  1.0  0.1147
  H  H33  1  0.921000  0.617500  0.663600  1.0  0.0715
  H  H34  1  0.005600  0.512500  0.649900  1.0  0.0684
  H  H35  1  0.139700  0.688000  0.738000  1.0  0.1164
  H  H36  1  0.230200  0.586300  0.720000  1.0  0.1192
  H  H37  1  0.214300  0.621900  0.227900  1.0  0.0759
  H  H38  1  0.262900  0.738000  0.349800  1.0  0.1169
  H  H39  1  0.086000  0.956300  0.177100  1.0  0.1253
  H  H40  1  0.040200  0.833700  0.060200  1.0  0.0694
  H  H41  1  0.283300  0.908700  0.405800  1.0  0.0649
  H  H42  1  0.273000  0.996300  0.327200  1.0  0.093
  H  H43  1  0.187000  0.112700  0.447100  1.0  0.077
  H  H44  1  0.206600  0.024900  0.525100  1.0  0.0507
  H  H45  1  0.067700  0.864800  0.504500  1.0  0.0524
  H  H46  1  0.958600  0.850100  0.413500  1.0  0.069
  H  H47  1  0.590300  0.696600  0.946300  1.0  0.1031
  H  H48  1  0.509500  0.603800  0.998500  1.0  0.1122
  H  H49  1  0.421000  0.617500  0.836400  1.0  0.0708
  H  H50  1  0.505600  0.512500  0.850100  1.0  0.0684
  H  H51  1  0.639700  0.688000  0.762000  1.0  0.116
  H  H52  1  0.730200  0.586300  0.780000  1.0  0.1195
  H  H53  1  0.285700  0.378100  0.727900  1.0  0.0762
  H  H54  1  0.237100  0.262000  0.849800  1.0  0.1168
  H  H55  1  0.414000  0.043700  0.677100  1.0  0.1252
  H  H56  1  0.459800  0.166300  0.560200  1.0  0.0697
  H  H57  1  0.216700  0.091300  0.905800  1.0  0.066
  H  H58  1  0.227000  0.003700  0.827200  1.0  0.0941
  H  H59  1  0.313000  0.887300  0.947100  1.0  0.0773
  H  H60  1  0.293400  0.975100  0.025100  1.0  0.0528
  H  H61  1  0.432300  0.135200  0.004500  1.0  0.0525
  H  H62  1  0.541400  0.149900  0.913500  1.0  0.0687
  H  H63  1  0.909700  0.303400  0.446300  1.0  0.1047
  H  H64  1  0.990500  0.396200  0.498500  1.0  0.1128
  H  H65  1  0.079000  0.382500  0.336400  1.0  0.0707
  H  H66  1  0.994400  0.487500  0.350100  1.0  0.0693
  H  H67  1  0.860300  0.312000  0.262000  1.0  0.1172
  H  H68  1  0.769800  0.413700  0.280000  1.0  0.1193
  C  C69  1  0.813000  0.310000  0.782300  1.0  0.1866
  C  C70  1  0.782700  0.240500  0.708600  1.0  -0.2209
  C  C71  1  0.820200  0.138200  0.721670  1.0  0.12
  C  C72  1  0.887500  0.111400  0.810590  1.0  -0.2139
  C  C73  1  0.914800  0.185800  0.880610  1.0  0.1679
  C  C74  1  0.783200  0.060000  0.642900  1.0  -0.003
  C  C75  1  0.865800  0.942700  0.519200  1.0  0.0181
  C  C76  1  0.002600  0.100280  0.539500  1.0  0.0205
  C  C77  1  0.262800  0.422600  0.028170  1.0  0.6977
  C  C78  1  0.418100  0.377600  0.052810  1.0  -0.3101
  C  C79  1  0.480000  0.413800  0.151620  1.0  -0.0278
  C  C80  1  0.370200  0.386000  0.235200  1.0  -0.3265
  C  C81  1  0.418600  0.424300  0.335390  1.0  0.7037
  C  C82  1  0.687000  0.690000  0.282300  1.0  0.1874
  C  C83  1  0.717300  0.759500  0.208600  1.0  -0.2188
  C  C84  1  0.679800  0.861800  0.221670  1.0  0.1195
  C  C85  1  0.612500  0.888600  0.310590  1.0  -0.2161
  C  C86  1  0.585200  0.814200  0.380610  1.0  0.1676
  C  C87  1  0.716800  0.940000  0.142900  1.0  -0.0027
  C  C88  1  0.634200  0.057300  0.019200  1.0  0.0197
  C  C89  1  0.497400  0.899720  0.039500  1.0  0.0203
  C  C90  1  0.237200  0.577400  0.528170  1.0  0.6977
  C  C91  1  0.081900  0.622400  0.552810  1.0  -0.3099
  C  C92  1  0.020000  0.586200  0.651620  1.0  -0.0295
  C  C93  1  0.129800  0.614000  0.735200  1.0  -0.3146
  C  C94  1  0.081400  0.575700  0.835390  1.0  0.7042
  C  C95  1  0.187000  0.690000  0.217700  1.0  0.1875
  C  C96  1  0.217300  0.759500  0.291400  1.0  -0.2184
  C  C97  1  0.179800  0.861800  0.278330  1.0  0.1201
  C  C98  1  0.112500  0.888600  0.189410  1.0  -0.2152
  C  C99  1  0.085200  0.814200  0.119390  1.0  0.168
  C  C100  1  0.216800  0.940000  0.357100  1.0  -0.0021
  C  C101  1  0.134200  0.057300  0.480800  1.0  0.0188
  C  C102  1  0.997400  0.899720  0.460500  1.0  0.0201
  C  C103  1  0.737200  0.577400  0.971830  1.0  0.6968
  C  C104  1  0.581900  0.622400  0.947190  1.0  -0.3117
  C  C105  1  0.520000  0.586200  0.848380  1.0  -0.0288
  C  C106  1  0.629800  0.614000  0.764800  1.0  -0.3162
  C  C107  1  0.581400  0.575700  0.664610  1.0  0.7054
  C  C108  1  0.313000  0.310000  0.717700  1.0  0.1863
  C  C109  1  0.282700  0.240500  0.791400  1.0  -0.2211
  C  C110  1  0.320200  0.138200  0.778330  1.0  0.1204
  C  C111  1  0.387500  0.111400  0.689410  1.0  -0.2141
  C  C112  1  0.414800  0.185800  0.619390  1.0  0.1678
  C  C113  1  0.283200  0.060000  0.857100  1.0  -0.0021
  C  C114  1  0.365800  0.942700  0.980800  1.0  0.0175
  C  C115  1  0.502600  0.100280  0.960500  1.0  0.0209
  C  C116  1  0.762800  0.422600  0.471830  1.0  0.6967
  C  C117  1  0.918100  0.377600  0.447190  1.0  -0.3109
  C  C118  1  0.980000  0.413800  0.348380  1.0  -0.0275
  C  C119  1  0.870200  0.386000  0.264800  1.0  -0.3262
  C  C120  1  0.918600  0.424300  0.164610  1.0  0.7045
  N  N121  1  0.879700  0.284940  0.867740  1.0  -0.3547
  N  N122  1  0.919900  0.018460  0.592370  1.0  -0.3695
  N  N123  1  0.620300  0.715060  0.367740  1.0  -0.3544
  N  N124  1  0.580100  0.981540  0.092370  1.0  -0.3691
  N  N125  1  0.120300  0.715060  0.132260  1.0  -0.3548
  N  N126  1  0.080100  0.981540  0.407630  1.0  -0.3687
  N  N127  1  0.379700  0.284940  0.632260  1.0  -0.3538
  N  N128  1  0.419900  0.018460  0.907630  1.0  -0.3712
  O  O129  1  0.164300  0.364510  0.989470  1.0  -0.5747
  O  O130  1  0.242100  0.515020  0.049390  1.0  -0.5672
  O  O131  1  0.400000  0.364780  0.407910  1.0  -0.5788
  O  O132  1  0.471600  0.513670  0.341260  1.0  -0.5832
  O  O133  1  0.335700  0.635490  0.489470  1.0  -0.5745
  O  O134  1  0.257900  0.484980  0.549390  1.0  -0.5667
  O  O135  1  0.100000  0.635220  0.907910  1.0  -0.5784
  O  O136  1  0.028400  0.486330  0.841260  1.0  -0.5816
  O  O137  1  0.835700  0.635490  0.010530  1.0  -0.5747
  O  O138  1  0.757900  0.484980  0.950610  1.0  -0.5666
  O  O139  1  0.600000  0.635220  0.592090  1.0  -0.579
  O  O140  1  0.528400  0.486330  0.658740  1.0  -0.5817
  O  O141  1  0.664300  0.364510  0.510530  1.0  -0.5745
  O  O142  1  0.742100  0.515020  0.450610  1.0  -0.5673
  O  O143  1  0.900000  0.364780  0.092090  1.0  -0.579
  O  O144  1  0.971600  0.513670  0.158740  1.0  -0.5831
