# generated using pymatgen
data_Zn2H43C55N3O8
_symmetry_space_group_name_H-M   'P 1'
_cell_length_a   15.18200000
_cell_length_b   15.18200000
_cell_length_c   48.42000000
_cell_angle_alpha   94.33310000
_cell_angle_beta   94.33310000
_cell_angle_gamma   98.25300000
_symmetry_Int_Tables_number   1
_chemical_formula_structural   Zn2H43C55N3O8
_chemical_formula_sum   'Zn8 H172 C220 N12 O32'
_cell_volume   10971.03327605
_cell_formula_units_Z   4
loop_
 _symmetry_equiv_pos_site_id
 _symmetry_equiv_pos_as_xyz
  1  'x, y, z'
loop_
 _atom_site_type_symbol
 _atom_site_label
 _atom_site_symmetry_multiplicity
 _atom_site_fract_x
 _atom_site_fract_y
 _atom_site_fract_z
 _atom_site_occupancy
 _atom_site_charge
  Zn  Zn1  1  0.625050  0.854090  0.383090  1.0  0.9635
  Zn  Zn2  1  0.751840  0.719340  0.823230  1.0  0.9598
  Zn  Zn3  1  0.768390  0.735170  0.883790  1.0  0.9442
  Zn  Zn4  1  0.608030  0.837510  0.322670  1.0  0.9046
  Zn  Zn5  1  0.264830  0.231610  0.116210  1.0  0.9437
  Zn  Zn6  1  0.162490  0.391970  0.677330  1.0  0.9047
  Zn  Zn7  1  0.145910  0.374950  0.616910  1.0  0.9642
  Zn  Zn8  1  0.280660  0.248160  0.176770  1.0  0.9588
  H  H9  1  0.828800  0.720000  0.228300  1.0  0.1309
  H  H10  1  0.732300  0.613100  0.666667  1.0  0.1257
  H  H11  1  0.713700  0.978700  0.432600  1.0  0.1052
  H  H12  1  0.575600  0.675600  0.731100  1.0  0.116
  H  H13  1  0.845600  0.807200  0.778100  1.0  0.1059
  H  H14  1  0.617800  0.820600  0.998600  1.0  0.1288
  H  H15  1  0.550900  0.755500  0.476300  1.0  0.117
  H  H16  1  0.583100  0.718900  0.134400  1.0  0.1159
  H  H17  1  0.817100  0.646500  0.069400  1.0  0.1102
  H  H18  1  0.167300  0.834100  0.310200  1.0  0.1216
  H  H19  1  0.738300  0.172100  0.893300  1.0  0.1149
  H  H20  1  0.696300  0.611900  0.696200  1.0  0.1268
  H  H21  1  0.736600  0.271400  0.811700  1.0  0.1168
  H  H22  1  0.722500  0.984700  0.480800  1.0  0.1147
  H  H23  1  0.623900  0.948300  0.665400  1.0  0.1142
  H  H24  1  0.630900  0.580500  0.669600  1.0  0.1289
  H  H25  1  0.483100  0.699500  0.894300  1.0  0.1034
  H  H26  1  0.028600  0.695400  0.812500  1.0  0.1083
  H  H27  1  0.799700  0.313500  0.894200  1.0  0.1154
  H  H28  1  0.772900  0.804900  0.562800  1.0  0.1153
  H  H29  1  0.547100  0.979500  0.498900  1.0  0.1019
  H  H30  1  0.717200  0.814600  0.105300  1.0  0.2739
  H  H31  1  0.603600  0.394000  0.310800  1.0  0.1119
  H  H32  1  0.194500  0.869300  0.393600  1.0  0.1202
  H  H33  1  0.552600  0.809200  0.607700  1.0  0.0954
  H  H34  1  0.491200  0.719800  0.193100  1.0  0.1261
  H  H35  1  0.640300  0.767500  0.606500  1.0  0.044
  H  H36  1  0.681000  0.624000  0.973500  1.0  0.107
  H  H37  1  0.609300  0.648300  0.776900  1.0  0.1021
  H  H38  1  0.702100  0.891100  0.995900  1.0  0.1102
  H  H39  1  0.854900  0.852300  0.982300  1.0  0.1115
  H  H40  1  0.841300  0.724100  0.160900  1.0  0.1188
  H  H41  1  0.480400  0.751000  0.163100  1.0  0.1236
  H  H42  1  0.855900  0.567300  0.027000  1.0  0.1326
  H  H43  1  0.655000  0.924400  0.609700  1.0  0.2351
  H  H44  1  0.639500  0.699500  0.633500  1.0  0.0905
  H  H45  1  0.345300  0.858700  0.393400  1.0  0.1044
  H  H46  1  0.759500  0.755700  0.494300  1.0  0.1195
  H  H47  1  0.686200  0.912800  0.227700  1.0  0.1134
  H  H48  1  0.549900  0.917100  0.568000  1.0  0.1057
  H  H49  1  0.726300  0.421900  0.809800  1.0  0.1027
  H  H50  1  0.642400  0.903800  0.020500  1.0  0.1216
  H  H51  1  0.823700  0.700300  0.120000  1.0  0.0971
  H  H52  1  0.656700  0.942500  0.273500  1.0  0.1058
  H  H53  1  0.785000  0.572200  0.002200  1.0  0.1109
  H  H54  1  0.590200  0.679400  0.280100  1.0  0.1075
  H  H55  1  0.895100  0.756900  0.207200  1.0  0.1236
  H  H56  1  0.634400  0.420200  0.394300  1.0  0.1163
  H  H57  1  0.597800  0.913600  0.728300  1.0  0.1345
  H  H58  1  0.811800  0.834400  0.732300  1.0  0.1094
  H  H59  1  0.827000  0.769800  0.521000  1.0  0.1175
  H  H60  1  0.684500  0.619900  0.925600  1.0  0.0984
  H  H61  1  0.625200  0.137800  0.393500  1.0  0.1034
  H  H62  1  0.472600  0.955000  0.518900  1.0  0.1324
  H  H63  1  0.734700  0.638100  0.107600  1.0  0.0914
  H  H64  1  0.858400  0.848200  0.934500  1.0  0.106
  H  H65  1  0.542100  0.749500  0.428100  1.0  0.1011
  H  H66  1  0.517500  0.820700  0.188300  1.0  0.1271
  H  H67  1  0.555000  0.028000  0.528900  1.0  0.1287
  H  H68  1  0.700000  0.949800  0.728900  1.0  0.1174
  H  H69  1  0.318800  0.743000  0.813100  1.0  0.111
  H  H70  1  0.627000  0.117000  0.310300  1.0  0.1008
  H  H71  1  0.062000  0.866400  0.396000  1.0  0.1255
  H  H72  1  0.318200  0.823400  0.309900  1.0  0.1089
  H  H73  1  0.628700  0.572100  0.394100  1.0  0.1072
  H  H74  1  0.687400  0.858000  0.063200  1.0  0.1128
  H  H75  1  0.331000  0.704000  0.894300  1.0  0.1162
  H  H76  1  0.630800  0.988600  0.709300  1.0  0.1111
  H  H77  1  0.738600  0.019600  0.894400  1.0  0.1063
  H  H78  1  0.471000  0.738400  0.813100  1.0  0.1055
  H  H79  1  0.885100  0.859900  0.313200  1.0  0.107
  H  H80  1  0.180600  0.690600  0.812800  1.0  0.1066
  H  H81  1  0.880200  0.628800  0.003300  1.0  0.1211
  H  H82  1  0.843800  0.822200  0.224100  1.0  0.1255
  H  H83  1  0.621200  0.290000  0.393200  1.0  0.1162
  H  H84  1  0.805700  0.004500  0.815700  1.0  0.0997
  H  H85  1  0.209900  0.755300  0.895300  1.0  0.1158
  H  H86  1  0.037600  0.858600  0.312600  1.0  0.1203
  H  H87  1  0.789500  0.463900  0.892300  1.0  0.1117
  H  H88  1  0.623100  0.269100  0.310000  1.0  0.1161
  H  H89  1  0.057700  0.760100  0.895100  1.0  0.1079
  H  H90  1  0.805400  0.156800  0.814500  1.0  0.1168
  H  H91  1  0.823300  0.846700  0.501300  1.0  0.1283
  H  H92  1  0.619700  0.649700  0.234300  1.0  0.1126
  H  H93  1  0.909500  0.867900  0.396600  1.0  0.1109
  H  H94  1  0.597900  0.545900  0.310500  1.0  0.0984
  H  H95  1  0.230200  0.173000  0.479000  1.0  0.1172
  H  H96  1  0.165600  0.188200  0.267700  1.0  0.1101
  H  H97  1  0.140100  0.114900  0.686800  1.0  0.1065
  H  H98  1  0.371200  0.119800  0.996700  1.0  0.1219
  H  H99  1  0.239900  0.942300  0.104900  1.0  0.1078
  H  H100  1  0.353500  0.182900  0.930600  1.0  0.111
  H  H101  1  0.300500  0.516900  0.105700  1.0  0.1027
  H  H102  1  0.020500  0.452900  0.501100  1.0  0.1017
  H  H103  1  0.275900  0.158700  0.839100  1.0  0.1201
  H  H104  1  0.185400  0.282800  0.894700  1.0  0.2712
  H  H105  1  0.096200  0.357600  0.979500  1.0  0.1214
  H  H106  1  0.710000  0.378800  0.606800  1.0  0.1182
  H  H107  1  0.176600  0.681800  0.690100  1.0  0.1086
  H  H108  1  0.280200  0.508800  0.806900  1.0  0.1247
  H  H109  1  0.011400  0.369200  0.290700  1.0  0.1112
  H  H110  1  0.050200  0.300000  0.271100  1.0  0.1189
  H  H111  1  0.427800  0.215000  0.997800  1.0  0.1109
  H  H112  1  0.361900  0.265300  0.892400  1.0  0.0872
  H  H113  1  0.249000  0.519600  0.836900  1.0  0.1224
  H  H114  1  0.250500  0.457900  0.571900  1.0  0.103
  H  H115  1  0.165900  0.832700  0.689800  1.0  0.1221
  H  H116  1  0.190800  0.447400  0.392300  1.0  0.0897
  H  H117  1  0.324400  0.424400  0.268900  1.0  0.1152
  H  H118  1  0.257000  0.681200  0.186900  1.0  0.1121
  H  H119  1  0.350300  0.380300  0.765700  1.0  0.1145
  H  H120  1  0.320600  0.409800  0.719900  1.0  0.1075
  H  H121  1  0.728600  0.263400  0.188300  1.0  0.118
  H  H122  1  0.386900  0.267700  0.333333  1.0  0.1286
  H  H123  1  0.082900  0.450100  0.432000  1.0  0.1065
  H  H124  1  0.686500  0.200300  0.105800  1.0  0.1146
  H  H125  1  0.427900  0.371300  0.605900  1.0  0.1075
  H  H126  1  0.730900  0.376900  0.690000  1.0  0.1165
  H  H127  1  0.141400  0.962400  0.687400  1.0  0.1207
  H  H128  1  0.147700  0.145100  0.017700  1.0  0.1109
  H  H129  1  0.280000  0.171200  0.771700  1.0  0.1303
  H  H130  1  0.087200  0.313800  0.772300  1.0  0.1125
  H  H131  1  0.883000  0.373000  0.689700  1.0  0.102
  H  H132  1  0.980400  0.261400  0.105600  1.0  0.1061
  H  H133  1  0.843200  0.194600  0.185500  1.0  0.1176
  H  H134  1  0.108900  0.297900  0.004100  1.0  0.1128
  H  H135  1  0.536100  0.210500  0.107700  1.0  0.1113
  H  H136  1  0.179400  0.382200  0.001400  1.0  0.1286
  H  H137  1  0.827900  0.261700  0.106700  1.0  0.1143
  H  H138  1  0.419500  0.369100  0.330400  1.0  0.1273
  H  H139  1  0.232500  0.359700  0.393500  1.0  0.0481
  H  H140  1  0.015300  0.277500  0.519200  1.0  0.1153
  H  H141  1  0.380100  0.315500  0.074400  1.0  0.0987
  H  H142  1  0.281100  0.416900  0.865600  1.0  0.1158
  H  H143  1  0.376000  0.319000  0.026500  1.0  0.11
  H  H144  1  0.195100  0.227100  0.437200  1.0  0.1155
  H  H145  1  0.130700  0.805500  0.606400  1.0  0.1205
  H  H146  1  0.862200  0.374800  0.606500  1.0  0.1032
  H  H147  1  0.972000  0.445000  0.471100  1.0  0.1278
  H  H148  1  0.141300  0.654700  0.606600  1.0  0.1044
  H  H149  1  0.244300  0.240500  0.505700  1.0  0.1201
  H  H150  1  0.086400  0.402200  0.271700  1.0  0.1355
  H  H151  1  0.192800  0.154400  0.221900  1.0  0.1066
  H  H152  1  0.300500  0.360500  0.366500  1.0  0.0905
  H  H153  1  0.133600  0.938000  0.604000  1.0  0.1255
  H  H154  1  0.179300  0.482500  0.811700  1.0  0.1274
  H  H155  1  0.351700  0.390700  0.223100  1.0  0.1019
  H  H156  1  0.057500  0.343300  0.726500  1.0  0.104
  H  H157  1  0.261600  0.529000  0.186900  1.0  0.1062
  H  H158  1  0.244500  0.449100  0.523700  1.0  0.1179
  H  H159  1  0.142000  0.312600  0.936800  1.0  0.1121
  H  H160  1  0.299700  0.176300  0.880000  1.0  0.0943
  H  H161  1  0.579800  0.365600  0.605700  1.0  0.1161
  H  H162  1  0.244700  0.790100  0.104700  1.0  0.1142
  H  H163  1  0.454100  0.402100  0.689500  1.0  0.0989
  H  H164  1  0.045000  0.527400  0.481100  1.0  0.1303
  H  H165  1  0.388100  0.303700  0.303800  1.0  0.1268
  H  H166  1  0.177800  0.156200  0.775900  1.0  0.1269
  H  H167  1  0.075600  0.345000  0.390300  1.0  0.2389
  H  H168  1  0.243100  0.104900  0.792800  1.0  0.1231
  H  H169  1  0.051700  0.376100  0.334600  1.0  0.1155
  H  H170  1  0.296000  0.669000  0.105700  1.0  0.1155
  H  H171  1  0.995500  0.194300  0.184300  1.0  0.1004
  H  H172  1  0.606000  0.396400  0.689200  1.0  0.1126
  H  H173  1  0.153300  0.176700  0.498700  1.0  0.1274
  H  H174  1  0.578100  0.273700  0.190200  1.0  0.1029
  H  H175  1  0.309400  0.819400  0.187200  1.0  0.1079
  H  H176  1  0.132100  0.090500  0.603400  1.0  0.1107
  H  H177  1  0.432700  0.144100  0.973000  1.0  0.134
  H  H178  1  0.304600  0.971400  0.187500  1.0  0.1083
  H  H179  1  0.021300  0.286300  0.567400  1.0  0.1041
  H  H180  1  0.151800  0.141600  0.065500  1.0  0.1057
  C  C181  1  0.359100  0.710900  0.878050  1.0  -0.1327
  C  C182  1  0.625900  0.151700  0.326940  1.0  -0.0558
  C  C183  1  0.822880  0.803280  0.942280  1.0  0.1462
  C  C184  1  0.690300  0.757700  0.727190  1.0  0.0651
  C  C185  1  0.011900  0.860500  0.329400  1.0  -0.1109
  C  C186  1  0.627200  0.708400  0.242130  1.0  -0.1931
  C  C187  1  0.751000  0.753200  0.071020  1.0  0.252
  C  C188  1  0.643100  0.741100  0.648830  1.0  -0.2009
  C  C189  1  0.535500  0.972500  0.517800  1.0  -0.4162
  C  C190  1  0.840000  0.763200  0.215000  1.0  -0.3814
  C  C191  1  0.800400  0.681800  0.030080  1.0  0.136
  C  C192  1  0.676500  0.755500  0.197620  1.0  -0.0261
  C  C193  1  0.623400  0.242800  0.326750  1.0  -0.137
  C  C194  1  0.609400  0.726200  0.269580  1.0  0.1414
  C  C195  1  0.589600  0.720600  0.854400  1.0  0.6906
  C  C196  1  0.741060  0.400140  0.826680  1.0  -0.0509
  C  C197  1  0.783900  0.858100  0.357130  1.0  0.6912
  C  C198  1  0.751900  0.138500  0.877710  1.0  -0.134
  C  C199  1  0.792200  0.038000  0.831220  1.0  -0.0414
  C  C200  1  0.666000  0.860800  0.008700  1.0  -0.3933
  C  C201  1  0.771820  0.179580  0.853790  1.0  0.0612
  C  C202  1  0.715400  0.718400  0.143140  1.0  -0.0347
  C  C203  1  0.649200  0.869800  0.512880  1.0  0.0419
  C  C204  1  0.765100  0.742500  0.013980  1.0  -0.0052
  C  C205  1  0.609000  0.675400  0.352840  1.0  0.6837
  C  C206  1  0.592400  0.896200  0.557400  1.0  -0.1867
  C  C207  1  0.578200  0.796600  0.438660  1.0  0.1541
  C  C208  1  0.637600  0.870800  0.483300  1.0  0.0825
  C  C209  1  0.628400  0.726200  0.148850  1.0  -0.1508
  C  C210  1  0.718680  0.666480  0.936970  1.0  0.1573
  C  C211  1  0.628400  0.828000  0.645090  1.0  -0.0089
  C  C212  1  0.783100  0.729300  0.164670  1.0  -0.1766
  C  C213  1  0.173500  0.743300  0.878720  1.0  -0.1317
  C  C214  1  0.759600  0.697000  0.116290  1.0  -0.0622
  C  C215  1  0.655900  0.778300  0.226440  1.0  0.0733
  C  C216  1  0.653900  0.865900  0.694510  1.0  0.1191
  C  C217  1  0.492110  0.718490  0.853700  1.0  -0.138
  C  C218  1  0.785020  0.335180  0.877280  1.0  -0.1465
  C  C219  1  0.445100  0.838900  0.351530  1.0  0.6883
  C  C220  1  0.516300  0.760500  0.180550  1.0  -0.4113
  C  C221  1  0.028040  0.728160  0.853790  1.0  -0.1434
  C  C222  1  0.605300  0.520700  0.327330  1.0  -0.0605
  C  C223  1  0.772260  0.996940  0.855150  1.0  -0.1379
  C  C224  1  0.612800  0.574000  0.352270  1.0  -0.1219
  C  C225  1  0.716540  0.668940  0.965660  1.0  -0.1429
  C  C226  1  0.351800  0.734200  0.829350  1.0  -0.1429
  C  C227  1  0.450200  0.708200  0.878050  1.0  -0.048
  C  C228  1  0.616400  0.820600  0.612900  1.0  -0.0928
  C  C229  1  0.747200  0.310000  0.827850  1.0  -0.1376
  C  C230  1  0.756890  0.457770  0.850820  1.0  -0.1296
  C  C231  1  0.770700  0.899900  0.856280  1.0  0.6917
  C  C232  1  0.793400  0.687200  0.058600  1.0  -0.1277
  C  C233  1  0.791410  0.780810  0.768720  1.0  0.1558
  C  C234  1  0.752000  0.047200  0.878400  1.0  -0.0948
  C  C235  1  0.026500  0.865100  0.379360  1.0  -0.1252
  C  C236  1  0.662600  0.860200  0.570100  1.0  -0.0044
  C  C237  1  0.627100  0.445500  0.377520  1.0  -0.1406
  C  C238  1  0.203000  0.839000  0.326850  1.0  -0.1151
  C  C239  1  0.293400  0.832600  0.326710  1.0  -0.0613
  C  C240  1  0.792000  0.129400  0.830540  1.0  -0.1534
  C  C241  1  0.629700  0.701900  0.740550  1.0  -0.1083
  C  C242  1  0.633700  0.890300  0.667930  1.0  -0.0817
  C  C243  1  0.082400  0.746200  0.878590  1.0  -0.0629
  C  C244  1  0.621800  0.294600  0.351570  1.0  0.0218
  C  C245  1  0.686400  0.937600  0.470220  1.0  -0.2067
  C  C246  1  0.833400  0.605600  0.014200  1.0  -0.3943
  C  C247  1  0.667000  0.866000  0.238200  1.0  -0.1209
  C  C248  1  0.763600  0.747800  0.191910  1.0  0.0852
  C  C249  1  0.663200  0.716800  0.675410  1.0  0.0744
  C  C250  1  0.219300  0.860100  0.376850  1.0  -0.127
  C  C251  1  0.682500  0.621900  0.677100  1.0  -0.3734
  C  C252  1  0.649850  0.685650  0.768000  1.0  0.1445
  C  C253  1  0.715700  0.813900  0.054920  1.0  -0.1996
  C  C254  1  0.165900  0.852700  0.351920  1.0  -0.0131
  C  C255  1  0.210330  0.722470  0.854070  1.0  0.0284
  C  C256  1  0.778860  0.425280  0.876120  1.0  -0.0612
  C  C257  1  0.767600  0.738600  0.982660  1.0  0.0958
  C  C258  1  0.771300  0.797100  0.741270  1.0  -0.1305
  C  C259  1  0.882200  0.864000  0.354920  1.0  -0.1483
  C  C260  1  0.788500  0.798300  0.509000  1.0  -0.3969
  C  C261  1  0.064900  0.862300  0.354200  1.0  -0.0188
  C  C262  1  0.622300  0.255300  0.376580  1.0  -0.1881
  C  C263  1  0.583500  0.800300  0.467510  1.0  -0.2188
  C  C264  1  0.751200  0.560400  0.850960  1.0  0.6755
  C  C265  1  0.585700  0.900900  0.528800  1.0  0.0592
  C  C266  1  0.442900  0.731500  0.829350  1.0  -0.0532
  C  C267  1  0.624800  0.164200  0.376770  1.0  -0.0711
  C  C268  1  0.722700  0.808500  0.026400  1.0  0.0815
  C  C269  1  0.309850  0.723950  0.853700  1.0  0.0253
  C  C270  1  0.920600  0.861200  0.329750  1.0  -0.0659
  C  C271  1  0.629600  0.016400  0.352610  1.0  0.6965
  C  C272  1  0.619600  0.392000  0.352570  1.0  0.036
  C  C273  1  0.649300  0.883900  0.265650  1.0  0.13
  C  C274  1  0.608700  0.429700  0.327480  1.0  -0.1967
  C  C275  1  0.608900  0.744700  0.176080  1.0  0.0862
  C  C276  1  0.346800  0.840000  0.351650  1.0  -0.1372
  C  C277  1  0.930400  0.731800  0.851880  1.0  0.6855
  C  C278  1  0.626500  0.112300  0.351950  1.0  -0.1488
  C  C279  1  0.309700  0.853700  0.376720  1.0  -0.0439
  C  C280  1  0.644800  0.935800  0.717300  1.0  -0.3502
  C  C281  1  0.156000  0.704600  0.829270  1.0  -0.1423
  C  C282  1  0.681100  0.933900  0.441360  1.0  0.1461
  C  C283  1  0.935200  0.866000  0.379720  1.0  -0.086
  C  C284  1  0.719400  0.833800  0.525600  1.0  0.095
  C  C285  1  0.769130  0.277470  0.853150  1.0  0.0423
  C  C286  1  0.668500  0.779100  0.698250  1.0  -0.0117
  C  C287  1  0.726000  0.829000  0.554200  1.0  -0.0529
  C  C288  1  0.064900  0.707300  0.829130  1.0  -0.0691
  C  C289  1  0.623700  0.536300  0.377370  1.0  -0.0694
  C  C290  1  0.820740  0.805740  0.970970  1.0  -0.1338
  C  C291  1  0.599860  0.258940  0.173320  1.0  -0.0532
  C  C292  1  0.757200  0.376600  0.673250  1.0  -0.1401
  C  C293  1  0.244500  0.323500  0.802380  1.0  -0.0257
  C  C294  1  0.134100  0.346100  0.305490  1.0  0.1204
  C  C295  1  0.542230  0.243110  0.149180  1.0  -0.1317
  C  C296  1  0.136000  0.117800  0.645080  1.0  -0.1469
  C  C297  1  0.283200  0.336800  0.324590  1.0  0.0743
  C  C298  1  0.116100  0.350700  0.734350  1.0  0.1291
  C  C299  1  0.160000  0.653200  0.648350  1.0  -0.1363
  C  C300  1  0.705400  0.378200  0.648430  1.0  0.0233
  C  C301  1  0.324600  0.391000  0.647160  1.0  0.6824
  C  C302  1  0.690000  0.252800  0.172150  1.0  -0.1369
  C  C303  1  0.664820  0.214980  0.122720  1.0  -0.1478
  C  C304  1  0.221700  0.344100  0.773560  1.0  0.0732
  C  C305  1  0.146300  0.690300  0.623280  1.0  -0.0425
  C  C306  1  0.103800  0.407600  0.442600  1.0  -0.1889
  C  C307  1  0.027500  0.464500  0.482200  1.0  -0.4164
  C  C308  1  0.139500  0.988100  0.670600  1.0  -0.1105
  C  C309  1  0.273800  0.390600  0.730420  1.0  0.1401
  C  C310  1  0.870600  0.208000  0.169460  1.0  -0.1518
  C  C311  1  0.199700  0.416500  0.532490  1.0  -0.2172
  C  C312  1  0.479300  0.394700  0.672670  1.0  -0.0638
  C  C313  1  0.333520  0.281320  0.063030  1.0  0.1588
  C  C314  1  0.161100  0.554900  0.648470  1.0  0.6894
  C  C315  1  0.962000  0.207800  0.168780  1.0  -0.041
  C  C316  1  0.167400  0.706600  0.673290  1.0  -0.061
  C  C317  1  0.064200  0.355200  0.282700  1.0  -0.3485
  C  C318  1  0.186100  0.284300  0.945080  1.0  -0.196
  C  C319  1  0.141900  0.216100  0.642870  1.0  0.6932
  C  C320  1  0.139200  0.334000  0.991300  1.0  -0.3941
  C  C321  1  0.554500  0.372900  0.622480  1.0  -0.1437
  C  C322  1  0.100100  0.229300  0.143720  1.0  0.6897
  C  C323  1  0.820420  0.228180  0.146210  1.0  0.0607
  C  C324  1  0.835800  0.375200  0.623230  1.0  -0.0711
  C  C325  1  0.134000  0.064800  0.620280  1.0  -0.0827
  C  C326  1  0.312800  0.206600  0.941400  1.0  -0.1275
  C  C327  1  0.109700  0.366300  0.332070  1.0  -0.0859
  C  C328  1  0.273800  0.371600  0.851150  1.0  -0.1503
  C  C329  1  0.003060  0.227740  0.144850  1.0  -0.1392
  C  C330  1  0.303000  0.240400  0.883710  1.0  -0.0628
  C  C331  1  0.139900  0.780700  0.623150  1.0  -0.1266
  C  C332  1  0.281510  0.507890  0.146300  1.0  -0.1392
  C  C333  1  0.137700  0.935100  0.645800  1.0  -0.0191
  C  C334  1  0.246800  0.249000  0.928980  1.0  0.2507
  C  C335  1  0.179400  0.383600  0.387100  1.0  -0.0887
  C  C336  1  0.202900  0.228700  0.258730  1.0  -0.1306
  C  C337  1  0.291600  0.372800  0.757870  1.0  -0.195
  C  C338  1  0.201700  0.211500  0.491000  1.0  -0.3957
  C  C339  1  0.983600  0.370400  0.647390  1.0  0.6975
  C  C340  1  0.279400  0.410400  0.145600  1.0  0.6905
  C  C341  1  0.236800  0.160000  0.785000  1.0  -0.3802
  C  C342  1  0.394400  0.166600  0.985800  1.0  -0.3972
  C  C343  1  0.255300  0.391100  0.823920  1.0  0.0849
  C  C344  1  0.161000  0.797000  0.673150  1.0  -0.1157
  C  C345  1  0.318200  0.199600  0.969920  1.0  0.1378
  C  C346  1  0.171000  0.274000  0.445800  1.0  -0.053
  C  C347  1  0.196720  0.177120  0.057720  1.0  0.1456
  C  C348  1  0.426000  0.387200  0.647730  1.0  -0.121
  C  C349  1  0.062400  0.313600  0.529780  1.0  -0.2103
  C  C350  1  0.270700  0.216900  0.835330  1.0  -0.1807
  C  C351  1  0.220900  0.331500  0.301750  1.0  -0.0115
  C  C352  1  0.292700  0.935100  0.170870  1.0  -0.0693
  C  C353  1  0.277530  0.789670  0.145930  1.0  0.0287
  C  C354  1  0.219190  0.208590  0.231280  1.0  0.1552
  C  C355  1  0.291800  0.549800  0.121950  1.0  -0.0477
  C  C356  1  0.261400  0.232400  0.017340  1.0  0.0947
  C  C357  1  0.134900  0.973500  0.620640  1.0  -0.1244
  C  C358  1  0.130200  0.350800  0.487120  1.0  0.0423
  C  C359  1  0.139800  0.337400  0.429900  1.0  -0.0033
  C  C360  1  0.242300  0.309700  0.272810  1.0  0.0672
  C  C361  1  0.134000  0.333000  0.761800  1.0  -0.1203
  C  C362  1  0.574720  0.221140  0.123880  1.0  -0.0607
  C  C363  1  0.952800  0.248000  0.121600  1.0  -0.0938
  C  C364  1  0.191500  0.277300  0.973600  1.0  0.0793
  C  C365  1  0.861500  0.248100  0.122290  1.0  -0.1326
  C  C366  1  0.129200  0.362400  0.516700  1.0  0.0822
  C  C367  1  0.239500  0.483700  0.819450  1.0  -0.4154
  C  C368  1  0.295400  0.844000  0.170730  1.0  -0.1432
  C  C369  1  0.099100  0.414300  0.471200  1.0  0.0584
  C  C370  1  0.378100  0.317500  0.322900  1.0  -0.3719
  C  C371  1  0.203400  0.421800  0.561340  1.0  0.1582
  C  C372  1  0.147300  0.834100  0.648080  1.0  -0.0116
  C  C373  1  0.887700  0.373500  0.648050  1.0  -0.1476
  C  C374  1  0.463700  0.376300  0.622630  1.0  -0.0698
  C  C375  1  0.252200  0.236400  0.808090  1.0  0.0852
  C  C376  1  0.314350  0.350150  0.232000  1.0  0.1437
  C  C377  1  0.281600  0.284600  0.856860  1.0  -0.0343
  C  C378  1  0.253800  0.917600  0.121410  1.0  -0.0626
  C  C379  1  0.265800  0.648200  0.170650  1.0  -0.1409
  C  C380  1  0.172000  0.371600  0.354910  1.0  -0.0061
  C  C381  1  0.331060  0.283460  0.034340  1.0  -0.1455
  C  C382  1  0.271840  0.971960  0.146210  1.0  -0.1429
  C  C383  1  0.439600  0.248800  0.149040  1.0  0.6739
  C  C384  1  0.268200  0.069600  0.148120  1.0  0.6844
  C  C385  1  0.138800  0.079400  0.670250  1.0  -0.0663
  C  C386  1  0.608000  0.380400  0.647430  1.0  0.039
  C  C387  1  0.258900  0.356900  0.351170  1.0  -0.205
  C  C388  1  0.722530  0.230870  0.146850  1.0  0.0422
  C  C389  1  0.289100  0.640900  0.121950  1.0  -0.1313
  C  C390  1  0.256700  0.826500  0.121280  1.0  -0.1328
  C  C391  1  0.298100  0.370300  0.259450  1.0  -0.1087
  C  C392  1  0.166200  0.280600  0.474400  1.0  0.0975
  C  C393  1  0.268500  0.557100  0.170650  1.0  -0.0532
  C  C394  1  0.194260  0.179260  0.029030  1.0  -0.1318
  C  C395  1  0.257500  0.234900  0.986020  1.0  -0.0062
  C  C396  1  0.570300  0.391300  0.672520  1.0  -0.1973
  C  C397  1  0.276050  0.690150  0.146300  1.0  0.0227
  C  C398  1  0.848300  0.374100  0.673060  1.0  -0.0565
  C  C399  1  0.066100  0.318900  0.558640  1.0  0.1483
  C  C400  1  0.744700  0.377700  0.623420  1.0  -0.1867
  N  N401  1  0.620500  0.813900  0.281340  1.0  -0.3303
  N  N402  1  0.627100  0.863500  0.425580  1.0  -0.3204
  N  N403  1  0.771830  0.733670  0.925270  1.0  -0.3132
  N  N404  1  0.737200  0.767800  0.098760  1.0  -0.4072
  N  N405  1  0.642900  0.871500  0.601400  1.0  -0.605
  N  N406  1  0.730760  0.725040  0.782090  1.0  -0.3226
  N  N407  1  0.186100  0.379500  0.718660  1.0  -0.3302
  N  N408  1  0.266330  0.228170  0.074730  1.0  -0.3115
  N  N409  1  0.128500  0.357100  0.398600  1.0  -0.6071
  N  N410  1  0.232200  0.262800  0.901240  1.0  -0.4126
  N  N411  1  0.136500  0.372900  0.574420  1.0  -0.3217
  N  N412  1  0.274960  0.269240  0.217910  1.0  -0.319
  O  O413  1  0.734300  0.586900  0.827710  1.0  -0.5745
  O  O414  1  0.777100  0.853300  0.833720  1.0  -0.6164
  O  O415  1  0.609200  0.968600  0.329320  1.0  -0.6083
  O  O416  1  0.764000  0.600400  0.874000  1.0  -0.5757
  O  O417  1  0.599400  0.706400  0.329010  1.0  -0.5891
  O  O418  1  0.740900  0.852100  0.334090  1.0  -0.6235
  O  O419  1  0.757700  0.861900  0.379240  1.0  -0.5807
  O  O420  1  0.624940  0.721460  0.831270  1.0  -0.6168
  O  O421  1  0.608200  0.720200  0.375980  1.0  -0.5916
  O  O422  1  0.475600  0.827000  0.327120  1.0  -0.5963
  O  O423  1  0.632000  0.717400  0.877700  1.0  -0.5933
  O  O424  1  0.636200  0.982400  0.374070  1.0  -0.5771
  O  O425  1  0.885300  0.721300  0.829980  1.0  -0.5471
  O  O426  1  0.899400  0.749400  0.876910  1.0  -0.5971
  O  O427  1  0.764200  0.864000  0.878760  1.0  -0.5967
  O  O428  1  0.492000  0.845600  0.373710  1.0  -0.5986
  O  O429  1  0.017600  0.363800  0.625930  1.0  -0.5781
  O  O430  1  0.250600  0.100600  0.123090  1.0  -0.5957
  O  O431  1  0.282600  0.368000  0.122300  1.0  -0.5912
  O  O432  1  0.146700  0.222900  0.166280  1.0  -0.6179
  O  O433  1  0.136000  0.235800  0.121240  1.0  -0.6017
  O  O434  1  0.278700  0.114700  0.170020  1.0  -0.5458
  O  O435  1  0.031400  0.390800  0.670680  1.0  -0.6094
  O  O436  1  0.293600  0.400600  0.670990  1.0  -0.5898
  O  O437  1  0.147900  0.259100  0.665910  1.0  -0.6232
  O  O438  1  0.399600  0.236000  0.126000  1.0  -0.5782
  O  O439  1  0.173000  0.524400  0.672880  1.0  -0.5916
  O  O440  1  0.154400  0.508000  0.626290  1.0  -0.5945
  O  O441  1  0.279800  0.391800  0.624020  1.0  -0.5957
  O  O442  1  0.138100  0.242300  0.620760  1.0  -0.5765
  O  O443  1  0.278540  0.375060  0.168730  1.0  -0.6145
  O  O444  1  0.413100  0.265700  0.172290  1.0  -0.577
