# generated using pymatgen
data_Zn2H43C55N7O8
_symmetry_space_group_name_H-M   'P 1'
_cell_length_a   21.33600000
_cell_length_b   23.76600000
_cell_length_c   15.80800000
_cell_angle_alpha   90.00000000
_cell_angle_beta   101.56800000
_cell_angle_gamma   90.00000000
_symmetry_Int_Tables_number   1
_chemical_formula_structural   Zn2H43C55N7O8
_chemical_formula_sum   'Zn8 H172 C220 N28 O32'
_cell_volume   7852.96289069
_cell_formula_units_Z   4
loop_
 _symmetry_equiv_pos_site_id
 _symmetry_equiv_pos_as_xyz
  1  'x, y, z'
loop_
 _atom_site_type_symbol
 _atom_site_label
 _atom_site_symmetry_multiplicity
 _atom_site_fract_x
 _atom_site_fract_y
 _atom_site_fract_z
 _atom_site_occupancy
 _atom_site_charge
  Zn  Zn1  1  0.950060  0.989670  0.265800  1.0  0.9484
  Zn  Zn2  1  0.029130  0.009730  0.131470  1.0  0.9239
  Zn  Zn3  1  0.450060  0.510330  0.765800  1.0  0.9486
  Zn  Zn4  1  0.529130  0.490270  0.631470  1.0  0.924
  Zn  Zn5  1  0.450060  0.489670  0.265800  1.0  0.9484
  Zn  Zn6  1  0.529130  0.509730  0.131470  1.0  0.9239
  Zn  Zn7  1  0.950060  0.010330  0.765800  1.0  0.9486
  Zn  Zn8  1  0.029130  0.990270  0.631470  1.0  0.924
  H  H9  1  0.062400  0.088800  0.487500  1.0  0.1067
  H  H10  1  0.132000  0.151600  0.573500  1.0  0.1094
  H  H11  1  0.210300  0.191600  0.368100  1.0  0.1184
  H  H12  1  0.140700  0.128800  0.282100  1.0  0.1186
  H  H13  1  0.244300  0.306900  0.613600  1.0  0.1161
  H  H14  1  0.309600  0.383300  0.666900  1.0  0.1128
  H  H15  1  0.443900  0.328500  0.537800  1.0  0.1142
  H  H16  1  0.378600  0.252100  0.484500  1.0  0.1301
  H  H17  1  0.037400  0.833900  0.366800  1.0  0.1148
  H  H18  1  0.102300  0.757900  0.422900  1.0  0.1238
  H  H19  1  0.226600  0.797900  0.269300  1.0  0.1159
  H  H20  1  0.161800  0.874000  0.213200  1.0  0.1282
  H  H21  1  0.254700  0.676500  0.532800  1.0  0.1183
  H  H22  1  0.325200  0.612100  0.613800  1.0  0.1132
  H  H23  1  0.415600  0.592900  0.413300  1.0  0.106
  H  H24  1  0.345100  0.657300  0.332300  1.0  0.1122
  H  H25  1  0.816000  0.972500  0.197100  1.0  0.1095
  H  H26  1  0.718800  0.959800  0.241700  1.0  0.1245
  H  H27  1  0.813400  0.952000  0.490800  1.0  0.1185
  H  H28  1  0.910600  0.964600  0.446200  1.0  0.1127
  H  H29  1  0.568800  0.873000  0.397300  1.0  0.117
  H  H30  1  0.585900  0.039400  0.453300  1.0  0.1263
  H  H31  1  0.652500  0.821300  0.363500  1.0  0.1445
  H  H32  1  0.721900  0.843200  0.409700  1.0  0.1335
  H  H33  1  0.696100  0.854900  0.309000  1.0  0.1308
  H  H34  1  0.669100  0.090800  0.436300  1.0  0.1281
  H  H35  1  0.704200  0.069600  0.361700  1.0  0.132
  H  H36  1  0.737900  0.061500  0.461000  1.0  0.1372
  H  H37  1  0.970800  0.488300  0.464800  1.0  0.154
  H  H38  1  0.996200  0.387800  0.499800  1.0  0.1036
  H  H39  1  0.970400  0.391900  0.396700  1.0  0.0882
  H  H40  1  0.895300  0.503000  0.429200  1.0  0.1417
  H  H41  1  0.892200  0.341500  0.510500  1.0  0.1271
  H  H42  1  0.804600  0.560200  0.412700  1.0  0.1212
  H  H43  1  0.761200  0.552400  0.483400  1.0  0.1392
  H  H44  1  0.739800  0.524600  0.389900  1.0  0.1429
  H  H45  1  0.735800  0.354000  0.560500  1.0  0.1138
  H  H46  1  0.803200  0.330000  0.610500  1.0  0.1341
  H  H47  1  0.772700  0.307700  0.515700  1.0  0.1382
  H  H48  1  0.662100  0.435200  0.414000  1.0  0.1227
  H  H49  1  0.566800  0.456400  0.459100  1.0  0.1041
  H  H50  1  0.667600  0.493200  0.698300  1.0  0.1098
  H  H51  1  0.762800  0.472000  0.653200  1.0  0.1233
  H  H52  1  0.470800  0.011700  0.964800  1.0  0.1509
  H  H53  1  0.496200  0.112200  0.999800  1.0  0.1047
  H  H54  1  0.470400  0.108100  0.896700  1.0  0.0872
  H  H55  1  0.395300  0.997000  0.929200  1.0  0.1437
  H  H56  1  0.392200  0.158500  0.010500  1.0  0.1264
  H  H57  1  0.304600  0.939800  0.912700  1.0  0.12
  H  H58  1  0.261200  0.947600  0.983400  1.0  0.1394
  H  H59  1  0.239800  0.975400  0.889900  1.0  0.1423
  H  H60  1  0.235800  0.146000  0.060500  1.0  0.1144
  H  H61  1  0.303200  0.170000  0.110500  1.0  0.1336
  H  H62  1  0.272700  0.192300  0.015700  1.0  0.1387
  H  H63  1  0.162100  0.064800  0.914000  1.0  0.1225
  H  H64  1  0.066800  0.043600  0.959100  1.0  0.1045
  H  H65  1  0.167600  0.006800  0.198300  1.0  0.1101
  H  H66  1  0.262800  0.028000  0.153200  1.0  0.1237
  H  H67  1  0.562400  0.411200  0.987500  1.0  0.1065
  H  H68  1  0.632000  0.348400  0.073500  1.0  0.1094
  H  H69  1  0.710300  0.308400  0.868100  1.0  0.1182
  H  H70  1  0.640700  0.371200  0.782100  1.0  0.1182
  H  H71  1  0.744300  0.193100  0.113600  1.0  0.1158
  H  H72  1  0.809600  0.116700  0.166900  1.0  0.1128
  H  H73  1  0.943900  0.171500  0.037800  1.0  0.1137
  H  H74  1  0.878600  0.247900  0.984500  1.0  0.131
  H  H75  1  0.537400  0.666100  0.866800  1.0  0.1153
  H  H76  1  0.602300  0.742100  0.922900  1.0  0.1236
  H  H77  1  0.726600  0.702100  0.769300  1.0  0.1162
  H  H78  1  0.661800  0.626000  0.713200  1.0  0.1286
  H  H79  1  0.754700  0.823500  0.032800  1.0  0.1184
  H  H80  1  0.825200  0.887900  0.113800  1.0  0.1132
  H  H81  1  0.915600  0.907100  0.913300  1.0  0.1059
  H  H82  1  0.845100  0.842700  0.832300  1.0  0.1121
  H  H83  1  0.316000  0.527500  0.697100  1.0  0.1094
  H  H84  1  0.218800  0.540200  0.741700  1.0  0.1245
  H  H85  1  0.313400  0.548000  0.990800  1.0  0.1185
  H  H86  1  0.410600  0.535400  0.946200  1.0  0.1125
  H  H87  1  0.068800  0.627000  0.897300  1.0  0.1177
  H  H88  1  0.085900  0.460600  0.953300  1.0  0.1261
  H  H89  1  0.152500  0.678700  0.863500  1.0  0.1457
  H  H90  1  0.221900  0.656800  0.909700  1.0  0.133
  H  H91  1  0.196100  0.645100  0.809000  1.0  0.1306
  H  H92  1  0.169100  0.409200  0.936300  1.0  0.1282
  H  H93  1  0.204200  0.430400  0.861700  1.0  0.1322
  H  H94  1  0.237900  0.438500  0.961000  1.0  0.1375
  H  H95  1  0.470800  0.988300  0.464800  1.0  0.154
  H  H96  1  0.496200  0.887800  0.499800  1.0  0.1036
  H  H97  1  0.470400  0.891900  0.396700  1.0  0.0882
  H  H98  1  0.395300  0.003000  0.429200  1.0  0.1417
  H  H99  1  0.392200  0.841500  0.510500  1.0  0.1271
  H  H100  1  0.304600  0.060200  0.412700  1.0  0.1212
  H  H101  1  0.261200  0.052400  0.483400  1.0  0.1392
  H  H102  1  0.239800  0.024600  0.389900  1.0  0.1429
  H  H103  1  0.235800  0.854000  0.560500  1.0  0.1138
  H  H104  1  0.303200  0.830000  0.610500  1.0  0.1341
  H  H105  1  0.272700  0.807700  0.515700  1.0  0.1382
  H  H106  1  0.162100  0.935200  0.414000  1.0  0.1227
  H  H107  1  0.066800  0.956400  0.459100  1.0  0.1041
  H  H108  1  0.167600  0.993200  0.698300  1.0  0.1098
  H  H109  1  0.262800  0.972000  0.653200  1.0  0.1233
  H  H110  1  0.562400  0.588800  0.487500  1.0  0.1067
  H  H111  1  0.632000  0.651600  0.573500  1.0  0.1094
  H  H112  1  0.710300  0.691600  0.368100  1.0  0.1184
  H  H113  1  0.640700  0.628800  0.282100  1.0  0.1186
  H  H114  1  0.744300  0.806900  0.613600  1.0  0.1161
  H  H115  1  0.809600  0.883300  0.666900  1.0  0.1128
  H  H116  1  0.943900  0.828500  0.537800  1.0  0.1142
  H  H117  1  0.878600  0.752100  0.484500  1.0  0.1301
  H  H118  1  0.537400  0.333900  0.366800  1.0  0.1148
  H  H119  1  0.602300  0.257900  0.422900  1.0  0.1238
  H  H120  1  0.726600  0.297900  0.269300  1.0  0.1159
  H  H121  1  0.661800  0.374000  0.213200  1.0  0.1282
  H  H122  1  0.754700  0.176500  0.532800  1.0  0.1183
  H  H123  1  0.825200  0.112100  0.613800  1.0  0.1132
  H  H124  1  0.915600  0.092900  0.413300  1.0  0.106
  H  H125  1  0.845100  0.157300  0.332300  1.0  0.1122
  H  H126  1  0.316000  0.472500  0.197100  1.0  0.1095
  H  H127  1  0.218800  0.459800  0.241700  1.0  0.1245
  H  H128  1  0.313400  0.452000  0.490800  1.0  0.1185
  H  H129  1  0.410600  0.464600  0.446200  1.0  0.1127
  H  H130  1  0.068800  0.373000  0.397300  1.0  0.1164
  H  H131  1  0.085900  0.539400  0.453300  1.0  0.1263
  H  H132  1  0.152500  0.321300  0.363500  1.0  0.1445
  H  H133  1  0.221900  0.343200  0.409700  1.0  0.1335
  H  H134  1  0.196100  0.354900  0.309000  1.0  0.1308
  H  H135  1  0.169100  0.590800  0.436300  1.0  0.1281
  H  H136  1  0.204200  0.569600  0.361700  1.0  0.132
  H  H137  1  0.237900  0.561500  0.461000  1.0  0.1372
  H  H138  1  0.062400  0.911200  0.987500  1.0  0.1065
  H  H139  1  0.132000  0.848400  0.073500  1.0  0.1094
  H  H140  1  0.210300  0.808400  0.868100  1.0  0.1182
  H  H141  1  0.140700  0.871200  0.782100  1.0  0.1182
  H  H142  1  0.244300  0.693100  0.113600  1.0  0.1158
  H  H143  1  0.309600  0.616700  0.166900  1.0  0.1128
  H  H144  1  0.443900  0.671500  0.037800  1.0  0.1137
  H  H145  1  0.378600  0.747900  0.984500  1.0  0.131
  H  H146  1  0.037400  0.166100  0.866800  1.0  0.1153
  H  H147  1  0.102300  0.242100  0.922900  1.0  0.1236
  H  H148  1  0.226600  0.202100  0.769300  1.0  0.1162
  H  H149  1  0.161800  0.126000  0.713200  1.0  0.1286
  H  H150  1  0.254700  0.323500  0.032800  1.0  0.1184
  H  H151  1  0.325200  0.387900  0.113800  1.0  0.1132
  H  H152  1  0.415600  0.407100  0.913300  1.0  0.1059
  H  H153  1  0.345100  0.342700  0.832300  1.0  0.1121
  H  H154  1  0.816000  0.027500  0.697100  1.0  0.1094
  H  H155  1  0.718800  0.040200  0.741700  1.0  0.1245
  H  H156  1  0.813400  0.048000  0.990800  1.0  0.1185
  H  H157  1  0.910600  0.035400  0.946200  1.0  0.1125
  H  H158  1  0.568800  0.127000  0.897300  1.0  0.1171
  H  H159  1  0.585900  0.960600  0.953300  1.0  0.1261
  H  H160  1  0.652500  0.178700  0.863500  1.0  0.1457
  H  H161  1  0.721900  0.156800  0.909700  1.0  0.133
  H  H162  1  0.696100  0.145100  0.809000  1.0  0.1306
  H  H163  1  0.669100  0.909200  0.936300  1.0  0.1282
  H  H164  1  0.704200  0.930400  0.861700  1.0  0.1322
  H  H165  1  0.737900  0.938500  0.961000  1.0  0.1375
  H  H166  1  0.970800  0.511700  0.964800  1.0  0.1509
  H  H167  1  0.996200  0.612200  0.999800  1.0  0.1047
  H  H168  1  0.970400  0.608100  0.896700  1.0  0.0872
  H  H169  1  0.895300  0.497000  0.929200  1.0  0.1437
  H  H170  1  0.892200  0.658500  0.010500  1.0  0.1264
  H  H171  1  0.804600  0.439800  0.912700  1.0  0.12
  H  H172  1  0.761200  0.447600  0.983400  1.0  0.1394
  H  H173  1  0.739800  0.475400  0.889900  1.0  0.1423
  H  H174  1  0.735800  0.646000  0.060500  1.0  0.1144
  H  H175  1  0.803200  0.670000  0.110500  1.0  0.1336
  H  H176  1  0.772700  0.692300  0.015700  1.0  0.1387
  H  H177  1  0.662100  0.564800  0.914000  1.0  0.1225
  H  H178  1  0.566800  0.543600  0.959100  1.0  0.1045
  H  H179  1  0.667600  0.506800  0.198300  1.0  0.1101
  H  H180  1  0.762800  0.528000  0.153200  1.0  0.1237
  C  C181  1  0.052000  0.060300  0.317800  1.0  0.648
  C  C182  1  0.095000  0.102900  0.376700  1.0  -0.1136
  C  C183  1  0.092400  0.109600  0.463300  1.0  -0.0238
  C  C184  1  0.133800  0.147000  0.514400  1.0  -0.089
  C  C185  1  0.177700  0.177500  0.478900  1.0  0.1818
  C  C186  1  0.180300  0.170700  0.392300  1.0  -0.1137
  C  C187  1  0.138900  0.133400  0.341200  1.0  -0.0516
  C  C188  1  0.305300  0.272300  0.544100  1.0  0.1998
  C  C189  1  0.284800  0.311300  0.598200  1.0  -0.0486
  C  C190  1  0.323600  0.356700  0.629900  1.0  -0.0425
  C  C191  1  0.382900  0.363100  0.607400  1.0  -0.1755
  C  C192  1  0.403400  0.324100  0.553200  1.0  -0.0486
  C  C193  1  0.364600  0.278800  0.521600  1.0  -0.207
  C  C194  1  0.420600  0.413100  0.646200  1.0  0.6501
  C  C195  1  0.050000  0.912200  0.261400  1.0  0.6021
  C  C196  1  0.093500  0.861100  0.284700  1.0  -0.137
  C  C197  1  0.075800  0.826600  0.347000  1.0  -0.0383
  C  C198  1  0.114400  0.781500  0.380400  1.0  -0.1256
  C  C199  1  0.170600  0.770800  0.351400  1.0  0.0485
  C  C200  1  0.188200  0.805200  0.289100  1.0  -0.0685
  C  C201  1  0.149700  0.850400  0.255700  1.0  -0.1016
  C  C202  1  0.293300  0.673000  0.424900  1.0  0.0442
  C  C203  1  0.287400  0.659500  0.508500  1.0  -0.0942
  C  C204  1  0.329300  0.621300  0.556700  1.0  -0.1089
  C  C205  1  0.377100  0.596400  0.521200  1.0  -0.1283
  C  C206  1  0.383000  0.609800  0.437600  1.0  -0.0169
  C  C207  1  0.341100  0.648100  0.389400  1.0  -0.1888
  C  C208  1  0.425000  0.560400  0.573700  1.0  0.6806
  C  C209  1  0.815500  0.968300  0.256700  1.0  0.1487
  C  C210  1  0.757700  0.960800  0.283200  1.0  -0.1053
  C  C211  1  0.757000  0.954700  0.370400  1.0  0.0671
  C  C212  1  0.813900  0.956200  0.431200  1.0  -0.0778
  C  C213  1  0.871700  0.963700  0.404600  1.0  0.1752
  C  C214  1  0.691000  0.955400  0.395600  1.0  -0.0237
  C  C215  1  0.655100  0.906200  0.387000  1.0  0.0746
  C  C216  1  0.593400  0.906600  0.403100  1.0  -0.1626
  C  C217  1  0.567600  0.956200  0.427800  1.0  -0.0979
  C  C218  1  0.603600  0.005400  0.436000  1.0  -0.0857
  C  C219  1  0.665200  0.005000  0.420300  1.0  0.0807
  C  C220  1  0.683900  0.851600  0.365000  1.0  -0.4107
  C  C221  1  0.696900  0.061700  0.420000  1.0  -0.3281
  C  C222  1  0.970800  0.410700  0.452800  1.0  0.0066
  C  C223  1  0.903400  0.420900  0.467200  1.0  0.0069
  C  C224  1  0.873900  0.473100  0.451300  1.0  -0.1542
  C  C225  1  0.813000  0.481400  0.467900  1.0  0.0734
  C  C226  1  0.781600  0.437600  0.500400  1.0  -0.0035
  C  C227  1  0.811200  0.385500  0.516300  1.0  0.0904
  C  C228  1  0.872000  0.377100  0.499700  1.0  -0.2101
  C  C229  1  0.776000  0.534300  0.436000  1.0  -0.3985
  C  C230  1  0.777900  0.340500  0.554000  1.0  -0.4073
  C  C231  1  0.721400  0.451600  0.529400  1.0  0.0219
  C  C232  1  0.663200  0.446900  0.471700  1.0  -0.1105
  C  C233  1  0.606600  0.459600  0.498500  1.0  0.1759
  C  C234  1  0.666500  0.481400  0.640600  1.0  0.1564
  C  C235  1  0.723100  0.468800  0.613800  1.0  -0.1238
  C  C236  1  0.470800  0.089300  0.952800  1.0  0.0076
  C  C237  1  0.403400  0.079100  0.967200  1.0  0.0073
  C  C238  1  0.373900  0.026900  0.951300  1.0  -0.1537
  C  C239  1  0.313000  0.018600  0.967900  1.0  0.0732
  C  C240  1  0.281600  0.062400  0.000400  1.0  -0.0035
  C  C241  1  0.311200  0.114500  0.016300  1.0  0.091
  C  C242  1  0.372000  0.122900  0.999700  1.0  -0.2098
  C  C243  1  0.276000  0.965700  0.936000  1.0  -0.3992
  C  C244  1  0.277900  0.159500  0.054000  1.0  -0.407
  C  C245  1  0.221400  0.048400  0.029400  1.0  0.0218
  C  C246  1  0.163200  0.053100  0.971700  1.0  -0.1107
  C  C247  1  0.106600  0.040400  0.998500  1.0  0.1756
  C  C248  1  0.166500  0.018600  0.140600  1.0  0.1563
  C  C249  1  0.223100  0.031200  0.113800  1.0  -0.1237
  C  C250  1  0.552000  0.439700  0.817800  1.0  0.6482
  C  C251  1  0.595000  0.397100  0.876700  1.0  -0.1127
  C  C252  1  0.592400  0.390400  0.963300  1.0  -0.0229
  C  C253  1  0.633800  0.353000  0.014400  1.0  -0.0891
  C  C254  1  0.677700  0.322500  0.978900  1.0  0.1812
  C  C255  1  0.680300  0.329300  0.892300  1.0  -0.1157
  C  C256  1  0.638900  0.366600  0.841200  1.0  -0.0508
  C  C257  1  0.805300  0.227700  0.044100  1.0  0.2005
  C  C258  1  0.784800  0.188700  0.098200  1.0  -0.0494
  C  C259  1  0.823600  0.143300  0.129900  1.0  -0.0433
  C  C260  1  0.882900  0.136900  0.107400  1.0  -0.1754
  C  C261  1  0.903400  0.175900  0.053200  1.0  -0.0492
  C  C262  1  0.864600  0.221200  0.021600  1.0  -0.2075
  C  C263  1  0.920600  0.086900  0.146200  1.0  0.65
  C  C264  1  0.550000  0.587800  0.761400  1.0  0.6021
  C  C265  1  0.593500  0.638900  0.784700  1.0  -0.1372
  C  C266  1  0.575800  0.673400  0.847000  1.0  -0.0381
  C  C267  1  0.614400  0.718500  0.880400  1.0  -0.1265
  C  C268  1  0.670600  0.729200  0.851400  1.0  0.0478
  C  C269  1  0.688200  0.694800  0.789100  1.0  -0.0682
  C  C270  1  0.649700  0.649600  0.755700  1.0  -0.1014
  C  C271  1  0.793300  0.827000  0.924900  1.0  0.0415
  C  C272  1  0.787400  0.840500  0.008500  1.0  -0.0932
  C  C273  1  0.829300  0.878700  0.056700  1.0  -0.11
  C  C274  1  0.877100  0.903600  0.021200  1.0  -0.1293
  C  C275  1  0.883000  0.890200  0.937600  1.0  -0.0172
  C  C276  1  0.841100  0.851900  0.889400  1.0  -0.1894
  C  C277  1  0.925000  0.939600  0.073700  1.0  0.6809
  C  C278  1  0.315500  0.531700  0.756700  1.0  0.1487
  C  C279  1  0.257700  0.539200  0.783200  1.0  -0.1057
  C  C280  1  0.257000  0.545300  0.870400  1.0  0.0672
  C  C281  1  0.313900  0.543800  0.931200  1.0  -0.0781
  C  C282  1  0.371700  0.536300  0.904600  1.0  0.1757
  C  C283  1  0.191000  0.544600  0.895600  1.0  -0.0237
  C  C284  1  0.155100  0.593800  0.887000  1.0  0.0739
  C  C285  1  0.093400  0.593400  0.903100  1.0  -0.1619
  C  C286  1  0.067600  0.543800  0.927800  1.0  -0.0989
  C  C287  1  0.103600  0.494600  0.936000  1.0  -0.0857
  C  C288  1  0.165200  0.495000  0.920300  1.0  0.0819
  C  C289  1  0.183900  0.648400  0.865000  1.0  -0.4093
  C  C290  1  0.196900  0.438300  0.920000  1.0  -0.3291
  C  C291  1  0.470800  0.910700  0.452800  1.0  0.0066
  C  C292  1  0.403400  0.920900  0.467200  1.0  0.0069
  C  C293  1  0.373900  0.973100  0.451300  1.0  -0.1542
  C  C294  1  0.313000  0.981400  0.467900  1.0  0.0734
  C  C295  1  0.281600  0.937600  0.500400  1.0  -0.0035
  C  C296  1  0.311200  0.885500  0.516300  1.0  0.0904
  C  C297  1  0.372000  0.877100  0.499700  1.0  -0.2101
  C  C298  1  0.276000  0.034300  0.436000  1.0  -0.3985
  C  C299  1  0.277900  0.840500  0.554000  1.0  -0.4073
  C  C300  1  0.221400  0.951600  0.529400  1.0  0.0219
  C  C301  1  0.163200  0.946900  0.471700  1.0  -0.1105
  C  C302  1  0.106600  0.959600  0.498500  1.0  0.1759
  C  C303  1  0.166500  0.981400  0.640600  1.0  0.1564
  C  C304  1  0.223100  0.968800  0.613800  1.0  -0.1238
  C  C305  1  0.552000  0.560300  0.317800  1.0  0.648
  C  C306  1  0.595000  0.602900  0.376700  1.0  -0.1136
  C  C307  1  0.592400  0.609600  0.463300  1.0  -0.0238
  C  C308  1  0.633800  0.647000  0.514400  1.0  -0.089
  C  C309  1  0.677700  0.677500  0.478900  1.0  0.1818
  C  C310  1  0.680300  0.670700  0.392300  1.0  -0.1137
  C  C311  1  0.638900  0.633400  0.341200  1.0  -0.0516
  C  C312  1  0.805300  0.772300  0.544100  1.0  0.1998
  C  C313  1  0.784800  0.811300  0.598200  1.0  -0.0486
  C  C314  1  0.823600  0.856700  0.629900  1.0  -0.0425
  C  C315  1  0.882900  0.863100  0.607400  1.0  -0.1755
  C  C316  1  0.903400  0.824100  0.553200  1.0  -0.0486
  C  C317  1  0.864600  0.778800  0.521600  1.0  -0.207
  C  C318  1  0.920600  0.913100  0.646200  1.0  0.6501
  C  C319  1  0.550000  0.412200  0.261400  1.0  0.6021
  C  C320  1  0.593500  0.361100  0.284700  1.0  -0.137
  C  C321  1  0.575800  0.326600  0.347000  1.0  -0.0383
  C  C322  1  0.614400  0.281500  0.380400  1.0  -0.1256
  C  C323  1  0.670600  0.270800  0.351400  1.0  0.0485
  C  C324  1  0.688200  0.305200  0.289100  1.0  -0.0685
  C  C325  1  0.649700  0.350400  0.255700  1.0  -0.1016
  C  C326  1  0.793300  0.173000  0.424900  1.0  0.0442
  C  C327  1  0.787400  0.159500  0.508500  1.0  -0.0942
  C  C328  1  0.829300  0.121300  0.556700  1.0  -0.1089
  C  C329  1  0.877100  0.096400  0.521200  1.0  -0.1283
  C  C330  1  0.883000  0.109800  0.437600  1.0  -0.0169
  C  C331  1  0.841100  0.148100  0.389400  1.0  -0.1888
  C  C332  1  0.925000  0.060400  0.573700  1.0  0.6806
  C  C333  1  0.315500  0.468300  0.256700  1.0  0.1487
  C  C334  1  0.257700  0.460800  0.283200  1.0  -0.1053
  C  C335  1  0.257000  0.454700  0.370400  1.0  0.0671
  C  C336  1  0.313900  0.456200  0.431200  1.0  -0.0778
  C  C337  1  0.371700  0.463700  0.404600  1.0  0.1752
  C  C338  1  0.191000  0.455400  0.395600  1.0  -0.0237
  C  C339  1  0.155100  0.406200  0.387000  1.0  0.0746
  C  C340  1  0.093400  0.406600  0.403100  1.0  -0.1626
  C  C341  1  0.067600  0.456200  0.427800  1.0  -0.0979
  C  C342  1  0.103600  0.505400  0.436000  1.0  -0.0857
  C  C343  1  0.165200  0.505000  0.420300  1.0  0.0807
  C  C344  1  0.183900  0.351600  0.365000  1.0  -0.4107
  C  C345  1  0.196900  0.561700  0.420000  1.0  -0.3281
  C  C346  1  0.052000  0.939700  0.817800  1.0  0.6482
  C  C347  1  0.095000  0.897100  0.876700  1.0  -0.1127
  C  C348  1  0.092400  0.890400  0.963300  1.0  -0.0229
  C  C349  1  0.133800  0.853000  0.014400  1.0  -0.0891
  C  C350  1  0.177700  0.822500  0.978900  1.0  0.1812
  C  C351  1  0.180300  0.829300  0.892300  1.0  -0.1157
  C  C352  1  0.138900  0.866600  0.841200  1.0  -0.0508
  C  C353  1  0.305300  0.727700  0.044100  1.0  0.2005
  C  C354  1  0.284800  0.688700  0.098200  1.0  -0.0494
  C  C355  1  0.323600  0.643300  0.129900  1.0  -0.0433
  C  C356  1  0.382900  0.636900  0.107400  1.0  -0.1754
  C  C357  1  0.403400  0.675900  0.053200  1.0  -0.0492
  C  C358  1  0.364600  0.721200  0.021600  1.0  -0.2075
  C  C359  1  0.420600  0.586900  0.146200  1.0  0.65
  C  C360  1  0.050000  0.087800  0.761400  1.0  0.6021
  C  C361  1  0.093500  0.138900  0.784700  1.0  -0.1372
  C  C362  1  0.075800  0.173400  0.847000  1.0  -0.0381
  C  C363  1  0.114400  0.218500  0.880400  1.0  -0.1265
  C  C364  1  0.170600  0.229200  0.851400  1.0  0.0478
  C  C365  1  0.188200  0.194800  0.789100  1.0  -0.0682
  C  C366  1  0.149700  0.149600  0.755700  1.0  -0.1014
  C  C367  1  0.293300  0.327000  0.924900  1.0  0.0415
  C  C368  1  0.287400  0.340500  0.008500  1.0  -0.0932
  C  C369  1  0.329300  0.378700  0.056700  1.0  -0.11
  C  C370  1  0.377100  0.403600  0.021200  1.0  -0.1293
  C  C371  1  0.383000  0.390200  0.937600  1.0  -0.0172
  C  C372  1  0.341100  0.351900  0.889400  1.0  -0.1894
  C  C373  1  0.425000  0.439600  0.073700  1.0  0.6809
  C  C374  1  0.815500  0.031700  0.756700  1.0  0.1487
  C  C375  1  0.757700  0.039200  0.783200  1.0  -0.1057
  C  C376  1  0.757000  0.045300  0.870400  1.0  0.0672
  C  C377  1  0.813900  0.043800  0.931200  1.0  -0.0781
  C  C378  1  0.871700  0.036300  0.904600  1.0  0.1757
  C  C379  1  0.691000  0.044600  0.895600  1.0  -0.0237
  C  C380  1  0.655100  0.093800  0.887000  1.0  0.0739
  C  C381  1  0.593400  0.093400  0.903100  1.0  -0.1619
  C  C382  1  0.567600  0.043800  0.927800  1.0  -0.0989
  C  C383  1  0.603600  0.994600  0.936000  1.0  -0.0857
  C  C384  1  0.665200  0.995000  0.920300  1.0  0.0819
  C  C385  1  0.683900  0.148400  0.865000  1.0  -0.4093
  C  C386  1  0.696900  0.938300  0.920000  1.0  -0.3291
  C  C387  1  0.970800  0.589300  0.952800  1.0  0.0076
  C  C388  1  0.903400  0.579100  0.967200  1.0  0.0073
  C  C389  1  0.873900  0.526900  0.951300  1.0  -0.1537
  C  C390  1  0.813000  0.518600  0.967900  1.0  0.0732
  C  C391  1  0.781600  0.562400  0.000400  1.0  -0.0035
  C  C392  1  0.811200  0.614500  0.016300  1.0  0.091
  C  C393  1  0.872000  0.622900  0.999700  1.0  -0.2098
  C  C394  1  0.776000  0.465700  0.936000  1.0  -0.3992
  C  C395  1  0.777900  0.659500  0.054000  1.0  -0.407
  C  C396  1  0.721400  0.548400  0.029400  1.0  0.0218
  C  C397  1  0.663200  0.553100  0.971700  1.0  -0.1107
  C  C398  1  0.606600  0.540400  0.998500  1.0  0.1756
  C  C399  1  0.666500  0.518600  0.140600  1.0  0.1563
  C  C400  1  0.723100  0.531200  0.113800  1.0  -0.1237
  N  N401  1  0.229300  0.210600  0.526500  1.0  -0.1026
  N  N402  1  0.267400  0.229400  0.502400  1.0  -0.1453
  N  N403  1  0.207000  0.724700  0.399000  1.0  -0.2936
  N  N404  1  0.264400  0.718700  0.366200  1.0  -0.4116
  N  N405  1  0.872400  0.969800  0.317400  1.0  -0.374
  N  N406  1  0.991000  0.457900  0.453000  1.0  -0.3297
  N  N407  1  0.608200  0.476800  0.582900  1.0  -0.3313
  N  N408  1  0.491000  0.042100  0.953000  1.0  -0.3323
  N  N409  1  0.108200  0.023200  0.082900  1.0  -0.3314
  N  N410  1  0.729300  0.289400  0.026500  1.0  -0.1018
  N  N411  1  0.767400  0.270600  0.002400  1.0  -0.1448
  N  N412  1  0.707000  0.775300  0.899000  1.0  -0.2922
  N  N413  1  0.764400  0.781300  0.866200  1.0  -0.4114
  N  N414  1  0.372400  0.530200  0.817400  1.0  -0.374
  N  N415  1  0.491000  0.957900  0.453000  1.0  -0.3298
  N  N416  1  0.108200  0.976800  0.582900  1.0  -0.3313
  N  N417  1  0.729300  0.710600  0.526500  1.0  -0.1026
  N  N418  1  0.767400  0.729400  0.502400  1.0  -0.1453
  N  N419  1  0.707000  0.224700  0.399000  1.0  -0.2936
  N  N420  1  0.764400  0.218700  0.366200  1.0  -0.4116
  N  N421  1  0.372400  0.469800  0.317400  1.0  -0.374
  N  N422  1  0.229300  0.789400  0.026500  1.0  -0.1018
  N  N423  1  0.267400  0.770600  0.002400  1.0  -0.1448
  N  N424  1  0.207000  0.275300  0.899000  1.0  -0.2922
  N  N425  1  0.264400  0.281300  0.866200  1.0  -0.4114
  N  N426  1  0.872400  0.030200  0.817400  1.0  -0.374
  N  N427  1  0.991000  0.542100  0.953000  1.0  -0.3324
  N  N428  1  0.608200  0.523200  0.082900  1.0  -0.3314
  O  O429  1  0.008500  0.039900  0.347400  1.0  -0.5607
  O  O430  1  0.063500  0.054700  0.242800  1.0  -0.5931
  O  O431  1  0.408800  0.441300  0.704100  1.0  -0.5431
  O  O432  1  0.463900  0.427200  0.596900  1.0  -0.5971
  O  O433  1  0.007200  0.922600  0.292500  1.0  -0.5498
  O  O434  1  0.066000  0.936000  0.192000  1.0  -0.588
  O  O435  1  0.415400  0.550000  0.648300  1.0  -0.6261
  O  O436  1  0.469900  0.537300  0.542300  1.0  -0.5727
  O  O437  1  0.508500  0.460100  0.847400  1.0  -0.5606
  O  O438  1  0.563500  0.445300  0.742800  1.0  -0.5922
  O  O439  1  0.908800  0.058700  0.204100  1.0  -0.5434
  O  O440  1  0.963900  0.072800  0.096900  1.0  -0.5967
  O  O441  1  0.507200  0.577400  0.792500  1.0  -0.5505
  O  O442  1  0.566000  0.564000  0.692000  1.0  -0.5878
  O  O443  1  0.915400  0.950000  0.148300  1.0  -0.6251
  O  O444  1  0.969900  0.962700  0.042300  1.0  -0.5726
  O  O445  1  0.508500  0.539900  0.347400  1.0  -0.5607
  O  O446  1  0.563500  0.554700  0.242800  1.0  -0.5931
  O  O447  1  0.908800  0.941300  0.704100  1.0  -0.5431
  O  O448  1  0.963900  0.927200  0.596900  1.0  -0.5971
  O  O449  1  0.507200  0.422600  0.292500  1.0  -0.5499
  O  O450  1  0.566000  0.436000  0.192000  1.0  -0.588
  O  O451  1  0.915400  0.050000  0.648300  1.0  -0.6261
  O  O452  1  0.969900  0.037300  0.542300  1.0  -0.5727
  O  O453  1  0.008500  0.960100  0.847400  1.0  -0.5606
  O  O454  1  0.063500  0.945300  0.742800  1.0  -0.5922
  O  O455  1  0.408800  0.558700  0.204100  1.0  -0.5434
  O  O456  1  0.463900  0.572800  0.096900  1.0  -0.5967
  O  O457  1  0.007200  0.077400  0.792500  1.0  -0.5505
  O  O458  1  0.066000  0.064000  0.692000  1.0  -0.5878
  O  O459  1  0.415400  0.450000  0.148300  1.0  -0.6251
  O  O460  1  0.469900  0.462700  0.042300  1.0  -0.5726
