# generated using pymatgen
data_ScH6(C2O)6
_symmetry_space_group_name_H-M   'P 1'
_cell_length_a   8.76820000
_cell_length_b   20.46940000
_cell_length_c   33.85100000
_cell_angle_alpha   90.00000000
_cell_angle_beta   90.00000000
_cell_angle_gamma   90.00000000
_symmetry_Int_Tables_number   1
_chemical_formula_structural   ScH6(C2O)6
_chemical_formula_sum   'Sc16 H96 C192 O96'
_cell_volume   6075.57047555
_cell_formula_units_Z   16
loop_
 _symmetry_equiv_pos_site_id
 _symmetry_equiv_pos_as_xyz
  1  'x, y, z'
loop_
 _atom_site_type_symbol
 _atom_site_label
 _atom_site_symmetry_multiplicity
 _atom_site_fract_x
 _atom_site_fract_y
 _atom_site_fract_z
 _atom_site_occupancy
 _atom_site_charge
  Sc  Sc1  1  0.375000  0.375000  0.634950  1.0  2.0785
  Sc  Sc2  1  0.375000  0.875000  0.134950  1.0  2.0785
  Sc  Sc3  1  0.875000  0.375000  0.134950  1.0  2.0785
  Sc  Sc4  1  0.875000  0.875000  0.634950  1.0  2.0785
  Sc  Sc5  1  0.375000  0.375000  0.115050  1.0  2.0712
  Sc  Sc6  1  0.375000  0.875000  0.615050  1.0  2.0712
  Sc  Sc7  1  0.875000  0.375000  0.615050  1.0  2.0712
  Sc  Sc8  1  0.875000  0.875000  0.115050  1.0  2.0712
  Sc  Sc9  1  0.625000  0.625000  0.365050  1.0  2.0712
  Sc  Sc10  1  0.625000  0.125000  0.865050  1.0  2.0712
  Sc  Sc11  1  0.125000  0.625000  0.865050  1.0  2.0712
  Sc  Sc12  1  0.125000  0.125000  0.365050  1.0  2.0712
  Sc  Sc13  1  0.625000  0.625000  0.884950  1.0  2.0785
  Sc  Sc14  1  0.625000  0.125000  0.384950  1.0  2.0785
  Sc  Sc15  1  0.125000  0.625000  0.384950  1.0  2.0785
  Sc  Sc16  1  0.125000  0.125000  0.884950  1.0  2.0785
  H  H17  1  0.255700  0.275700  0.743600  1.0  0.1102
  H  H18  1  0.172500  0.214400  0.797000  1.0  0.0884
  H  H19  1  0.352600  0.568700  0.626000  1.0  0.1054
  H  H20  1  0.255700  0.775700  0.243600  1.0  0.1102
  H  H21  1  0.172500  0.714400  0.297000  1.0  0.0884
  H  H22  1  0.352600  0.068700  0.126000  1.0  0.1054
  H  H23  1  0.755700  0.275700  0.243600  1.0  0.1102
  H  H24  1  0.672500  0.214400  0.297000  1.0  0.0884
  H  H25  1  0.852600  0.568700  0.126000  1.0  0.1054
  H  H26  1  0.755700  0.775700  0.743600  1.0  0.1102
  H  H27  1  0.672500  0.714400  0.797000  1.0  0.0884
  H  H28  1  0.852600  0.068700  0.626000  1.0  0.1054
  H  H29  1  0.494300  0.474300  0.743600  1.0  0.111
  H  H30  1  0.577500  0.535600  0.797000  1.0  0.0884
  H  H31  1  0.397400  0.181300  0.626000  1.0  0.1045
  H  H32  1  0.494300  0.974300  0.243600  1.0  0.111
  H  H33  1  0.577500  0.035600  0.297000  1.0  0.0884
  H  H34  1  0.397400  0.681300  0.126000  1.0  0.1045
  H  H35  1  0.994300  0.474300  0.243600  1.0  0.111
  H  H36  1  0.077500  0.535600  0.297000  1.0  0.0884
  H  H37  1  0.897400  0.181300  0.126000  1.0  0.1045
  H  H38  1  0.994300  0.974300  0.743600  1.0  0.111
  H  H39  1  0.077500  0.035600  0.797000  1.0  0.0884
  H  H40  1  0.897400  0.681300  0.626000  1.0  0.1045
  H  H41  1  0.494300  0.275700  0.006400  1.0  0.1109
  H  H42  1  0.577500  0.214400  0.953000  1.0  0.0885
  H  H43  1  0.397400  0.568700  0.124000  1.0  0.1048
  H  H44  1  0.494300  0.775700  0.506400  1.0  0.1109
  H  H45  1  0.577500  0.714400  0.453000  1.0  0.0885
  H  H46  1  0.397400  0.068700  0.624000  1.0  0.1048
  H  H47  1  0.994300  0.275700  0.506400  1.0  0.1109
  H  H48  1  0.077500  0.214400  0.453000  1.0  0.0885
  H  H49  1  0.897400  0.568700  0.624000  1.0  0.1048
  H  H50  1  0.994300  0.775700  0.006400  1.0  0.1109
  H  H51  1  0.077500  0.714400  0.953000  1.0  0.0885
  H  H52  1  0.897400  0.068700  0.124000  1.0  0.1048
  H  H53  1  0.255700  0.474300  0.006400  1.0  0.1104
  H  H54  1  0.172500  0.535600  0.953000  1.0  0.0886
  H  H55  1  0.352600  0.181300  0.124000  1.0  0.1052
  H  H56  1  0.255700  0.974300  0.506400  1.0  0.1104
  H  H57  1  0.172500  0.035600  0.453000  1.0  0.0886
  H  H58  1  0.352600  0.681300  0.624000  1.0  0.1052
  H  H59  1  0.755700  0.474300  0.506400  1.0  0.1104
  H  H60  1  0.672500  0.535600  0.453000  1.0  0.0886
  H  H61  1  0.852600  0.181300  0.624000  1.0  0.1052
  H  H62  1  0.755700  0.974300  0.006400  1.0  0.1104
  H  H63  1  0.672500  0.035600  0.953000  1.0  0.0886
  H  H64  1  0.852600  0.681300  0.124000  1.0  0.1052
  H  H65  1  0.744300  0.724300  0.256400  1.0  0.1112
  H  H66  1  0.827500  0.785600  0.203000  1.0  0.0886
  H  H67  1  0.647400  0.431300  0.374000  1.0  0.1043
  H  H68  1  0.744300  0.224300  0.756400  1.0  0.1112
  H  H69  1  0.827500  0.285600  0.703000  1.0  0.0886
  H  H70  1  0.647400  0.931300  0.874000  1.0  0.1043
  H  H71  1  0.244300  0.724300  0.756400  1.0  0.1112
  H  H72  1  0.327500  0.785600  0.703000  1.0  0.0886
  H  H73  1  0.147400  0.431300  0.874000  1.0  0.1043
  H  H74  1  0.244300  0.224300  0.256400  1.0  0.1112
  H  H75  1  0.327500  0.285600  0.203000  1.0  0.0886
  H  H76  1  0.147400  0.931300  0.374000  1.0  0.1043
  H  H77  1  0.505700  0.525700  0.256400  1.0  0.1102
  H  H78  1  0.422500  0.464400  0.203000  1.0  0.0886
  H  H79  1  0.602600  0.818700  0.374000  1.0  0.1053
  H  H80  1  0.505700  0.025700  0.756400  1.0  0.1102
  H  H81  1  0.422500  0.964400  0.703000  1.0  0.0886
  H  H82  1  0.602600  0.318700  0.874000  1.0  0.1053
  H  H83  1  0.005700  0.525700  0.756400  1.0  0.1102
  H  H84  1  0.922500  0.464400  0.703000  1.0  0.0886
  H  H85  1  0.102600  0.818700  0.874000  1.0  0.1053
  H  H86  1  0.005700  0.025700  0.256400  1.0  0.1102
  H  H87  1  0.922500  0.964400  0.203000  1.0  0.0886
  H  H88  1  0.102600  0.318700  0.374000  1.0  0.1053
  H  H89  1  0.505700  0.724300  0.993600  1.0  0.1105
  H  H90  1  0.422500  0.785600  0.047000  1.0  0.0884
  H  H91  1  0.602600  0.431300  0.876000  1.0  0.1052
  H  H92  1  0.505700  0.224300  0.493600  1.0  0.1105
  H  H93  1  0.422500  0.285600  0.547000  1.0  0.0884
  H  H94  1  0.602600  0.931300  0.376000  1.0  0.1052
  H  H95  1  0.005700  0.724300  0.493600  1.0  0.1105
  H  H96  1  0.922500  0.785600  0.547000  1.0  0.0884
  H  H97  1  0.102600  0.431300  0.376000  1.0  0.1052
  H  H98  1  0.005700  0.224300  0.993600  1.0  0.1105
  H  H99  1  0.922500  0.285600  0.047000  1.0  0.0884
  H  H100  1  0.102600  0.931300  0.876000  1.0  0.1052
  H  H101  1  0.744300  0.525700  0.993600  1.0  0.1107
  H  H102  1  0.827500  0.464400  0.047000  1.0  0.0883
  H  H103  1  0.647400  0.818700  0.876000  1.0  0.105
  H  H104  1  0.744300  0.025700  0.493600  1.0  0.1107
  H  H105  1  0.827500  0.964400  0.547000  1.0  0.0883
  H  H106  1  0.647400  0.318700  0.376000  1.0  0.105
  H  H107  1  0.244300  0.525700  0.493600  1.0  0.1107
  H  H108  1  0.327500  0.464400  0.547000  1.0  0.0883
  H  H109  1  0.147400  0.818700  0.376000  1.0  0.105
  H  H110  1  0.244300  0.025700  0.993600  1.0  0.1107
  H  H111  1  0.327500  0.964400  0.047000  1.0  0.0883
  H  H112  1  0.147400  0.318700  0.876000  1.0  0.105
  C  C113  1  0.106300  0.319700  0.681700  1.0  0.7113
  C  C114  1  0.051400  0.284600  0.717600  1.0  -0.1523
  C  C115  1  0.152000  0.264900  0.746200  1.0  -0.1127
  C  C116  1  0.101400  0.228800  0.778100  1.0  -0.0472
  C  C117  1  0.259700  0.591500  0.624700  1.0  -0.0682
  C  C118  1  0.106300  0.819700  0.181700  1.0  0.7113
  C  C119  1  0.051400  0.784600  0.217600  1.0  -0.1523
  C  C120  1  0.152000  0.764900  0.246200  1.0  -0.1127
  C  C121  1  0.101400  0.728800  0.278100  1.0  -0.0472
  C  C122  1  0.259700  0.091500  0.124700  1.0  -0.0682
  C  C123  1  0.606300  0.319700  0.181700  1.0  0.7113
  C  C124  1  0.551400  0.284600  0.217600  1.0  -0.1523
  C  C125  1  0.652000  0.264900  0.246200  1.0  -0.113
  C  C126  1  0.601400  0.228800  0.278100  1.0  -0.0472
  C  C127  1  0.759700  0.591500  0.124700  1.0  -0.0682
  C  C128  1  0.606300  0.819700  0.681700  1.0  0.7113
  C  C129  1  0.551400  0.784600  0.717600  1.0  -0.1523
  C  C130  1  0.652000  0.764900  0.746200  1.0  -0.113
  C  C131  1  0.601400  0.728800  0.778100  1.0  -0.0472
  C  C132  1  0.759700  0.091500  0.624700  1.0  -0.0682
  C  C133  1  0.643700  0.430300  0.681700  1.0  0.7102
  C  C134  1  0.698600  0.465400  0.717600  1.0  -0.1531
  C  C135  1  0.598000  0.485100  0.746200  1.0  -0.1125
  C  C136  1  0.648600  0.521200  0.778100  1.0  -0.0469
  C  C137  1  0.490300  0.158500  0.624700  1.0  -0.0676
  C  C138  1  0.643700  0.930300  0.181700  1.0  0.7102
  C  C139  1  0.698600  0.965400  0.217600  1.0  -0.1531
  C  C140  1  0.598000  0.985100  0.246200  1.0  -0.1125
  C  C141  1  0.648600  0.021200  0.278100  1.0  -0.0469
  C  C142  1  0.490300  0.658500  0.124700  1.0  -0.0676
  C  C143  1  0.143700  0.430300  0.181700  1.0  0.7102
  C  C144  1  0.198600  0.465400  0.217600  1.0  -0.1531
  C  C145  1  0.098000  0.485100  0.246200  1.0  -0.1125
  C  C146  1  0.148600  0.521200  0.278100  1.0  -0.0469
  C  C147  1  0.990300  0.158500  0.124700  1.0  -0.0676
  C  C148  1  0.143700  0.930300  0.681700  1.0  0.7102
  C  C149  1  0.198600  0.965400  0.717600  1.0  -0.1531
  C  C150  1  0.098000  0.985100  0.746200  1.0  -0.1125
  C  C151  1  0.148600  0.021200  0.778100  1.0  -0.0469
  C  C152  1  0.990300  0.658500  0.624700  1.0  -0.0676
  C  C153  1  0.643700  0.319700  0.068300  1.0  0.7115
  C  C154  1  0.698600  0.284600  0.032400  1.0  -0.1522
  C  C155  1  0.598000  0.264900  0.003800  1.0  -0.1135
  C  C156  1  0.648600  0.228800  0.971900  1.0  -0.0465
  C  C157  1  0.490300  0.591500  0.125300  1.0  -0.0705
  C  C158  1  0.643700  0.819700  0.568300  1.0  0.7115
  C  C159  1  0.698600  0.784600  0.532400  1.0  -0.1522
  C  C160  1  0.598000  0.764900  0.503800  1.0  -0.1135
  C  C161  1  0.648600  0.728800  0.471900  1.0  -0.0465
  C  C162  1  0.490300  0.091500  0.625300  1.0  -0.0705
  C  C163  1  0.143700  0.319700  0.568300  1.0  0.7115
  C  C164  1  0.198600  0.284600  0.532400  1.0  -0.1522
  C  C165  1  0.098000  0.264900  0.503800  1.0  -0.1135
  C  C166  1  0.148600  0.228800  0.471900  1.0  -0.0465
  C  C167  1  0.990300  0.591500  0.625300  1.0  -0.0721
  C  C168  1  0.143700  0.819700  0.068300  1.0  0.7115
  C  C169  1  0.198600  0.784600  0.032400  1.0  -0.1522
  C  C170  1  0.098000  0.764900  0.003800  1.0  -0.1135
  C  C171  1  0.148600  0.728800  0.971900  1.0  -0.0465
  C  C172  1  0.990300  0.091500  0.125300  1.0  -0.0721
  C  C173  1  0.106300  0.430300  0.068300  1.0  0.7107
  C  C174  1  0.051400  0.465400  0.032400  1.0  -0.1533
  C  C175  1  0.152000  0.485100  0.003800  1.0  -0.1118
  C  C176  1  0.101400  0.521200  0.971900  1.0  -0.0464
  C  C177  1  0.259700  0.158500  0.125300  1.0  -0.0674
  C  C178  1  0.106300  0.930300  0.568300  1.0  0.7107
  C  C179  1  0.051400  0.965400  0.532400  1.0  -0.1533
  C  C180  1  0.152000  0.985100  0.503800  1.0  -0.1118
  C  C181  1  0.101400  0.021200  0.471900  1.0  -0.0464
  C  C182  1  0.259700  0.658500  0.625300  1.0  -0.0674
  C  C183  1  0.606300  0.430300  0.568300  1.0  0.7108
  C  C184  1  0.551400  0.465400  0.532400  1.0  -0.1533
  C  C185  1  0.652000  0.485100  0.503800  1.0  -0.112
  C  C186  1  0.601400  0.521200  0.471900  1.0  -0.0464
  C  C187  1  0.759700  0.158500  0.625300  1.0  -0.0674
  C  C188  1  0.606300  0.930300  0.068300  1.0  0.7108
  C  C189  1  0.551400  0.965400  0.032400  1.0  -0.1533
  C  C190  1  0.652000  0.985100  0.003800  1.0  -0.112
  C  C191  1  0.601400  0.021200  0.971900  1.0  -0.0464
  C  C192  1  0.759700  0.658500  0.125300  1.0  -0.0674
  C  C193  1  0.893700  0.680300  0.318300  1.0  0.7104
  C  C194  1  0.948600  0.715400  0.282400  1.0  -0.1524
  C  C195  1  0.848000  0.735100  0.253800  1.0  -0.1124
  C  C196  1  0.898600  0.771200  0.221900  1.0  -0.0461
  C  C197  1  0.740300  0.408500  0.375300  1.0  -0.0688
  C  C198  1  0.893700  0.180300  0.818300  1.0  0.7104
  C  C199  1  0.948600  0.215400  0.782400  1.0  -0.1524
  C  C200  1  0.848000  0.235100  0.753800  1.0  -0.1124
  C  C201  1  0.898600  0.271200  0.721900  1.0  -0.0461
  C  C202  1  0.740300  0.908500  0.875300  1.0  -0.0686
  C  C203  1  0.393700  0.680300  0.818300  1.0  0.7102
  C  C204  1  0.448600  0.715400  0.782400  1.0  -0.1524
  C  C205  1  0.348000  0.735100  0.753800  1.0  -0.1147
  C  C206  1  0.398600  0.771200  0.721900  1.0  -0.0461
  C  C207  1  0.240300  0.408500  0.875300  1.0  -0.0676
  C  C208  1  0.393700  0.180300  0.318300  1.0  0.7102
  C  C209  1  0.448600  0.215400  0.282400  1.0  -0.1524
  C  C210  1  0.348000  0.235100  0.253800  1.0  -0.1147
  C  C211  1  0.398600  0.271200  0.221900  1.0  -0.0461
  C  C212  1  0.240300  0.908500  0.375300  1.0  -0.068
  C  C213  1  0.356300  0.569700  0.318300  1.0  0.7118
  C  C214  1  0.301400  0.534600  0.282400  1.0  -0.153
  C  C215  1  0.402000  0.514900  0.253800  1.0  -0.1125
  C  C216  1  0.351400  0.478800  0.221900  1.0  -0.0467
  C  C217  1  0.509700  0.841500  0.375300  1.0  -0.071
  C  C218  1  0.356300  0.069700  0.818300  1.0  0.7118
  C  C219  1  0.301400  0.034600  0.782400  1.0  -0.153
  C  C220  1  0.402000  0.014900  0.753800  1.0  -0.1125
  C  C221  1  0.351400  0.978800  0.721900  1.0  -0.0467
  C  C222  1  0.509700  0.341500  0.875300  1.0  -0.071
  C  C223  1  0.856300  0.569700  0.818300  1.0  0.7118
  C  C224  1  0.801400  0.534600  0.782400  1.0  -0.153
  C  C225  1  0.902000  0.514900  0.753800  1.0  -0.1125
  C  C226  1  0.851400  0.478800  0.721900  1.0  -0.0467
  C  C227  1  0.009700  0.841500  0.875300  1.0  -0.071
  C  C228  1  0.856300  0.069700  0.318300  1.0  0.7118
  C  C229  1  0.801400  0.034600  0.282400  1.0  -0.153
  C  C230  1  0.902000  0.014900  0.253800  1.0  -0.1125
  C  C231  1  0.851400  0.978800  0.221900  1.0  -0.0467
  C  C232  1  0.009700  0.341500  0.375300  1.0  -0.071
  C  C233  1  0.356300  0.680300  0.931700  1.0  0.7101
  C  C234  1  0.301400  0.715400  0.967600  1.0  -0.1526
  C  C235  1  0.402000  0.735100  0.996200  1.0  -0.112
  C  C236  1  0.351400  0.771200  0.028100  1.0  -0.0472
  C  C237  1  0.509700  0.408500  0.874700  1.0  -0.0675
  C  C238  1  0.356300  0.180300  0.431700  1.0  0.7101
  C  C239  1  0.301400  0.215400  0.467600  1.0  -0.1526
  C  C240  1  0.402000  0.235100  0.496200  1.0  -0.112
  C  C241  1  0.351400  0.271200  0.528100  1.0  -0.0472
  C  C242  1  0.509700  0.908500  0.374700  1.0  -0.068
  C  C243  1  0.856300  0.680300  0.431700  1.0  0.7093
  C  C244  1  0.801400  0.715400  0.467600  1.0  -0.1526
  C  C245  1  0.902000  0.735100  0.496200  1.0  -0.112
  C  C246  1  0.851400  0.771200  0.528100  1.0  -0.0472
  C  C247  1  0.009700  0.408500  0.374700  1.0  -0.0675
  C  C248  1  0.856300  0.180300  0.931700  1.0  0.7093
  C  C249  1  0.801400  0.215400  0.967600  1.0  -0.1526
  C  C250  1  0.902000  0.235100  0.996200  1.0  -0.112
  C  C251  1  0.851400  0.271200  0.028100  1.0  -0.0472
  C  C252  1  0.009700  0.908500  0.874700  1.0  -0.068
  C  C253  1  0.893700  0.569700  0.931700  1.0  0.7122
  C  C254  1  0.948600  0.534600  0.967600  1.0  -0.153
  C  C255  1  0.848000  0.514900  0.996200  1.0  -0.1137
  C  C256  1  0.898600  0.478800  0.028100  1.0  -0.047
  C  C257  1  0.740300  0.841500  0.874700  1.0  -0.0716
  C  C258  1  0.893700  0.069700  0.431700  1.0  0.7122
  C  C259  1  0.948600  0.034600  0.467600  1.0  -0.153
  C  C260  1  0.848000  0.014900  0.496200  1.0  -0.1137
  C  C261  1  0.898600  0.978800  0.528100  1.0  -0.047
  C  C262  1  0.740300  0.341500  0.374700  1.0  -0.0716
  C  C263  1  0.393700  0.569700  0.431700  1.0  0.7122
  C  C264  1  0.448600  0.534600  0.467600  1.0  -0.153
  C  C265  1  0.348000  0.514900  0.496200  1.0  -0.1129
  C  C266  1  0.398600  0.478800  0.528100  1.0  -0.047
  C  C267  1  0.240300  0.841500  0.374700  1.0  -0.0721
  C  C268  1  0.393700  0.069700  0.931700  1.0  0.7122
  C  C269  1  0.448600  0.034600  0.967600  1.0  -0.153
  C  C270  1  0.348000  0.014900  0.996200  1.0  -0.1129
  C  C271  1  0.398600  0.978800  0.028100  1.0  -0.047
  C  C272  1  0.240300  0.341500  0.874700  1.0  -0.0721
  C  C273  1  0.125000  0.485500  0.625000  1.0  0.682
  C  C274  1  0.125000  0.558200  0.625000  1.0  -0.1078
  C  C275  1  0.125000  0.985500  0.125000  1.0  0.682
  C  C276  1  0.125000  0.058200  0.125000  1.0  -0.1078
  C  C277  1  0.625000  0.985500  0.625000  1.0  0.682
  C  C278  1  0.625000  0.058200  0.625000  1.0  -0.1078
  C  C279  1  0.625000  0.264500  0.625000  1.0  0.6844
  C  C280  1  0.625000  0.191800  0.625000  1.0  -0.1079
  C  C281  1  0.625000  0.764500  0.125000  1.0  0.6844
  C  C282  1  0.625000  0.691800  0.125000  1.0  -0.1079
  C  C283  1  0.625000  0.485500  0.125000  1.0  0.682
  C  C284  1  0.625000  0.558200  0.125000  1.0  -0.1078
  C  C285  1  0.125000  0.264500  0.125000  1.0  0.6844
  C  C286  1  0.125000  0.191800  0.125000  1.0  -0.1079
  C  C287  1  0.125000  0.764500  0.625000  1.0  0.6844
  C  C288  1  0.125000  0.691800  0.625000  1.0  -0.1079
  C  C289  1  0.875000  0.514500  0.375000  1.0  0.6844
  C  C290  1  0.875000  0.441800  0.375000  1.0  -0.1079
  C  C291  1  0.875000  0.014500  0.875000  1.0  0.6844
  C  C292  1  0.875000  0.941800  0.875000  1.0  -0.1079
  C  C293  1  0.375000  0.735500  0.375000  1.0  0.682
  C  C294  1  0.375000  0.808200  0.375000  1.0  -0.1078
  C  C295  1  0.375000  0.235500  0.875000  1.0  0.682
  C  C296  1  0.375000  0.308200  0.875000  1.0  -0.1078
  C  C297  1  0.375000  0.514500  0.875000  1.0  0.6844
  C  C298  1  0.375000  0.441800  0.875000  1.0  -0.1079
  C  C299  1  0.375000  0.014500  0.375000  1.0  0.6844
  C  C300  1  0.375000  0.941800  0.375000  1.0  -0.1079
  C  C301  1  0.875000  0.735500  0.875000  1.0  0.682
  C  C302  1  0.875000  0.808200  0.875000  1.0  -0.1078
  C  C303  1  0.875000  0.235500  0.375000  1.0  0.682
  C  C304  1  0.875000  0.308200  0.375000  1.0  -0.1078
  O  O305  1  0.245600  0.331700  0.679000  1.0  -0.6118
  O  O306  1  0.009400  0.336900  0.657000  1.0  -0.6784
  O  O307  1  0.247300  0.456900  0.633400  1.0  -0.6687
  O  O308  1  0.245600  0.831700  0.179000  1.0  -0.6118
  O  O309  1  0.009400  0.836900  0.157000  1.0  -0.6784
  O  O310  1  0.247300  0.956900  0.133400  1.0  -0.6687
  O  O311  1  0.745600  0.331700  0.179000  1.0  -0.6118
  O  O312  1  0.509400  0.336900  0.157000  1.0  -0.6784
  O  O313  1  0.747300  0.456900  0.133400  1.0  -0.6687
  O  O314  1  0.745600  0.831700  0.679000  1.0  -0.6118
  O  O315  1  0.509400  0.836900  0.657000  1.0  -0.6784
  O  O316  1  0.747300  0.956900  0.633400  1.0  -0.6687
  O  O317  1  0.504400  0.418300  0.679000  1.0  -0.6118
  O  O318  1  0.740600  0.413100  0.657000  1.0  -0.6775
  O  O319  1  0.502700  0.293100  0.633400  1.0  -0.6702
  O  O320  1  0.504400  0.918300  0.179000  1.0  -0.6118
  O  O321  1  0.740600  0.913100  0.157000  1.0  -0.6775
  O  O322  1  0.502700  0.793100  0.133400  1.0  -0.6702
  O  O323  1  0.004400  0.418300  0.179000  1.0  -0.6118
  O  O324  1  0.240600  0.413100  0.157000  1.0  -0.6775
  O  O325  1  0.002700  0.293100  0.133400  1.0  -0.6702
  O  O326  1  0.004400  0.918300  0.679000  1.0  -0.6118
  O  O327  1  0.240600  0.913100  0.657000  1.0  -0.6775
  O  O328  1  0.002700  0.793100  0.633400  1.0  -0.6702
  O  O329  1  0.504400  0.331700  0.071000  1.0  -0.6107
  O  O330  1  0.740600  0.336900  0.093000  1.0  -0.6782
  O  O331  1  0.502700  0.456900  0.116600  1.0  -0.6691
  O  O332  1  0.504400  0.831700  0.571000  1.0  -0.6107
  O  O333  1  0.740600  0.836900  0.593000  1.0  -0.6782
  O  O334  1  0.502700  0.956900  0.616600  1.0  -0.6691
  O  O335  1  0.004400  0.331700  0.571000  1.0  -0.6107
  O  O336  1  0.240600  0.336900  0.593000  1.0  -0.6782
  O  O337  1  0.002700  0.456900  0.616600  1.0  -0.6691
  O  O338  1  0.004400  0.831700  0.071000  1.0  -0.6107
  O  O339  1  0.240600  0.836900  0.093000  1.0  -0.6782
  O  O340  1  0.002700  0.956900  0.116600  1.0  -0.6691
  O  O341  1  0.245600  0.418300  0.071000  1.0  -0.6111
  O  O342  1  0.009400  0.413100  0.093000  1.0  -0.6778
  O  O343  1  0.247300  0.293100  0.116600  1.0  -0.6696
  O  O344  1  0.245600  0.918300  0.571000  1.0  -0.6111
  O  O345  1  0.009400  0.913100  0.593000  1.0  -0.6778
  O  O346  1  0.247300  0.793100  0.616600  1.0  -0.6696
  O  O347  1  0.745600  0.418300  0.571000  1.0  -0.6111
  O  O348  1  0.509400  0.413100  0.593000  1.0  -0.6778
  O  O349  1  0.747300  0.293100  0.616600  1.0  -0.6696
  O  O350  1  0.745600  0.918300  0.071000  1.0  -0.6111
  O  O351  1  0.509400  0.913100  0.093000  1.0  -0.6778
  O  O352  1  0.747300  0.793100  0.116600  1.0  -0.6696
  O  O353  1  0.754400  0.668300  0.321000  1.0  -0.6104
  O  O354  1  0.990600  0.663100  0.343000  1.0  -0.6777
  O  O355  1  0.752700  0.543100  0.366600  1.0  -0.6702
  O  O356  1  0.754400  0.168300  0.821000  1.0  -0.6104
  O  O357  1  0.990600  0.163100  0.843000  1.0  -0.6777
  O  O358  1  0.752700  0.043100  0.866600  1.0  -0.6702
  O  O359  1  0.254400  0.668300  0.821000  1.0  -0.6104
  O  O360  1  0.490600  0.663100  0.843000  1.0  -0.6777
  O  O361  1  0.252700  0.543100  0.866600  1.0  -0.6702
  O  O362  1  0.254400  0.168300  0.321000  1.0  -0.6104
  O  O363  1  0.490600  0.163100  0.343000  1.0  -0.6777
  O  O364  1  0.252700  0.043100  0.366600  1.0  -0.6702
  O  O365  1  0.495600  0.581700  0.321000  1.0  -0.6112
  O  O366  1  0.259400  0.586900  0.343000  1.0  -0.6785
  O  O367  1  0.497300  0.706900  0.366600  1.0  -0.6689
  O  O368  1  0.495600  0.081700  0.821000  1.0  -0.6112
  O  O369  1  0.259400  0.086900  0.843000  1.0  -0.6785
  O  O370  1  0.497300  0.206900  0.866600  1.0  -0.6689
  O  O371  1  0.995600  0.581700  0.821000  1.0  -0.6112
  O  O372  1  0.759400  0.586900  0.843000  1.0  -0.6785
  O  O373  1  0.997300  0.706900  0.866600  1.0  -0.6689
  O  O374  1  0.995600  0.081700  0.321000  1.0  -0.6112
  O  O375  1  0.759400  0.086900  0.343000  1.0  -0.6785
  O  O376  1  0.997300  0.206900  0.366600  1.0  -0.6689
  O  O377  1  0.495600  0.668300  0.929000  1.0  -0.6122
  O  O378  1  0.259400  0.663100  0.907000  1.0  -0.6776
  O  O379  1  0.497300  0.543100  0.883400  1.0  -0.6693
  O  O380  1  0.495600  0.168300  0.429000  1.0  -0.6122
  O  O381  1  0.259400  0.163100  0.407000  1.0  -0.6776
  O  O382  1  0.497300  0.043100  0.383400  1.0  -0.6693
  O  O383  1  0.995600  0.668300  0.429000  1.0  -0.6122
  O  O384  1  0.759400  0.663100  0.407000  1.0  -0.6776
  O  O385  1  0.997300  0.543100  0.383400  1.0  -0.6693
  O  O386  1  0.995600  0.168300  0.929000  1.0  -0.6122
  O  O387  1  0.759400  0.163100  0.907000  1.0  -0.6776
  O  O388  1  0.997300  0.043100  0.883400  1.0  -0.6693
  O  O389  1  0.754400  0.581700  0.929000  1.0  -0.6115
  O  O390  1  0.990600  0.586900  0.907000  1.0  -0.6783
  O  O391  1  0.752700  0.706900  0.883400  1.0  -0.6696
  O  O392  1  0.754400  0.081700  0.429000  1.0  -0.6115
  O  O393  1  0.990600  0.086900  0.407000  1.0  -0.6783
  O  O394  1  0.752700  0.206900  0.383400  1.0  -0.6696
  O  O395  1  0.254400  0.581700  0.429000  1.0  -0.6115
  O  O396  1  0.490600  0.586900  0.407000  1.0  -0.6783
  O  O397  1  0.252700  0.706900  0.383400  1.0  -0.6696
  O  O398  1  0.254400  0.081700  0.929000  1.0  -0.6115
  O  O399  1  0.490600  0.086900  0.907000  1.0  -0.6783
  O  O400  1  0.252700  0.206900  0.883400  1.0  -0.6696
