# generated using pymatgen
data_ScH6(C2O)6
_symmetry_space_group_name_H-M   'P 1'
_cell_length_a   8.86410000
_cell_length_b   20.69800000
_cell_length_c   34.22900000
_cell_angle_alpha   90.00000000
_cell_angle_beta   90.00000000
_cell_angle_gamma   90.00000000
_symmetry_Int_Tables_number   1
_chemical_formula_structural   ScH6(C2O)6
_chemical_formula_sum   'Sc16 H96 C192 O96'
_cell_volume   6279.96525467
_cell_formula_units_Z   16
loop_
 _symmetry_equiv_pos_site_id
 _symmetry_equiv_pos_as_xyz
  1  'x, y, z'
loop_
 _atom_site_type_symbol
 _atom_site_label
 _atom_site_symmetry_multiplicity
 _atom_site_fract_x
 _atom_site_fract_y
 _atom_site_fract_z
 _atom_site_occupancy
 _atom_site_charge
  Sc  Sc1  1  0.375000  0.375000  0.635440  1.0  2.097
  Sc  Sc2  1  0.375000  0.875000  0.135440  1.0  2.097
  Sc  Sc3  1  0.875000  0.375000  0.135440  1.0  2.097
  Sc  Sc4  1  0.875000  0.875000  0.635440  1.0  2.097
  Sc  Sc5  1  0.375000  0.375000  0.114560  1.0  2.0938
  Sc  Sc6  1  0.375000  0.875000  0.614560  1.0  2.0938
  Sc  Sc7  1  0.875000  0.375000  0.614560  1.0  2.0938
  Sc  Sc8  1  0.875000  0.875000  0.114560  1.0  2.0938
  Sc  Sc9  1  0.625000  0.625000  0.364560  1.0  2.0938
  Sc  Sc10  1  0.625000  0.125000  0.864560  1.0  2.0938
  Sc  Sc11  1  0.125000  0.625000  0.864560  1.0  2.0938
  Sc  Sc12  1  0.125000  0.125000  0.364560  1.0  2.0938
  Sc  Sc13  1  0.625000  0.625000  0.885440  1.0  2.097
  Sc  Sc14  1  0.625000  0.125000  0.385440  1.0  2.097
  Sc  Sc15  1  0.125000  0.625000  0.385440  1.0  2.097
  Sc  Sc16  1  0.125000  0.125000  0.885440  1.0  2.097
  H  H17  1  0.253000  0.275800  0.743200  1.0  0.0993
  H  H18  1  0.171800  0.216800  0.797000  1.0  0.0902
  H  H19  1  0.351400  0.568800  0.626900  1.0  0.1028
  H  H20  1  0.253000  0.775800  0.243200  1.0  0.0993
  H  H21  1  0.171800  0.716800  0.297000  1.0  0.0902
  H  H22  1  0.351400  0.068800  0.126900  1.0  0.1028
  H  H23  1  0.753000  0.275800  0.243200  1.0  0.0993
  H  H24  1  0.671800  0.216800  0.297000  1.0  0.0902
  H  H25  1  0.851400  0.568800  0.126900  1.0  0.1028
  H  H26  1  0.753000  0.775800  0.743200  1.0  0.0993
  H  H27  1  0.671800  0.716800  0.797000  1.0  0.0902
  H  H28  1  0.851400  0.068800  0.626900  1.0  0.1028
  H  H29  1  0.497000  0.474200  0.743200  1.0  0.0999
  H  H30  1  0.578200  0.533200  0.797000  1.0  0.0904
  H  H31  1  0.398600  0.181200  0.626900  1.0  0.1023
  H  H32  1  0.497000  0.974200  0.243200  1.0  0.0999
  H  H33  1  0.578200  0.033200  0.297000  1.0  0.0904
  H  H34  1  0.398600  0.681200  0.126900  1.0  0.1023
  H  H35  1  0.997000  0.474200  0.243200  1.0  0.0999
  H  H36  1  0.078200  0.533200  0.297000  1.0  0.0904
  H  H37  1  0.898600  0.181200  0.126900  1.0  0.1023
  H  H38  1  0.997000  0.974200  0.743200  1.0  0.0999
  H  H39  1  0.078200  0.033200  0.797000  1.0  0.0904
  H  H40  1  0.898600  0.681200  0.626900  1.0  0.1023
  H  H41  1  0.497000  0.275800  0.006800  1.0  0.0999
  H  H42  1  0.578200  0.216800  0.953000  1.0  0.0899
  H  H43  1  0.398600  0.568800  0.123100  1.0  0.1027
  H  H44  1  0.497000  0.775800  0.506800  1.0  0.0999
  H  H45  1  0.578200  0.716800  0.453000  1.0  0.0899
  H  H46  1  0.398600  0.068800  0.623100  1.0  0.1027
  H  H47  1  0.997000  0.275800  0.506800  1.0  0.0999
  H  H48  1  0.078200  0.216800  0.453000  1.0  0.0899
  H  H49  1  0.898600  0.568800  0.623100  1.0  0.1027
  H  H50  1  0.997000  0.775800  0.006800  1.0  0.0999
  H  H51  1  0.078200  0.716800  0.953000  1.0  0.0899
  H  H52  1  0.898600  0.068800  0.123100  1.0  0.1027
  H  H53  1  0.253000  0.474200  0.006800  1.0  0.0993
  H  H54  1  0.171800  0.533200  0.953000  1.0  0.0902
  H  H55  1  0.351400  0.181200  0.123100  1.0  0.1024
  H  H56  1  0.253000  0.974200  0.506800  1.0  0.0993
  H  H57  1  0.171800  0.033200  0.453000  1.0  0.0902
  H  H58  1  0.351400  0.681200  0.623100  1.0  0.1024
  H  H59  1  0.753000  0.474200  0.506800  1.0  0.0993
  H  H60  1  0.671800  0.533200  0.453000  1.0  0.0902
  H  H61  1  0.851400  0.181200  0.623100  1.0  0.1024
  H  H62  1  0.753000  0.974200  0.006800  1.0  0.0993
  H  H63  1  0.671800  0.033200  0.953000  1.0  0.0902
  H  H64  1  0.851400  0.681200  0.123100  1.0  0.1024
  H  H65  1  0.747000  0.724200  0.256800  1.0  0.0999
  H  H66  1  0.828200  0.783200  0.203000  1.0  0.0901
  H  H67  1  0.648600  0.431200  0.373100  1.0  0.1022
  H  H68  1  0.747000  0.224200  0.756800  1.0  0.0999
  H  H69  1  0.828200  0.283200  0.703000  1.0  0.0901
  H  H70  1  0.648600  0.931200  0.873100  1.0  0.1022
  H  H71  1  0.247000  0.724200  0.756800  1.0  0.0999
  H  H72  1  0.328200  0.783200  0.703000  1.0  0.0901
  H  H73  1  0.148600  0.431200  0.873100  1.0  0.1022
  H  H74  1  0.247000  0.224200  0.256800  1.0  0.0999
  H  H75  1  0.328200  0.283200  0.203000  1.0  0.0901
  H  H76  1  0.148600  0.931200  0.373100  1.0  0.1022
  H  H77  1  0.503000  0.525800  0.256800  1.0  0.0992
  H  H78  1  0.421800  0.466800  0.203000  1.0  0.09
  H  H79  1  0.601400  0.818800  0.373100  1.0  0.1027
  H  H80  1  0.503000  0.025800  0.756800  1.0  0.0992
  H  H81  1  0.421800  0.966800  0.703000  1.0  0.09
  H  H82  1  0.601400  0.318800  0.873100  1.0  0.1027
  H  H83  1  0.003000  0.525800  0.756800  1.0  0.0992
  H  H84  1  0.921800  0.466800  0.703000  1.0  0.09
  H  H85  1  0.101400  0.818800  0.873100  1.0  0.1027
  H  H86  1  0.003000  0.025800  0.256800  1.0  0.0992
  H  H87  1  0.921800  0.966800  0.203000  1.0  0.09
  H  H88  1  0.101400  0.318800  0.373100  1.0  0.1027
  H  H89  1  0.503000  0.724200  0.993200  1.0  0.0994
  H  H90  1  0.421800  0.783200  0.047000  1.0  0.0905
  H  H91  1  0.601400  0.431200  0.876900  1.0  0.1023
  H  H92  1  0.503000  0.224200  0.493200  1.0  0.0994
  H  H93  1  0.421800  0.283200  0.547000  1.0  0.0905
  H  H94  1  0.601400  0.931200  0.376900  1.0  0.1023
  H  H95  1  0.003000  0.724200  0.493200  1.0  0.0994
  H  H96  1  0.921800  0.783200  0.547000  1.0  0.0905
  H  H97  1  0.101400  0.431200  0.376900  1.0  0.1023
  H  H98  1  0.003000  0.224200  0.993200  1.0  0.0994
  H  H99  1  0.921800  0.283200  0.047000  1.0  0.0905
  H  H100  1  0.101400  0.931200  0.876900  1.0  0.1023
  H  H101  1  0.747000  0.525800  0.993200  1.0  0.0999
  H  H102  1  0.828200  0.466800  0.047000  1.0  0.0901
  H  H103  1  0.648600  0.818800  0.876900  1.0  0.1028
  H  H104  1  0.747000  0.025800  0.493200  1.0  0.0999
  H  H105  1  0.828200  0.966800  0.547000  1.0  0.0901
  H  H106  1  0.648600  0.318800  0.376900  1.0  0.1028
  H  H107  1  0.247000  0.525800  0.493200  1.0  0.0999
  H  H108  1  0.328200  0.466800  0.547000  1.0  0.0901
  H  H109  1  0.148600  0.818800  0.376900  1.0  0.1028
  H  H110  1  0.247000  0.025800  0.993200  1.0  0.0999
  H  H111  1  0.328200  0.966800  0.047000  1.0  0.0901
  H  H112  1  0.148600  0.318800  0.876900  1.0  0.1028
  C  C113  1  0.102500  0.320400  0.682200  1.0  0.7222
  C  C114  1  0.049700  0.283000  0.717200  1.0  -0.1353
  C  C115  1  0.149300  0.265100  0.745800  1.0  -0.0741
  C  C116  1  0.100700  0.231200  0.778200  1.0  -0.0712
  C  C117  1  0.258500  0.591500  0.625600  1.0  -0.0795
  C  C118  1  0.102500  0.820400  0.182200  1.0  0.7222
  C  C119  1  0.049700  0.783000  0.217200  1.0  -0.1353
  C  C120  1  0.149300  0.765100  0.245800  1.0  -0.0741
  C  C121  1  0.100700  0.731200  0.278200  1.0  -0.0712
  C  C122  1  0.258500  0.091500  0.125600  1.0  -0.0795
  C  C123  1  0.602500  0.320400  0.182200  1.0  0.7217
  C  C124  1  0.549700  0.283000  0.217200  1.0  -0.1353
  C  C125  1  0.649300  0.265100  0.245800  1.0  -0.0739
  C  C126  1  0.600700  0.231200  0.278200  1.0  -0.0712
  C  C127  1  0.758500  0.591500  0.125600  1.0  -0.0795
  C  C128  1  0.602500  0.820400  0.682200  1.0  0.7217
  C  C129  1  0.549700  0.783000  0.717200  1.0  -0.1353
  C  C130  1  0.649300  0.765100  0.745800  1.0  -0.0739
  C  C131  1  0.600700  0.731200  0.778200  1.0  -0.0712
  C  C132  1  0.758500  0.091500  0.625600  1.0  -0.0795
  C  C133  1  0.647500  0.429600  0.682200  1.0  0.7215
  C  C134  1  0.700300  0.467000  0.717200  1.0  -0.1373
  C  C135  1  0.600700  0.484900  0.745800  1.0  -0.0731
  C  C136  1  0.649300  0.518800  0.778200  1.0  -0.0715
  C  C137  1  0.491500  0.158500  0.625600  1.0  -0.0783
  C  C138  1  0.647500  0.929600  0.182200  1.0  0.7215
  C  C139  1  0.700300  0.967000  0.217200  1.0  -0.1373
  C  C140  1  0.600700  0.984900  0.245800  1.0  -0.0731
  C  C141  1  0.649300  0.018800  0.278200  1.0  -0.0715
  C  C142  1  0.491500  0.658500  0.125600  1.0  -0.0783
  C  C143  1  0.147500  0.429600  0.182200  1.0  0.7215
  C  C144  1  0.200300  0.467000  0.217200  1.0  -0.1373
  C  C145  1  0.100700  0.484900  0.245800  1.0  -0.0731
  C  C146  1  0.149300  0.518800  0.278200  1.0  -0.0715
  C  C147  1  0.991500  0.158500  0.125600  1.0  -0.0783
  C  C148  1  0.147500  0.929600  0.682200  1.0  0.7215
  C  C149  1  0.200300  0.967000  0.717200  1.0  -0.1373
  C  C150  1  0.100700  0.984900  0.745800  1.0  -0.0731
  C  C151  1  0.149300  0.018800  0.778200  1.0  -0.0715
  C  C152  1  0.991500  0.658500  0.625600  1.0  -0.0783
  C  C153  1  0.647500  0.320400  0.067800  1.0  0.7227
  C  C154  1  0.700300  0.283000  0.032800  1.0  -0.1357
  C  C155  1  0.600700  0.265100  0.004200  1.0  -0.0735
  C  C156  1  0.649300  0.231200  0.971800  1.0  -0.0717
  C  C157  1  0.491500  0.591500  0.124400  1.0  -0.0777
  C  C158  1  0.647500  0.820400  0.567800  1.0  0.7227
  C  C159  1  0.700300  0.783000  0.532800  1.0  -0.1357
  C  C160  1  0.600700  0.765100  0.504200  1.0  -0.0735
  C  C161  1  0.649300  0.731200  0.471800  1.0  -0.0717
  C  C162  1  0.491500  0.091500  0.624400  1.0  -0.0777
  C  C163  1  0.147500  0.320400  0.567800  1.0  0.7227
  C  C164  1  0.200300  0.283000  0.532800  1.0  -0.1357
  C  C165  1  0.100700  0.265100  0.504200  1.0  -0.0735
  C  C166  1  0.149300  0.231200  0.471800  1.0  -0.0717
  C  C167  1  0.991500  0.591500  0.624400  1.0  -0.0799
  C  C168  1  0.147500  0.820400  0.067800  1.0  0.7227
  C  C169  1  0.200300  0.783000  0.032800  1.0  -0.1357
  C  C170  1  0.100700  0.765100  0.004200  1.0  -0.0735
  C  C171  1  0.149300  0.731200  0.971800  1.0  -0.0717
  C  C172  1  0.991500  0.091500  0.124400  1.0  -0.0799
  C  C173  1  0.102500  0.429600  0.067800  1.0  0.7221
  C  C174  1  0.049700  0.467000  0.032800  1.0  -0.1362
  C  C175  1  0.149300  0.484900  0.004200  1.0  -0.0739
  C  C176  1  0.100700  0.518800  0.971800  1.0  -0.071
  C  C177  1  0.258500  0.158500  0.124400  1.0  -0.0722
  C  C178  1  0.102500  0.929600  0.567800  1.0  0.7221
  C  C179  1  0.049700  0.967000  0.532800  1.0  -0.1362
  C  C180  1  0.149300  0.984900  0.504200  1.0  -0.0739
  C  C181  1  0.100700  0.018800  0.471800  1.0  -0.071
  C  C182  1  0.258500  0.658500  0.624400  1.0  -0.0722
  C  C183  1  0.602500  0.429600  0.567800  1.0  0.7217
  C  C184  1  0.549700  0.467000  0.532800  1.0  -0.1362
  C  C185  1  0.649300  0.484900  0.504200  1.0  -0.0735
  C  C186  1  0.600700  0.518800  0.471800  1.0  -0.071
  C  C187  1  0.758500  0.158500  0.624400  1.0  -0.0722
  C  C188  1  0.602500  0.929600  0.067800  1.0  0.7217
  C  C189  1  0.549700  0.967000  0.032800  1.0  -0.1362
  C  C190  1  0.649300  0.984900  0.004200  1.0  -0.0735
  C  C191  1  0.600700  0.018800  0.971800  1.0  -0.071
  C  C192  1  0.758500  0.658500  0.124400  1.0  -0.0722
  C  C193  1  0.897500  0.679600  0.317800  1.0  0.722
  C  C194  1  0.950300  0.717000  0.282800  1.0  -0.1362
  C  C195  1  0.850700  0.734900  0.254200  1.0  -0.0732
  C  C196  1  0.899300  0.768800  0.221800  1.0  -0.0713
  C  C197  1  0.741500  0.408500  0.374400  1.0  -0.0798
  C  C198  1  0.897500  0.179600  0.817800  1.0  0.722
  C  C199  1  0.950300  0.217000  0.782800  1.0  -0.1362
  C  C200  1  0.850700  0.234900  0.754200  1.0  -0.0732
  C  C201  1  0.899300  0.268800  0.721800  1.0  -0.0713
  C  C202  1  0.741500  0.908500  0.874400  1.0  -0.0798
  C  C203  1  0.397500  0.679600  0.817800  1.0  0.7226
  C  C204  1  0.450300  0.717000  0.782800  1.0  -0.1362
  C  C205  1  0.350700  0.734900  0.754200  1.0  -0.0737
  C  C206  1  0.399300  0.768800  0.721800  1.0  -0.0713
  C  C207  1  0.241500  0.408500  0.874400  1.0  -0.0781
  C  C208  1  0.397500  0.179600  0.317800  1.0  0.7226
  C  C209  1  0.450300  0.217000  0.282800  1.0  -0.1362
  C  C210  1  0.350700  0.234900  0.254200  1.0  -0.0737
  C  C211  1  0.399300  0.268800  0.221800  1.0  -0.0713
  C  C212  1  0.241500  0.908500  0.374400  1.0  -0.078
  C  C213  1  0.352500  0.570400  0.317800  1.0  0.7229
  C  C214  1  0.299700  0.533000  0.282800  1.0  -0.1359
  C  C215  1  0.399300  0.515100  0.254200  1.0  -0.0739
  C  C216  1  0.350700  0.481200  0.221800  1.0  -0.0711
  C  C217  1  0.508500  0.841500  0.374400  1.0  -0.0792
  C  C218  1  0.352500  0.070400  0.817800  1.0  0.7229
  C  C219  1  0.299700  0.033000  0.782800  1.0  -0.1359
  C  C220  1  0.399300  0.015100  0.754200  1.0  -0.0739
  C  C221  1  0.350700  0.981200  0.721800  1.0  -0.0711
  C  C222  1  0.508500  0.341500  0.874400  1.0  -0.0792
  C  C223  1  0.852500  0.570400  0.817800  1.0  0.7225
  C  C224  1  0.799700  0.533000  0.782800  1.0  -0.1359
  C  C225  1  0.899300  0.515100  0.754200  1.0  -0.0739
  C  C226  1  0.850700  0.481200  0.721800  1.0  -0.0711
  C  C227  1  0.008500  0.841500  0.874400  1.0  -0.0792
  C  C228  1  0.852500  0.070400  0.317800  1.0  0.7225
  C  C229  1  0.799700  0.033000  0.282800  1.0  -0.1359
  C  C230  1  0.899300  0.015100  0.254200  1.0  -0.0739
  C  C231  1  0.850700  0.981200  0.221800  1.0  -0.0711
  C  C232  1  0.008500  0.341500  0.374400  1.0  -0.0792
  C  C233  1  0.352500  0.679600  0.932200  1.0  0.7213
  C  C234  1  0.299700  0.717000  0.967200  1.0  -0.1358
  C  C235  1  0.399300  0.734900  0.995800  1.0  -0.074
  C  C236  1  0.350700  0.768800  0.028200  1.0  -0.0713
  C  C237  1  0.508500  0.408500  0.875600  1.0  -0.0724
  C  C238  1  0.352500  0.179600  0.432200  1.0  0.7213
  C  C239  1  0.299700  0.217000  0.467200  1.0  -0.1358
  C  C240  1  0.399300  0.234900  0.495800  1.0  -0.074
  C  C241  1  0.350700  0.268800  0.528200  1.0  -0.0713
  C  C242  1  0.508500  0.908500  0.375600  1.0  -0.0778
  C  C243  1  0.852500  0.679600  0.432200  1.0  0.7209
  C  C244  1  0.799700  0.717000  0.467200  1.0  -0.1358
  C  C245  1  0.899300  0.734900  0.495800  1.0  -0.074
  C  C246  1  0.850700  0.768800  0.528200  1.0  -0.0713
  C  C247  1  0.008500  0.408500  0.375600  1.0  -0.0724
  C  C248  1  0.852500  0.179600  0.932200  1.0  0.7209
  C  C249  1  0.799700  0.217000  0.967200  1.0  -0.1358
  C  C250  1  0.899300  0.234900  0.995800  1.0  -0.074
  C  C251  1  0.850700  0.268800  0.028200  1.0  -0.0713
  C  C252  1  0.008500  0.908500  0.875600  1.0  -0.0778
  C  C253  1  0.897500  0.570400  0.932200  1.0  0.7222
  C  C254  1  0.950300  0.533000  0.967200  1.0  -0.1367
  C  C255  1  0.850700  0.515100  0.995800  1.0  -0.0734
  C  C256  1  0.899300  0.481200  0.028200  1.0  -0.0717
  C  C257  1  0.741500  0.841500  0.875600  1.0  -0.0803
  C  C258  1  0.897500  0.070400  0.432200  1.0  0.7222
  C  C259  1  0.950300  0.033000  0.467200  1.0  -0.1367
  C  C260  1  0.850700  0.015100  0.495800  1.0  -0.0734
  C  C261  1  0.899300  0.981200  0.528200  1.0  -0.0717
  C  C262  1  0.741500  0.341500  0.375600  1.0  -0.0803
  C  C263  1  0.397500  0.570400  0.432200  1.0  0.7227
  C  C264  1  0.450300  0.533000  0.467200  1.0  -0.1367
  C  C265  1  0.350700  0.515100  0.495800  1.0  -0.0746
  C  C266  1  0.399300  0.481200  0.528200  1.0  -0.0717
  C  C267  1  0.241500  0.841500  0.375600  1.0  -0.0803
  C  C268  1  0.397500  0.070400  0.932200  1.0  0.7227
  C  C269  1  0.450300  0.033000  0.967200  1.0  -0.1367
  C  C270  1  0.350700  0.015100  0.995800  1.0  -0.0746
  C  C271  1  0.399300  0.981200  0.028200  1.0  -0.0717
  C  C272  1  0.241500  0.341500  0.875600  1.0  -0.0803
  C  C273  1  0.125000  0.485800  0.625000  1.0  0.6986
  C  C274  1  0.125000  0.558000  0.625000  1.0  -0.1203
  C  C275  1  0.125000  0.985800  0.125000  1.0  0.6986
  C  C276  1  0.125000  0.058000  0.125000  1.0  -0.1203
  C  C277  1  0.625000  0.985800  0.625000  1.0  0.6986
  C  C278  1  0.625000  0.058000  0.625000  1.0  -0.1203
  C  C279  1  0.625000  0.264200  0.625000  1.0  0.7005
  C  C280  1  0.625000  0.192000  0.625000  1.0  -0.1207
  C  C281  1  0.625000  0.764200  0.125000  1.0  0.7005
  C  C282  1  0.625000  0.692000  0.125000  1.0  -0.1207
  C  C283  1  0.625000  0.485800  0.125000  1.0  0.6986
  C  C284  1  0.625000  0.558000  0.125000  1.0  -0.1203
  C  C285  1  0.125000  0.264200  0.125000  1.0  0.7005
  C  C286  1  0.125000  0.192000  0.125000  1.0  -0.1207
  C  C287  1  0.125000  0.764200  0.625000  1.0  0.7005
  C  C288  1  0.125000  0.692000  0.625000  1.0  -0.1207
  C  C289  1  0.875000  0.514200  0.375000  1.0  0.7005
  C  C290  1  0.875000  0.442000  0.375000  1.0  -0.1207
  C  C291  1  0.875000  0.014200  0.875000  1.0  0.7005
  C  C292  1  0.875000  0.942000  0.875000  1.0  -0.1207
  C  C293  1  0.375000  0.735800  0.375000  1.0  0.6986
  C  C294  1  0.375000  0.808000  0.375000  1.0  -0.1203
  C  C295  1  0.375000  0.235800  0.875000  1.0  0.6986
  C  C296  1  0.375000  0.308000  0.875000  1.0  -0.1203
  C  C297  1  0.375000  0.514200  0.875000  1.0  0.7005
  C  C298  1  0.375000  0.442000  0.875000  1.0  -0.1207
  C  C299  1  0.375000  0.014200  0.375000  1.0  0.7005
  C  C300  1  0.375000  0.942000  0.375000  1.0  -0.1207
  C  C301  1  0.875000  0.735800  0.875000  1.0  0.6986
  C  C302  1  0.875000  0.808000  0.875000  1.0  -0.1203
  C  C303  1  0.875000  0.235800  0.375000  1.0  0.6986
  C  C304  1  0.875000  0.308000  0.375000  1.0  -0.1203
  O  O305  1  0.241000  0.333100  0.679100  1.0  -0.6362
  O  O306  1  0.007200  0.336100  0.657500  1.0  -0.6769
  O  O307  1  0.244600  0.457600  0.634500  1.0  -0.6818
  O  O308  1  0.241000  0.833100  0.179100  1.0  -0.6362
  O  O309  1  0.007200  0.836100  0.157500  1.0  -0.6769
  O  O310  1  0.244600  0.957600  0.134500  1.0  -0.6818
  O  O311  1  0.741000  0.333100  0.179100  1.0  -0.6362
  O  O312  1  0.507200  0.336100  0.157500  1.0  -0.6769
  O  O313  1  0.744600  0.457600  0.134500  1.0  -0.6818
  O  O314  1  0.741000  0.833100  0.679100  1.0  -0.6362
  O  O315  1  0.507200  0.836100  0.657500  1.0  -0.6769
  O  O316  1  0.744600  0.957600  0.634500  1.0  -0.6818
  O  O317  1  0.509000  0.416900  0.679100  1.0  -0.6348
  O  O318  1  0.742800  0.413900  0.657500  1.0  -0.6764
  O  O319  1  0.505400  0.292400  0.634500  1.0  -0.681
  O  O320  1  0.509000  0.916900  0.179100  1.0  -0.6348
  O  O321  1  0.742800  0.913900  0.157500  1.0  -0.6764
  O  O322  1  0.505400  0.792400  0.134500  1.0  -0.681
  O  O323  1  0.009000  0.416900  0.179100  1.0  -0.6348
  O  O324  1  0.242800  0.413900  0.157500  1.0  -0.6764
  O  O325  1  0.005400  0.292400  0.134500  1.0  -0.681
  O  O326  1  0.009000  0.916900  0.679100  1.0  -0.6348
  O  O327  1  0.242800  0.913900  0.657500  1.0  -0.6764
  O  O328  1  0.005400  0.792400  0.634500  1.0  -0.681
  O  O329  1  0.509000  0.333100  0.070900  1.0  -0.6336
  O  O330  1  0.742800  0.336100  0.092500  1.0  -0.6765
  O  O331  1  0.505400  0.457600  0.115500  1.0  -0.6808
  O  O332  1  0.509000  0.833100  0.570900  1.0  -0.6336
  O  O333  1  0.742800  0.836100  0.592500  1.0  -0.6765
  O  O334  1  0.505400  0.957600  0.615500  1.0  -0.6808
  O  O335  1  0.009000  0.333100  0.570900  1.0  -0.6336
  O  O336  1  0.242800  0.336100  0.592500  1.0  -0.6765
  O  O337  1  0.005400  0.457600  0.615500  1.0  -0.6808
  O  O338  1  0.009000  0.833100  0.070900  1.0  -0.6336
  O  O339  1  0.242800  0.836100  0.092500  1.0  -0.6765
  O  O340  1  0.005400  0.957600  0.115500  1.0  -0.6808
  O  O341  1  0.241000  0.416900  0.070900  1.0  -0.6356
  O  O342  1  0.007200  0.413900  0.092500  1.0  -0.6762
  O  O343  1  0.244600  0.292400  0.115500  1.0  -0.6807
  O  O344  1  0.241000  0.916900  0.570900  1.0  -0.6356
  O  O345  1  0.007200  0.913900  0.592500  1.0  -0.6762
  O  O346  1  0.244600  0.792400  0.615500  1.0  -0.6807
  O  O347  1  0.741000  0.416900  0.570900  1.0  -0.6356
  O  O348  1  0.507200  0.413900  0.592500  1.0  -0.6762
  O  O349  1  0.744600  0.292400  0.615500  1.0  -0.6807
  O  O350  1  0.741000  0.916900  0.070900  1.0  -0.6356
  O  O351  1  0.507200  0.913900  0.092500  1.0  -0.6762
  O  O352  1  0.744600  0.792400  0.115500  1.0  -0.6807
  O  O353  1  0.759000  0.666900  0.320900  1.0  -0.6333
  O  O354  1  0.992800  0.663900  0.342500  1.0  -0.6761
  O  O355  1  0.755400  0.542400  0.365500  1.0  -0.6806
  O  O356  1  0.759000  0.166900  0.820900  1.0  -0.6333
  O  O357  1  0.992800  0.163900  0.842500  1.0  -0.6761
  O  O358  1  0.755400  0.042400  0.865500  1.0  -0.6806
  O  O359  1  0.259000  0.666900  0.820900  1.0  -0.6333
  O  O360  1  0.492800  0.663900  0.842500  1.0  -0.6761
  O  O361  1  0.255400  0.542400  0.865500  1.0  -0.6806
  O  O362  1  0.259000  0.166900  0.320900  1.0  -0.6333
  O  O363  1  0.492800  0.163900  0.342500  1.0  -0.6761
  O  O364  1  0.255400  0.042400  0.365500  1.0  -0.6806
  O  O365  1  0.491000  0.583100  0.320900  1.0  -0.6359
  O  O366  1  0.257200  0.586100  0.342500  1.0  -0.6766
  O  O367  1  0.494600  0.707600  0.365500  1.0  -0.681
  O  O368  1  0.491000  0.083100  0.820900  1.0  -0.6359
  O  O369  1  0.257200  0.086100  0.842500  1.0  -0.6766
  O  O370  1  0.494600  0.207600  0.865500  1.0  -0.681
  O  O371  1  0.991000  0.583100  0.820900  1.0  -0.6359
  O  O372  1  0.757200  0.586100  0.842500  1.0  -0.6766
  O  O373  1  0.994600  0.707600  0.865500  1.0  -0.681
  O  O374  1  0.991000  0.083100  0.320900  1.0  -0.6359
  O  O375  1  0.757200  0.086100  0.342500  1.0  -0.6766
  O  O376  1  0.994600  0.207600  0.365500  1.0  -0.681
  O  O377  1  0.491000  0.666900  0.929100  1.0  -0.6362
  O  O378  1  0.257200  0.663900  0.907500  1.0  -0.6765
  O  O379  1  0.494600  0.542400  0.884500  1.0  -0.6811
  O  O380  1  0.491000  0.166900  0.429100  1.0  -0.6362
  O  O381  1  0.257200  0.163900  0.407500  1.0  -0.6765
  O  O382  1  0.494600  0.042400  0.384500  1.0  -0.6811
  O  O383  1  0.991000  0.666900  0.429100  1.0  -0.6362
  O  O384  1  0.757200  0.663900  0.407500  1.0  -0.6765
  O  O385  1  0.994600  0.542400  0.384500  1.0  -0.6811
  O  O386  1  0.991000  0.166900  0.929100  1.0  -0.6362
  O  O387  1  0.757200  0.163900  0.907500  1.0  -0.6765
  O  O388  1  0.994600  0.042400  0.884500  1.0  -0.6811
  O  O389  1  0.759000  0.583100  0.929100  1.0  -0.6344
  O  O390  1  0.992800  0.586100  0.907500  1.0  -0.6769
  O  O391  1  0.755400  0.707600  0.884500  1.0  -0.6817
  O  O392  1  0.759000  0.083100  0.429100  1.0  -0.6344
  O  O393  1  0.992800  0.086100  0.407500  1.0  -0.6769
  O  O394  1  0.755400  0.207600  0.384500  1.0  -0.6817
  O  O395  1  0.259000  0.583100  0.429100  1.0  -0.6344
  O  O396  1  0.492800  0.586100  0.407500  1.0  -0.6769
  O  O397  1  0.255400  0.707600  0.384500  1.0  -0.6817
  O  O398  1  0.259000  0.083100  0.929100  1.0  -0.6344
  O  O399  1  0.492800  0.086100  0.907500  1.0  -0.6769
  O  O400  1  0.255400  0.207600  0.884500  1.0  -0.6817
