# generated using pymatgen
data_ScH6(C2O)6
_symmetry_space_group_name_H-M   'P 1'
_cell_length_a   8.79770000
_cell_length_b   20.73230000
_cell_length_c   34.36520000
_cell_angle_alpha   90.00000000
_cell_angle_beta   90.00000000
_cell_angle_gamma   90.00000000
_symmetry_Int_Tables_number   1
_chemical_formula_structural   ScH6(C2O)6
_chemical_formula_sum   'Sc16 H96 C192 O96'
_cell_volume   6268.09411629
_cell_formula_units_Z   16
loop_
 _symmetry_equiv_pos_site_id
 _symmetry_equiv_pos_as_xyz
  1  'x, y, z'
loop_
 _atom_site_type_symbol
 _atom_site_label
 _atom_site_symmetry_multiplicity
 _atom_site_fract_x
 _atom_site_fract_y
 _atom_site_fract_z
 _atom_site_occupancy
 _atom_site_charge
  Sc  Sc1  1  0.375000  0.375000  0.635470  1.0  2.1044
  Sc  Sc2  1  0.375000  0.875000  0.135470  1.0  2.1044
  Sc  Sc3  1  0.875000  0.375000  0.135470  1.0  2.1044
  Sc  Sc4  1  0.875000  0.875000  0.635470  1.0  2.1044
  Sc  Sc5  1  0.375000  0.375000  0.114530  1.0  2.1017
  Sc  Sc6  1  0.375000  0.875000  0.614530  1.0  2.1017
  Sc  Sc7  1  0.875000  0.375000  0.614530  1.0  2.1017
  Sc  Sc8  1  0.875000  0.875000  0.114530  1.0  2.1017
  Sc  Sc9  1  0.625000  0.625000  0.364530  1.0  2.1017
  Sc  Sc10  1  0.625000  0.125000  0.864530  1.0  2.1017
  Sc  Sc11  1  0.125000  0.625000  0.864530  1.0  2.1017
  Sc  Sc12  1  0.125000  0.125000  0.364530  1.0  2.1017
  Sc  Sc13  1  0.625000  0.625000  0.885470  1.0  2.1044
  Sc  Sc14  1  0.625000  0.125000  0.385470  1.0  2.1044
  Sc  Sc15  1  0.125000  0.625000  0.385470  1.0  2.1044
  Sc  Sc16  1  0.125000  0.125000  0.885470  1.0  2.1044
  H  H17  1  0.257700  0.271100  0.741600  1.0  0.0989
  H  H18  1  0.174800  0.214000  0.796000  1.0  0.0905
  H  H19  1  0.353000  0.569100  0.626400  1.0  0.1025
  H  H20  1  0.257700  0.771100  0.241600  1.0  0.0989
  H  H21  1  0.174800  0.714000  0.296000  1.0  0.0905
  H  H22  1  0.353000  0.069100  0.126400  1.0  0.1025
  H  H23  1  0.757700  0.271100  0.241600  1.0  0.0989
  H  H24  1  0.674800  0.214000  0.296000  1.0  0.0905
  H  H25  1  0.853000  0.569100  0.126400  1.0  0.1025
  H  H26  1  0.757700  0.771100  0.741600  1.0  0.0989
  H  H27  1  0.674800  0.714000  0.796000  1.0  0.0905
  H  H28  1  0.853000  0.069100  0.626400  1.0  0.1025
  H  H29  1  0.492300  0.478900  0.741600  1.0  0.0999
  H  H30  1  0.575200  0.536000  0.796000  1.0  0.0903
  H  H31  1  0.397000  0.180900  0.626400  1.0  0.1016
  H  H32  1  0.492300  0.978900  0.241600  1.0  0.0999
  H  H33  1  0.575200  0.036000  0.296000  1.0  0.0903
  H  H34  1  0.397000  0.680900  0.126400  1.0  0.1016
  H  H35  1  0.992300  0.478900  0.241600  1.0  0.0999
  H  H36  1  0.075200  0.536000  0.296000  1.0  0.0903
  H  H37  1  0.897000  0.180900  0.126400  1.0  0.1016
  H  H38  1  0.992300  0.978900  0.741600  1.0  0.0999
  H  H39  1  0.075200  0.036000  0.796000  1.0  0.0903
  H  H40  1  0.897000  0.680900  0.626400  1.0  0.1016
  H  H41  1  0.492300  0.271100  0.008400  1.0  0.1
  H  H42  1  0.575200  0.214000  0.954000  1.0  0.0904
  H  H43  1  0.397000  0.569100  0.123600  1.0  0.1018
  H  H44  1  0.492300  0.771100  0.508400  1.0  0.1
  H  H45  1  0.575200  0.714000  0.454000  1.0  0.0904
  H  H46  1  0.397000  0.069100  0.623600  1.0  0.1018
  H  H47  1  0.992300  0.271100  0.508400  1.0  0.1
  H  H48  1  0.075200  0.214000  0.454000  1.0  0.0904
  H  H49  1  0.897000  0.569100  0.623600  1.0  0.1018
  H  H50  1  0.992300  0.771100  0.008400  1.0  0.1
  H  H51  1  0.075200  0.714000  0.954000  1.0  0.0904
  H  H52  1  0.897000  0.069100  0.123600  1.0  0.1018
  H  H53  1  0.257700  0.478900  0.008400  1.0  0.099
  H  H54  1  0.174800  0.536000  0.954000  1.0  0.0908
  H  H55  1  0.353000  0.180900  0.123600  1.0  0.102
  H  H56  1  0.257700  0.978900  0.508400  1.0  0.099
  H  H57  1  0.174800  0.036000  0.454000  1.0  0.0908
  H  H58  1  0.353000  0.680900  0.623600  1.0  0.102
  H  H59  1  0.757700  0.478900  0.508400  1.0  0.099
  H  H60  1  0.674800  0.536000  0.454000  1.0  0.0908
  H  H61  1  0.853000  0.180900  0.623600  1.0  0.102
  H  H62  1  0.757700  0.978900  0.008400  1.0  0.099
  H  H63  1  0.674800  0.036000  0.954000  1.0  0.0908
  H  H64  1  0.853000  0.680900  0.123600  1.0  0.102
  H  H65  1  0.742300  0.728900  0.258400  1.0  0.1001
  H  H66  1  0.825200  0.786000  0.204000  1.0  0.0904
  H  H67  1  0.647000  0.430900  0.373600  1.0  0.1014
  H  H68  1  0.742300  0.228900  0.758400  1.0  0.1001
  H  H69  1  0.825200  0.286000  0.704000  1.0  0.0904
  H  H70  1  0.647000  0.930900  0.873600  1.0  0.1014
  H  H71  1  0.242300  0.728900  0.758400  1.0  0.1001
  H  H72  1  0.325200  0.786000  0.704000  1.0  0.0904
  H  H73  1  0.147000  0.430900  0.873600  1.0  0.1014
  H  H74  1  0.242300  0.228900  0.258400  1.0  0.1001
  H  H75  1  0.325200  0.286000  0.204000  1.0  0.0904
  H  H76  1  0.147000  0.930900  0.373600  1.0  0.1014
  H  H77  1  0.507700  0.521100  0.258400  1.0  0.0989
  H  H78  1  0.424800  0.464000  0.204000  1.0  0.0907
  H  H79  1  0.603000  0.819100  0.373600  1.0  0.1024
  H  H80  1  0.507700  0.021100  0.758400  1.0  0.0989
  H  H81  1  0.424800  0.964000  0.704000  1.0  0.0907
  H  H82  1  0.603000  0.319100  0.873600  1.0  0.1024
  H  H83  1  0.007700  0.521100  0.758400  1.0  0.0989
  H  H84  1  0.924800  0.464000  0.704000  1.0  0.0907
  H  H85  1  0.103000  0.819100  0.873600  1.0  0.1024
  H  H86  1  0.007700  0.021100  0.258400  1.0  0.0989
  H  H87  1  0.924800  0.964000  0.204000  1.0  0.0907
  H  H88  1  0.103000  0.319100  0.373600  1.0  0.1024
  H  H89  1  0.507700  0.728900  0.991600  1.0  0.0991
  H  H90  1  0.424800  0.786000  0.046000  1.0  0.0906
  H  H91  1  0.603000  0.430900  0.876400  1.0  0.1021
  H  H92  1  0.507700  0.228900  0.491600  1.0  0.0991
  H  H93  1  0.424800  0.286000  0.546000  1.0  0.0906
  H  H94  1  0.603000  0.930900  0.376400  1.0  0.1021
  H  H95  1  0.007700  0.728900  0.491600  1.0  0.0991
  H  H96  1  0.924800  0.786000  0.546000  1.0  0.0906
  H  H97  1  0.103000  0.430900  0.376400  1.0  0.1021
  H  H98  1  0.007700  0.228900  0.991600  1.0  0.0991
  H  H99  1  0.924800  0.286000  0.046000  1.0  0.0906
  H  H100  1  0.103000  0.930900  0.876400  1.0  0.1021
  H  H101  1  0.742300  0.521100  0.991600  1.0  0.0999
  H  H102  1  0.825200  0.464000  0.046000  1.0  0.0902
  H  H103  1  0.647000  0.819100  0.876400  1.0  0.1021
  H  H104  1  0.742300  0.021100  0.491600  1.0  0.0999
  H  H105  1  0.825200  0.964000  0.546000  1.0  0.0902
  H  H106  1  0.647000  0.319100  0.376400  1.0  0.1021
  H  H107  1  0.242300  0.521100  0.491600  1.0  0.0999
  H  H108  1  0.325200  0.464000  0.546000  1.0  0.0902
  H  H109  1  0.147000  0.819100  0.376400  1.0  0.1021
  H  H110  1  0.242300  0.021100  0.991600  1.0  0.0999
  H  H111  1  0.325200  0.964000  0.046000  1.0  0.0902
  H  H112  1  0.147000  0.319100  0.876400  1.0  0.1021
  C  C113  1  0.102200  0.319800  0.682450  1.0  0.7281
  C  C114  1  0.050300  0.284300  0.717400  1.0  -0.142
  C  C115  1  0.152400  0.262600  0.744950  1.0  -0.0614
  C  C116  1  0.103300  0.228700  0.777350  1.0  -0.0517
  C  C117  1  0.259200  0.592200  0.625400  1.0  -0.1104
  C  C118  1  0.102200  0.819800  0.182450  1.0  0.7281
  C  C119  1  0.050300  0.784300  0.217400  1.0  -0.142
  C  C120  1  0.152400  0.762600  0.244950  1.0  -0.0614
  C  C121  1  0.103300  0.728700  0.277350  1.0  -0.0517
  C  C122  1  0.259200  0.092200  0.125400  1.0  -0.1104
  C  C123  1  0.602200  0.319800  0.182450  1.0  0.7281
  C  C124  1  0.550300  0.284300  0.217400  1.0  -0.142
  C  C125  1  0.652400  0.262600  0.244950  1.0  -0.0614
  C  C126  1  0.603300  0.228700  0.277350  1.0  -0.0517
  C  C127  1  0.759200  0.592200  0.125400  1.0  -0.1044
  C  C128  1  0.602200  0.819800  0.682450  1.0  0.7281
  C  C129  1  0.550300  0.784300  0.717400  1.0  -0.142
  C  C130  1  0.652400  0.762600  0.744950  1.0  -0.0614
  C  C131  1  0.603300  0.728700  0.777350  1.0  -0.0517
  C  C132  1  0.759200  0.092200  0.625400  1.0  -0.1104
  C  C133  1  0.647800  0.430200  0.682450  1.0  0.7282
  C  C134  1  0.699700  0.465700  0.717400  1.0  -0.1437
  C  C135  1  0.597600  0.487400  0.744950  1.0  -0.062
  C  C136  1  0.646700  0.521300  0.777350  1.0  -0.052
  C  C137  1  0.490800  0.157800  0.625400  1.0  -0.1116
  C  C138  1  0.647800  0.930200  0.182450  1.0  0.7282
  C  C139  1  0.699700  0.965700  0.217400  1.0  -0.1437
  C  C140  1  0.597600  0.987400  0.244950  1.0  -0.062
  C  C141  1  0.646700  0.021300  0.277350  1.0  -0.052
  C  C142  1  0.490800  0.657800  0.125400  1.0  -0.1038
  C  C143  1  0.147800  0.430200  0.182450  1.0  0.7282
  C  C144  1  0.199700  0.465700  0.217400  1.0  -0.1437
  C  C145  1  0.097600  0.487400  0.244950  1.0  -0.062
  C  C146  1  0.146700  0.521300  0.277350  1.0  -0.052
  C  C147  1  0.990800  0.157800  0.125400  1.0  -0.1116
  C  C148  1  0.147800  0.930200  0.682450  1.0  0.7282
  C  C149  1  0.199700  0.965700  0.717400  1.0  -0.1437
  C  C150  1  0.097600  0.987400  0.744950  1.0  -0.062
  C  C151  1  0.146700  0.021300  0.777350  1.0  -0.052
  C  C152  1  0.990800  0.657800  0.625400  1.0  -0.1116
  C  C153  1  0.647800  0.319800  0.067550  1.0  0.729
  C  C154  1  0.699700  0.284300  0.032600  1.0  -0.143
  C  C155  1  0.597600  0.262600  0.005050  1.0  -0.0624
  C  C156  1  0.646700  0.228700  0.972650  1.0  -0.0521
  C  C157  1  0.490800  0.592200  0.124600  1.0  -0.1092
  C  C158  1  0.647800  0.819800  0.567550  1.0  0.729
  C  C159  1  0.699700  0.784300  0.532600  1.0  -0.143
  C  C160  1  0.597600  0.762600  0.505050  1.0  -0.0624
  C  C161  1  0.646700  0.728700  0.472650  1.0  -0.0521
  C  C162  1  0.490800  0.092200  0.624600  1.0  -0.1088
  C  C163  1  0.147800  0.319800  0.567550  1.0  0.729
  C  C164  1  0.199700  0.284300  0.532600  1.0  -0.143
  C  C165  1  0.097600  0.262600  0.505050  1.0  -0.0624
  C  C166  1  0.146700  0.228700  0.472650  1.0  -0.0521
  C  C167  1  0.990800  0.592200  0.624600  1.0  -0.1088
  C  C168  1  0.147800  0.819800  0.067550  1.0  0.729
  C  C169  1  0.199700  0.784300  0.032600  1.0  -0.143
  C  C170  1  0.097600  0.762600  0.005050  1.0  -0.0624
  C  C171  1  0.146700  0.728700  0.972650  1.0  -0.0521
  C  C172  1  0.990800  0.092200  0.124600  1.0  -0.1088
  C  C173  1  0.102200  0.430200  0.067550  1.0  0.7282
  C  C174  1  0.050300  0.465700  0.032600  1.0  -0.1435
  C  C175  1  0.152400  0.487400  0.005050  1.0  -0.0619
  C  C176  1  0.103300  0.521300  0.972650  1.0  -0.0516
  C  C177  1  0.259200  0.157800  0.124600  1.0  -0.1115
  C  C178  1  0.102200  0.930200  0.567550  1.0  0.7282
  C  C179  1  0.050300  0.965700  0.532600  1.0  -0.1435
  C  C180  1  0.152400  0.987400  0.505050  1.0  -0.0619
  C  C181  1  0.103300  0.021300  0.472650  1.0  -0.0516
  C  C182  1  0.259200  0.657800  0.624600  1.0  -0.1115
  C  C183  1  0.602200  0.430200  0.567550  1.0  0.7282
  C  C184  1  0.550300  0.465700  0.532600  1.0  -0.1435
  C  C185  1  0.652400  0.487400  0.505050  1.0  -0.0619
  C  C186  1  0.603300  0.521300  0.472650  1.0  -0.0516
  C  C187  1  0.759200  0.157800  0.624600  1.0  -0.1115
  C  C188  1  0.602200  0.930200  0.067550  1.0  0.7282
  C  C189  1  0.550300  0.965700  0.032600  1.0  -0.1435
  C  C190  1  0.652400  0.987400  0.005050  1.0  -0.0619
  C  C191  1  0.603300  0.021300  0.972650  1.0  -0.0516
  C  C192  1  0.759200  0.657800  0.124600  1.0  -0.1038
  C  C193  1  0.897800  0.680200  0.317550  1.0  0.7287
  C  C194  1  0.949700  0.715700  0.282600  1.0  -0.1434
  C  C195  1  0.847600  0.737400  0.255050  1.0  -0.0648
  C  C196  1  0.896700  0.771300  0.222650  1.0  -0.0519
  C  C197  1  0.740800  0.407800  0.374600  1.0  -0.1093
  C  C198  1  0.897800  0.180200  0.817550  1.0  0.7287
  C  C199  1  0.949700  0.215700  0.782600  1.0  -0.1434
  C  C200  1  0.847600  0.237400  0.755050  1.0  -0.0648
  C  C201  1  0.896700  0.271300  0.722650  1.0  -0.0519
  C  C202  1  0.740800  0.907800  0.874600  1.0  -0.1093
  C  C203  1  0.397800  0.680200  0.817550  1.0  0.7287
  C  C204  1  0.449700  0.715700  0.782600  1.0  -0.1434
  C  C205  1  0.347600  0.737400  0.755050  1.0  -0.0648
  C  C206  1  0.396700  0.771300  0.722650  1.0  -0.0519
  C  C207  1  0.240800  0.407800  0.874600  1.0  -0.1036
  C  C208  1  0.397800  0.180200  0.317550  1.0  0.7287
  C  C209  1  0.449700  0.215700  0.282600  1.0  -0.1434
  C  C210  1  0.347600  0.237400  0.255050  1.0  -0.0648
  C  C211  1  0.396700  0.271300  0.222650  1.0  -0.0519
  C  C212  1  0.240800  0.907800  0.374600  1.0  -0.1036
  C  C213  1  0.352200  0.569800  0.317550  1.0  0.7289
  C  C214  1  0.300300  0.534300  0.282600  1.0  -0.1433
  C  C215  1  0.402400  0.512600  0.255050  1.0  -0.0637
  C  C216  1  0.353300  0.478700  0.222650  1.0  -0.0518
  C  C217  1  0.509200  0.842200  0.374600  1.0  -0.1041
  C  C218  1  0.352200  0.069800  0.817550  1.0  0.7289
  C  C219  1  0.300300  0.034300  0.782600  1.0  -0.1433
  C  C220  1  0.402400  0.012600  0.755050  1.0  -0.0637
  C  C221  1  0.353300  0.978700  0.722650  1.0  -0.0518
  C  C222  1  0.509200  0.342200  0.874600  1.0  -0.1041
  C  C223  1  0.852200  0.569800  0.817550  1.0  0.7289
  C  C224  1  0.800300  0.534300  0.782600  1.0  -0.1433
  C  C225  1  0.902400  0.512600  0.755050  1.0  -0.0637
  C  C226  1  0.853300  0.478700  0.722650  1.0  -0.0518
  C  C227  1  0.009200  0.842200  0.874600  1.0  -0.1121
  C  C228  1  0.852200  0.069800  0.317550  1.0  0.7289
  C  C229  1  0.800300  0.034300  0.282600  1.0  -0.1433
  C  C230  1  0.902400  0.012600  0.255050  1.0  -0.0637
  C  C231  1  0.853300  0.978700  0.222650  1.0  -0.0518
  C  C232  1  0.009200  0.342200  0.374600  1.0  -0.1121
  C  C233  1  0.352200  0.680200  0.932450  1.0  0.7274
  C  C234  1  0.300300  0.715700  0.967400  1.0  -0.1422
  C  C235  1  0.402400  0.737400  0.994950  1.0  -0.0638
  C  C236  1  0.353300  0.771300  0.027350  1.0  -0.0519
  C  C237  1  0.509200  0.407800  0.875400  1.0  -0.1101
  C  C238  1  0.352200  0.180200  0.432450  1.0  0.7274
  C  C239  1  0.300300  0.215700  0.467400  1.0  -0.1422
  C  C240  1  0.402400  0.237400  0.494950  1.0  -0.0638
  C  C241  1  0.353300  0.271300  0.527350  1.0  -0.0519
  C  C242  1  0.509200  0.907800  0.375400  1.0  -0.1101
  C  C243  1  0.852200  0.680200  0.432450  1.0  0.7274
  C  C244  1  0.800300  0.715700  0.467400  1.0  -0.1422
  C  C245  1  0.902400  0.737400  0.494950  1.0  -0.0638
  C  C246  1  0.853300  0.771300  0.527350  1.0  -0.0519
  C  C247  1  0.009200  0.407800  0.375400  1.0  -0.1096
  C  C248  1  0.852200  0.180200  0.932450  1.0  0.7274
  C  C249  1  0.800300  0.215700  0.967400  1.0  -0.1422
  C  C250  1  0.902400  0.237400  0.994950  1.0  -0.0638
  C  C251  1  0.853300  0.271300  0.027350  1.0  -0.0519
  C  C252  1  0.009200  0.907800  0.875400  1.0  -0.1096
  C  C253  1  0.897800  0.569800  0.932450  1.0  0.7288
  C  C254  1  0.949700  0.534300  0.967400  1.0  -0.1433
  C  C255  1  0.847600  0.512600  0.994950  1.0  -0.0641
  C  C256  1  0.896700  0.478700  0.027350  1.0  -0.0519
  C  C257  1  0.740800  0.842200  0.875400  1.0  -0.1112
  C  C258  1  0.897800  0.069800  0.432450  1.0  0.7288
  C  C259  1  0.949700  0.034300  0.467400  1.0  -0.1433
  C  C260  1  0.847600  0.012600  0.494950  1.0  -0.0641
  C  C261  1  0.896700  0.978700  0.527350  1.0  -0.0519
  C  C262  1  0.740800  0.342200  0.375400  1.0  -0.1112
  C  C263  1  0.397800  0.569800  0.432450  1.0  0.7288
  C  C264  1  0.449700  0.534300  0.467400  1.0  -0.1433
  C  C265  1  0.347600  0.512600  0.494950  1.0  -0.0641
  C  C266  1  0.396700  0.478700  0.527350  1.0  -0.0519
  C  C267  1  0.240800  0.842200  0.375400  1.0  -0.1038
  C  C268  1  0.397800  0.069800  0.932450  1.0  0.7288
  C  C269  1  0.449700  0.034300  0.967400  1.0  -0.1433
  C  C270  1  0.347600  0.012600  0.994950  1.0  -0.0641
  C  C271  1  0.396700  0.978700  0.027350  1.0  -0.0519
  C  C272  1  0.240800  0.342200  0.875400  1.0  -0.1038
  C  C273  1  0.125000  0.486500  0.625000  1.0  0.6983
  C  C274  1  0.125000  0.558200  0.625000  1.0  -0.1306
  C  C275  1  0.125000  0.986500  0.125000  1.0  0.6983
  C  C276  1  0.125000  0.058200  0.125000  1.0  -0.1306
  C  C277  1  0.625000  0.986500  0.625000  1.0  0.6983
  C  C278  1  0.625000  0.058200  0.625000  1.0  -0.1306
  C  C279  1  0.625000  0.263500  0.625000  1.0  0.7003
  C  C280  1  0.625000  0.191800  0.625000  1.0  -0.1299
  C  C281  1  0.625000  0.763500  0.125000  1.0  0.7003
  C  C282  1  0.625000  0.691800  0.125000  1.0  -0.1299
  C  C283  1  0.625000  0.486500  0.125000  1.0  0.6983
  C  C284  1  0.625000  0.558200  0.125000  1.0  -0.1306
  C  C285  1  0.125000  0.263500  0.125000  1.0  0.7003
  C  C286  1  0.125000  0.191800  0.125000  1.0  -0.1299
  C  C287  1  0.125000  0.763500  0.625000  1.0  0.7003
  C  C288  1  0.125000  0.691800  0.625000  1.0  -0.1299
  C  C289  1  0.875000  0.513500  0.375000  1.0  0.7003
  C  C290  1  0.875000  0.441800  0.375000  1.0  -0.1299
  C  C291  1  0.875000  0.013500  0.875000  1.0  0.7003
  C  C292  1  0.875000  0.941800  0.875000  1.0  -0.1299
  C  C293  1  0.375000  0.736500  0.375000  1.0  0.6983
  C  C294  1  0.375000  0.808200  0.375000  1.0  -0.1306
  C  C295  1  0.375000  0.236500  0.875000  1.0  0.6983
  C  C296  1  0.375000  0.308200  0.875000  1.0  -0.1306
  C  C297  1  0.375000  0.513500  0.875000  1.0  0.7003
  C  C298  1  0.375000  0.441800  0.875000  1.0  -0.1299
  C  C299  1  0.375000  0.013500  0.375000  1.0  0.7003
  C  C300  1  0.375000  0.941800  0.375000  1.0  -0.1299
  C  C301  1  0.875000  0.736500  0.875000  1.0  0.6983
  C  C302  1  0.875000  0.808200  0.875000  1.0  -0.1306
  C  C303  1  0.875000  0.236500  0.375000  1.0  0.6983
  C  C304  1  0.875000  0.308200  0.375000  1.0  -0.1306
  O  O305  1  0.241700  0.332720  0.679410  1.0  -0.6451
  O  O306  1  0.006200  0.334680  0.657490  1.0  -0.6856
  O  O307  1  0.244700  0.458100  0.635270  1.0  -0.6617
  O  O308  1  0.241700  0.832720  0.179410  1.0  -0.6451
  O  O309  1  0.006200  0.834680  0.157490  1.0  -0.6856
  O  O310  1  0.244700  0.958100  0.135270  1.0  -0.6617
  O  O311  1  0.741700  0.332720  0.179410  1.0  -0.6451
  O  O312  1  0.506200  0.334680  0.157490  1.0  -0.6856
  O  O313  1  0.744700  0.458100  0.135270  1.0  -0.6617
  O  O314  1  0.741700  0.832720  0.679410  1.0  -0.6451
  O  O315  1  0.506200  0.834680  0.657490  1.0  -0.6856
  O  O316  1  0.744700  0.958100  0.635270  1.0  -0.6617
  O  O317  1  0.508300  0.417280  0.679410  1.0  -0.6451
  O  O318  1  0.743800  0.415320  0.657490  1.0  -0.6855
  O  O319  1  0.505300  0.291900  0.635270  1.0  -0.6602
  O  O320  1  0.508300  0.917280  0.179410  1.0  -0.6451
  O  O321  1  0.743800  0.915320  0.157490  1.0  -0.6855
  O  O322  1  0.505300  0.791900  0.135270  1.0  -0.6602
  O  O323  1  0.008300  0.417280  0.179410  1.0  -0.6451
  O  O324  1  0.243800  0.415320  0.157490  1.0  -0.6855
  O  O325  1  0.005300  0.291900  0.135270  1.0  -0.6602
  O  O326  1  0.008300  0.917280  0.679410  1.0  -0.6451
  O  O327  1  0.243800  0.915320  0.657490  1.0  -0.6855
  O  O328  1  0.005300  0.791900  0.635270  1.0  -0.6602
  O  O329  1  0.508300  0.332720  0.070590  1.0  -0.6438
  O  O330  1  0.743800  0.334680  0.092510  1.0  -0.6843
  O  O331  1  0.505300  0.458100  0.114730  1.0  -0.6597
  O  O332  1  0.508300  0.832720  0.570590  1.0  -0.6438
  O  O333  1  0.743800  0.834680  0.592510  1.0  -0.6843
  O  O334  1  0.505300  0.958100  0.614730  1.0  -0.6597
  O  O335  1  0.008300  0.332720  0.570590  1.0  -0.6438
  O  O336  1  0.243800  0.334680  0.592510  1.0  -0.6843
  O  O337  1  0.005300  0.458100  0.614730  1.0  -0.6597
  O  O338  1  0.008300  0.832720  0.070590  1.0  -0.6438
  O  O339  1  0.243800  0.834680  0.092510  1.0  -0.6843
  O  O340  1  0.005300  0.958100  0.114730  1.0  -0.6597
  O  O341  1  0.241700  0.417280  0.070590  1.0  -0.6441
  O  O342  1  0.006200  0.415320  0.092510  1.0  -0.6844
  O  O343  1  0.244700  0.291900  0.114730  1.0  -0.6604
  O  O344  1  0.241700  0.917280  0.570590  1.0  -0.6441
  O  O345  1  0.006200  0.915320  0.592510  1.0  -0.6844
  O  O346  1  0.244700  0.791900  0.614730  1.0  -0.6604
  O  O347  1  0.741700  0.417280  0.570590  1.0  -0.6441
  O  O348  1  0.506200  0.415320  0.592510  1.0  -0.6844
  O  O349  1  0.744700  0.291900  0.614730  1.0  -0.6604
  O  O350  1  0.741700  0.917280  0.070590  1.0  -0.6441
  O  O351  1  0.506200  0.915320  0.092510  1.0  -0.6844
  O  O352  1  0.744700  0.791900  0.114730  1.0  -0.6604
  O  O353  1  0.758300  0.667280  0.320590  1.0  -0.6436
  O  O354  1  0.993800  0.665320  0.342510  1.0  -0.6842
  O  O355  1  0.755300  0.541900  0.364730  1.0  -0.6598
  O  O356  1  0.758300  0.167280  0.820590  1.0  -0.6436
  O  O357  1  0.993800  0.165320  0.842510  1.0  -0.6842
  O  O358  1  0.755300  0.041900  0.864730  1.0  -0.6598
  O  O359  1  0.258300  0.667280  0.820590  1.0  -0.6436
  O  O360  1  0.493800  0.665320  0.842510  1.0  -0.6842
  O  O361  1  0.255300  0.541900  0.864730  1.0  -0.6598
  O  O362  1  0.258300  0.167280  0.320590  1.0  -0.6436
  O  O363  1  0.493800  0.165320  0.342510  1.0  -0.6842
  O  O364  1  0.255300  0.041900  0.364730  1.0  -0.6598
  O  O365  1  0.491700  0.582720  0.320590  1.0  -0.6443
  O  O366  1  0.256200  0.584680  0.342510  1.0  -0.6843
  O  O367  1  0.494700  0.708100  0.364730  1.0  -0.6604
  O  O368  1  0.491700  0.082720  0.820590  1.0  -0.6443
  O  O369  1  0.256200  0.084680  0.842510  1.0  -0.6843
  O  O370  1  0.494700  0.208100  0.864730  1.0  -0.6604
  O  O371  1  0.991700  0.582720  0.820590  1.0  -0.6443
  O  O372  1  0.756200  0.584680  0.842510  1.0  -0.6843
  O  O373  1  0.994700  0.708100  0.864730  1.0  -0.6604
  O  O374  1  0.991700  0.082720  0.320590  1.0  -0.6443
  O  O375  1  0.756200  0.084680  0.342510  1.0  -0.6843
  O  O376  1  0.994700  0.208100  0.364730  1.0  -0.6604
  O  O377  1  0.491700  0.667280  0.929410  1.0  -0.6452
  O  O378  1  0.256200  0.665320  0.907490  1.0  -0.685
  O  O379  1  0.494700  0.541900  0.885270  1.0  -0.661
  O  O380  1  0.491700  0.167280  0.429410  1.0  -0.6452
  O  O381  1  0.256200  0.165320  0.407490  1.0  -0.685
  O  O382  1  0.494700  0.041900  0.385270  1.0  -0.661
  O  O383  1  0.991700  0.667280  0.429410  1.0  -0.6452
  O  O384  1  0.756200  0.665320  0.407490  1.0  -0.685
  O  O385  1  0.994700  0.541900  0.385270  1.0  -0.661
  O  O386  1  0.991700  0.167280  0.929410  1.0  -0.6452
  O  O387  1  0.756200  0.165320  0.907490  1.0  -0.685
  O  O388  1  0.994700  0.041900  0.885270  1.0  -0.661
  O  O389  1  0.758300  0.582720  0.929410  1.0  -0.6447
  O  O390  1  0.993800  0.584680  0.907490  1.0  -0.6856
  O  O391  1  0.755300  0.708100  0.885270  1.0  -0.6609
  O  O392  1  0.758300  0.082720  0.429410  1.0  -0.6447
  O  O393  1  0.993800  0.084680  0.407490  1.0  -0.6856
  O  O394  1  0.755300  0.208100  0.385270  1.0  -0.6609
  O  O395  1  0.258300  0.582720  0.429410  1.0  -0.6447
  O  O396  1  0.493800  0.584680  0.407490  1.0  -0.6856
  O  O397  1  0.255300  0.708100  0.385270  1.0  -0.6609
  O  O398  1  0.258300  0.082720  0.929410  1.0  -0.6447
  O  O399  1  0.493800  0.084680  0.907490  1.0  -0.6856
  O  O400  1  0.255300  0.208100  0.885270  1.0  -0.6609
