# generated using pymatgen
data_ScH6(C2O)6
_symmetry_space_group_name_H-M   'P 1'
_cell_length_a   8.85670000
_cell_length_b   20.69300000
_cell_length_c   34.24900000
_cell_angle_alpha   90.00000000
_cell_angle_beta   90.00000000
_cell_angle_gamma   90.00000000
_symmetry_Int_Tables_number   1
_chemical_formula_structural   ScH6(C2O)6
_chemical_formula_sum   'Sc16 H96 C192 O96'
_cell_volume   6276.87221698
_cell_formula_units_Z   16
loop_
 _symmetry_equiv_pos_site_id
 _symmetry_equiv_pos_as_xyz
  1  'x, y, z'
loop_
 _atom_site_type_symbol
 _atom_site_label
 _atom_site_symmetry_multiplicity
 _atom_site_fract_x
 _atom_site_fract_y
 _atom_site_fract_z
 _atom_site_occupancy
 _atom_site_charge
  Sc  Sc1  1  0.375000  0.375000  0.635380  1.0  2.1031
  Sc  Sc2  1  0.375000  0.875000  0.135380  1.0  2.1031
  Sc  Sc3  1  0.875000  0.375000  0.135380  1.0  2.1031
  Sc  Sc4  1  0.875000  0.875000  0.635380  1.0  2.1031
  Sc  Sc5  1  0.375000  0.375000  0.114620  1.0  2.1
  Sc  Sc6  1  0.375000  0.875000  0.614620  1.0  2.1
  Sc  Sc7  1  0.875000  0.375000  0.614620  1.0  2.1
  Sc  Sc8  1  0.875000  0.875000  0.114620  1.0  2.1
  Sc  Sc9  1  0.625000  0.625000  0.364620  1.0  2.1002
  Sc  Sc10  1  0.625000  0.125000  0.864620  1.0  2.1
  Sc  Sc11  1  0.125000  0.625000  0.864620  1.0  2.1002
  Sc  Sc12  1  0.125000  0.125000  0.364620  1.0  2.1
  Sc  Sc13  1  0.625000  0.625000  0.885380  1.0  2.1034
  Sc  Sc14  1  0.625000  0.125000  0.385380  1.0  2.1031
  Sc  Sc15  1  0.125000  0.625000  0.385380  1.0  2.1034
  Sc  Sc16  1  0.125000  0.125000  0.885380  1.0  2.1031
  H  H17  1  0.254100  0.273200  0.742300  1.0  0.1014
  H  H18  1  0.172000  0.214800  0.796400  1.0  0.0909
  H  H19  1  0.351400  0.568900  0.626500  1.0  0.1056
  H  H20  1  0.254100  0.773200  0.242300  1.0  0.1014
  H  H21  1  0.172000  0.714800  0.296400  1.0  0.0909
  H  H22  1  0.351400  0.068900  0.126500  1.0  0.1056
  H  H23  1  0.754100  0.273200  0.242300  1.0  0.1014
  H  H24  1  0.672000  0.214800  0.296400  1.0  0.0909
  H  H25  1  0.851400  0.568900  0.126500  1.0  0.1056
  H  H26  1  0.754100  0.773200  0.742300  1.0  0.1014
  H  H27  1  0.672000  0.714800  0.796400  1.0  0.0909
  H  H28  1  0.851400  0.068900  0.626500  1.0  0.1056
  H  H29  1  0.495900  0.476800  0.742300  1.0  0.102
  H  H30  1  0.578000  0.535200  0.796400  1.0  0.0908
  H  H31  1  0.398600  0.181100  0.626500  1.0  0.1046
  H  H32  1  0.495900  0.976800  0.242300  1.0  0.102
  H  H33  1  0.578000  0.035200  0.296400  1.0  0.0908
  H  H34  1  0.398600  0.681100  0.126500  1.0  0.1046
  H  H35  1  0.995900  0.476800  0.242300  1.0  0.102
  H  H36  1  0.078000  0.535200  0.296400  1.0  0.0908
  H  H37  1  0.898600  0.181100  0.126500  1.0  0.1046
  H  H38  1  0.995900  0.976800  0.742300  1.0  0.102
  H  H39  1  0.078000  0.035200  0.796400  1.0  0.0908
  H  H40  1  0.898600  0.681100  0.626500  1.0  0.1046
  H  H41  1  0.495900  0.273200  0.007700  1.0  0.1022
  H  H42  1  0.578000  0.214800  0.953600  1.0  0.0906
  H  H43  1  0.398600  0.568900  0.123500  1.0  0.105
  H  H44  1  0.495900  0.773200  0.507700  1.0  0.1022
  H  H45  1  0.578000  0.714800  0.453600  1.0  0.0906
  H  H46  1  0.398600  0.068900  0.623500  1.0  0.105
  H  H47  1  0.995900  0.273200  0.507700  1.0  0.1022
  H  H48  1  0.078000  0.214800  0.453600  1.0  0.0906
  H  H49  1  0.898600  0.568900  0.623500  1.0  0.105
  H  H50  1  0.995900  0.773200  0.007700  1.0  0.1022
  H  H51  1  0.078000  0.714800  0.953600  1.0  0.0906
  H  H52  1  0.898600  0.068900  0.123500  1.0  0.105
  H  H53  1  0.254100  0.476800  0.007700  1.0  0.1017
  H  H54  1  0.172000  0.535200  0.953600  1.0  0.0909
  H  H55  1  0.351400  0.181100  0.123500  1.0  0.1051
  H  H56  1  0.254100  0.976800  0.507700  1.0  0.1017
  H  H57  1  0.172000  0.035200  0.453600  1.0  0.0909
  H  H58  1  0.351400  0.681100  0.623500  1.0  0.1051
  H  H59  1  0.754100  0.476800  0.507700  1.0  0.1017
  H  H60  1  0.672000  0.535200  0.453600  1.0  0.0909
  H  H61  1  0.851400  0.181100  0.623500  1.0  0.1051
  H  H62  1  0.754100  0.976800  0.007700  1.0  0.1017
  H  H63  1  0.672000  0.035200  0.953600  1.0  0.0909
  H  H64  1  0.851400  0.681100  0.123500  1.0  0.1051
  H  H65  1  0.745900  0.726800  0.257700  1.0  0.1022
  H  H66  1  0.828000  0.785200  0.203600  1.0  0.0906
  H  H67  1  0.648600  0.431100  0.373500  1.0  0.1045
  H  H68  1  0.745900  0.226800  0.757700  1.0  0.1022
  H  H69  1  0.828000  0.285200  0.703600  1.0  0.0906
  H  H70  1  0.648600  0.931100  0.873500  1.0  0.1045
  H  H71  1  0.245900  0.726800  0.757700  1.0  0.1022
  H  H72  1  0.328000  0.785200  0.703600  1.0  0.0906
  H  H73  1  0.148600  0.431100  0.873500  1.0  0.1045
  H  H74  1  0.245900  0.226800  0.257700  1.0  0.1022
  H  H75  1  0.328000  0.285200  0.203600  1.0  0.0906
  H  H76  1  0.148600  0.931100  0.373500  1.0  0.1045
  H  H77  1  0.504100  0.523200  0.257700  1.0  0.1015
  H  H78  1  0.422000  0.464800  0.203600  1.0  0.0908
  H  H79  1  0.601400  0.818900  0.373500  1.0  0.1055
  H  H80  1  0.504100  0.023200  0.757700  1.0  0.1015
  H  H81  1  0.422000  0.964800  0.703600  1.0  0.0908
  H  H82  1  0.601400  0.318900  0.873500  1.0  0.1055
  H  H83  1  0.004100  0.523200  0.757700  1.0  0.1015
  H  H84  1  0.922000  0.464800  0.703600  1.0  0.0908
  H  H85  1  0.101400  0.818900  0.873500  1.0  0.1055
  H  H86  1  0.004100  0.023200  0.257700  1.0  0.1015
  H  H87  1  0.922000  0.964800  0.203600  1.0  0.0908
  H  H88  1  0.101400  0.318900  0.373500  1.0  0.1055
  H  H89  1  0.504100  0.726800  0.992300  1.0  0.1016
  H  H90  1  0.422000  0.785200  0.046400  1.0  0.0911
  H  H91  1  0.601400  0.431100  0.876500  1.0  0.1052
  H  H92  1  0.504100  0.226800  0.492300  1.0  0.1016
  H  H93  1  0.422000  0.285200  0.546400  1.0  0.0911
  H  H94  1  0.601400  0.931100  0.376500  1.0  0.1052
  H  H95  1  0.004100  0.726800  0.492300  1.0  0.1016
  H  H96  1  0.922000  0.785200  0.546400  1.0  0.0911
  H  H97  1  0.101400  0.431100  0.376500  1.0  0.1052
  H  H98  1  0.004100  0.226800  0.992300  1.0  0.1016
  H  H99  1  0.922000  0.285200  0.046400  1.0  0.0911
  H  H100  1  0.101400  0.931100  0.876500  1.0  0.1052
  H  H101  1  0.745900  0.523200  0.992300  1.0  0.102
  H  H102  1  0.828000  0.464800  0.046400  1.0  0.0906
  H  H103  1  0.648600  0.818900  0.876500  1.0  0.1052
  H  H104  1  0.745900  0.023200  0.492300  1.0  0.102
  H  H105  1  0.828000  0.964800  0.546400  1.0  0.0906
  H  H106  1  0.648600  0.318900  0.376500  1.0  0.1052
  H  H107  1  0.245900  0.523200  0.492300  1.0  0.102
  H  H108  1  0.328000  0.464800  0.546400  1.0  0.0906
  H  H109  1  0.148600  0.818900  0.376500  1.0  0.1052
  H  H110  1  0.245900  0.023200  0.992300  1.0  0.102
  H  H111  1  0.328000  0.964800  0.046400  1.0  0.0906
  H  H112  1  0.148600  0.318900  0.876500  1.0  0.1052
  C  C113  1  0.102200  0.319900  0.682200  1.0  0.7272
  C  C114  1  0.049700  0.283900  0.717500  1.0  -0.1254
  C  C115  1  0.150400  0.262400  0.744900  1.0  -0.0901
  C  C116  1  0.100900  0.229100  0.777500  1.0  -0.062
  C  C117  1  0.258500  0.591670  0.625200  1.0  -0.0863
  C  C118  1  0.102200  0.819900  0.182200  1.0  0.7272
  C  C119  1  0.049700  0.783900  0.217500  1.0  -0.1254
  C  C120  1  0.150400  0.762400  0.244900  1.0  -0.0901
  C  C121  1  0.100900  0.729100  0.277500  1.0  -0.062
  C  C122  1  0.258500  0.091670  0.125200  1.0  -0.0863
  C  C123  1  0.602200  0.319900  0.182200  1.0  0.7267
  C  C124  1  0.549700  0.283900  0.217500  1.0  -0.1254
  C  C125  1  0.650400  0.262400  0.244900  1.0  -0.0899
  C  C126  1  0.600900  0.229100  0.277500  1.0  -0.062
  C  C127  1  0.758500  0.591670  0.125200  1.0  -0.0863
  C  C128  1  0.602200  0.819900  0.682200  1.0  0.7267
  C  C129  1  0.549700  0.783900  0.717500  1.0  -0.1254
  C  C130  1  0.650400  0.762400  0.744900  1.0  -0.0899
  C  C131  1  0.600900  0.729100  0.777500  1.0  -0.062
  C  C132  1  0.758500  0.091670  0.625200  1.0  -0.0863
  C  C133  1  0.647800  0.430100  0.682200  1.0  0.7268
  C  C134  1  0.700300  0.466100  0.717500  1.0  -0.1267
  C  C135  1  0.599600  0.487600  0.744900  1.0  -0.0888
  C  C136  1  0.649100  0.520900  0.777500  1.0  -0.0624
  C  C137  1  0.491500  0.158330  0.625200  1.0  -0.0865
  C  C138  1  0.647800  0.930100  0.182200  1.0  0.7268
  C  C139  1  0.700300  0.966100  0.217500  1.0  -0.1267
  C  C140  1  0.599600  0.987600  0.244900  1.0  -0.0888
  C  C141  1  0.649100  0.020900  0.277500  1.0  -0.0624
  C  C142  1  0.491500  0.658330  0.125200  1.0  -0.0865
  C  C143  1  0.147800  0.430100  0.182200  1.0  0.7268
  C  C144  1  0.200300  0.466100  0.217500  1.0  -0.1267
  C  C145  1  0.099600  0.487600  0.244900  1.0  -0.0888
  C  C146  1  0.149100  0.520900  0.277500  1.0  -0.0624
  C  C147  1  0.991500  0.158330  0.125200  1.0  -0.0865
  C  C148  1  0.147800  0.930100  0.682200  1.0  0.7268
  C  C149  1  0.200300  0.966100  0.717500  1.0  -0.1267
  C  C150  1  0.099600  0.987600  0.744900  1.0  -0.0888
  C  C151  1  0.149100  0.020900  0.777500  1.0  -0.0624
  C  C152  1  0.991500  0.658330  0.625200  1.0  -0.0865
  C  C153  1  0.647800  0.319900  0.067800  1.0  0.7281
  C  C154  1  0.700300  0.283900  0.032500  1.0  -0.1262
  C  C155  1  0.599600  0.262400  0.005100  1.0  -0.0891
  C  C156  1  0.649100  0.229100  0.972500  1.0  -0.0621
  C  C157  1  0.491500  0.591670  0.124800  1.0  -0.0809
  C  C158  1  0.647800  0.819900  0.567800  1.0  0.7281
  C  C159  1  0.700300  0.783900  0.532500  1.0  -0.1262
  C  C160  1  0.599600  0.762400  0.505100  1.0  -0.0891
  C  C161  1  0.649100  0.729100  0.472500  1.0  -0.0621
  C  C162  1  0.491500  0.091670  0.624800  1.0  -0.0809
  C  C163  1  0.147800  0.319900  0.567800  1.0  0.7281
  C  C164  1  0.200300  0.283900  0.532500  1.0  -0.1262
  C  C165  1  0.099600  0.262400  0.505100  1.0  -0.0891
  C  C166  1  0.149100  0.229100  0.472500  1.0  -0.0621
  C  C167  1  0.991500  0.591670  0.624800  1.0  -0.0879
  C  C168  1  0.147800  0.819900  0.067800  1.0  0.7281
  C  C169  1  0.200300  0.783900  0.032500  1.0  -0.1262
  C  C170  1  0.099600  0.762400  0.005100  1.0  -0.0891
  C  C171  1  0.149100  0.729100  0.972500  1.0  -0.0621
  C  C172  1  0.991500  0.091670  0.124800  1.0  -0.0879
  C  C173  1  0.102200  0.430100  0.067800  1.0  0.7278
  C  C174  1  0.049700  0.466100  0.032500  1.0  -0.1259
  C  C175  1  0.150400  0.487600  0.005100  1.0  -0.0899
  C  C176  1  0.100900  0.520900  0.972500  1.0  -0.0614
  C  C177  1  0.258500  0.158330  0.124800  1.0  -0.0792
  C  C178  1  0.102200  0.930100  0.567800  1.0  0.7278
  C  C179  1  0.049700  0.966100  0.532500  1.0  -0.1259
  C  C180  1  0.150400  0.987600  0.505100  1.0  -0.0899
  C  C181  1  0.100900  0.020900  0.472500  1.0  -0.0614
  C  C182  1  0.258500  0.658330  0.624800  1.0  -0.0792
  C  C183  1  0.602200  0.430100  0.567800  1.0  0.7279
  C  C184  1  0.549700  0.466100  0.532500  1.0  -0.1259
  C  C185  1  0.650400  0.487600  0.505100  1.0  -0.0904
  C  C186  1  0.600900  0.520900  0.472500  1.0  -0.0614
  C  C187  1  0.758500  0.158330  0.624800  1.0  -0.0792
  C  C188  1  0.602200  0.930100  0.067800  1.0  0.7279
  C  C189  1  0.549700  0.966100  0.032500  1.0  -0.1259
  C  C190  1  0.650400  0.987600  0.005100  1.0  -0.0904
  C  C191  1  0.600900  0.020900  0.972500  1.0  -0.0614
  C  C192  1  0.758500  0.658330  0.124800  1.0  -0.0792
  C  C193  1  0.897800  0.680100  0.317800  1.0  0.7278
  C  C194  1  0.950300  0.716100  0.282500  1.0  -0.1258
  C  C195  1  0.849600  0.737600  0.255100  1.0  -0.0891
  C  C196  1  0.899100  0.770900  0.222500  1.0  -0.0616
  C  C197  1  0.741500  0.408330  0.374800  1.0  -0.0874
  C  C198  1  0.897800  0.180100  0.817800  1.0  0.7272
  C  C199  1  0.950300  0.216100  0.782500  1.0  -0.1259
  C  C200  1  0.849600  0.237600  0.755100  1.0  -0.089
  C  C201  1  0.899100  0.270900  0.722500  1.0  -0.0617
  C  C202  1  0.741500  0.908330  0.874800  1.0  -0.0877
  C  C203  1  0.397800  0.680100  0.817800  1.0  0.7284
  C  C204  1  0.450300  0.716100  0.782500  1.0  -0.1258
  C  C205  1  0.349600  0.737600  0.755100  1.0  -0.0886
  C  C206  1  0.399100  0.770900  0.722500  1.0  -0.0616
  C  C207  1  0.241500  0.408330  0.874800  1.0  -0.0863
  C  C208  1  0.397800  0.180100  0.317800  1.0  0.7278
  C  C209  1  0.450300  0.216100  0.282500  1.0  -0.1259
  C  C210  1  0.349600  0.237600  0.255100  1.0  -0.0886
  C  C211  1  0.399100  0.270900  0.222500  1.0  -0.0617
  C  C212  1  0.241500  0.908330  0.374800  1.0  -0.0863
  C  C213  1  0.352200  0.569900  0.317800  1.0  0.7285
  C  C214  1  0.299700  0.533900  0.282500  1.0  -0.1265
  C  C215  1  0.400400  0.512400  0.255100  1.0  -0.0901
  C  C216  1  0.350900  0.479100  0.222500  1.0  -0.0616
  C  C217  1  0.508500  0.841670  0.374800  1.0  -0.086
  C  C218  1  0.352200  0.069900  0.817800  1.0  0.7285
  C  C219  1  0.299700  0.033900  0.782500  1.0  -0.1263
  C  C220  1  0.400400  0.012400  0.755100  1.0  -0.0901
  C  C221  1  0.350900  0.979100  0.722500  1.0  -0.0616
  C  C222  1  0.508500  0.341670  0.874800  1.0  -0.086
  C  C223  1  0.852200  0.569900  0.817800  1.0  0.7282
  C  C224  1  0.799700  0.533900  0.782500  1.0  -0.1265
  C  C225  1  0.900400  0.512400  0.755100  1.0  -0.0901
  C  C226  1  0.850900  0.479100  0.722500  1.0  -0.0616
  C  C227  1  0.008500  0.841670  0.874800  1.0  -0.086
  C  C228  1  0.852200  0.069900  0.317800  1.0  0.7282
  C  C229  1  0.799700  0.033900  0.282500  1.0  -0.1263
  C  C230  1  0.900400  0.012400  0.255100  1.0  -0.0901
  C  C231  1  0.850900  0.979100  0.222500  1.0  -0.0616
  C  C232  1  0.008500  0.341670  0.374800  1.0  -0.086
  C  C233  1  0.352200  0.680100  0.932200  1.0  0.727
  C  C234  1  0.299700  0.716100  0.967500  1.0  -0.1252
  C  C235  1  0.400400  0.737600  0.994900  1.0  -0.09
  C  C236  1  0.350900  0.770900  0.027500  1.0  -0.062
  C  C237  1  0.508500  0.408330  0.875200  1.0  -0.0794
  C  C238  1  0.352200  0.180100  0.432200  1.0  0.7265
  C  C239  1  0.299700  0.216100  0.467500  1.0  -0.1252
  C  C240  1  0.400400  0.237600  0.494900  1.0  -0.0899
  C  C241  1  0.350900  0.270900  0.527500  1.0  -0.0621
  C  C242  1  0.508500  0.908330  0.375200  1.0  -0.085
  C  C243  1  0.852200  0.680100  0.432200  1.0  0.7264
  C  C244  1  0.799700  0.716100  0.467500  1.0  -0.1252
  C  C245  1  0.900400  0.737600  0.494900  1.0  -0.09
  C  C246  1  0.850900  0.770900  0.527500  1.0  -0.062
  C  C247  1  0.008500  0.408330  0.375200  1.0  -0.0794
  C  C248  1  0.852200  0.180100  0.932200  1.0  0.7259
  C  C249  1  0.799700  0.216100  0.967500  1.0  -0.1252
  C  C250  1  0.900400  0.237600  0.994900  1.0  -0.0899
  C  C251  1  0.850900  0.270900  0.027500  1.0  -0.0621
  C  C252  1  0.008500  0.908330  0.875200  1.0  -0.085
  C  C253  1  0.897800  0.569900  0.932200  1.0  0.7272
  C  C254  1  0.950300  0.533900  0.967500  1.0  -0.1271
  C  C255  1  0.849600  0.512400  0.994900  1.0  -0.0888
  C  C256  1  0.899100  0.479100  0.027500  1.0  -0.0625
  C  C257  1  0.741500  0.841670  0.875200  1.0  -0.0882
  C  C258  1  0.897800  0.069900  0.432200  1.0  0.7272
  C  C259  1  0.950300  0.033900  0.467500  1.0  -0.1269
  C  C260  1  0.849600  0.012400  0.494900  1.0  -0.0888
  C  C261  1  0.899100  0.979100  0.527500  1.0  -0.0625
  C  C262  1  0.741500  0.341670  0.375200  1.0  -0.0882
  C  C263  1  0.397800  0.569900  0.432200  1.0  0.7278
  C  C264  1  0.450300  0.533900  0.467500  1.0  -0.1271
  C  C265  1  0.349600  0.512400  0.494900  1.0  -0.0884
  C  C266  1  0.399100  0.479100  0.527500  1.0  -0.0625
  C  C267  1  0.241500  0.841670  0.375200  1.0  -0.0883
  C  C268  1  0.397800  0.069900  0.932200  1.0  0.7278
  C  C269  1  0.450300  0.033900  0.967500  1.0  -0.1269
  C  C270  1  0.349600  0.012400  0.994900  1.0  -0.0884
  C  C271  1  0.399100  0.979100  0.027500  1.0  -0.0625
  C  C272  1  0.241500  0.341670  0.875200  1.0  -0.0883
  C  C273  1  0.125000  0.486100  0.625000  1.0  0.6853
  C  C274  1  0.125000  0.558400  0.625000  1.0  -0.1147
  C  C275  1  0.125000  0.986100  0.125000  1.0  0.6853
  C  C276  1  0.125000  0.058400  0.125000  1.0  -0.1147
  C  C277  1  0.625000  0.986100  0.625000  1.0  0.6853
  C  C278  1  0.625000  0.058400  0.625000  1.0  -0.1147
  C  C279  1  0.625000  0.263900  0.625000  1.0  0.6872
  C  C280  1  0.625000  0.191600  0.625000  1.0  -0.1147
  C  C281  1  0.625000  0.763900  0.125000  1.0  0.6872
  C  C282  1  0.625000  0.691600  0.125000  1.0  -0.1147
  C  C283  1  0.625000  0.486100  0.125000  1.0  0.6853
  C  C284  1  0.625000  0.558400  0.125000  1.0  -0.1147
  C  C285  1  0.125000  0.263900  0.125000  1.0  0.6872
  C  C286  1  0.125000  0.191600  0.125000  1.0  -0.1147
  C  C287  1  0.125000  0.763900  0.625000  1.0  0.6872
  C  C288  1  0.125000  0.691600  0.625000  1.0  -0.1147
  C  C289  1  0.875000  0.513900  0.375000  1.0  0.6873
  C  C290  1  0.875000  0.441600  0.375000  1.0  -0.1146
  C  C291  1  0.875000  0.013900  0.875000  1.0  0.6872
  C  C292  1  0.875000  0.941600  0.875000  1.0  -0.1147
  C  C293  1  0.375000  0.736100  0.375000  1.0  0.6852
  C  C294  1  0.375000  0.808400  0.375000  1.0  -0.1147
  C  C295  1  0.375000  0.236100  0.875000  1.0  0.6853
  C  C296  1  0.375000  0.308400  0.875000  1.0  -0.1147
  C  C297  1  0.375000  0.513900  0.875000  1.0  0.6873
  C  C298  1  0.375000  0.441600  0.875000  1.0  -0.1146
  C  C299  1  0.375000  0.013900  0.375000  1.0  0.6872
  C  C300  1  0.375000  0.941600  0.375000  1.0  -0.1147
  C  C301  1  0.875000  0.736100  0.875000  1.0  0.6852
  C  C302  1  0.875000  0.808400  0.875000  1.0  -0.1147
  C  C303  1  0.875000  0.236100  0.375000  1.0  0.6853
  C  C304  1  0.875000  0.308400  0.375000  1.0  -0.1147
  O  O305  1  0.240400  0.333400  0.679400  1.0  -0.6302
  O  O306  1  0.006100  0.335200  0.657300  1.0  -0.697
  O  O307  1  0.244500  0.457600  0.635400  1.0  -0.6745
  O  O308  1  0.240400  0.833400  0.179400  1.0  -0.6302
  O  O309  1  0.006100  0.835200  0.157300  1.0  -0.697
  O  O310  1  0.244500  0.957600  0.135400  1.0  -0.6745
  O  O311  1  0.740400  0.333400  0.179400  1.0  -0.6302
  O  O312  1  0.506100  0.335200  0.157300  1.0  -0.697
  O  O313  1  0.744500  0.457600  0.135400  1.0  -0.6745
  O  O314  1  0.740400  0.833400  0.679400  1.0  -0.6302
  O  O315  1  0.506100  0.835200  0.657300  1.0  -0.697
  O  O316  1  0.744500  0.957600  0.635400  1.0  -0.6745
  O  O317  1  0.509600  0.416600  0.679400  1.0  -0.63
  O  O318  1  0.743900  0.414800  0.657300  1.0  -0.6963
  O  O319  1  0.505500  0.292400  0.635400  1.0  -0.6719
  O  O320  1  0.509600  0.916600  0.179400  1.0  -0.63
  O  O321  1  0.743900  0.914800  0.157300  1.0  -0.6963
  O  O322  1  0.505500  0.792400  0.135400  1.0  -0.6719
  O  O323  1  0.009600  0.416600  0.179400  1.0  -0.63
  O  O324  1  0.243900  0.414800  0.157300  1.0  -0.6963
  O  O325  1  0.005500  0.292400  0.135400  1.0  -0.6719
  O  O326  1  0.009600  0.916600  0.679400  1.0  -0.63
  O  O327  1  0.243900  0.914800  0.657300  1.0  -0.6963
  O  O328  1  0.005500  0.792400  0.635400  1.0  -0.6719
  O  O329  1  0.509600  0.333400  0.070600  1.0  -0.6285
  O  O330  1  0.743900  0.335200  0.092700  1.0  -0.6964
  O  O331  1  0.505500  0.457600  0.114600  1.0  -0.6721
  O  O332  1  0.509600  0.833400  0.570600  1.0  -0.6285
  O  O333  1  0.743900  0.835200  0.592700  1.0  -0.6964
  O  O334  1  0.505500  0.957600  0.614600  1.0  -0.6721
  O  O335  1  0.009600  0.333400  0.570600  1.0  -0.6285
  O  O336  1  0.243900  0.335200  0.592700  1.0  -0.6964
  O  O337  1  0.005500  0.457600  0.614600  1.0  -0.6721
  O  O338  1  0.009600  0.833400  0.070600  1.0  -0.6285
  O  O339  1  0.243900  0.835200  0.092700  1.0  -0.6964
  O  O340  1  0.005500  0.957600  0.114600  1.0  -0.6721
  O  O341  1  0.240400  0.416600  0.070600  1.0  -0.6293
  O  O342  1  0.006100  0.414800  0.092700  1.0  -0.6957
  O  O343  1  0.244500  0.292400  0.114600  1.0  -0.6737
  O  O344  1  0.240400  0.916600  0.570600  1.0  -0.6293
  O  O345  1  0.006100  0.914800  0.592700  1.0  -0.6957
  O  O346  1  0.244500  0.792400  0.614600  1.0  -0.6737
  O  O347  1  0.740400  0.416600  0.570600  1.0  -0.6293
  O  O348  1  0.506100  0.414800  0.592700  1.0  -0.6957
  O  O349  1  0.744500  0.292400  0.614600  1.0  -0.6737
  O  O350  1  0.740400  0.916600  0.070600  1.0  -0.6293
  O  O351  1  0.506100  0.914800  0.092700  1.0  -0.6957
  O  O352  1  0.744500  0.792400  0.114600  1.0  -0.6737
  O  O353  1  0.759600  0.666667  0.320600  1.0  -0.6312
  O  O354  1  0.993900  0.664800  0.342700  1.0  -0.6962
  O  O355  1  0.755500  0.542400  0.364600  1.0  -0.6725
  O  O356  1  0.759600  0.166600  0.820600  1.0  -0.6281
  O  O357  1  0.993900  0.164800  0.842700  1.0  -0.6957
  O  O358  1  0.755500  0.042400  0.864600  1.0  -0.6723
  O  O359  1  0.259600  0.666667  0.820600  1.0  -0.6312
  O  O360  1  0.493900  0.664800  0.842700  1.0  -0.6962
  O  O361  1  0.255500  0.542400  0.864600  1.0  -0.6725
  O  O362  1  0.259600  0.166600  0.320600  1.0  -0.6281
  O  O363  1  0.493900  0.164800  0.342700  1.0  -0.6957
  O  O364  1  0.255500  0.042400  0.364600  1.0  -0.6723
  O  O365  1  0.490400  0.583400  0.320600  1.0  -0.6298
  O  O366  1  0.256100  0.585200  0.342700  1.0  -0.6964
  O  O367  1  0.494500  0.707600  0.364600  1.0  -0.6736
  O  O368  1  0.490400  0.083400  0.820600  1.0  -0.6298
  O  O369  1  0.256100  0.085200  0.842700  1.0  -0.6964
  O  O370  1  0.494500  0.207600  0.864600  1.0  -0.6736
  O  O371  1  0.990400  0.583400  0.820600  1.0  -0.6298
  O  O372  1  0.756100  0.585200  0.842700  1.0  -0.6964
  O  O373  1  0.994500  0.707600  0.864600  1.0  -0.6736
  O  O374  1  0.990400  0.083400  0.320600  1.0  -0.6298
  O  O375  1  0.756100  0.085200  0.342700  1.0  -0.6964
  O  O376  1  0.994500  0.207600  0.364600  1.0  -0.6736
  O  O377  1  0.490400  0.666667  0.929400  1.0  -0.633
  O  O378  1  0.256100  0.664800  0.907300  1.0  -0.6969
  O  O379  1  0.494500  0.542400  0.885400  1.0  -0.6737
  O  O380  1  0.490400  0.166600  0.429400  1.0  -0.6304
  O  O381  1  0.256100  0.164800  0.407300  1.0  -0.6963
  O  O382  1  0.494500  0.042400  0.385400  1.0  -0.6735
  O  O383  1  0.990400  0.666667  0.429400  1.0  -0.633
  O  O384  1  0.756100  0.664800  0.407300  1.0  -0.6969
  O  O385  1  0.994500  0.542400  0.385400  1.0  -0.6737
  O  O386  1  0.990400  0.166600  0.929400  1.0  -0.6304
  O  O387  1  0.756100  0.164800  0.907300  1.0  -0.6963
  O  O388  1  0.994500  0.042400  0.885400  1.0  -0.6735
  O  O389  1  0.759600  0.583400  0.929400  1.0  -0.6294
  O  O390  1  0.993900  0.585200  0.907300  1.0  -0.697
  O  O391  1  0.755500  0.707600  0.885400  1.0  -0.6728
  O  O392  1  0.759600  0.083400  0.429400  1.0  -0.6293
  O  O393  1  0.993900  0.085200  0.407300  1.0  -0.697
  O  O394  1  0.755500  0.207600  0.385400  1.0  -0.6728
  O  O395  1  0.259600  0.583400  0.429400  1.0  -0.6294
  O  O396  1  0.493900  0.585200  0.407300  1.0  -0.697
  O  O397  1  0.255500  0.707600  0.385400  1.0  -0.6728
  O  O398  1  0.259600  0.083400  0.929400  1.0  -0.6293
  O  O399  1  0.493900  0.085200  0.907300  1.0  -0.697
  O  O400  1  0.255500  0.207600  0.885400  1.0  -0.6728
