# generated using pymatgen
data_ScH6(C2O)6
_symmetry_space_group_name_H-M   'P 1'
_cell_length_a   8.85100000
_cell_length_b   20.67600000
_cell_length_c   34.20300000
_cell_angle_alpha   90.00000000
_cell_angle_beta   90.00000000
_cell_angle_gamma   90.00000000
_symmetry_Int_Tables_number   1
_chemical_formula_structural   ScH6(C2O)6
_chemical_formula_sum   'Sc16 H96 C192 O96'
_cell_volume   6259.26104903
_cell_formula_units_Z   16
loop_
 _symmetry_equiv_pos_site_id
 _symmetry_equiv_pos_as_xyz
  1  'x, y, z'
loop_
 _atom_site_type_symbol
 _atom_site_label
 _atom_site_symmetry_multiplicity
 _atom_site_fract_x
 _atom_site_fract_y
 _atom_site_fract_z
 _atom_site_occupancy
 _atom_site_charge
  Sc  Sc1  1  0.375000  0.375000  0.635300  1.0  2.0904
  Sc  Sc2  1  0.375000  0.875000  0.135300  1.0  2.0904
  Sc  Sc3  1  0.875000  0.375000  0.135300  1.0  2.0904
  Sc  Sc4  1  0.875000  0.875000  0.635300  1.0  2.0904
  Sc  Sc5  1  0.375000  0.375000  0.114700  1.0  2.089
  Sc  Sc6  1  0.375000  0.875000  0.614700  1.0  2.089
  Sc  Sc7  1  0.875000  0.375000  0.614700  1.0  2.089
  Sc  Sc8  1  0.875000  0.875000  0.114700  1.0  2.089
  Sc  Sc9  1  0.625000  0.625000  0.364700  1.0  2.089
  Sc  Sc10  1  0.625000  0.125000  0.864700  1.0  2.089
  Sc  Sc11  1  0.125000  0.625000  0.864700  1.0  2.089
  Sc  Sc12  1  0.125000  0.125000  0.364700  1.0  2.089
  Sc  Sc13  1  0.625000  0.625000  0.885300  1.0  2.0904
  Sc  Sc14  1  0.625000  0.125000  0.385300  1.0  2.0904
  Sc  Sc15  1  0.125000  0.625000  0.385300  1.0  2.0904
  Sc  Sc16  1  0.125000  0.125000  0.885300  1.0  2.0904
  H  H17  1  0.253100  0.275300  0.743100  1.0  0.097
  H  H18  1  0.171300  0.216300  0.797300  1.0  0.0936
  H  H19  1  0.351900  0.568700  0.626300  1.0  0.1022
  H  H20  1  0.253100  0.775300  0.243100  1.0  0.097
  H  H21  1  0.171300  0.716300  0.297300  1.0  0.0936
  H  H22  1  0.351900  0.068700  0.126300  1.0  0.1022
  H  H23  1  0.753100  0.275300  0.243100  1.0  0.097
  H  H24  1  0.671300  0.216300  0.297300  1.0  0.0936
  H  H25  1  0.851900  0.568700  0.126300  1.0  0.1022
  H  H26  1  0.753100  0.775300  0.743100  1.0  0.097
  H  H27  1  0.671300  0.716300  0.797300  1.0  0.0936
  H  H28  1  0.851900  0.068700  0.626300  1.0  0.1022
  H  H29  1  0.496900  0.474700  0.743100  1.0  0.0982
  H  H30  1  0.578700  0.533700  0.797300  1.0  0.0938
  H  H31  1  0.398100  0.181300  0.626300  1.0  0.1015
  H  H32  1  0.496900  0.974700  0.243100  1.0  0.0982
  H  H33  1  0.578700  0.033700  0.297300  1.0  0.0938
  H  H34  1  0.398100  0.681300  0.126300  1.0  0.1015
  H  H35  1  0.996900  0.474700  0.243100  1.0  0.0982
  H  H36  1  0.078700  0.533700  0.297300  1.0  0.0938
  H  H37  1  0.898100  0.181300  0.126300  1.0  0.1015
  H  H38  1  0.996900  0.974700  0.743100  1.0  0.0982
  H  H39  1  0.078700  0.033700  0.797300  1.0  0.0938
  H  H40  1  0.898100  0.681300  0.626300  1.0  0.1015
  H  H41  1  0.496900  0.275300  0.006900  1.0  0.0984
  H  H42  1  0.578700  0.216300  0.952700  1.0  0.0937
  H  H43  1  0.398100  0.568700  0.123700  1.0  0.1018
  H  H44  1  0.496900  0.775300  0.506900  1.0  0.0984
  H  H45  1  0.578700  0.716300  0.452700  1.0  0.0937
  H  H46  1  0.398100  0.068700  0.623700  1.0  0.1018
  H  H47  1  0.996900  0.275300  0.506900  1.0  0.0984
  H  H48  1  0.078700  0.216300  0.452700  1.0  0.0937
  H  H49  1  0.898100  0.568700  0.623700  1.0  0.1018
  H  H50  1  0.996900  0.775300  0.006900  1.0  0.0984
  H  H51  1  0.078700  0.716300  0.952700  1.0  0.0937
  H  H52  1  0.898100  0.068700  0.123700  1.0  0.1018
  H  H53  1  0.253100  0.474700  0.006900  1.0  0.0971
  H  H54  1  0.171300  0.533700  0.952700  1.0  0.0939
  H  H55  1  0.351900  0.181300  0.123700  1.0  0.1018
  H  H56  1  0.253100  0.974700  0.506900  1.0  0.0971
  H  H57  1  0.171300  0.033700  0.452700  1.0  0.0939
  H  H58  1  0.351900  0.681300  0.623700  1.0  0.1018
  H  H59  1  0.753100  0.474700  0.506900  1.0  0.0971
  H  H60  1  0.671300  0.533700  0.452700  1.0  0.0939
  H  H61  1  0.851900  0.181300  0.623700  1.0  0.1018
  H  H62  1  0.753100  0.974700  0.006900  1.0  0.0971
  H  H63  1  0.671300  0.033700  0.952700  1.0  0.0939
  H  H64  1  0.851900  0.681300  0.123700  1.0  0.1018
  H  H65  1  0.746900  0.724700  0.256900  1.0  0.0984
  H  H66  1  0.828700  0.783700  0.202700  1.0  0.0938
  H  H67  1  0.648100  0.431300  0.373700  1.0  0.1014
  H  H68  1  0.746900  0.224700  0.756900  1.0  0.0984
  H  H69  1  0.828700  0.283700  0.702700  1.0  0.0938
  H  H70  1  0.648100  0.931300  0.873700  1.0  0.1014
  H  H71  1  0.246900  0.724700  0.756900  1.0  0.0984
  H  H72  1  0.328700  0.783700  0.702700  1.0  0.0938
  H  H73  1  0.148100  0.431300  0.873700  1.0  0.1014
  H  H74  1  0.246900  0.224700  0.256900  1.0  0.0984
  H  H75  1  0.328700  0.283700  0.202700  1.0  0.0938
  H  H76  1  0.148100  0.931300  0.373700  1.0  0.1014
  H  H77  1  0.503100  0.525300  0.256900  1.0  0.097
  H  H78  1  0.421300  0.466300  0.202700  1.0  0.0938
  H  H79  1  0.601900  0.818700  0.373700  1.0  0.1022
  H  H80  1  0.503100  0.025300  0.756900  1.0  0.097
  H  H81  1  0.421300  0.966300  0.702700  1.0  0.0938
  H  H82  1  0.601900  0.318700  0.873700  1.0  0.1022
  H  H83  1  0.003100  0.525300  0.756900  1.0  0.097
  H  H84  1  0.921300  0.466300  0.702700  1.0  0.0938
  H  H85  1  0.101900  0.818700  0.873700  1.0  0.1022
  H  H86  1  0.003100  0.025300  0.256900  1.0  0.097
  H  H87  1  0.921300  0.966300  0.202700  1.0  0.0938
  H  H88  1  0.101900  0.318700  0.373700  1.0  0.1022
  H  H89  1  0.503100  0.724700  0.993100  1.0  0.0972
  H  H90  1  0.421300  0.783700  0.047300  1.0  0.0939
  H  H91  1  0.601900  0.431300  0.876300  1.0  0.1018
  H  H92  1  0.503100  0.224700  0.493100  1.0  0.0972
  H  H93  1  0.421300  0.283700  0.547300  1.0  0.0939
  H  H94  1  0.601900  0.931300  0.376300  1.0  0.1018
  H  H95  1  0.003100  0.724700  0.493100  1.0  0.0972
  H  H96  1  0.921300  0.783700  0.547300  1.0  0.0939
  H  H97  1  0.101900  0.431300  0.376300  1.0  0.1018
  H  H98  1  0.003100  0.224700  0.993100  1.0  0.0972
  H  H99  1  0.921300  0.283700  0.047300  1.0  0.0939
  H  H100  1  0.101900  0.931300  0.876300  1.0  0.1018
  H  H101  1  0.746900  0.525300  0.993100  1.0  0.0983
  H  H102  1  0.828700  0.466300  0.047300  1.0  0.0935
  H  H103  1  0.648100  0.818700  0.876300  1.0  0.1021
  H  H104  1  0.746900  0.025300  0.493100  1.0  0.0983
  H  H105  1  0.828700  0.966300  0.547300  1.0  0.0935
  H  H106  1  0.648100  0.318700  0.376300  1.0  0.1021
  H  H107  1  0.246900  0.525300  0.493100  1.0  0.0983
  H  H108  1  0.328700  0.466300  0.547300  1.0  0.0935
  H  H109  1  0.148100  0.818700  0.376300  1.0  0.1021
  H  H110  1  0.246900  0.025300  0.993100  1.0  0.0983
  H  H111  1  0.328700  0.966300  0.047300  1.0  0.0935
  H  H112  1  0.148100  0.318700  0.876300  1.0  0.1021
  C  C113  1  0.102400  0.320400  0.681900  1.0  0.7246
  C  C114  1  0.049600  0.283900  0.717200  1.0  -0.1429
  C  C115  1  0.149400  0.264600  0.745700  1.0  -0.0571
  C  C116  1  0.100200  0.230600  0.778500  1.0  -0.0637
  C  C117  1  0.259000  0.591500  0.625000  1.0  -0.0623
  C  C118  1  0.102400  0.820400  0.181900  1.0  0.7246
  C  C119  1  0.049600  0.783900  0.217200  1.0  -0.1429
  C  C120  1  0.149400  0.764600  0.245700  1.0  -0.0571
  C  C121  1  0.100200  0.730600  0.278500  1.0  -0.0637
  C  C122  1  0.259000  0.091500  0.125000  1.0  -0.0628
  C  C123  1  0.602400  0.320400  0.181900  1.0  0.7246
  C  C124  1  0.549600  0.283900  0.217200  1.0  -0.1429
  C  C125  1  0.649400  0.264600  0.245700  1.0  -0.0571
  C  C126  1  0.600200  0.230600  0.278500  1.0  -0.0637
  C  C127  1  0.759000  0.591500  0.125000  1.0  -0.0624
  C  C128  1  0.602400  0.820400  0.681900  1.0  0.7246
  C  C129  1  0.549600  0.783900  0.717200  1.0  -0.1429
  C  C130  1  0.649400  0.764600  0.745700  1.0  -0.0571
  C  C131  1  0.600200  0.730600  0.778500  1.0  -0.0637
  C  C132  1  0.759000  0.091500  0.625000  1.0  -0.0623
  C  C133  1  0.647600  0.429600  0.681900  1.0  0.7239
  C  C134  1  0.700400  0.466100  0.717200  1.0  -0.1444
  C  C135  1  0.600600  0.485400  0.745700  1.0  -0.0567
  C  C136  1  0.649800  0.519400  0.778500  1.0  -0.0641
  C  C137  1  0.491000  0.158500  0.625000  1.0  -0.062
  C  C138  1  0.647600  0.929600  0.181900  1.0  0.7239
  C  C139  1  0.700400  0.966100  0.217200  1.0  -0.1444
  C  C140  1  0.600600  0.985400  0.245700  1.0  -0.0567
  C  C141  1  0.649800  0.019400  0.278500  1.0  -0.0641
  C  C142  1  0.491000  0.658500  0.125000  1.0  -0.062
  C  C143  1  0.147600  0.429600  0.181900  1.0  0.7239
  C  C144  1  0.200400  0.466100  0.217200  1.0  -0.1444
  C  C145  1  0.100600  0.485400  0.245700  1.0  -0.0567
  C  C146  1  0.149800  0.519400  0.278500  1.0  -0.0641
  C  C147  1  0.991000  0.158500  0.125000  1.0  -0.0637
  C  C148  1  0.147600  0.929600  0.681900  1.0  0.7239
  C  C149  1  0.200400  0.966100  0.717200  1.0  -0.1444
  C  C150  1  0.100600  0.985400  0.745700  1.0  -0.0567
  C  C151  1  0.149800  0.019400  0.778500  1.0  -0.0641
  C  C152  1  0.991000  0.658500  0.625000  1.0  -0.0637
  C  C153  1  0.647600  0.320400  0.068100  1.0  0.7248
  C  C154  1  0.700400  0.283900  0.032800  1.0  -0.143
  C  C155  1  0.600600  0.264600  0.004300  1.0  -0.057
  C  C156  1  0.649800  0.230600  0.971500  1.0  -0.0642
  C  C157  1  0.491000  0.591500  0.125000  1.0  -0.062
  C  C158  1  0.647600  0.820400  0.568100  1.0  0.7248
  C  C159  1  0.700400  0.783900  0.532800  1.0  -0.143
  C  C160  1  0.600600  0.764600  0.504300  1.0  -0.057
  C  C161  1  0.649800  0.730600  0.471500  1.0  -0.0642
  C  C162  1  0.491000  0.091500  0.625000  1.0  -0.0638
  C  C163  1  0.147600  0.320400  0.568100  1.0  0.7248
  C  C164  1  0.200400  0.283900  0.532800  1.0  -0.143
  C  C165  1  0.100600  0.264600  0.504300  1.0  -0.057
  C  C166  1  0.149800  0.230600  0.471500  1.0  -0.0642
  C  C167  1  0.991000  0.591500  0.625000  1.0  -0.0638
  C  C168  1  0.147600  0.820400  0.068100  1.0  0.7248
  C  C169  1  0.200400  0.783900  0.032800  1.0  -0.143
  C  C170  1  0.100600  0.764600  0.004300  1.0  -0.057
  C  C171  1  0.149800  0.730600  0.971500  1.0  -0.0642
  C  C172  1  0.991000  0.091500  0.125000  1.0  -0.0638
  C  C173  1  0.102400  0.429600  0.068100  1.0  0.7247
  C  C174  1  0.049600  0.466100  0.032800  1.0  -0.1437
  C  C175  1  0.149400  0.485400  0.004300  1.0  -0.0572
  C  C176  1  0.100200  0.519400  0.971500  1.0  -0.0631
  C  C177  1  0.259000  0.158500  0.125000  1.0  -0.0628
  C  C178  1  0.102400  0.929600  0.568100  1.0  0.7247
  C  C179  1  0.049600  0.966100  0.532800  1.0  -0.1437
  C  C180  1  0.149400  0.985400  0.504300  1.0  -0.0572
  C  C181  1  0.100200  0.019400  0.471500  1.0  -0.0631
  C  C182  1  0.259000  0.658500  0.625000  1.0  -0.0628
  C  C183  1  0.602400  0.429600  0.568100  1.0  0.7247
  C  C184  1  0.549600  0.466100  0.532800  1.0  -0.1437
  C  C185  1  0.649400  0.485400  0.504300  1.0  -0.0572
  C  C186  1  0.600200  0.519400  0.471500  1.0  -0.0631
  C  C187  1  0.759000  0.158500  0.625000  1.0  -0.0628
  C  C188  1  0.602400  0.929600  0.068100  1.0  0.7247
  C  C189  1  0.549600  0.966100  0.032800  1.0  -0.1437
  C  C190  1  0.649400  0.985400  0.004300  1.0  -0.0572
  C  C191  1  0.600200  0.019400  0.971500  1.0  -0.0631
  C  C192  1  0.759000  0.658500  0.125000  1.0  -0.0617
  C  C193  1  0.897600  0.679600  0.318100  1.0  0.7247
  C  C194  1  0.950400  0.716100  0.282800  1.0  -0.1436
  C  C195  1  0.850600  0.735400  0.254300  1.0  -0.0578
  C  C196  1  0.899800  0.769400  0.221500  1.0  -0.0638
  C  C197  1  0.741000  0.408500  0.375000  1.0  -0.0618
  C  C198  1  0.897600  0.179600  0.818100  1.0  0.7247
  C  C199  1  0.950400  0.216100  0.782800  1.0  -0.1436
  C  C200  1  0.850600  0.235400  0.754300  1.0  -0.0578
  C  C201  1  0.899800  0.269400  0.721500  1.0  -0.0638
  C  C202  1  0.741000  0.908500  0.875000  1.0  -0.0624
  C  C203  1  0.397600  0.679600  0.818100  1.0  0.7247
  C  C204  1  0.450400  0.716100  0.782800  1.0  -0.1436
  C  C205  1  0.350600  0.735400  0.754300  1.0  -0.0578
  C  C206  1  0.399800  0.769400  0.721500  1.0  -0.0638
  C  C207  1  0.241000  0.408500  0.875000  1.0  -0.062
  C  C208  1  0.397600  0.179600  0.318100  1.0  0.7247
  C  C209  1  0.450400  0.216100  0.282800  1.0  -0.1436
  C  C210  1  0.350600  0.235400  0.254300  1.0  -0.0578
  C  C211  1  0.399800  0.269400  0.221500  1.0  -0.0638
  C  C212  1  0.241000  0.908500  0.375000  1.0  -0.0637
  C  C213  1  0.352400  0.570400  0.318100  1.0  0.7256
  C  C214  1  0.299600  0.533900  0.282800  1.0  -0.1437
  C  C215  1  0.399400  0.514600  0.254300  1.0  -0.0579
  C  C216  1  0.350200  0.480600  0.221500  1.0  -0.0632
  C  C217  1  0.509000  0.841500  0.375000  1.0  -0.0623
  C  C218  1  0.352400  0.070400  0.818100  1.0  0.7256
  C  C219  1  0.299600  0.033900  0.782800  1.0  -0.1437
  C  C220  1  0.399400  0.014600  0.754300  1.0  -0.0579
  C  C221  1  0.350200  0.980600  0.721500  1.0  -0.0632
  C  C222  1  0.509000  0.341500  0.875000  1.0  -0.0627
  C  C223  1  0.852400  0.570400  0.818100  1.0  0.7256
  C  C224  1  0.799600  0.533900  0.782800  1.0  -0.1437
  C  C225  1  0.899400  0.514600  0.754300  1.0  -0.0579
  C  C226  1  0.850200  0.480600  0.721500  1.0  -0.0632
  C  C227  1  0.009000  0.841500  0.875000  1.0  -0.0623
  C  C228  1  0.852400  0.070400  0.318100  1.0  0.7256
  C  C229  1  0.799600  0.033900  0.282800  1.0  -0.1437
  C  C230  1  0.899400  0.014600  0.254300  1.0  -0.0579
  C  C231  1  0.850200  0.980600  0.221500  1.0  -0.0632
  C  C232  1  0.009000  0.341500  0.375000  1.0  -0.0623
  C  C233  1  0.352400  0.679600  0.931900  1.0  0.7241
  C  C234  1  0.299600  0.716100  0.967200  1.0  -0.1436
  C  C235  1  0.399400  0.735400  0.995700  1.0  -0.058
  C  C236  1  0.350200  0.769400  0.028500  1.0  -0.0637
  C  C237  1  0.509000  0.408500  0.875000  1.0  -0.0617
  C  C238  1  0.352400  0.179600  0.431900  1.0  0.7241
  C  C239  1  0.299600  0.216100  0.467200  1.0  -0.1436
  C  C240  1  0.399400  0.235400  0.495700  1.0  -0.058
  C  C241  1  0.350200  0.269400  0.528500  1.0  -0.0637
  C  C242  1  0.509000  0.908500  0.375000  1.0  -0.0617
  C  C243  1  0.852400  0.679600  0.431900  1.0  0.7241
  C  C244  1  0.799600  0.716100  0.467200  1.0  -0.1436
  C  C245  1  0.899400  0.735400  0.495700  1.0  -0.058
  C  C246  1  0.850200  0.769400  0.528500  1.0  -0.0637
  C  C247  1  0.009000  0.408500  0.375000  1.0  -0.0636
  C  C248  1  0.852400  0.179600  0.931900  1.0  0.7241
  C  C249  1  0.799600  0.216100  0.967200  1.0  -0.1436
  C  C250  1  0.899400  0.235400  0.995700  1.0  -0.058
  C  C251  1  0.850200  0.269400  0.028500  1.0  -0.0637
  C  C252  1  0.009000  0.908500  0.875000  1.0  -0.0636
  C  C253  1  0.897600  0.570400  0.931900  1.0  0.725
  C  C254  1  0.950400  0.533900  0.967200  1.0  -0.1444
  C  C255  1  0.850600  0.514600  0.995700  1.0  -0.0578
  C  C256  1  0.899800  0.480600  0.028500  1.0  -0.0643
  C  C257  1  0.741000  0.841500  0.875000  1.0  -0.0636
  C  C258  1  0.897600  0.070400  0.431900  1.0  0.725
  C  C259  1  0.950400  0.033900  0.467200  1.0  -0.1444
  C  C260  1  0.850600  0.014600  0.495700  1.0  -0.0578
  C  C261  1  0.899800  0.980600  0.528500  1.0  -0.0643
  C  C262  1  0.741000  0.341500  0.375000  1.0  -0.0636
  C  C263  1  0.397600  0.570400  0.431900  1.0  0.725
  C  C264  1  0.450400  0.533900  0.467200  1.0  -0.1444
  C  C265  1  0.350600  0.514600  0.495700  1.0  -0.0578
  C  C266  1  0.399800  0.480600  0.528500  1.0  -0.0643
  C  C267  1  0.241000  0.841500  0.375000  1.0  -0.0623
  C  C268  1  0.397600  0.070400  0.931900  1.0  0.725
  C  C269  1  0.450400  0.033900  0.967200  1.0  -0.1444
  C  C270  1  0.350600  0.014600  0.995700  1.0  -0.0578
  C  C271  1  0.399800  0.980600  0.028500  1.0  -0.0643
  C  C272  1  0.241000  0.341500  0.875000  1.0  -0.0623
  C  C273  1  0.125000  0.485700  0.625000  1.0  0.6843
  C  C274  1  0.125000  0.557800  0.625000  1.0  -0.1223
  C  C275  1  0.125000  0.985700  0.125000  1.0  0.6843
  C  C276  1  0.125000  0.057800  0.125000  1.0  -0.1223
  C  C277  1  0.625000  0.985700  0.625000  1.0  0.6843
  C  C278  1  0.625000  0.057800  0.625000  1.0  -0.1223
  C  C279  1  0.625000  0.264300  0.625000  1.0  0.6863
  C  C280  1  0.625000  0.192200  0.625000  1.0  -0.1217
  C  C281  1  0.625000  0.764300  0.125000  1.0  0.6863
  C  C282  1  0.625000  0.692200  0.125000  1.0  -0.1217
  C  C283  1  0.625000  0.485700  0.125000  1.0  0.6843
  C  C284  1  0.625000  0.557800  0.125000  1.0  -0.1223
  C  C285  1  0.125000  0.264300  0.125000  1.0  0.6863
  C  C286  1  0.125000  0.192200  0.125000  1.0  -0.1217
  C  C287  1  0.125000  0.764300  0.625000  1.0  0.6863
  C  C288  1  0.125000  0.692200  0.625000  1.0  -0.1217
  C  C289  1  0.875000  0.514300  0.375000  1.0  0.6863
  C  C290  1  0.875000  0.442200  0.375000  1.0  -0.1217
  C  C291  1  0.875000  0.014300  0.875000  1.0  0.6863
  C  C292  1  0.875000  0.942200  0.875000  1.0  -0.1217
  C  C293  1  0.375000  0.735700  0.375000  1.0  0.6843
  C  C294  1  0.375000  0.807800  0.375000  1.0  -0.1223
  C  C295  1  0.375000  0.235700  0.875000  1.0  0.6843
  C  C296  1  0.375000  0.307800  0.875000  1.0  -0.1223
  C  C297  1  0.375000  0.514300  0.875000  1.0  0.6863
  C  C298  1  0.375000  0.442200  0.875000  1.0  -0.1217
  C  C299  1  0.375000  0.014300  0.375000  1.0  0.6863
  C  C300  1  0.375000  0.942200  0.375000  1.0  -0.1217
  C  C301  1  0.875000  0.735700  0.875000  1.0  0.6843
  C  C302  1  0.875000  0.807800  0.875000  1.0  -0.1223
  C  C303  1  0.875000  0.235700  0.375000  1.0  0.6843
  C  C304  1  0.875000  0.307800  0.375000  1.0  -0.1223
  O  O305  1  0.241300  0.333100  0.679200  1.0  -0.6373
  O  O306  1  0.006000  0.335900  0.657000  1.0  -0.6994
  O  O307  1  0.245800  0.457500  0.634700  1.0  -0.6824
  O  O308  1  0.241300  0.833100  0.179200  1.0  -0.6373
  O  O309  1  0.006000  0.835900  0.157000  1.0  -0.6994
  O  O310  1  0.245800  0.957500  0.134700  1.0  -0.6824
  O  O311  1  0.741300  0.333100  0.179200  1.0  -0.6373
  O  O312  1  0.506000  0.335900  0.157000  1.0  -0.6994
  O  O313  1  0.745800  0.457500  0.134700  1.0  -0.6824
  O  O314  1  0.741300  0.833100  0.679200  1.0  -0.6373
  O  O315  1  0.506000  0.835900  0.657000  1.0  -0.6994
  O  O316  1  0.745800  0.957500  0.634700  1.0  -0.6824
  O  O317  1  0.508700  0.416900  0.679200  1.0  -0.6365
  O  O318  1  0.744000  0.414100  0.657000  1.0  -0.6985
  O  O319  1  0.504200  0.292500  0.634700  1.0  -0.6808
  O  O320  1  0.508700  0.916900  0.179200  1.0  -0.6365
  O  O321  1  0.744000  0.914100  0.157000  1.0  -0.6985
  O  O322  1  0.504200  0.792500  0.134700  1.0  -0.6808
  O  O323  1  0.008700  0.416900  0.179200  1.0  -0.6365
  O  O324  1  0.244000  0.414100  0.157000  1.0  -0.6985
  O  O325  1  0.004200  0.292500  0.134700  1.0  -0.6808
  O  O326  1  0.008700  0.916900  0.679200  1.0  -0.6365
  O  O327  1  0.244000  0.914100  0.657000  1.0  -0.6985
  O  O328  1  0.004200  0.792500  0.634700  1.0  -0.6808
  O  O329  1  0.508700  0.333100  0.070800  1.0  -0.6353
  O  O330  1  0.744000  0.335900  0.093000  1.0  -0.699
  O  O331  1  0.504200  0.457500  0.115300  1.0  -0.6809
  O  O332  1  0.508700  0.833100  0.570800  1.0  -0.6353
  O  O333  1  0.744000  0.835900  0.593000  1.0  -0.699
  O  O334  1  0.504200  0.957500  0.615300  1.0  -0.6809
  O  O335  1  0.008700  0.333100  0.570800  1.0  -0.6353
  O  O336  1  0.244000  0.335900  0.593000  1.0  -0.699
  O  O337  1  0.004200  0.457500  0.615300  1.0  -0.6809
  O  O338  1  0.008700  0.833100  0.070800  1.0  -0.6353
  O  O339  1  0.244000  0.835900  0.093000  1.0  -0.699
  O  O340  1  0.004200  0.957500  0.115300  1.0  -0.6809
  O  O341  1  0.241300  0.416900  0.070800  1.0  -0.6373
  O  O342  1  0.006000  0.414100  0.093000  1.0  -0.6987
  O  O343  1  0.245800  0.292500  0.115300  1.0  -0.6817
  O  O344  1  0.241300  0.916900  0.570800  1.0  -0.6373
  O  O345  1  0.006000  0.914100  0.593000  1.0  -0.6987
  O  O346  1  0.245800  0.792500  0.615300  1.0  -0.6817
  O  O347  1  0.741300  0.416900  0.570800  1.0  -0.6373
  O  O348  1  0.506000  0.414100  0.593000  1.0  -0.6987
  O  O349  1  0.745800  0.292500  0.615300  1.0  -0.6817
  O  O350  1  0.741300  0.916900  0.070800  1.0  -0.6373
  O  O351  1  0.506000  0.914100  0.093000  1.0  -0.6987
  O  O352  1  0.745800  0.792500  0.115300  1.0  -0.6817
  O  O353  1  0.758700  0.666900  0.320800  1.0  -0.6353
  O  O354  1  0.994000  0.664100  0.343000  1.0  -0.6985
  O  O355  1  0.754200  0.542500  0.365300  1.0  -0.681
  O  O356  1  0.758700  0.166900  0.820800  1.0  -0.6353
  O  O357  1  0.994000  0.164100  0.843000  1.0  -0.6985
  O  O358  1  0.754200  0.042500  0.865300  1.0  -0.681
  O  O359  1  0.258700  0.666900  0.820800  1.0  -0.6353
  O  O360  1  0.494000  0.664100  0.843000  1.0  -0.6985
  O  O361  1  0.254200  0.542500  0.865300  1.0  -0.681
  O  O362  1  0.258700  0.166900  0.320800  1.0  -0.6353
  O  O363  1  0.494000  0.164100  0.343000  1.0  -0.6985
  O  O364  1  0.254200  0.042500  0.365300  1.0  -0.681
  O  O365  1  0.491300  0.583100  0.320800  1.0  -0.6373
  O  O366  1  0.256000  0.585900  0.343000  1.0  -0.6992
  O  O367  1  0.495800  0.707500  0.365300  1.0  -0.6817
  O  O368  1  0.491300  0.083100  0.820800  1.0  -0.6373
  O  O369  1  0.256000  0.085900  0.843000  1.0  -0.6992
  O  O370  1  0.495800  0.207500  0.865300  1.0  -0.6817
  O  O371  1  0.991300  0.583100  0.820800  1.0  -0.6373
  O  O372  1  0.756000  0.585900  0.843000  1.0  -0.6992
  O  O373  1  0.995800  0.707500  0.865300  1.0  -0.6817
  O  O374  1  0.991300  0.083100  0.320800  1.0  -0.6373
  O  O375  1  0.756000  0.085900  0.343000  1.0  -0.6992
  O  O376  1  0.995800  0.207500  0.365300  1.0  -0.6817
  O  O377  1  0.491300  0.666900  0.929200  1.0  -0.6376
  O  O378  1  0.256000  0.664100  0.907000  1.0  -0.6989
  O  O379  1  0.495800  0.542500  0.884700  1.0  -0.6815
  O  O380  1  0.491300  0.166900  0.429200  1.0  -0.6376
  O  O381  1  0.256000  0.164100  0.407000  1.0  -0.6989
  O  O382  1  0.495800  0.042500  0.384700  1.0  -0.6815
  O  O383  1  0.991300  0.666900  0.429200  1.0  -0.6376
  O  O384  1  0.756000  0.664100  0.407000  1.0  -0.6989
  O  O385  1  0.995800  0.542500  0.384700  1.0  -0.6815
  O  O386  1  0.991300  0.166900  0.929200  1.0  -0.6376
  O  O387  1  0.756000  0.164100  0.907000  1.0  -0.6989
  O  O388  1  0.995800  0.042500  0.884700  1.0  -0.6815
  O  O389  1  0.758700  0.583100  0.929200  1.0  -0.6359
  O  O390  1  0.994000  0.585900  0.907000  1.0  -0.6991
  O  O391  1  0.754200  0.707500  0.884700  1.0  -0.6817
  O  O392  1  0.758700  0.083100  0.429200  1.0  -0.6359
  O  O393  1  0.994000  0.085900  0.407000  1.0  -0.6991
  O  O394  1  0.754200  0.207500  0.384700  1.0  -0.6817
  O  O395  1  0.258700  0.583100  0.429200  1.0  -0.6359
  O  O396  1  0.494000  0.585900  0.407000  1.0  -0.6991
  O  O397  1  0.254200  0.707500  0.384700  1.0  -0.6817
  O  O398  1  0.258700  0.083100  0.929200  1.0  -0.6359
  O  O399  1  0.494000  0.085900  0.907000  1.0  -0.6991
  O  O400  1  0.254200  0.207500  0.884700  1.0  -0.6817
