# generated using pymatgen
data_ScH6(C2O)6
_symmetry_space_group_name_H-M   'P 1'
_cell_length_a   8.82440000
_cell_length_b   20.62230000
_cell_length_c   34.12300000
_cell_angle_alpha   90.00000000
_cell_angle_beta   90.00000000
_cell_angle_gamma   90.00000000
_symmetry_Int_Tables_number   1
_chemical_formula_structural   ScH6(C2O)6
_chemical_formula_sum   'Sc16 H96 C192 O96'
_cell_volume   6209.68388925
_cell_formula_units_Z   16
loop_
 _symmetry_equiv_pos_site_id
 _symmetry_equiv_pos_as_xyz
  1  'x, y, z'
loop_
 _atom_site_type_symbol
 _atom_site_label
 _atom_site_symmetry_multiplicity
 _atom_site_fract_x
 _atom_site_fract_y
 _atom_site_fract_z
 _atom_site_occupancy
 _atom_site_charge
  Sc  Sc1  1  0.375000  0.375000  0.635180  1.0  2.0931
  Sc  Sc2  1  0.375000  0.875000  0.135180  1.0  2.0931
  Sc  Sc3  1  0.875000  0.375000  0.135180  1.0  2.0931
  Sc  Sc4  1  0.875000  0.875000  0.635180  1.0  2.0931
  Sc  Sc5  1  0.375000  0.375000  0.114820  1.0  2.0918
  Sc  Sc6  1  0.375000  0.875000  0.614820  1.0  2.0918
  Sc  Sc7  1  0.875000  0.375000  0.614820  1.0  2.0918
  Sc  Sc8  1  0.875000  0.875000  0.114820  1.0  2.0918
  Sc  Sc9  1  0.625000  0.625000  0.364820  1.0  2.0918
  Sc  Sc10  1  0.625000  0.125000  0.864820  1.0  2.0918
  Sc  Sc11  1  0.125000  0.625000  0.864820  1.0  2.0918
  Sc  Sc12  1  0.125000  0.125000  0.364820  1.0  2.0918
  Sc  Sc13  1  0.625000  0.625000  0.885180  1.0  2.0931
  Sc  Sc14  1  0.625000  0.125000  0.385180  1.0  2.0931
  Sc  Sc15  1  0.125000  0.625000  0.385180  1.0  2.0931
  Sc  Sc16  1  0.125000  0.125000  0.885180  1.0  2.0931
  H  H17  1  0.253500  0.275600  0.743200  1.0  0.1043
  H  H18  1  0.172200  0.215800  0.796800  1.0  0.0896
  H  H19  1  0.352200  0.568700  0.626200  1.0  0.1026
  H  H20  1  0.253500  0.775600  0.243200  1.0  0.1043
  H  H21  1  0.172200  0.715800  0.296800  1.0  0.0896
  H  H22  1  0.352200  0.068700  0.126200  1.0  0.1026
  H  H23  1  0.753500  0.275600  0.243200  1.0  0.1043
  H  H24  1  0.672200  0.215800  0.296800  1.0  0.0896
  H  H25  1  0.852200  0.568700  0.126200  1.0  0.1026
  H  H26  1  0.753500  0.775600  0.743200  1.0  0.1043
  H  H27  1  0.672200  0.715800  0.796800  1.0  0.0896
  H  H28  1  0.852200  0.068700  0.626200  1.0  0.1026
  H  H29  1  0.496500  0.474400  0.743200  1.0  0.1054
  H  H30  1  0.577800  0.534200  0.796800  1.0  0.0899
  H  H31  1  0.397800  0.181300  0.626200  1.0  0.1019
  H  H32  1  0.496500  0.974400  0.243200  1.0  0.1054
  H  H33  1  0.577800  0.034200  0.296800  1.0  0.0899
  H  H34  1  0.397800  0.681300  0.126200  1.0  0.1019
  H  H35  1  0.996500  0.474400  0.243200  1.0  0.1054
  H  H36  1  0.077800  0.534200  0.296800  1.0  0.0899
  H  H37  1  0.897800  0.181300  0.126200  1.0  0.1019
  H  H38  1  0.996500  0.974400  0.743200  1.0  0.1054
  H  H39  1  0.077800  0.034200  0.796800  1.0  0.0899
  H  H40  1  0.897800  0.681300  0.626200  1.0  0.1019
  H  H41  1  0.496500  0.275600  0.006800  1.0  0.1055
  H  H42  1  0.577800  0.215800  0.953200  1.0  0.0899
  H  H43  1  0.397800  0.568700  0.123800  1.0  0.1021
  H  H44  1  0.496500  0.775600  0.506800  1.0  0.1055
  H  H45  1  0.577800  0.715800  0.453200  1.0  0.0899
  H  H46  1  0.397800  0.068700  0.623800  1.0  0.1021
  H  H47  1  0.996500  0.275600  0.506800  1.0  0.1055
  H  H48  1  0.077800  0.215800  0.453200  1.0  0.0899
  H  H49  1  0.897800  0.568700  0.623800  1.0  0.1021
  H  H50  1  0.996500  0.775600  0.006800  1.0  0.1055
  H  H51  1  0.077800  0.715800  0.953200  1.0  0.0899
  H  H52  1  0.897800  0.068700  0.123800  1.0  0.1021
  H  H53  1  0.253500  0.474400  0.006800  1.0  0.1044
  H  H54  1  0.172200  0.534200  0.953200  1.0  0.0901
  H  H55  1  0.352200  0.181300  0.123800  1.0  0.1021
  H  H56  1  0.253500  0.974400  0.506800  1.0  0.1044
  H  H57  1  0.172200  0.034200  0.453200  1.0  0.0901
  H  H58  1  0.352200  0.681300  0.623800  1.0  0.1021
  H  H59  1  0.753500  0.474400  0.506800  1.0  0.1044
  H  H60  1  0.672200  0.534200  0.453200  1.0  0.0901
  H  H61  1  0.852200  0.181300  0.623800  1.0  0.1021
  H  H62  1  0.753500  0.974400  0.006800  1.0  0.1044
  H  H63  1  0.672200  0.034200  0.953200  1.0  0.0901
  H  H64  1  0.852200  0.681300  0.123800  1.0  0.1021
  H  H65  1  0.746500  0.724400  0.256800  1.0  0.1056
  H  H66  1  0.827800  0.784200  0.203200  1.0  0.09
  H  H67  1  0.647800  0.431300  0.373800  1.0  0.1017
  H  H68  1  0.746500  0.224400  0.756800  1.0  0.1056
  H  H69  1  0.827800  0.284200  0.703200  1.0  0.09
  H  H70  1  0.647800  0.931300  0.873800  1.0  0.1017
  H  H71  1  0.246500  0.724400  0.756800  1.0  0.1056
  H  H72  1  0.327800  0.784200  0.703200  1.0  0.09
  H  H73  1  0.147800  0.431300  0.873800  1.0  0.1017
  H  H74  1  0.246500  0.224400  0.256800  1.0  0.1056
  H  H75  1  0.327800  0.284200  0.203200  1.0  0.09
  H  H76  1  0.147800  0.931300  0.373800  1.0  0.1017
  H  H77  1  0.503500  0.525600  0.256800  1.0  0.1042
  H  H78  1  0.422200  0.465800  0.203200  1.0  0.0899
  H  H79  1  0.602200  0.818700  0.373800  1.0  0.1024
  H  H80  1  0.503500  0.025600  0.756800  1.0  0.1042
  H  H81  1  0.422200  0.965800  0.703200  1.0  0.0899
  H  H82  1  0.602200  0.318700  0.873800  1.0  0.1024
  H  H83  1  0.003500  0.525600  0.756800  1.0  0.1042
  H  H84  1  0.922200  0.465800  0.703200  1.0  0.0899
  H  H85  1  0.102200  0.818700  0.873800  1.0  0.1024
  H  H86  1  0.003500  0.025600  0.256800  1.0  0.1042
  H  H87  1  0.922200  0.965800  0.203200  1.0  0.0899
  H  H88  1  0.102200  0.318700  0.373800  1.0  0.1024
  H  H89  1  0.503500  0.724400  0.993200  1.0  0.1045
  H  H90  1  0.422200  0.784200  0.046800  1.0  0.09
  H  H91  1  0.602200  0.431300  0.876200  1.0  0.1021
  H  H92  1  0.503500  0.224400  0.493200  1.0  0.1045
  H  H93  1  0.422200  0.284200  0.546800  1.0  0.09
  H  H94  1  0.602200  0.931300  0.376200  1.0  0.1021
  H  H95  1  0.003500  0.724400  0.493200  1.0  0.1045
  H  H96  1  0.922200  0.784200  0.546800  1.0  0.09
  H  H97  1  0.102200  0.431300  0.376200  1.0  0.1021
  H  H98  1  0.003500  0.224400  0.993200  1.0  0.1045
  H  H99  1  0.922200  0.284200  0.046800  1.0  0.09
  H  H100  1  0.102200  0.931300  0.876200  1.0  0.1021
  H  H101  1  0.746500  0.525600  0.993200  1.0  0.1054
  H  H102  1  0.827800  0.465800  0.046800  1.0  0.0895
  H  H103  1  0.647800  0.818700  0.876200  1.0  0.1024
  H  H104  1  0.746500  0.025600  0.493200  1.0  0.1054
  H  H105  1  0.827800  0.965800  0.546800  1.0  0.0895
  H  H106  1  0.647800  0.318700  0.376200  1.0  0.1024
  H  H107  1  0.246500  0.525600  0.493200  1.0  0.1054
  H  H108  1  0.327800  0.465800  0.546800  1.0  0.0895
  H  H109  1  0.147800  0.818700  0.376200  1.0  0.1024
  H  H110  1  0.246500  0.025600  0.993200  1.0  0.1054
  H  H111  1  0.327800  0.965800  0.046800  1.0  0.0895
  H  H112  1  0.147800  0.318700  0.876200  1.0  0.1024
  C  C113  1  0.103400  0.320000  0.682100  1.0  0.7014
  C  C114  1  0.049500  0.284400  0.717800  1.0  -0.1278
  C  C115  1  0.149800  0.264800  0.745800  1.0  -0.0799
  C  C116  1  0.101100  0.230100  0.777900  1.0  -0.0702
  C  C117  1  0.259300  0.591490  0.624900  1.0  -0.0757
  C  C118  1  0.103400  0.820000  0.182100  1.0  0.7014
  C  C119  1  0.049500  0.784400  0.217800  1.0  -0.1278
  C  C120  1  0.149800  0.764800  0.245800  1.0  -0.0799
  C  C121  1  0.101100  0.730100  0.277900  1.0  -0.0702
  C  C122  1  0.259300  0.091490  0.124900  1.0  -0.0757
  C  C123  1  0.603400  0.320000  0.182100  1.0  0.7014
  C  C124  1  0.549500  0.284400  0.217800  1.0  -0.1278
  C  C125  1  0.649800  0.264800  0.245800  1.0  -0.0799
  C  C126  1  0.601100  0.230100  0.277900  1.0  -0.0702
  C  C127  1  0.759300  0.591490  0.124900  1.0  -0.0753
  C  C128  1  0.603400  0.820000  0.682100  1.0  0.7014
  C  C129  1  0.549500  0.784400  0.717800  1.0  -0.1278
  C  C130  1  0.649800  0.764800  0.745800  1.0  -0.0799
  C  C131  1  0.601100  0.730100  0.777900  1.0  -0.0702
  C  C132  1  0.759300  0.091490  0.624900  1.0  -0.0757
  C  C133  1  0.646600  0.430000  0.682100  1.0  0.7013
  C  C134  1  0.700500  0.465600  0.717800  1.0  -0.1291
  C  C135  1  0.600200  0.485200  0.745800  1.0  -0.0796
  C  C136  1  0.648900  0.519900  0.777900  1.0  -0.0702
  C  C137  1  0.490700  0.158510  0.624900  1.0  -0.0778
  C  C138  1  0.646600  0.930000  0.182100  1.0  0.7013
  C  C139  1  0.700500  0.965600  0.217800  1.0  -0.1291
  C  C140  1  0.600200  0.985200  0.245800  1.0  -0.0796
  C  C141  1  0.648900  0.019900  0.277900  1.0  -0.0702
  C  C142  1  0.490700  0.658510  0.124900  1.0  -0.0757
  C  C143  1  0.146600  0.430000  0.182100  1.0  0.7013
  C  C144  1  0.200500  0.465600  0.217800  1.0  -0.1291
  C  C145  1  0.100200  0.485200  0.245800  1.0  -0.0796
  C  C146  1  0.148900  0.519900  0.277900  1.0  -0.0702
  C  C147  1  0.990700  0.158510  0.124900  1.0  -0.0778
  C  C148  1  0.146600  0.930000  0.682100  1.0  0.7013
  C  C149  1  0.200500  0.965600  0.717800  1.0  -0.1291
  C  C150  1  0.100200  0.985200  0.745800  1.0  -0.0796
  C  C151  1  0.148900  0.019900  0.777900  1.0  -0.0702
  C  C152  1  0.990700  0.658510  0.624900  1.0  -0.0778
  C  C153  1  0.646600  0.320000  0.067900  1.0  0.702
  C  C154  1  0.700500  0.284400  0.032200  1.0  -0.128
  C  C155  1  0.600200  0.264800  0.004200  1.0  -0.0797
  C  C156  1  0.648900  0.230100  0.972100  1.0  -0.07
  C  C157  1  0.490700  0.591490  0.125100  1.0  -0.0753
  C  C158  1  0.646600  0.820000  0.567900  1.0  0.702
  C  C159  1  0.700500  0.784400  0.532200  1.0  -0.128
  C  C160  1  0.600200  0.764800  0.504200  1.0  -0.0797
  C  C161  1  0.648900  0.730100  0.472100  1.0  -0.07
  C  C162  1  0.490700  0.091490  0.625100  1.0  -0.0763
  C  C163  1  0.146600  0.320000  0.567900  1.0  0.702
  C  C164  1  0.200500  0.284400  0.532200  1.0  -0.128
  C  C165  1  0.100200  0.264800  0.504200  1.0  -0.0797
  C  C166  1  0.148900  0.230100  0.472100  1.0  -0.07
  C  C167  1  0.990700  0.591490  0.625100  1.0  -0.0763
  C  C168  1  0.146600  0.820000  0.067900  1.0  0.702
  C  C169  1  0.200500  0.784400  0.032200  1.0  -0.128
  C  C170  1  0.100200  0.764800  0.004200  1.0  -0.0797
  C  C171  1  0.148900  0.730100  0.972100  1.0  -0.07
  C  C172  1  0.990700  0.091490  0.125100  1.0  -0.0763
  C  C173  1  0.103400  0.430000  0.067900  1.0  0.7015
  C  C174  1  0.049500  0.465600  0.032200  1.0  -0.1279
  C  C175  1  0.149800  0.485200  0.004200  1.0  -0.0799
  C  C176  1  0.101100  0.519900  0.972100  1.0  -0.0697
  C  C177  1  0.259300  0.158510  0.125100  1.0  -0.076
  C  C178  1  0.103400  0.930000  0.567900  1.0  0.7015
  C  C179  1  0.049500  0.965600  0.532200  1.0  -0.1279
  C  C180  1  0.149800  0.985200  0.504200  1.0  -0.0799
  C  C181  1  0.101100  0.019900  0.472100  1.0  -0.0697
  C  C182  1  0.259300  0.658510  0.625100  1.0  -0.076
  C  C183  1  0.603400  0.430000  0.567900  1.0  0.7015
  C  C184  1  0.549500  0.465600  0.532200  1.0  -0.1279
  C  C185  1  0.649800  0.485200  0.504200  1.0  -0.0799
  C  C186  1  0.601100  0.519900  0.472100  1.0  -0.0697
  C  C187  1  0.759300  0.158510  0.625100  1.0  -0.076
  C  C188  1  0.603400  0.930000  0.067900  1.0  0.7015
  C  C189  1  0.549500  0.965600  0.032200  1.0  -0.1279
  C  C190  1  0.649800  0.985200  0.004200  1.0  -0.0799
  C  C191  1  0.601100  0.019900  0.972100  1.0  -0.0697
  C  C192  1  0.759300  0.658510  0.125100  1.0  -0.0748
  C  C193  1  0.896600  0.680000  0.317900  1.0  0.7019
  C  C194  1  0.950500  0.715600  0.282200  1.0  -0.1277
  C  C195  1  0.850200  0.735200  0.254200  1.0  -0.0789
  C  C196  1  0.898900  0.769900  0.222100  1.0  -0.0721
  C  C197  1  0.740700  0.408510  0.375100  1.0  -0.0759
  C  C198  1  0.896600  0.180000  0.817900  1.0  0.7019
  C  C199  1  0.950500  0.215600  0.782200  1.0  -0.1277
  C  C200  1  0.850200  0.235200  0.754200  1.0  -0.0789
  C  C201  1  0.898900  0.269900  0.722100  1.0  -0.0721
  C  C202  1  0.740700  0.908510  0.875100  1.0  -0.0759
  C  C203  1  0.396600  0.680000  0.817900  1.0  0.7019
  C  C204  1  0.450500  0.715600  0.782200  1.0  -0.1277
  C  C205  1  0.350200  0.735200  0.754200  1.0  -0.0789
  C  C206  1  0.398900  0.769900  0.722100  1.0  -0.0721
  C  C207  1  0.240700  0.408510  0.875100  1.0  -0.0757
  C  C208  1  0.396600  0.180000  0.317900  1.0  0.7019
  C  C209  1  0.450500  0.215600  0.282200  1.0  -0.1277
  C  C210  1  0.350200  0.235200  0.254200  1.0  -0.0789
  C  C211  1  0.398900  0.269900  0.222100  1.0  -0.0721
  C  C212  1  0.240700  0.908510  0.375100  1.0  -0.0757
  C  C213  1  0.353400  0.570000  0.317900  1.0  0.7024
  C  C214  1  0.299500  0.534400  0.282200  1.0  -0.1283
  C  C215  1  0.399800  0.514800  0.254200  1.0  -0.0792
  C  C216  1  0.351100  0.480100  0.222100  1.0  -0.0722
  C  C217  1  0.509300  0.841490  0.375100  1.0  -0.0747
  C  C218  1  0.353400  0.070000  0.817900  1.0  0.7024
  C  C219  1  0.299500  0.034400  0.782200  1.0  -0.1283
  C  C220  1  0.399800  0.014800  0.754200  1.0  -0.0792
  C  C221  1  0.351100  0.980100  0.722100  1.0  -0.0722
  C  C222  1  0.509300  0.341490  0.875100  1.0  -0.0747
  C  C223  1  0.853400  0.570000  0.817900  1.0  0.7024
  C  C224  1  0.799500  0.534400  0.782200  1.0  -0.1283
  C  C225  1  0.899800  0.514800  0.754200  1.0  -0.0792
  C  C226  1  0.851100  0.480100  0.722100  1.0  -0.0722
  C  C227  1  0.009300  0.841490  0.875100  1.0  -0.0766
  C  C228  1  0.853400  0.070000  0.317900  1.0  0.7024
  C  C229  1  0.799500  0.034400  0.282200  1.0  -0.1283
  C  C230  1  0.899800  0.014800  0.254200  1.0  -0.0792
  C  C231  1  0.851100  0.980100  0.222100  1.0  -0.0722
  C  C232  1  0.009300  0.341490  0.375100  1.0  -0.0766
  C  C233  1  0.353400  0.680000  0.932100  1.0  0.7011
  C  C234  1  0.299500  0.715600  0.967800  1.0  -0.1277
  C  C235  1  0.399800  0.735200  0.995800  1.0  -0.0794
  C  C236  1  0.351100  0.769900  0.027900  1.0  -0.0728
  C  C237  1  0.509300  0.408510  0.874900  1.0  -0.0753
  C  C238  1  0.353400  0.180000  0.432100  1.0  0.7011
  C  C239  1  0.299500  0.215600  0.467800  1.0  -0.1277
  C  C240  1  0.399800  0.235200  0.495800  1.0  -0.0794
  C  C241  1  0.351100  0.269900  0.527900  1.0  -0.0728
  C  C242  1  0.509300  0.908510  0.374900  1.0  -0.0753
  C  C243  1  0.853400  0.680000  0.432100  1.0  0.7011
  C  C244  1  0.799500  0.715600  0.467800  1.0  -0.1277
  C  C245  1  0.899800  0.735200  0.495800  1.0  -0.0794
  C  C246  1  0.851100  0.769900  0.527900  1.0  -0.0728
  C  C247  1  0.009300  0.408510  0.374900  1.0  -0.0763
  C  C248  1  0.853400  0.180000  0.932100  1.0  0.7011
  C  C249  1  0.799500  0.215600  0.967800  1.0  -0.1277
  C  C250  1  0.899800  0.235200  0.995800  1.0  -0.0794
  C  C251  1  0.851100  0.269900  0.027900  1.0  -0.0728
  C  C252  1  0.009300  0.908510  0.874900  1.0  -0.0763
  C  C253  1  0.896600  0.570000  0.932100  1.0  0.7022
  C  C254  1  0.950500  0.534400  0.967800  1.0  -0.1291
  C  C255  1  0.850200  0.514800  0.995800  1.0  -0.0794
  C  C256  1  0.898900  0.480100  0.027900  1.0  -0.0729
  C  C257  1  0.740700  0.841490  0.874900  1.0  -0.077
  C  C258  1  0.896600  0.070000  0.432100  1.0  0.7022
  C  C259  1  0.950500  0.034400  0.467800  1.0  -0.1291
  C  C260  1  0.850200  0.014800  0.495800  1.0  -0.0794
  C  C261  1  0.898900  0.980100  0.527900  1.0  -0.0729
  C  C262  1  0.740700  0.341490  0.374900  1.0  -0.077
  C  C263  1  0.396600  0.570000  0.432100  1.0  0.7022
  C  C264  1  0.450500  0.534400  0.467800  1.0  -0.1291
  C  C265  1  0.350200  0.514800  0.495800  1.0  -0.0794
  C  C266  1  0.398900  0.480100  0.527900  1.0  -0.0729
  C  C267  1  0.240700  0.841490  0.374900  1.0  -0.0756
  C  C268  1  0.396600  0.070000  0.932100  1.0  0.7022
  C  C269  1  0.450500  0.034400  0.967800  1.0  -0.1291
  C  C270  1  0.350200  0.014800  0.995800  1.0  -0.0794
  C  C271  1  0.398900  0.980100  0.027900  1.0  -0.0729
  C  C272  1  0.240700  0.341490  0.874900  1.0  -0.0756
  C  C273  1  0.125000  0.486000  0.625000  1.0  0.6957
  C  C274  1  0.125000  0.558200  0.625000  1.0  -0.1059
  C  C275  1  0.125000  0.986000  0.125000  1.0  0.6957
  C  C276  1  0.125000  0.058200  0.125000  1.0  -0.1059
  C  C277  1  0.625000  0.986000  0.625000  1.0  0.6957
  C  C278  1  0.625000  0.058200  0.625000  1.0  -0.1059
  C  C279  1  0.625000  0.264000  0.625000  1.0  0.6974
  C  C280  1  0.625000  0.191800  0.625000  1.0  -0.1062
  C  C281  1  0.625000  0.764000  0.125000  1.0  0.6974
  C  C282  1  0.625000  0.691800  0.125000  1.0  -0.1062
  C  C283  1  0.625000  0.486000  0.125000  1.0  0.6957
  C  C284  1  0.625000  0.558200  0.125000  1.0  -0.1059
  C  C285  1  0.125000  0.264000  0.125000  1.0  0.6974
  C  C286  1  0.125000  0.191800  0.125000  1.0  -0.1062
  C  C287  1  0.125000  0.764000  0.625000  1.0  0.6974
  C  C288  1  0.125000  0.691800  0.625000  1.0  -0.1062
  C  C289  1  0.875000  0.514000  0.375000  1.0  0.6974
  C  C290  1  0.875000  0.441800  0.375000  1.0  -0.1062
  C  C291  1  0.875000  0.014000  0.875000  1.0  0.6974
  C  C292  1  0.875000  0.941800  0.875000  1.0  -0.1062
  C  C293  1  0.375000  0.736000  0.375000  1.0  0.6957
  C  C294  1  0.375000  0.808200  0.375000  1.0  -0.1059
  C  C295  1  0.375000  0.236000  0.875000  1.0  0.6957
  C  C296  1  0.375000  0.308200  0.875000  1.0  -0.1059
  C  C297  1  0.375000  0.514000  0.875000  1.0  0.6974
  C  C298  1  0.375000  0.441800  0.875000  1.0  -0.1062
  C  C299  1  0.375000  0.014000  0.375000  1.0  0.6974
  C  C300  1  0.375000  0.941800  0.375000  1.0  -0.1062
  C  C301  1  0.875000  0.736000  0.875000  1.0  0.6957
  C  C302  1  0.875000  0.808200  0.875000  1.0  -0.1059
  C  C303  1  0.875000  0.236000  0.375000  1.0  0.6957
  C  C304  1  0.875000  0.308200  0.375000  1.0  -0.1059
  O  O305  1  0.242000  0.332600  0.679200  1.0  -0.6255
  O  O306  1  0.008100  0.335500  0.657000  1.0  -0.6822
  O  O307  1  0.244900  0.457500  0.634300  1.0  -0.6791
  O  O308  1  0.242000  0.832600  0.179200  1.0  -0.6255
  O  O309  1  0.008100  0.835500  0.157000  1.0  -0.6822
  O  O310  1  0.244900  0.957500  0.134300  1.0  -0.6791
  O  O311  1  0.742000  0.332600  0.179200  1.0  -0.6255
  O  O312  1  0.508100  0.335500  0.157000  1.0  -0.6822
  O  O313  1  0.744900  0.457500  0.134300  1.0  -0.6791
  O  O314  1  0.742000  0.832600  0.679200  1.0  -0.6255
  O  O315  1  0.508100  0.835500  0.657000  1.0  -0.6822
  O  O316  1  0.744900  0.957500  0.634300  1.0  -0.6791
  O  O317  1  0.508000  0.417400  0.679200  1.0  -0.6253
  O  O318  1  0.741900  0.414500  0.657000  1.0  -0.6816
  O  O319  1  0.505100  0.292500  0.634300  1.0  -0.6783
  O  O320  1  0.508000  0.917400  0.179200  1.0  -0.6253
  O  O321  1  0.741900  0.914500  0.157000  1.0  -0.6816
  O  O322  1  0.505100  0.792500  0.134300  1.0  -0.6783
  O  O323  1  0.008000  0.417400  0.179200  1.0  -0.6253
  O  O324  1  0.241900  0.414500  0.157000  1.0  -0.6816
  O  O325  1  0.005100  0.292500  0.134300  1.0  -0.6783
  O  O326  1  0.008000  0.917400  0.679200  1.0  -0.6253
  O  O327  1  0.241900  0.914500  0.657000  1.0  -0.6816
  O  O328  1  0.005100  0.792500  0.634300  1.0  -0.6783
  O  O329  1  0.508000  0.332600  0.070800  1.0  -0.6237
  O  O330  1  0.741900  0.335500  0.093000  1.0  -0.6818
  O  O331  1  0.505100  0.457500  0.115700  1.0  -0.6783
  O  O332  1  0.508000  0.832600  0.570800  1.0  -0.6237
  O  O333  1  0.741900  0.835500  0.593000  1.0  -0.6818
  O  O334  1  0.505100  0.957500  0.615700  1.0  -0.6783
  O  O335  1  0.008000  0.332600  0.570800  1.0  -0.6237
  O  O336  1  0.241900  0.335500  0.593000  1.0  -0.6818
  O  O337  1  0.005100  0.457500  0.615700  1.0  -0.6783
  O  O338  1  0.008000  0.832600  0.070800  1.0  -0.6237
  O  O339  1  0.241900  0.835500  0.093000  1.0  -0.6818
  O  O340  1  0.005100  0.957500  0.115700  1.0  -0.6783
  O  O341  1  0.242000  0.417400  0.070800  1.0  -0.6248
  O  O342  1  0.008100  0.414500  0.093000  1.0  -0.6814
  O  O343  1  0.244900  0.292500  0.115700  1.0  -0.6782
  O  O344  1  0.242000  0.917400  0.570800  1.0  -0.6248
  O  O345  1  0.008100  0.914500  0.593000  1.0  -0.6814
  O  O346  1  0.244900  0.792500  0.615700  1.0  -0.6782
  O  O347  1  0.742000  0.417400  0.570800  1.0  -0.6248
  O  O348  1  0.508100  0.414500  0.593000  1.0  -0.6814
  O  O349  1  0.744900  0.292500  0.615700  1.0  -0.6782
  O  O350  1  0.742000  0.917400  0.070800  1.0  -0.6248
  O  O351  1  0.508100  0.914500  0.093000  1.0  -0.6814
  O  O352  1  0.744900  0.792500  0.115700  1.0  -0.6782
  O  O353  1  0.758000  0.667400  0.320800  1.0  -0.6239
  O  O354  1  0.991900  0.664500  0.343000  1.0  -0.6814
  O  O355  1  0.755100  0.542500  0.365700  1.0  -0.6782
  O  O356  1  0.758000  0.167400  0.820800  1.0  -0.6239
  O  O357  1  0.991900  0.164500  0.843000  1.0  -0.6814
  O  O358  1  0.755100  0.042500  0.865700  1.0  -0.6782
  O  O359  1  0.258000  0.667400  0.820800  1.0  -0.6239
  O  O360  1  0.491900  0.664500  0.843000  1.0  -0.6814
  O  O361  1  0.255100  0.542500  0.865700  1.0  -0.6782
  O  O362  1  0.258000  0.167400  0.320800  1.0  -0.6239
  O  O363  1  0.491900  0.164500  0.343000  1.0  -0.6814
  O  O364  1  0.255100  0.042500  0.365700  1.0  -0.6782
  O  O365  1  0.492000  0.582600  0.320800  1.0  -0.6246
  O  O366  1  0.258100  0.585500  0.343000  1.0  -0.6819
  O  O367  1  0.494900  0.707500  0.365700  1.0  -0.6784
  O  O368  1  0.492000  0.082600  0.820800  1.0  -0.6246
  O  O369  1  0.258100  0.085500  0.843000  1.0  -0.6819
  O  O370  1  0.494900  0.207500  0.865700  1.0  -0.6784
  O  O371  1  0.992000  0.582600  0.820800  1.0  -0.6246
  O  O372  1  0.758100  0.585500  0.843000  1.0  -0.6819
  O  O373  1  0.994900  0.707500  0.865700  1.0  -0.6784
  O  O374  1  0.992000  0.082600  0.320800  1.0  -0.6246
  O  O375  1  0.758100  0.085500  0.343000  1.0  -0.6819
  O  O376  1  0.994900  0.207500  0.365700  1.0  -0.6784
  O  O377  1  0.492000  0.667400  0.929200  1.0  -0.626
  O  O378  1  0.258100  0.664500  0.907000  1.0  -0.6818
  O  O379  1  0.494900  0.542500  0.884300  1.0  -0.6785
  O  O380  1  0.492000  0.167400  0.429200  1.0  -0.626
  O  O381  1  0.258100  0.164500  0.407000  1.0  -0.6818
  O  O382  1  0.494900  0.042500  0.384300  1.0  -0.6785
  O  O383  1  0.992000  0.667400  0.429200  1.0  -0.626
  O  O384  1  0.758100  0.664500  0.407000  1.0  -0.6818
  O  O385  1  0.994900  0.542500  0.384300  1.0  -0.6785
  O  O386  1  0.992000  0.167400  0.929200  1.0  -0.626
  O  O387  1  0.758100  0.164500  0.907000  1.0  -0.6818
  O  O388  1  0.994900  0.042500  0.884300  1.0  -0.6785
  O  O389  1  0.758000  0.582600  0.929200  1.0  -0.6246
  O  O390  1  0.991900  0.585500  0.907000  1.0  -0.6822
  O  O391  1  0.755100  0.707500  0.884300  1.0  -0.679
  O  O392  1  0.758000  0.082600  0.429200  1.0  -0.6246
  O  O393  1  0.991900  0.085500  0.407000  1.0  -0.6822
  O  O394  1  0.755100  0.207500  0.384300  1.0  -0.679
  O  O395  1  0.258000  0.582600  0.429200  1.0  -0.6246
  O  O396  1  0.491900  0.585500  0.407000  1.0  -0.6822
  O  O397  1  0.255100  0.707500  0.384300  1.0  -0.679
  O  O398  1  0.258000  0.082600  0.929200  1.0  -0.6246
  O  O399  1  0.491900  0.085500  0.907000  1.0  -0.6822
  O  O400  1  0.255100  0.207500  0.884300  1.0  -0.679
