# generated using pymatgen
data_ScH6(C2O)6
_symmetry_space_group_name_H-M   'P 1'
_cell_length_a   8.80410000
_cell_length_b   20.62500000
_cell_length_c   34.06200000
_cell_angle_alpha   90.00000000
_cell_angle_beta   90.00000000
_cell_angle_gamma   90.00000000
_symmetry_Int_Tables_number   1
_chemical_formula_structural   ScH6(C2O)6
_chemical_formula_sum   'Sc16 H96 C192 O96'
_cell_volume   6185.13336787
_cell_formula_units_Z   16
loop_
 _symmetry_equiv_pos_site_id
 _symmetry_equiv_pos_as_xyz
  1  'x, y, z'
loop_
 _atom_site_type_symbol
 _atom_site_label
 _atom_site_symmetry_multiplicity
 _atom_site_fract_x
 _atom_site_fract_y
 _atom_site_fract_z
 _atom_site_occupancy
 _atom_site_charge
  Sc  Sc1  1  0.375000  0.375000  0.635090  1.0  2.0797
  Sc  Sc2  1  0.375000  0.875000  0.135090  1.0  2.0797
  Sc  Sc3  1  0.875000  0.375000  0.135090  1.0  2.0797
  Sc  Sc4  1  0.875000  0.875000  0.635090  1.0  2.0797
  Sc  Sc5  1  0.375000  0.375000  0.114910  1.0  2.0787
  Sc  Sc6  1  0.375000  0.875000  0.614910  1.0  2.0787
  Sc  Sc7  1  0.875000  0.375000  0.614910  1.0  2.0787
  Sc  Sc8  1  0.875000  0.875000  0.114910  1.0  2.0787
  Sc  Sc9  1  0.625000  0.625000  0.364910  1.0  2.0787
  Sc  Sc10  1  0.625000  0.125000  0.864910  1.0  2.0787
  Sc  Sc11  1  0.125000  0.625000  0.864910  1.0  2.0787
  Sc  Sc12  1  0.125000  0.125000  0.364910  1.0  2.0787
  Sc  Sc13  1  0.625000  0.625000  0.885090  1.0  2.0797
  Sc  Sc14  1  0.625000  0.125000  0.385090  1.0  2.0797
  Sc  Sc15  1  0.125000  0.625000  0.385090  1.0  2.0797
  Sc  Sc16  1  0.125000  0.125000  0.885090  1.0  2.0797
  H  H17  1  0.254100  0.276900  0.743600  1.0  0.1077
  H  H18  1  0.172700  0.215300  0.796700  1.0  0.0875
  H  H19  1  0.352700  0.568800  0.625700  1.0  0.1046
  H  H20  1  0.254100  0.776900  0.243600  1.0  0.1077
  H  H21  1  0.172700  0.715300  0.296700  1.0  0.0875
  H  H22  1  0.352700  0.068800  0.125700  1.0  0.1046
  H  H23  1  0.754100  0.276900  0.243600  1.0  0.1077
  H  H24  1  0.672700  0.215300  0.296700  1.0  0.0875
  H  H25  1  0.852700  0.568800  0.125700  1.0  0.1046
  H  H26  1  0.754100  0.776900  0.743600  1.0  0.1077
  H  H27  1  0.672700  0.715300  0.796700  1.0  0.0875
  H  H28  1  0.852700  0.068800  0.625700  1.0  0.1046
  H  H29  1  0.495900  0.473100  0.743600  1.0  0.1088
  H  H30  1  0.577300  0.534700  0.796700  1.0  0.0878
  H  H31  1  0.397300  0.181200  0.625700  1.0  0.1038
  H  H32  1  0.495900  0.973100  0.243600  1.0  0.1088
  H  H33  1  0.577300  0.034700  0.296700  1.0  0.0878
  H  H34  1  0.397300  0.681200  0.125700  1.0  0.1038
  H  H35  1  0.995900  0.473100  0.243600  1.0  0.1088
  H  H36  1  0.077300  0.534700  0.296700  1.0  0.0878
  H  H37  1  0.897300  0.181200  0.125700  1.0  0.1038
  H  H38  1  0.995900  0.973100  0.743600  1.0  0.1088
  H  H39  1  0.077300  0.034700  0.796700  1.0  0.0878
  H  H40  1  0.897300  0.681200  0.625700  1.0  0.1038
  H  H41  1  0.495900  0.276900  0.006400  1.0  0.1088
  H  H42  1  0.577300  0.215300  0.953300  1.0  0.0878
  H  H43  1  0.397300  0.568800  0.124300  1.0  0.1039
  H  H44  1  0.495900  0.776900  0.506400  1.0  0.1088
  H  H45  1  0.577300  0.715300  0.453300  1.0  0.0878
  H  H46  1  0.397300  0.068800  0.624300  1.0  0.1039
  H  H47  1  0.995900  0.276900  0.506400  1.0  0.1088
  H  H48  1  0.077300  0.215300  0.453300  1.0  0.0878
  H  H49  1  0.897300  0.568800  0.624300  1.0  0.1039
  H  H50  1  0.995900  0.776900  0.006400  1.0  0.1088
  H  H51  1  0.077300  0.715300  0.953300  1.0  0.0878
  H  H52  1  0.897300  0.068800  0.124300  1.0  0.1039
  H  H53  1  0.254100  0.473100  0.006400  1.0  0.1079
  H  H54  1  0.172700  0.534700  0.953300  1.0  0.088
  H  H55  1  0.352700  0.181200  0.124300  1.0  0.1044
  H  H56  1  0.254100  0.973100  0.506400  1.0  0.1079
  H  H57  1  0.172700  0.034700  0.453300  1.0  0.088
  H  H58  1  0.352700  0.681200  0.624300  1.0  0.1044
  H  H59  1  0.754100  0.473100  0.506400  1.0  0.1079
  H  H60  1  0.672700  0.534700  0.453300  1.0  0.088
  H  H61  1  0.852700  0.181200  0.624300  1.0  0.1044
  H  H62  1  0.754100  0.973100  0.006400  1.0  0.1079
  H  H63  1  0.672700  0.034700  0.953300  1.0  0.088
  H  H64  1  0.852700  0.681200  0.124300  1.0  0.1044
  H  H65  1  0.745900  0.723100  0.256400  1.0  0.1089
  H  H66  1  0.827300  0.784700  0.203300  1.0  0.088
  H  H67  1  0.647300  0.431200  0.374300  1.0  0.1036
  H  H68  1  0.745900  0.223100  0.756400  1.0  0.1089
  H  H69  1  0.827300  0.284700  0.703300  1.0  0.088
  H  H70  1  0.647300  0.931200  0.874300  1.0  0.1036
  H  H71  1  0.245900  0.723100  0.756400  1.0  0.1089
  H  H72  1  0.327300  0.784700  0.703300  1.0  0.088
  H  H73  1  0.147300  0.431200  0.874300  1.0  0.1036
  H  H74  1  0.245900  0.223100  0.256400  1.0  0.1089
  H  H75  1  0.327300  0.284700  0.203300  1.0  0.088
  H  H76  1  0.147300  0.931200  0.374300  1.0  0.1036
  H  H77  1  0.504100  0.526900  0.256400  1.0  0.1077
  H  H78  1  0.422700  0.465300  0.203300  1.0  0.0879
  H  H79  1  0.602700  0.818800  0.374300  1.0  0.1045
  H  H80  1  0.504100  0.026900  0.756400  1.0  0.1077
  H  H81  1  0.422700  0.965300  0.703300  1.0  0.0879
  H  H82  1  0.602700  0.318800  0.874300  1.0  0.1045
  H  H83  1  0.004100  0.526900  0.756400  1.0  0.1077
  H  H84  1  0.922700  0.465300  0.703300  1.0  0.0879
  H  H85  1  0.102700  0.818800  0.874300  1.0  0.1045
  H  H86  1  0.004100  0.026900  0.256400  1.0  0.1077
  H  H87  1  0.922700  0.965300  0.203300  1.0  0.0879
  H  H88  1  0.102700  0.318800  0.374300  1.0  0.1045
  H  H89  1  0.504100  0.723100  0.993600  1.0  0.1079
  H  H90  1  0.422700  0.784700  0.046700  1.0  0.0878
  H  H91  1  0.602700  0.431200  0.875700  1.0  0.1044
  H  H92  1  0.504100  0.223100  0.493600  1.0  0.1079
  H  H93  1  0.422700  0.284700  0.546700  1.0  0.0878
  H  H94  1  0.602700  0.931200  0.375700  1.0  0.1044
  H  H95  1  0.004100  0.723100  0.493600  1.0  0.1079
  H  H96  1  0.922700  0.784700  0.546700  1.0  0.0878
  H  H97  1  0.102700  0.431200  0.375700  1.0  0.1044
  H  H98  1  0.004100  0.223100  0.993600  1.0  0.1079
  H  H99  1  0.922700  0.284700  0.046700  1.0  0.0878
  H  H100  1  0.102700  0.931200  0.875700  1.0  0.1044
  H  H101  1  0.745900  0.526900  0.993600  1.0  0.1087
  H  H102  1  0.827300  0.465300  0.046700  1.0  0.0874
  H  H103  1  0.647300  0.818800  0.875700  1.0  0.1042
  H  H104  1  0.745900  0.026900  0.493600  1.0  0.1087
  H  H105  1  0.827300  0.965300  0.546700  1.0  0.0874
  H  H106  1  0.647300  0.318800  0.375700  1.0  0.1042
  H  H107  1  0.245900  0.526900  0.493600  1.0  0.1087
  H  H108  1  0.327300  0.465300  0.546700  1.0  0.0874
  H  H109  1  0.147300  0.818800  0.375700  1.0  0.1042
  H  H110  1  0.245900  0.026900  0.993600  1.0  0.1087
  H  H111  1  0.327300  0.965300  0.046700  1.0  0.0874
  H  H112  1  0.147300  0.318800  0.875700  1.0  0.1042
  C  C113  1  0.104600  0.319900  0.681900  1.0  0.7139
  C  C114  1  0.050200  0.283900  0.717600  1.0  -0.1286
  C  C115  1  0.150400  0.266100  0.746200  1.0  -0.0846
  C  C116  1  0.101600  0.229700  0.777800  1.0  -0.0518
  C  C117  1  0.259800  0.591600  0.624400  1.0  -0.0769
  C  C118  1  0.104600  0.819900  0.181900  1.0  0.7139
  C  C119  1  0.050200  0.783900  0.217600  1.0  -0.1286
  C  C120  1  0.150400  0.766100  0.246200  1.0  -0.0846
  C  C121  1  0.101600  0.729700  0.277800  1.0  -0.0518
  C  C122  1  0.259800  0.091600  0.124400  1.0  -0.0769
  C  C123  1  0.604600  0.319900  0.181900  1.0  0.7139
  C  C124  1  0.550200  0.283900  0.217600  1.0  -0.1286
  C  C125  1  0.650400  0.266100  0.246200  1.0  -0.0846
  C  C126  1  0.601600  0.229700  0.277800  1.0  -0.0518
  C  C127  1  0.759800  0.591600  0.124400  1.0  -0.0768
  C  C128  1  0.604600  0.819900  0.681900  1.0  0.7139
  C  C129  1  0.550200  0.783900  0.717600  1.0  -0.1286
  C  C130  1  0.650400  0.766100  0.746200  1.0  -0.0846
  C  C131  1  0.601600  0.729700  0.777800  1.0  -0.0518
  C  C132  1  0.759800  0.091600  0.624400  1.0  -0.0769
  C  C133  1  0.645400  0.430100  0.681900  1.0  0.713
  C  C134  1  0.699800  0.466100  0.717600  1.0  -0.1308
  C  C135  1  0.599600  0.483900  0.746200  1.0  -0.0857
  C  C136  1  0.648400  0.520300  0.777800  1.0  -0.0516
  C  C137  1  0.490200  0.158400  0.624400  1.0  -0.0795
  C  C138  1  0.645400  0.930100  0.181900  1.0  0.713
  C  C139  1  0.699800  0.966100  0.217600  1.0  -0.1308
  C  C140  1  0.599600  0.983900  0.246200  1.0  -0.0857
  C  C141  1  0.648400  0.020300  0.277800  1.0  -0.0516
  C  C142  1  0.490200  0.658400  0.124400  1.0  -0.0772
  C  C143  1  0.145400  0.430100  0.181900  1.0  0.713
  C  C144  1  0.199800  0.466100  0.217600  1.0  -0.1308
  C  C145  1  0.099600  0.483900  0.246200  1.0  -0.0857
  C  C146  1  0.148400  0.520300  0.277800  1.0  -0.0516
  C  C147  1  0.990200  0.158400  0.124400  1.0  -0.0795
  C  C148  1  0.145400  0.930100  0.681900  1.0  0.713
  C  C149  1  0.199800  0.966100  0.717600  1.0  -0.1308
  C  C150  1  0.099600  0.983900  0.746200  1.0  -0.0857
  C  C151  1  0.148400  0.020300  0.777800  1.0  -0.0516
  C  C152  1  0.990200  0.658400  0.624400  1.0  -0.0795
  C  C153  1  0.645400  0.319900  0.068100  1.0  0.7143
  C  C154  1  0.699800  0.283900  0.032400  1.0  -0.1296
  C  C155  1  0.599600  0.266100  0.003800  1.0  -0.0854
  C  C156  1  0.648400  0.229700  0.972200  1.0  -0.0516
  C  C157  1  0.490200  0.591600  0.125600  1.0  -0.0771
  C  C158  1  0.645400  0.819900  0.568100  1.0  0.7143
  C  C159  1  0.699800  0.783900  0.532400  1.0  -0.1296
  C  C160  1  0.599600  0.766100  0.503800  1.0  -0.0854
  C  C161  1  0.648400  0.729700  0.472200  1.0  -0.0516
  C  C162  1  0.490200  0.091600  0.625600  1.0  -0.0772
  C  C163  1  0.145400  0.319900  0.568100  1.0  0.7143
  C  C164  1  0.199800  0.283900  0.532400  1.0  -0.1296
  C  C165  1  0.099600  0.266100  0.503800  1.0  -0.0854
  C  C166  1  0.148400  0.229700  0.472200  1.0  -0.0516
  C  C167  1  0.990200  0.591600  0.625600  1.0  -0.0772
  C  C168  1  0.145400  0.819900  0.068100  1.0  0.7143
  C  C169  1  0.199800  0.783900  0.032400  1.0  -0.1296
  C  C170  1  0.099600  0.766100  0.003800  1.0  -0.0854
  C  C171  1  0.148400  0.729700  0.972200  1.0  -0.0516
  C  C172  1  0.990200  0.091600  0.125600  1.0  -0.0772
  C  C173  1  0.104600  0.430100  0.068100  1.0  0.714
  C  C174  1  0.050200  0.466100  0.032400  1.0  -0.1297
  C  C175  1  0.150400  0.483900  0.003800  1.0  -0.0845
  C  C176  1  0.101600  0.520300  0.972200  1.0  -0.0515
  C  C177  1  0.259800  0.158400  0.125600  1.0  -0.0776
  C  C178  1  0.104600  0.930100  0.568100  1.0  0.714
  C  C179  1  0.050200  0.966100  0.532400  1.0  -0.1297
  C  C180  1  0.150400  0.983900  0.503800  1.0  -0.0845
  C  C181  1  0.101600  0.020300  0.472200  1.0  -0.0515
  C  C182  1  0.259800  0.658400  0.625600  1.0  -0.0776
  C  C183  1  0.604600  0.430100  0.568100  1.0  0.714
  C  C184  1  0.550200  0.466100  0.532400  1.0  -0.1297
  C  C185  1  0.650400  0.483900  0.503800  1.0  -0.0845
  C  C186  1  0.601600  0.520300  0.472200  1.0  -0.0515
  C  C187  1  0.759800  0.158400  0.625600  1.0  -0.0776
  C  C188  1  0.604600  0.930100  0.068100  1.0  0.714
  C  C189  1  0.550200  0.966100  0.032400  1.0  -0.1297
  C  C190  1  0.650400  0.983900  0.003800  1.0  -0.0845
  C  C191  1  0.601600  0.020300  0.972200  1.0  -0.0515
  C  C192  1  0.759800  0.658400  0.125600  1.0  -0.0765
  C  C193  1  0.895400  0.680100  0.318100  1.0  0.7139
  C  C194  1  0.949800  0.716100  0.282400  1.0  -0.1297
  C  C195  1  0.849600  0.733900  0.253800  1.0  -0.0856
  C  C196  1  0.898400  0.770300  0.222200  1.0  -0.0512
  C  C197  1  0.740200  0.408400  0.375600  1.0  -0.0775
  C  C198  1  0.895400  0.180100  0.818100  1.0  0.7139
  C  C199  1  0.949800  0.216100  0.782400  1.0  -0.1297
  C  C200  1  0.849600  0.233900  0.753800  1.0  -0.0856
  C  C201  1  0.898400  0.270300  0.722200  1.0  -0.0512
  C  C202  1  0.740200  0.908400  0.875600  1.0  -0.0775
  C  C203  1  0.395400  0.680100  0.818100  1.0  0.7139
  C  C204  1  0.449800  0.716100  0.782400  1.0  -0.1297
  C  C205  1  0.349600  0.733900  0.753800  1.0  -0.0856
  C  C206  1  0.398400  0.770300  0.722200  1.0  -0.0512
  C  C207  1  0.240200  0.408400  0.875600  1.0  -0.0774
  C  C208  1  0.395400  0.180100  0.318100  1.0  0.7139
  C  C209  1  0.449800  0.216100  0.282400  1.0  -0.1297
  C  C210  1  0.349600  0.233900  0.253800  1.0  -0.0856
  C  C211  1  0.398400  0.270300  0.222200  1.0  -0.0512
  C  C212  1  0.240200  0.908400  0.375600  1.0  -0.0774
  C  C213  1  0.354600  0.569900  0.318100  1.0  0.715
  C  C214  1  0.300200  0.533900  0.282400  1.0  -0.1294
  C  C215  1  0.400400  0.516100  0.253800  1.0  -0.0843
  C  C216  1  0.351600  0.479700  0.222200  1.0  -0.0519
  C  C217  1  0.509800  0.841600  0.375600  1.0  -0.0765
  C  C218  1  0.354600  0.069900  0.818100  1.0  0.715
  C  C219  1  0.300200  0.033900  0.782400  1.0  -0.1294
  C  C220  1  0.400400  0.016100  0.753800  1.0  -0.0843
  C  C221  1  0.351600  0.979700  0.722200  1.0  -0.0519
  C  C222  1  0.509800  0.341600  0.875600  1.0  -0.0765
  C  C223  1  0.854600  0.569900  0.818100  1.0  0.715
  C  C224  1  0.800200  0.533900  0.782400  1.0  -0.1294
  C  C225  1  0.900400  0.516100  0.753800  1.0  -0.0843
  C  C226  1  0.851600  0.479700  0.722200  1.0  -0.0519
  C  C227  1  0.009800  0.841600  0.875600  1.0  -0.0786
  C  C228  1  0.854600  0.069900  0.318100  1.0  0.715
  C  C229  1  0.800200  0.033900  0.282400  1.0  -0.1294
  C  C230  1  0.900400  0.016100  0.253800  1.0  -0.0843
  C  C231  1  0.851600  0.979700  0.222200  1.0  -0.0519
  C  C232  1  0.009800  0.341600  0.375600  1.0  -0.0786
  C  C233  1  0.354600  0.680100  0.931900  1.0  0.7132
  C  C234  1  0.300200  0.716100  0.967600  1.0  -0.1291
  C  C235  1  0.400400  0.733900  0.996200  1.0  -0.0847
  C  C236  1  0.351600  0.770300  0.027800  1.0  -0.0517
  C  C237  1  0.509800  0.408400  0.874400  1.0  -0.0766
  C  C238  1  0.354600  0.180100  0.431900  1.0  0.7132
  C  C239  1  0.300200  0.216100  0.467600  1.0  -0.1291
  C  C240  1  0.400400  0.233900  0.496200  1.0  -0.0847
  C  C241  1  0.351600  0.270300  0.527800  1.0  -0.0517
  C  C242  1  0.509800  0.908400  0.374400  1.0  -0.0766
  C  C243  1  0.854600  0.680100  0.431900  1.0  0.7132
  C  C244  1  0.800200  0.716100  0.467600  1.0  -0.1291
  C  C245  1  0.900400  0.733900  0.496200  1.0  -0.0847
  C  C246  1  0.851600  0.770300  0.527800  1.0  -0.0517
  C  C247  1  0.009800  0.408400  0.374400  1.0  -0.0768
  C  C248  1  0.854600  0.180100  0.931900  1.0  0.7132
  C  C249  1  0.800200  0.216100  0.967600  1.0  -0.1291
  C  C250  1  0.900400  0.233900  0.996200  1.0  -0.0847
  C  C251  1  0.851600  0.270300  0.027800  1.0  -0.0517
  C  C252  1  0.009800  0.908400  0.874400  1.0  -0.0768
  C  C253  1  0.895400  0.569900  0.931900  1.0  0.7142
  C  C254  1  0.949800  0.533900  0.967600  1.0  -0.1304
  C  C255  1  0.849600  0.516100  0.996200  1.0  -0.0854
  C  C256  1  0.898400  0.479700  0.027800  1.0  -0.0514
  C  C257  1  0.740200  0.841600  0.874400  1.0  -0.0785
  C  C258  1  0.895400  0.069900  0.431900  1.0  0.7142
  C  C259  1  0.949800  0.033900  0.467600  1.0  -0.1304
  C  C260  1  0.849600  0.016100  0.496200  1.0  -0.0854
  C  C261  1  0.898400  0.979700  0.527800  1.0  -0.0514
  C  C262  1  0.740200  0.341600  0.374400  1.0  -0.0785
  C  C263  1  0.395400  0.569900  0.431900  1.0  0.7142
  C  C264  1  0.449800  0.533900  0.467600  1.0  -0.1304
  C  C265  1  0.349600  0.516100  0.496200  1.0  -0.0854
  C  C266  1  0.398400  0.479700  0.527800  1.0  -0.0514
  C  C267  1  0.240200  0.841600  0.374400  1.0  -0.0771
  C  C268  1  0.395400  0.069900  0.931900  1.0  0.7142
  C  C269  1  0.449800  0.033900  0.967600  1.0  -0.1304
  C  C270  1  0.349600  0.016100  0.996200  1.0  -0.0854
  C  C271  1  0.398400  0.979700  0.027800  1.0  -0.0514
  C  C272  1  0.240200  0.341600  0.874400  1.0  -0.0771
  C  C273  1  0.125000  0.486400  0.625000  1.0  0.6916
  C  C274  1  0.125000  0.558300  0.625000  1.0  -0.1111
  C  C275  1  0.125000  0.986400  0.125000  1.0  0.6916
  C  C276  1  0.125000  0.058300  0.125000  1.0  -0.1111
  C  C277  1  0.625000  0.986400  0.625000  1.0  0.6916
  C  C278  1  0.625000  0.058300  0.625000  1.0  -0.1111
  C  C279  1  0.625000  0.263600  0.625000  1.0  0.6935
  C  C280  1  0.625000  0.191700  0.625000  1.0  -0.1117
  C  C281  1  0.625000  0.763600  0.125000  1.0  0.6935
  C  C282  1  0.625000  0.691700  0.125000  1.0  -0.1117
  C  C283  1  0.625000  0.486400  0.125000  1.0  0.6916
  C  C284  1  0.625000  0.558300  0.125000  1.0  -0.1111
  C  C285  1  0.125000  0.263600  0.125000  1.0  0.6935
  C  C286  1  0.125000  0.191700  0.125000  1.0  -0.1117
  C  C287  1  0.125000  0.763600  0.625000  1.0  0.6935
  C  C288  1  0.125000  0.691700  0.625000  1.0  -0.1117
  C  C289  1  0.875000  0.513600  0.375000  1.0  0.6935
  C  C290  1  0.875000  0.441700  0.375000  1.0  -0.1117
  C  C291  1  0.875000  0.013600  0.875000  1.0  0.6935
  C  C292  1  0.875000  0.941700  0.875000  1.0  -0.1117
  C  C293  1  0.375000  0.736400  0.375000  1.0  0.6916
  C  C294  1  0.375000  0.808300  0.375000  1.0  -0.1111
  C  C295  1  0.375000  0.236400  0.875000  1.0  0.6916
  C  C296  1  0.375000  0.308300  0.875000  1.0  -0.1111
  C  C297  1  0.375000  0.513600  0.875000  1.0  0.6935
  C  C298  1  0.375000  0.441700  0.875000  1.0  -0.1117
  C  C299  1  0.375000  0.013600  0.375000  1.0  0.6935
  C  C300  1  0.375000  0.941700  0.375000  1.0  -0.1117
  C  C301  1  0.875000  0.736400  0.875000  1.0  0.6916
  C  C302  1  0.875000  0.808300  0.875000  1.0  -0.1111
  C  C303  1  0.875000  0.236400  0.375000  1.0  0.6916
  C  C304  1  0.875000  0.308300  0.375000  1.0  -0.1111
  O  O305  1  0.244500  0.331900  0.678800  1.0  -0.6385
  O  O306  1  0.007700  0.336400  0.657100  1.0  -0.6941
  O  O307  1  0.245500  0.458100  0.634500  1.0  -0.6694
  O  O308  1  0.244500  0.831900  0.178800  1.0  -0.6385
  O  O309  1  0.007700  0.836400  0.157100  1.0  -0.6941
  O  O310  1  0.245500  0.958100  0.134500  1.0  -0.6694
  O  O311  1  0.744500  0.331900  0.178800  1.0  -0.6385
  O  O312  1  0.507700  0.336400  0.157100  1.0  -0.6941
  O  O313  1  0.745500  0.458100  0.134500  1.0  -0.6694
  O  O314  1  0.744500  0.831900  0.678800  1.0  -0.6385
  O  O315  1  0.507700  0.836400  0.657100  1.0  -0.6941
  O  O316  1  0.745500  0.958100  0.634500  1.0  -0.6694
  O  O317  1  0.505500  0.418100  0.678800  1.0  -0.6381
  O  O318  1  0.742300  0.413600  0.657100  1.0  -0.6933
  O  O319  1  0.504500  0.291900  0.634500  1.0  -0.6691
  O  O320  1  0.505500  0.918100  0.178800  1.0  -0.6381
  O  O321  1  0.742300  0.913600  0.157100  1.0  -0.6933
  O  O322  1  0.504500  0.791900  0.134500  1.0  -0.6691
  O  O323  1  0.005500  0.418100  0.178800  1.0  -0.6381
  O  O324  1  0.242300  0.413600  0.157100  1.0  -0.6933
  O  O325  1  0.004500  0.291900  0.134500  1.0  -0.6691
  O  O326  1  0.005500  0.918100  0.678800  1.0  -0.6381
  O  O327  1  0.242300  0.913600  0.657100  1.0  -0.6933
  O  O328  1  0.004500  0.791900  0.634500  1.0  -0.6691
  O  O329  1  0.505500  0.331900  0.071200  1.0  -0.6369
  O  O330  1  0.742300  0.336400  0.092900  1.0  -0.6936
  O  O331  1  0.504500  0.458100  0.115500  1.0  -0.6691
  O  O332  1  0.505500  0.831900  0.571200  1.0  -0.6369
  O  O333  1  0.742300  0.836400  0.592900  1.0  -0.6936
  O  O334  1  0.504500  0.958100  0.615500  1.0  -0.6691
  O  O335  1  0.005500  0.331900  0.571200  1.0  -0.6369
  O  O336  1  0.242300  0.336400  0.592900  1.0  -0.6936
  O  O337  1  0.004500  0.458100  0.615500  1.0  -0.6691
  O  O338  1  0.005500  0.831900  0.071200  1.0  -0.6369
  O  O339  1  0.242300  0.836400  0.092900  1.0  -0.6936
  O  O340  1  0.004500  0.958100  0.115500  1.0  -0.6691
  O  O341  1  0.244500  0.418100  0.071200  1.0  -0.6375
  O  O342  1  0.007700  0.413600  0.092900  1.0  -0.6932
  O  O343  1  0.245500  0.291900  0.115500  1.0  -0.6695
  O  O344  1  0.244500  0.918100  0.571200  1.0  -0.6375
  O  O345  1  0.007700  0.913600  0.592900  1.0  -0.6932
  O  O346  1  0.245500  0.791900  0.615500  1.0  -0.6695
  O  O347  1  0.744500  0.418100  0.571200  1.0  -0.6375
  O  O348  1  0.507700  0.413600  0.592900  1.0  -0.6932
  O  O349  1  0.745500  0.291900  0.615500  1.0  -0.6695
  O  O350  1  0.744500  0.918100  0.071200  1.0  -0.6375
  O  O351  1  0.507700  0.913600  0.092900  1.0  -0.6932
  O  O352  1  0.745500  0.791900  0.115500  1.0  -0.6695
  O  O353  1  0.755500  0.668100  0.321200  1.0  -0.6366
  O  O354  1  0.992300  0.663600  0.342900  1.0  -0.6932
  O  O355  1  0.754500  0.541900  0.365500  1.0  -0.6694
  O  O356  1  0.755500  0.168100  0.821200  1.0  -0.6366
  O  O357  1  0.992300  0.163600  0.842900  1.0  -0.6932
  O  O358  1  0.754500  0.041900  0.865500  1.0  -0.6694
  O  O359  1  0.255500  0.668100  0.821200  1.0  -0.6366
  O  O360  1  0.492300  0.663600  0.842900  1.0  -0.6932
  O  O361  1  0.254500  0.541900  0.865500  1.0  -0.6694
  O  O362  1  0.255500  0.168100  0.321200  1.0  -0.6366
  O  O363  1  0.492300  0.163600  0.342900  1.0  -0.6932
  O  O364  1  0.254500  0.041900  0.365500  1.0  -0.6694
  O  O365  1  0.494500  0.581900  0.321200  1.0  -0.6378
  O  O366  1  0.257700  0.586400  0.342900  1.0  -0.6938
  O  O367  1  0.495500  0.708100  0.365500  1.0  -0.6691
  O  O368  1  0.494500  0.081900  0.821200  1.0  -0.6378
  O  O369  1  0.257700  0.086400  0.842900  1.0  -0.6938
  O  O370  1  0.495500  0.208100  0.865500  1.0  -0.6691
  O  O371  1  0.994500  0.581900  0.821200  1.0  -0.6378
  O  O372  1  0.757700  0.586400  0.842900  1.0  -0.6938
  O  O373  1  0.995500  0.708100  0.865500  1.0  -0.6691
  O  O374  1  0.994500  0.081900  0.321200  1.0  -0.6378
  O  O375  1  0.757700  0.086400  0.342900  1.0  -0.6938
  O  O376  1  0.995500  0.208100  0.365500  1.0  -0.6691
  O  O377  1  0.494500  0.668100  0.928800  1.0  -0.6387
  O  O378  1  0.257700  0.663600  0.907100  1.0  -0.6936
  O  O379  1  0.495500  0.541900  0.884500  1.0  -0.6691
  O  O380  1  0.494500  0.168100  0.428800  1.0  -0.6387
  O  O381  1  0.257700  0.163600  0.407100  1.0  -0.6936
  O  O382  1  0.495500  0.041900  0.384500  1.0  -0.6691
  O  O383  1  0.994500  0.668100  0.428800  1.0  -0.6387
  O  O384  1  0.757700  0.663600  0.407100  1.0  -0.6936
  O  O385  1  0.995500  0.541900  0.384500  1.0  -0.6691
  O  O386  1  0.994500  0.168100  0.928800  1.0  -0.6387
  O  O387  1  0.757700  0.163600  0.907100  1.0  -0.6936
  O  O388  1  0.995500  0.041900  0.884500  1.0  -0.6691
  O  O389  1  0.755500  0.581900  0.928800  1.0  -0.6378
  O  O390  1  0.992300  0.586400  0.907100  1.0  -0.6939
  O  O391  1  0.754500  0.708100  0.884500  1.0  -0.6694
  O  O392  1  0.755500  0.081900  0.428800  1.0  -0.6378
  O  O393  1  0.992300  0.086400  0.407100  1.0  -0.6939
  O  O394  1  0.754500  0.208100  0.384500  1.0  -0.6694
  O  O395  1  0.255500  0.581900  0.428800  1.0  -0.6378
  O  O396  1  0.492300  0.586400  0.407100  1.0  -0.6939
  O  O397  1  0.254500  0.708100  0.384500  1.0  -0.6694
  O  O398  1  0.255500  0.081900  0.928800  1.0  -0.6378
  O  O399  1  0.492300  0.086400  0.907100  1.0  -0.6939
  O  O400  1  0.254500  0.208100  0.884500  1.0  -0.6694
