# generated using pymatgen
data_Co2H7C9(NO)4
_symmetry_space_group_name_H-M   'P 1'
_cell_length_a   16.44400000
_cell_length_b   16.44400000
_cell_length_c   14.17800000
_cell_angle_alpha   90.00000000
_cell_angle_beta   90.00000000
_cell_angle_gamma   90.00000000
_symmetry_Int_Tables_number   1
_chemical_formula_structural   Co2H7C9(NO)4
_chemical_formula_sum   'Co16 H56 C72 N32 O32'
_cell_volume   3833.80401821
_cell_formula_units_Z   8
loop_
 _symmetry_equiv_pos_site_id
 _symmetry_equiv_pos_as_xyz
  1  'x, y, z'
loop_
 _atom_site_type_symbol
 _atom_site_label
 _atom_site_symmetry_multiplicity
 _atom_site_fract_x
 _atom_site_fract_y
 _atom_site_fract_z
 _atom_site_occupancy
 _atom_site_charge
  Co  Co1  1  0.669500  0.346300  0.607300  1.0  0.9939
  Co  Co2  1  0.169500  0.846300  0.107300  1.0  0.9939
  Co  Co3  1  0.330500  0.653700  0.607300  1.0  0.9939
  Co  Co4  1  0.830500  0.153700  0.107300  1.0  0.9939
  Co  Co5  1  0.653700  0.669500  0.607300  1.0  0.9954
  Co  Co6  1  0.153700  0.169500  0.107300  1.0  0.9954
  Co  Co7  1  0.346300  0.330500  0.607300  1.0  0.9922
  Co  Co8  1  0.846300  0.830500  0.107300  1.0  0.9922
  Co  Co9  1  0.330500  0.653700  0.392700  1.0  0.9952
  Co  Co10  1  0.830500  0.153700  0.892700  1.0  0.9952
  Co  Co11  1  0.669500  0.346300  0.392700  1.0  0.9959
  Co  Co12  1  0.169500  0.846300  0.892700  1.0  0.9959
  Co  Co13  1  0.346300  0.330500  0.392700  1.0  0.9938
  Co  Co14  1  0.846300  0.830500  0.892700  1.0  0.9938
  Co  Co15  1  0.653700  0.669500  0.392700  1.0  0.9973
  Co  Co16  1  0.153700  0.169500  0.892700  1.0  0.9973
  H  H17  1  0.897000  0.458000  0.175000  1.0  0.0796
  H  H18  1  0.798000  0.470000  0.291000  1.0  0.0658
  H  H19  1  0.910300  0.336900  0.091000  1.0  0.0755
  H  H20  1  0.397000  0.958000  0.675000  1.0  0.0796
  H  H21  1  0.298000  0.970000  0.791000  1.0  0.0658
  H  H22  1  0.410300  0.836900  0.591000  1.0  0.0755
  H  H23  1  0.103000  0.542000  0.175000  1.0  0.0791
  H  H24  1  0.202000  0.530000  0.291000  1.0  0.0658
  H  H25  1  0.089700  0.663100  0.091000  1.0  0.0757
  H  H26  1  0.603000  0.042000  0.675000  1.0  0.0791
  H  H27  1  0.702000  0.030000  0.791000  1.0  0.0658
  H  H28  1  0.589700  0.163100  0.591000  1.0  0.0757
  H  H29  1  0.542000  0.897000  0.175000  1.0  0.079
  H  H30  1  0.530000  0.798000  0.291000  1.0  0.0659
  H  H31  1  0.663100  0.910300  0.091000  1.0  0.0741
  H  H32  1  0.042000  0.397000  0.675000  1.0  0.079
  H  H33  1  0.030000  0.298000  0.791000  1.0  0.0659
  H  H34  1  0.163100  0.410300  0.591000  1.0  0.0741
  H  H35  1  0.458000  0.103000  0.175000  1.0  0.0787
  H  H36  1  0.470000  0.202000  0.291000  1.0  0.0661
  H  H37  1  0.336900  0.089700  0.091000  1.0  0.0751
  H  H38  1  0.958000  0.603000  0.675000  1.0  0.0787
  H  H39  1  0.970000  0.702000  0.791000  1.0  0.0661
  H  H40  1  0.836900  0.589700  0.591000  1.0  0.0751
  H  H41  1  0.103000  0.542000  0.825000  1.0  0.0795
  H  H42  1  0.202000  0.530000  0.709000  1.0  0.0658
  H  H43  1  0.089700  0.663100  0.909000  1.0  0.0759
  H  H44  1  0.603000  0.042000  0.325000  1.0  0.0795
  H  H45  1  0.702000  0.030000  0.209000  1.0  0.0658
  H  H46  1  0.589700  0.163100  0.409000  1.0  0.0759
  H  H47  1  0.897000  0.458000  0.825000  1.0  0.0799
  H  H48  1  0.798000  0.470000  0.709000  1.0  0.0661
  H  H49  1  0.910300  0.336900  0.909000  1.0  0.0752
  H  H50  1  0.397000  0.958000  0.325000  1.0  0.0799
  H  H51  1  0.298000  0.970000  0.209000  1.0  0.0661
  H  H52  1  0.410300  0.836900  0.409000  1.0  0.0752
  H  H53  1  0.458000  0.103000  0.825000  1.0  0.079
  H  H54  1  0.470000  0.202000  0.709000  1.0  0.0664
  H  H55  1  0.336900  0.089700  0.909000  1.0  0.0748
  H  H56  1  0.958000  0.603000  0.325000  1.0  0.079
  H  H57  1  0.970000  0.702000  0.209000  1.0  0.0664
  H  H58  1  0.836900  0.589700  0.409000  1.0  0.0748
  H  H59  1  0.542000  0.897000  0.825000  1.0  0.0793
  H  H60  1  0.530000  0.798000  0.709000  1.0  0.0659
  H  H61  1  0.663100  0.910300  0.909000  1.0  0.074
  H  H62  1  0.042000  0.397000  0.325000  1.0  0.0793
  H  H63  1  0.030000  0.298000  0.209000  1.0  0.0659
  H  H64  1  0.163100  0.410300  0.409000  1.0  0.074
  H  H65  1  0.761900  0.267500  0.500000  1.0  0.4279
  H  H66  1  0.261900  0.767500  0.000000  1.0  0.4279
  H  H67  1  0.238100  0.732500  0.500000  1.0  0.4321
  H  H68  1  0.738100  0.232500  0.000000  1.0  0.4321
  H  H69  1  0.732500  0.761900  0.500000  1.0  0.4298
  H  H70  1  0.232500  0.261900  0.000000  1.0  0.4298
  H  H71  1  0.267500  0.238100  0.500000  1.0  0.4301
  H  H72  1  0.767500  0.738100  0.000000  1.0  0.4301
  C  C73  1  0.629000  0.157700  0.359000  1.0  0.0869
  C  C74  1  0.636000  0.087000  0.308000  1.0  -0.2215
  C  C75  1  0.694000  0.081000  0.242000  1.0  0.1294
  C  C76  1  0.773400  0.285900  0.235300  1.0  0.3401
  C  C77  1  0.129000  0.657700  0.859000  1.0  0.0869
  C  C78  1  0.136000  0.587000  0.808000  1.0  -0.2215
  C  C79  1  0.194000  0.581000  0.742000  1.0  0.1294
  C  C80  1  0.273400  0.785900  0.735300  1.0  0.3401
  C  C81  1  0.371000  0.842300  0.359000  1.0  0.0848
  C  C82  1  0.364000  0.913000  0.308000  1.0  -0.2132
  C  C83  1  0.306000  0.919000  0.242000  1.0  0.1302
  C  C84  1  0.226600  0.714100  0.235300  1.0  0.3454
  C  C85  1  0.871000  0.342300  0.859000  1.0  0.0848
  C  C86  1  0.864000  0.413000  0.808000  1.0  -0.2132
  C  C87  1  0.806000  0.419000  0.742000  1.0  0.1302
  C  C88  1  0.726600  0.214100  0.735300  1.0  0.3454
  C  C89  1  0.842300  0.629000  0.359000  1.0  0.0832
  C  C90  1  0.913000  0.636000  0.308000  1.0  -0.2187
  C  C91  1  0.919000  0.694000  0.242000  1.0  0.1325
  C  C92  1  0.714100  0.773400  0.235300  1.0  0.3419
  C  C93  1  0.342300  0.129000  0.859000  1.0  0.0832
  C  C94  1  0.413000  0.136000  0.808000  1.0  -0.2187
  C  C95  1  0.419000  0.194000  0.742000  1.0  0.1325
  C  C96  1  0.214100  0.273400  0.735300  1.0  0.3419
  C  C97  1  0.157700  0.371000  0.359000  1.0  0.084
  C  C98  1  0.087000  0.364000  0.308000  1.0  -0.212
  C  C99  1  0.081000  0.306000  0.242000  1.0  0.1321
  C  C100  1  0.285900  0.226600  0.235300  1.0  0.3436
  C  C101  1  0.657700  0.871000  0.859000  1.0  0.084
  C  C102  1  0.587000  0.864000  0.808000  1.0  -0.212
  C  C103  1  0.581000  0.806000  0.742000  1.0  0.1321
  C  C104  1  0.785900  0.726600  0.735300  1.0  0.3436
  C  C105  1  0.371000  0.842300  0.641000  1.0  0.0845
  C  C106  1  0.364000  0.913000  0.692000  1.0  -0.2115
  C  C107  1  0.306000  0.919000  0.758000  1.0  0.1295
  C  C108  1  0.226600  0.714100  0.764700  1.0  0.3453
  C  C109  1  0.871000  0.342300  0.141000  1.0  0.0845
  C  C110  1  0.864000  0.413000  0.192000  1.0  -0.2115
  C  C111  1  0.806000  0.419000  0.258000  1.0  0.1295
  C  C112  1  0.726600  0.214100  0.264700  1.0  0.3453
  C  C113  1  0.629000  0.157700  0.641000  1.0  0.0849
  C  C114  1  0.636000  0.087000  0.692000  1.0  -0.2234
  C  C115  1  0.694000  0.081000  0.758000  1.0  0.129
  C  C116  1  0.773400  0.285900  0.764700  1.0  0.3402
  C  C117  1  0.129000  0.657700  0.141000  1.0  0.0849
  C  C118  1  0.136000  0.587000  0.192000  1.0  -0.2234
  C  C119  1  0.194000  0.581000  0.258000  1.0  0.129
  C  C120  1  0.273400  0.785900  0.264700  1.0  0.3402
  C  C121  1  0.157700  0.371000  0.641000  1.0  0.0835
  C  C122  1  0.087000  0.364000  0.692000  1.0  -0.2113
  C  C123  1  0.081000  0.306000  0.758000  1.0  0.1315
  C  C124  1  0.285900  0.226600  0.764700  1.0  0.3436
  C  C125  1  0.657700  0.871000  0.141000  1.0  0.0835
  C  C126  1  0.587000  0.864000  0.192000  1.0  -0.2113
  C  C127  1  0.581000  0.806000  0.258000  1.0  0.1315
  C  C128  1  0.785900  0.726600  0.264700  1.0  0.3436
  C  C129  1  0.842300  0.629000  0.641000  1.0  0.0829
  C  C130  1  0.913000  0.636000  0.692000  1.0  -0.2201
  C  C131  1  0.919000  0.694000  0.758000  1.0  0.1317
  C  C132  1  0.714100  0.773400  0.764700  1.0  0.3418
  C  C133  1  0.342300  0.129000  0.141000  1.0  0.0829
  C  C134  1  0.413000  0.136000  0.192000  1.0  -0.2201
  C  C135  1  0.419000  0.194000  0.258000  1.0  0.1317
  C  C136  1  0.214100  0.273400  0.264700  1.0  0.3418
  C  C137  1  0.677000  0.505000  0.500000  1.0  0.8495
  C  C138  1  0.177000  0.005000  0.000000  1.0  0.8495
  C  C139  1  0.323000  0.495000  0.500000  1.0  0.8515
  C  C140  1  0.823000  0.995000  0.000000  1.0  0.8515
  C  C141  1  0.495000  0.677000  0.500000  1.0  0.8494
  C  C142  1  0.995000  0.177000  0.000000  1.0  0.8494
  C  C143  1  0.505000  0.323000  0.500000  1.0  0.8499
  C  C144  1  0.005000  0.823000  0.000000  1.0  0.8499
  N  N145  1  0.673700  0.222700  0.333200  1.0  -0.3391
  N  N146  1  0.739700  0.145000  0.217300  1.0  -0.3817
  N  N147  1  0.173700  0.722700  0.833200  1.0  -0.3391
  N  N148  1  0.239700  0.645000  0.717300  1.0  -0.3817
  N  N149  1  0.326300  0.777300  0.333200  1.0  -0.3386
  N  N150  1  0.260300  0.855000  0.217300  1.0  -0.3812
  N  N151  1  0.826300  0.277300  0.833200  1.0  -0.3386
  N  N152  1  0.760300  0.355000  0.717300  1.0  -0.3812
  N  N153  1  0.777300  0.673700  0.333200  1.0  -0.3393
  N  N154  1  0.855000  0.739700  0.217300  1.0  -0.3828
  N  N155  1  0.277300  0.173700  0.833200  1.0  -0.3393
  N  N156  1  0.355000  0.239700  0.717300  1.0  -0.3828
  N  N157  1  0.222700  0.326300  0.333200  1.0  -0.339
  N  N158  1  0.145000  0.260300  0.217300  1.0  -0.3828
  N  N159  1  0.722700  0.826300  0.833200  1.0  -0.339
  N  N160  1  0.645000  0.760300  0.717300  1.0  -0.3828
  N  N161  1  0.326300  0.777300  0.666800  1.0  -0.3386
  N  N162  1  0.260300  0.855000  0.782700  1.0  -0.3818
  N  N163  1  0.826300  0.277300  0.166800  1.0  -0.3386
  N  N164  1  0.760300  0.355000  0.282700  1.0  -0.3818
  N  N165  1  0.673700  0.222700  0.666800  1.0  -0.3391
  N  N166  1  0.739700  0.145000  0.782700  1.0  -0.3819
  N  N167  1  0.173700  0.722700  0.166800  1.0  -0.3391
  N  N168  1  0.239700  0.645000  0.282700  1.0  -0.3819
  N  N169  1  0.222700  0.326300  0.666800  1.0  -0.3391
  N  N170  1  0.145000  0.260300  0.782700  1.0  -0.3829
  N  N171  1  0.722700  0.826300  0.166800  1.0  -0.3391
  N  N172  1  0.645000  0.760300  0.282700  1.0  -0.3829
  N  N173  1  0.777300  0.673700  0.666800  1.0  -0.3395
  N  N174  1  0.855000  0.739700  0.782700  1.0  -0.3829
  N  N175  1  0.277300  0.173700  0.166800  1.0  -0.3395
  N  N176  1  0.355000  0.239700  0.282700  1.0  -0.3829
  O  O177  1  0.676500  0.468400  0.421200  1.0  -0.6613
  O  O178  1  0.176500  0.968400  0.921200  1.0  -0.6613
  O  O179  1  0.323500  0.531600  0.421200  1.0  -0.6611
  O  O180  1  0.823500  0.031600  0.921200  1.0  -0.6611
  O  O181  1  0.531600  0.676500  0.421200  1.0  -0.6619
  O  O182  1  0.031600  0.176500  0.921200  1.0  -0.6619
  O  O183  1  0.468400  0.323500  0.421200  1.0  -0.6616
  O  O184  1  0.968400  0.823500  0.921200  1.0  -0.6616
  O  O185  1  0.323500  0.531600  0.578800  1.0  -0.6596
  O  O186  1  0.823500  0.031600  0.078800  1.0  -0.6596
  O  O187  1  0.676500  0.468400  0.578800  1.0  -0.6603
  O  O188  1  0.176500  0.968400  0.078800  1.0  -0.6603
  O  O189  1  0.468400  0.323500  0.578800  1.0  -0.6607
  O  O190  1  0.968400  0.823500  0.078800  1.0  -0.6607
  O  O191  1  0.531600  0.676500  0.578800  1.0  -0.6602
  O  O192  1  0.031600  0.176500  0.078800  1.0  -0.6602
  O  O193  1  0.746600  0.316600  0.500000  1.0  -0.9468
  O  O194  1  0.677300  0.584300  0.500000  1.0  -0.68
  O  O195  1  0.246600  0.816600  0.000000  1.0  -0.9468
  O  O196  1  0.177300  0.084300  0.000000  1.0  -0.6798
  O  O197  1  0.253400  0.683400  0.500000  1.0  -0.9494
  O  O198  1  0.322700  0.415700  0.500000  1.0  -0.6803
  O  O199  1  0.753400  0.183400  0.000000  1.0  -0.9494
  O  O200  1  0.822700  0.915700  0.000000  1.0  -0.6803
  O  O201  1  0.683400  0.746600  0.500000  1.0  -0.9476
  O  O202  1  0.415700  0.677300  0.500000  1.0  -0.6813
  O  O203  1  0.183400  0.246600  0.000000  1.0  -0.9476
  O  O204  1  0.915700  0.177300  0.000000  1.0  -0.6813
  O  O205  1  0.316600  0.253400  0.500000  1.0  -0.946
  O  O206  1  0.584300  0.322700  0.500000  1.0  -0.6821
  O  O207  1  0.816600  0.753400  0.000000  1.0  -0.946
  O  O208  1  0.084300  0.822700  0.000000  1.0  -0.6822
