# generated using pymatgen
data_Zn6H43C87(N2O15)2
_symmetry_space_group_name_H-M   'P 1'
_cell_length_a   20.26440000
_cell_length_b   19.12160000
_cell_length_c   26.82480000
_cell_angle_alpha   90.00000000
_cell_angle_beta   101.18400000
_cell_angle_gamma   90.00000000
_symmetry_Int_Tables_number   1
_chemical_formula_structural   Zn6H43C87(N2O15)2
_chemical_formula_sum   'Zn24 H172 C348 N16 O120'
_cell_volume   10196.88734219
_cell_formula_units_Z   4
loop_
 _symmetry_equiv_pos_site_id
 _symmetry_equiv_pos_as_xyz
  1  'x, y, z'
loop_
 _atom_site_type_symbol
 _atom_site_label
 _atom_site_symmetry_multiplicity
 _atom_site_fract_x
 _atom_site_fract_y
 _atom_site_fract_z
 _atom_site_occupancy
 _atom_site_charge
  Zn  Zn1  1  0.513370  0.515780  0.055100  1.0  0.9866
  Zn  Zn2  1  0.636510  0.407220  0.242830  1.0  1.0512
  Zn  Zn3  1  0.787230  0.342370  0.263840  1.0  1.0132
  Zn  Zn4  1  0.013370  0.015780  0.055100  1.0  0.9866
  Zn  Zn5  1  0.136510  0.907220  0.242830  1.0  1.0512
  Zn  Zn6  1  0.287230  0.842370  0.263840  1.0  1.0132
  Zn  Zn7  1  0.486630  0.515780  0.444900  1.0  0.9872
  Zn  Zn8  1  0.363490  0.407220  0.257170  1.0  1.0516
  Zn  Zn9  1  0.212770  0.342370  0.236160  1.0  1.0134
  Zn  Zn10  1  0.986630  0.015780  0.444900  1.0  0.9872
  Zn  Zn11  1  0.863490  0.907220  0.257170  1.0  1.0516
  Zn  Zn12  1  0.712770  0.842370  0.236160  1.0  1.0134
  Zn  Zn13  1  0.486630  0.484220  0.944900  1.0  0.9868
  Zn  Zn14  1  0.363490  0.592780  0.757170  1.0  1.051
  Zn  Zn15  1  0.212770  0.657630  0.736160  1.0  1.0134
  Zn  Zn16  1  0.986630  0.984220  0.944900  1.0  0.9868
  Zn  Zn17  1  0.863490  0.092780  0.757170  1.0  1.051
  Zn  Zn18  1  0.712770  0.157630  0.736160  1.0  1.0134
  Zn  Zn19  1  0.513370  0.484220  0.555100  1.0  0.9867
  Zn  Zn20  1  0.636510  0.592780  0.742830  1.0  1.0509
  Zn  Zn21  1  0.787230  0.657630  0.763840  1.0  1.013
  Zn  Zn22  1  0.013370  0.984220  0.555100  1.0  0.9867
  Zn  Zn23  1  0.136510  0.092780  0.742830  1.0  1.0509
  Zn  Zn24  1  0.287230  0.157630  0.763840  1.0  1.013
  H  H25  1  0.620100  0.780700  0.882700  1.0  0.1361
  H  H26  1  0.564200  0.680800  0.898900  1.0  0.1043
  H  H27  1  0.625600  0.706600  0.048900  1.0  0.1212
  H  H28  1  0.715600  0.803200  0.113900  1.0  0.1117
  H  H29  1  0.826200  0.969600  0.090000  1.0  0.1089
  H  H30  1  0.784400  0.963500  0.003500  1.0  0.1088
  H  H31  1  0.803600  0.882700  0.917900  1.0  0.1152
  H  H32  1  0.816400  0.950100  0.850100  1.0  0.1047
  H  H33  1  0.622400  0.002100  0.828000  1.0  0.1201
  H  H34  1  0.609600  0.932600  0.894400  1.0  0.1316
  H  H35  1  0.547500  0.266800  0.028400  1.0  0.1316
  H  H36  1  0.579100  0.308300  0.111000  1.0  0.099
  H  H37  1  0.761700  0.219000  0.125000  1.0  0.1176
  H  H38  1  0.680800  0.122000  0.903700  1.0  0.1352
  H  H39  1  0.788800  0.075400  0.914200  1.0  0.0912
  H  H40  1  0.829100  0.137100  0.061200  1.0  0.1231
  H  H41  1  0.558700  0.299900  0.940500  1.0  0.1194
  H  H42  1  0.462200  0.300600  0.878700  1.0  0.0855
  H  H43  1  0.467800  0.095600  0.868200  1.0  0.1104
  H  H44  1  0.565600  0.090000  0.929800  1.0  0.1408
  H  H45  1  0.564500  0.438400  0.141900  1.0  0.0524
  H  H46  1  0.120100  0.280700  0.882700  1.0  0.1361
  H  H47  1  0.064200  0.180800  0.898900  1.0  0.1043
  H  H48  1  0.125600  0.206600  0.048900  1.0  0.1212
  H  H49  1  0.215600  0.303200  0.113900  1.0  0.1117
  H  H50  1  0.326200  0.469600  0.090000  1.0  0.1089
  H  H51  1  0.284400  0.463500  0.003500  1.0  0.1088
  H  H52  1  0.303600  0.382700  0.917900  1.0  0.1152
  H  H53  1  0.316400  0.450100  0.850100  1.0  0.1047
  H  H54  1  0.122400  0.502100  0.828000  1.0  0.1201
  H  H55  1  0.109600  0.432600  0.894400  1.0  0.1316
  H  H56  1  0.047500  0.766800  0.028400  1.0  0.1316
  H  H57  1  0.079100  0.808300  0.111000  1.0  0.099
  H  H58  1  0.261700  0.719000  0.125000  1.0  0.1176
  H  H59  1  0.180800  0.622000  0.903700  1.0  0.1352
  H  H60  1  0.288800  0.575400  0.914200  1.0  0.0912
  H  H61  1  0.329100  0.637100  0.061200  1.0  0.1231
  H  H62  1  0.058700  0.799900  0.940500  1.0  0.1194
  H  H63  1  0.962200  0.800600  0.878700  1.0  0.0855
  H  H64  1  0.967800  0.595600  0.868200  1.0  0.1104
  H  H65  1  0.065600  0.590000  0.929800  1.0  0.1408
  H  H66  1  0.064500  0.938400  0.141900  1.0  0.0524
  H  H67  1  0.379900  0.780700  0.617300  1.0  0.1349
  H  H68  1  0.435800  0.680800  0.601100  1.0  0.1042
  H  H69  1  0.374400  0.706600  0.451100  1.0  0.1212
  H  H70  1  0.284400  0.803200  0.386100  1.0  0.1121
  H  H71  1  0.173800  0.969600  0.410000  1.0  0.1097
  H  H72  1  0.215600  0.963500  0.496500  1.0  0.1092
  H  H73  1  0.196400  0.882700  0.582100  1.0  0.1158
  H  H74  1  0.183600  0.950100  0.649900  1.0  0.1044
  H  H75  1  0.377600  0.002100  0.672000  1.0  0.1206
  H  H76  1  0.390400  0.932600  0.605600  1.0  0.131
  H  H77  1  0.452500  0.266800  0.471600  1.0  0.1317
  H  H78  1  0.420900  0.308300  0.389000  1.0  0.0988
  H  H79  1  0.238300  0.219000  0.375000  1.0  0.1177
  H  H80  1  0.319200  0.122000  0.596300  1.0  0.1342
  H  H81  1  0.211200  0.075400  0.585800  1.0  0.0906
  H  H82  1  0.170900  0.137100  0.438800  1.0  0.1226
  H  H83  1  0.441300  0.299900  0.559500  1.0  0.1198
  H  H84  1  0.537800  0.300600  0.621300  1.0  0.085
  H  H85  1  0.532200  0.095600  0.631800  1.0  0.1108
  H  H86  1  0.434400  0.090000  0.570200  1.0  0.1413
  H  H87  1  0.435500  0.438400  0.358100  1.0  0.0525
  H  H88  1  0.879900  0.280700  0.617300  1.0  0.1349
  H  H89  1  0.935800  0.180800  0.601100  1.0  0.1042
  H  H90  1  0.874400  0.206600  0.451100  1.0  0.1215
  H  H91  1  0.784400  0.303200  0.386100  1.0  0.1121
  H  H92  1  0.673800  0.469600  0.410000  1.0  0.1097
  H  H93  1  0.715600  0.463500  0.496500  1.0  0.1092
  H  H94  1  0.696400  0.382700  0.582100  1.0  0.1158
  H  H95  1  0.683600  0.450100  0.649900  1.0  0.1044
  H  H96  1  0.877600  0.502100  0.672000  1.0  0.1206
  H  H97  1  0.890400  0.432600  0.605600  1.0  0.131
  H  H98  1  0.952500  0.766800  0.471600  1.0  0.1317
  H  H99  1  0.920900  0.808300  0.389000  1.0  0.0988
  H  H100  1  0.738300  0.719000  0.375000  1.0  0.1177
  H  H101  1  0.819200  0.622000  0.596300  1.0  0.1342
  H  H102  1  0.711200  0.575400  0.585800  1.0  0.0906
  H  H103  1  0.670900  0.637100  0.438800  1.0  0.1226
  H  H104  1  0.941300  0.799900  0.559500  1.0  0.1198
  H  H105  1  0.037800  0.800600  0.621300  1.0  0.085
  H  H106  1  0.032200  0.595600  0.631800  1.0  0.1108
  H  H107  1  0.934400  0.590000  0.570200  1.0  0.1413
  H  H108  1  0.935500  0.938400  0.358100  1.0  0.0525
  H  H109  1  0.379900  0.219300  0.117300  1.0  0.1349
  H  H110  1  0.435800  0.319200  0.101100  1.0  0.1041
  H  H111  1  0.374400  0.293400  0.951100  1.0  0.121
  H  H112  1  0.284400  0.196800  0.886100  1.0  0.1119
  H  H113  1  0.173800  0.030400  0.910000  1.0  0.109
  H  H114  1  0.215600  0.036500  0.996500  1.0  0.1092
  H  H115  1  0.196400  0.117300  0.082100  1.0  0.1161
  H  H116  1  0.183600  0.049900  0.149900  1.0  0.1043
  H  H117  1  0.377600  0.997900  0.172000  1.0  0.1203
  H  H118  1  0.390400  0.067400  0.105600  1.0  0.131
  H  H119  1  0.452500  0.733200  0.971600  1.0  0.1318
  H  H120  1  0.420900  0.691700  0.889000  1.0  0.0993
  H  H121  1  0.238300  0.781000  0.875000  1.0  0.1174
  H  H122  1  0.319200  0.878000  0.096300  1.0  0.1342
  H  H123  1  0.211200  0.924600  0.085800  1.0  0.0905
  H  H124  1  0.170900  0.862900  0.938800  1.0  0.1227
  H  H125  1  0.441300  0.700100  0.059500  1.0  0.1192
  H  H126  1  0.537800  0.699400  0.121300  1.0  0.0848
  H  H127  1  0.532200  0.904400  0.131800  1.0  0.1104
  H  H128  1  0.434400  0.910000  0.070200  1.0  0.1409
  H  H129  1  0.435500  0.561600  0.858100  1.0  0.0525
  H  H130  1  0.879900  0.719300  0.117300  1.0  0.1349
  H  H131  1  0.935800  0.819200  0.101100  1.0  0.1041
  H  H132  1  0.874400  0.793400  0.951100  1.0  0.1213
  H  H133  1  0.784400  0.696800  0.886100  1.0  0.1119
  H  H134  1  0.673800  0.530400  0.910000  1.0  0.109
  H  H135  1  0.715600  0.536500  0.996500  1.0  0.1092
  H  H136  1  0.696400  0.617300  0.082100  1.0  0.1161
  H  H137  1  0.683600  0.549900  0.149900  1.0  0.1043
  H  H138  1  0.877600  0.497900  0.172000  1.0  0.1203
  H  H139  1  0.890400  0.567400  0.105600  1.0  0.131
  H  H140  1  0.952500  0.233200  0.971600  1.0  0.1318
  H  H141  1  0.920900  0.191700  0.889000  1.0  0.0993
  H  H142  1  0.738300  0.281000  0.875000  1.0  0.1174
  H  H143  1  0.819200  0.378000  0.096300  1.0  0.1342
  H  H144  1  0.711200  0.424600  0.085800  1.0  0.0905
  H  H145  1  0.670900  0.362900  0.938800  1.0  0.1227
  H  H146  1  0.941300  0.200100  0.059500  1.0  0.1192
  H  H147  1  0.037800  0.199400  0.121300  1.0  0.0848
  H  H148  1  0.032200  0.404400  0.131800  1.0  0.1104
  H  H149  1  0.934400  0.410000  0.070200  1.0  0.1409
  H  H150  1  0.935500  0.061600  0.858100  1.0  0.0525
  H  H151  1  0.620100  0.219300  0.382700  1.0  0.1364
  H  H152  1  0.564200  0.319200  0.398900  1.0  0.1042
  H  H153  1  0.625600  0.293400  0.548900  1.0  0.1216
  H  H154  1  0.715600  0.196800  0.613900  1.0  0.1115
  H  H155  1  0.826200  0.030400  0.590000  1.0  0.109
  H  H156  1  0.784400  0.036500  0.503500  1.0  0.1091
  H  H157  1  0.803600  0.117300  0.417900  1.0  0.1152
  H  H158  1  0.816400  0.049900  0.350100  1.0  0.1047
  H  H159  1  0.622400  0.997900  0.328000  1.0  0.1199
  H  H160  1  0.609600  0.067400  0.394400  1.0  0.1314
  H  H161  1  0.547500  0.733200  0.528400  1.0  0.1317
  H  H162  1  0.579100  0.691700  0.611000  1.0  0.0996
  H  H163  1  0.761700  0.781000  0.625000  1.0  0.1175
  H  H164  1  0.680800  0.878000  0.403700  1.0  0.1352
  H  H165  1  0.788800  0.924600  0.414200  1.0  0.0913
  H  H166  1  0.829100  0.862900  0.561200  1.0  0.123
  H  H167  1  0.558700  0.700100  0.440500  1.0  0.1186
  H  H168  1  0.462200  0.699400  0.378700  1.0  0.0851
  H  H169  1  0.467800  0.904400  0.368200  1.0  0.11
  H  H170  1  0.565600  0.910000  0.429800  1.0  0.14
  H  H171  1  0.564500  0.561600  0.641900  1.0  0.0527
  H  H172  1  0.120100  0.719300  0.382700  1.0  0.1364
  H  H173  1  0.064200  0.819200  0.398900  1.0  0.1042
  H  H174  1  0.125600  0.793400  0.548900  1.0  0.1217
  H  H175  1  0.215600  0.696800  0.613900  1.0  0.1115
  H  H176  1  0.326200  0.530400  0.590000  1.0  0.109
  H  H177  1  0.284400  0.536500  0.503500  1.0  0.1091
  H  H178  1  0.303600  0.617300  0.417900  1.0  0.1152
  H  H179  1  0.316400  0.549900  0.350100  1.0  0.1047
  H  H180  1  0.122400  0.497900  0.328000  1.0  0.1199
  H  H181  1  0.109600  0.567400  0.394400  1.0  0.1314
  H  H182  1  0.047500  0.233200  0.528400  1.0  0.1317
  H  H183  1  0.079100  0.191700  0.611000  1.0  0.0996
  H  H184  1  0.261700  0.281000  0.625000  1.0  0.1175
  H  H185  1  0.180800  0.378000  0.403700  1.0  0.1352
  H  H186  1  0.288800  0.424600  0.414200  1.0  0.0913
  H  H187  1  0.329100  0.362900  0.561200  1.0  0.123
  H  H188  1  0.058700  0.200100  0.440500  1.0  0.1186
  H  H189  1  0.962200  0.199400  0.378700  1.0  0.0851
  H  H190  1  0.967800  0.404400  0.368200  1.0  0.11
  H  H191  1  0.065600  0.410000  0.429800  1.0  0.14
  H  H192  1  0.064500  0.061600  0.641900  1.0  0.0527
  H  H193  1  0.500000  0.423100  0.250000  1.0  0.0293
  H  H194  1  0.000000  0.923100  0.250000  1.0  0.0293
  H  H195  1  0.500000  0.576900  0.750000  1.0  0.027
  H  H196  1  0.000000  0.076900  0.750000  1.0  0.027
  C  C197  1  0.657200  0.804200  0.957000  1.0  0.1695
  C  C198  1  0.621400  0.766000  0.915900  1.0  -0.1029
  C  C199  1  0.588300  0.706700  0.925700  1.0  -0.021
  C  C200  1  0.590500  0.684300  0.976400  1.0  -0.1381
  C  C201  1  0.625200  0.721300  0.015800  1.0  -0.0374
  C  C202  1  0.660900  0.782100  0.007200  1.0  -0.0387
  C  C203  1  0.705700  0.827900  0.039300  1.0  -0.0509
  C  C204  1  0.729900  0.834300  0.091500  1.0  -0.0455
  C  C205  1  0.775000  0.886500  0.109900  1.0  -0.1274
  C  C206  1  0.795800  0.934600  0.077000  1.0  0.0051
  C  C207  1  0.771700  0.930600  0.025300  1.0  -0.0537
  C  C208  1  0.728200  0.876700  0.006500  1.0  0.1695
  C  C209  1  0.705000  0.902200  0.913400  1.0  0.1913
  C  C210  1  0.767000  0.907000  0.899600  1.0  -0.1434
  C  C211  1  0.774500  0.947300  0.859400  1.0  -0.0787
  C  C212  1  0.720700  0.984300  0.832000  1.0  -0.1761
  C  C213  1  0.659300  0.978000  0.846000  1.0  -0.069
  C  C214  1  0.651800  0.936900  0.885900  1.0  -0.1282
  C  C215  1  0.556700  0.616300  0.985000  1.0  0.6635
  C  C216  1  0.802400  0.892200  0.165500  1.0  0.692
  C  C217  1  0.733500  0.032400  0.790500  1.0  0.7386
  C  C218  1  0.637600  0.220400  0.027500  1.0  0.1716
  C  C219  1  0.590200  0.258100  0.047400  1.0  -0.1451
  C  C220  1  0.609300  0.282000  0.096700  1.0  -0.0289
  C  C221  1  0.673900  0.267200  0.126000  1.0  -0.1414
  C  C222  1  0.719400  0.228700  0.105800  1.0  -0.036
  C  C223  1  0.701500  0.204300  0.056200  1.0  -0.0489
  C  C224  1  0.736100  0.164000  0.023000  1.0  -0.0324
  C  C225  1  0.692800  0.160000  0.975800  1.0  0.1728
  C  C226  1  0.710600  0.125600  0.934600  1.0  -0.1437
  C  C227  1  0.774900  0.096700  0.941600  1.0  0.0029
  C  C228  1  0.819600  0.098900  0.989100  1.0  -0.0577
  C  C229  1  0.799800  0.134000  0.029900  1.0  -0.0276
  C  C230  1  0.572600  0.195800  0.940600  1.0  0.2005
  C  C231  1  0.541200  0.258100  0.925900  1.0  -0.2511
  C  C232  1  0.482200  0.257700  0.888500  1.0  -0.0347
  C  C233  1  0.452900  0.201000  0.866100  1.0  -0.1302
  C  C234  1  0.486400  0.137000  0.882800  1.0  -0.0571
  C  C235  1  0.545500  0.132700  0.919700  1.0  -0.169
  C  C236  1  0.691800  0.299900  0.177400  1.0  0.7237
  C  C237  1  0.886300  0.065200  0.995000  1.0  0.6788
  C  C238  1  0.390600  0.206100  0.825400  1.0  0.6691
  C  C239  1  0.560000  0.481300  0.157300  1.0  0.6781
  C  C240  1  0.157200  0.304200  0.957000  1.0  0.1695
  C  C241  1  0.121400  0.266000  0.915900  1.0  -0.1029
  C  C242  1  0.088300  0.206700  0.925700  1.0  -0.021
  C  C243  1  0.090500  0.184300  0.976400  1.0  -0.1381
  C  C244  1  0.125200  0.221300  0.015800  1.0  -0.0374
  C  C245  1  0.160900  0.282100  0.007200  1.0  -0.0387
  C  C246  1  0.205700  0.327900  0.039300  1.0  -0.0509
  C  C247  1  0.229900  0.334300  0.091500  1.0  -0.0455
  C  C248  1  0.275000  0.386500  0.109900  1.0  -0.1274
  C  C249  1  0.295800  0.434600  0.077000  1.0  0.0051
  C  C250  1  0.271700  0.430600  0.025300  1.0  -0.0537
  C  C251  1  0.228200  0.376700  0.006500  1.0  0.1695
  C  C252  1  0.205000  0.402200  0.913400  1.0  0.1913
  C  C253  1  0.267000  0.407000  0.899600  1.0  -0.1434
  C  C254  1  0.274500  0.447300  0.859400  1.0  -0.0787
  C  C255  1  0.220700  0.484300  0.832000  1.0  -0.1761
  C  C256  1  0.159300  0.478000  0.846000  1.0  -0.069
  C  C257  1  0.151800  0.436900  0.885900  1.0  -0.1282
  C  C258  1  0.056700  0.116300  0.985000  1.0  0.6635
  C  C259  1  0.302400  0.392200  0.165500  1.0  0.692
  C  C260  1  0.233500  0.532400  0.790500  1.0  0.7386
  C  C261  1  0.137600  0.720400  0.027500  1.0  0.1716
  C  C262  1  0.090200  0.758100  0.047400  1.0  -0.1451
  C  C263  1  0.109300  0.782000  0.096700  1.0  -0.0289
  C  C264  1  0.173900  0.767200  0.126000  1.0  -0.1414
  C  C265  1  0.219400  0.728700  0.105800  1.0  -0.036
  C  C266  1  0.201500  0.704300  0.056200  1.0  -0.0489
  C  C267  1  0.236100  0.664000  0.023000  1.0  -0.0324
  C  C268  1  0.192800  0.660000  0.975800  1.0  0.1728
  C  C269  1  0.210600  0.625600  0.934600  1.0  -0.1437
  C  C270  1  0.274900  0.596700  0.941600  1.0  0.0029
  C  C271  1  0.319600  0.598900  0.989100  1.0  -0.0577
  C  C272  1  0.299800  0.634000  0.029900  1.0  -0.0276
  C  C273  1  0.072600  0.695800  0.940600  1.0  0.2005
  C  C274  1  0.041200  0.758100  0.925900  1.0  -0.2511
  C  C275  1  0.982200  0.757700  0.888500  1.0  -0.0347
  C  C276  1  0.952900  0.701000  0.866100  1.0  -0.1302
  C  C277  1  0.986400  0.637000  0.882800  1.0  -0.0571
  C  C278  1  0.045500  0.632700  0.919700  1.0  -0.169
  C  C279  1  0.191800  0.799900  0.177400  1.0  0.7237
  C  C280  1  0.386300  0.565200  0.995000  1.0  0.6788
  C  C281  1  0.890600  0.706100  0.825400  1.0  0.6691
  C  C282  1  0.060000  0.981300  0.157300  1.0  0.6781
  C  C283  1  0.342800  0.804200  0.543000  1.0  0.169
  C  C284  1  0.378600  0.766000  0.584100  1.0  -0.1053
  C  C285  1  0.411700  0.706700  0.574300  1.0  -0.02
  C  C286  1  0.409500  0.684300  0.523600  1.0  -0.1381
  C  C287  1  0.374800  0.721300  0.484200  1.0  -0.0384
  C  C288  1  0.339100  0.782100  0.492800  1.0  -0.038
  C  C289  1  0.294300  0.827900  0.460700  1.0  -0.0537
  C  C290  1  0.270100  0.834300  0.408500  1.0  -0.0463
  C  C291  1  0.225000  0.886500  0.390100  1.0  -0.1238
  C  C292  1  0.204200  0.934600  0.423000  1.0  0.0047
  C  C293  1  0.228300  0.930600  0.474700  1.0  -0.0565
  C  C294  1  0.271800  0.876700  0.493500  1.0  0.1689
  C  C295  1  0.295000  0.902200  0.586600  1.0  0.193
  C  C296  1  0.233000  0.907000  0.600400  1.0  -0.1425
  C  C297  1  0.225500  0.947300  0.640600  1.0  -0.0768
  C  C298  1  0.279300  0.984300  0.668000  1.0  -0.173
  C  C299  1  0.340700  0.978000  0.654000  1.0  -0.0697
  C  C300  1  0.348200  0.936900  0.614100  1.0  -0.1264
  C  C301  1  0.443300  0.616300  0.515000  1.0  0.6631
  C  C302  1  0.197600  0.892200  0.334500  1.0  0.6916
  C  C303  1  0.266500  0.032400  0.709500  1.0  0.7408
  C  C304  1  0.362400  0.220400  0.472500  1.0  0.1709
  C  C305  1  0.409800  0.258100  0.452600  1.0  -0.1464
  C  C306  1  0.390700  0.282000  0.403300  1.0  -0.0322
  C  C307  1  0.326100  0.267200  0.374000  1.0  -0.1417
  C  C308  1  0.280600  0.228700  0.394200  1.0  -0.0359
  C  C309  1  0.298500  0.204300  0.443800  1.0  -0.0497
  C  C310  1  0.263900  0.164000  0.477000  1.0  -0.0315
  C  C311  1  0.307200  0.160000  0.524200  1.0  0.172
  C  C312  1  0.289400  0.125600  0.565400  1.0  -0.1436
  C  C313  1  0.225100  0.096700  0.558400  1.0  0.0017
  C  C314  1  0.180400  0.098900  0.510900  1.0  -0.0582
  C  C315  1  0.200200  0.134000  0.470100  1.0  -0.0262
  C  C316  1  0.427400  0.195800  0.559400  1.0  0.2013
  C  C317  1  0.458800  0.258100  0.574100  1.0  -0.2525
  C  C318  1  0.517800  0.257700  0.611500  1.0  -0.0351
  C  C319  1  0.547100  0.201000  0.633900  1.0  -0.1212
  C  C320  1  0.513600  0.137000  0.617200  1.0  -0.0588
  C  C321  1  0.454500  0.132700  0.580300  1.0  -0.1686
  C  C322  1  0.308200  0.299900  0.322600  1.0  0.7211
  C  C323  1  0.113700  0.065200  0.505000  1.0  0.677
  C  C324  1  0.609400  0.206100  0.674600  1.0  0.6678
  C  C325  1  0.440000  0.481300  0.342700  1.0  0.6788
  C  C326  1  0.842800  0.304200  0.543000  1.0  0.169
  C  C327  1  0.878600  0.266000  0.584100  1.0  -0.1053
  C  C328  1  0.911700  0.206700  0.574300  1.0  -0.02
  C  C329  1  0.909500  0.184300  0.523600  1.0  -0.1381
  C  C330  1  0.874800  0.221300  0.484200  1.0  -0.0384
  C  C331  1  0.839100  0.282100  0.492800  1.0  -0.038
  C  C332  1  0.794300  0.327900  0.460700  1.0  -0.0537
  C  C333  1  0.770100  0.334300  0.408500  1.0  -0.0463
  C  C334  1  0.725000  0.386500  0.390100  1.0  -0.1238
  C  C335  1  0.704200  0.434600  0.423000  1.0  0.0047
  C  C336  1  0.728300  0.430600  0.474700  1.0  -0.0565
  C  C337  1  0.771800  0.376700  0.493500  1.0  0.1689
  C  C338  1  0.795000  0.402200  0.586600  1.0  0.193
  C  C339  1  0.733000  0.407000  0.600400  1.0  -0.1425
  C  C340  1  0.725500  0.447300  0.640600  1.0  -0.0768
  C  C341  1  0.779300  0.484300  0.668000  1.0  -0.173
  C  C342  1  0.840700  0.478000  0.654000  1.0  -0.0697
  C  C343  1  0.848200  0.436900  0.614100  1.0  -0.1264
  C  C344  1  0.943300  0.116300  0.515000  1.0  0.6631
  C  C345  1  0.697600  0.392200  0.334500  1.0  0.6916
  C  C346  1  0.766500  0.532400  0.709500  1.0  0.7408
  C  C347  1  0.862400  0.720400  0.472500  1.0  0.1709
  C  C348  1  0.909800  0.758100  0.452600  1.0  -0.1464
  C  C349  1  0.890700  0.782000  0.403300  1.0  -0.0322
  C  C350  1  0.826100  0.767200  0.374000  1.0  -0.1417
  C  C351  1  0.780600  0.728700  0.394200  1.0  -0.0359
  C  C352  1  0.798500  0.704300  0.443800  1.0  -0.0497
  C  C353  1  0.763900  0.664000  0.477000  1.0  -0.0315
  C  C354  1  0.807200  0.660000  0.524200  1.0  0.172
  C  C355  1  0.789400  0.625600  0.565400  1.0  -0.1436
  C  C356  1  0.725100  0.596700  0.558400  1.0  0.0017
  C  C357  1  0.680400  0.598900  0.510900  1.0  -0.0582
  C  C358  1  0.700200  0.634000  0.470100  1.0  -0.0262
  C  C359  1  0.927400  0.695800  0.559400  1.0  0.2013
  C  C360  1  0.958800  0.758100  0.574100  1.0  -0.2525
  C  C361  1  0.017800  0.757700  0.611500  1.0  -0.0351
  C  C362  1  0.047100  0.701000  0.633900  1.0  -0.1212
  C  C363  1  0.013600  0.637000  0.617200  1.0  -0.0588
  C  C364  1  0.954500  0.632700  0.580300  1.0  -0.1686
  C  C365  1  0.808200  0.799900  0.322600  1.0  0.7211
  C  C366  1  0.613700  0.565200  0.505000  1.0  0.677
  C  C367  1  0.109400  0.706100  0.674600  1.0  0.6678
  C  C368  1  0.940000  0.981300  0.342700  1.0  0.6788
  C  C369  1  0.342800  0.195800  0.043000  1.0  0.1689
  C  C370  1  0.378600  0.234000  0.084100  1.0  -0.1063
  C  C371  1  0.411700  0.293300  0.074300  1.0  -0.0191
  C  C372  1  0.409500  0.315700  0.023600  1.0  -0.1381
  C  C373  1  0.374800  0.278700  0.984200  1.0  -0.0385
  C  C374  1  0.339100  0.217900  0.992800  1.0  -0.0386
  C  C375  1  0.294300  0.172100  0.960700  1.0  -0.0535
  C  C376  1  0.270100  0.165700  0.908500  1.0  -0.046
  C  C377  1  0.225000  0.113500  0.890100  1.0  -0.1244
  C  C378  1  0.204200  0.065400  0.923000  1.0  0.0024
  C  C379  1  0.228300  0.069400  0.974700  1.0  -0.0568
  C  C380  1  0.271800  0.123300  0.993500  1.0  0.168
  C  C381  1  0.295000  0.097800  0.086600  1.0  0.1928
  C  C382  1  0.233000  0.093000  0.100400  1.0  -0.1437
  C  C383  1  0.225500  0.052700  0.140600  1.0  -0.0774
  C  C384  1  0.279300  0.015700  0.168000  1.0  -0.171
  C  C385  1  0.340700  0.022000  0.154000  1.0  -0.0707
  C  C386  1  0.348200  0.063100  0.114100  1.0  -0.1266
  C  C387  1  0.443300  0.383700  0.015000  1.0  0.6631
  C  C388  1  0.197600  0.107800  0.834500  1.0  0.692
  C  C389  1  0.266500  0.967600  0.209500  1.0  0.7414
  C  C390  1  0.362400  0.779600  0.972500  1.0  0.1724
  C  C391  1  0.409800  0.741900  0.952600  1.0  -0.1458
  C  C392  1  0.390700  0.718000  0.903300  1.0  -0.0311
  C  C393  1  0.326100  0.732800  0.874000  1.0  -0.1438
  C  C394  1  0.280600  0.771300  0.894200  1.0  -0.0394
  C  C395  1  0.298500  0.795700  0.943800  1.0  -0.0494
  C  C396  1  0.263900  0.836000  0.977000  1.0  -0.0321
  C  C397  1  0.307200  0.840000  0.024200  1.0  0.1723
  C  C398  1  0.289400  0.874400  0.065400  1.0  -0.144
  C  C399  1  0.225100  0.903300  0.058400  1.0  0.0018
  C  C400  1  0.180400  0.901100  0.010900  1.0  -0.0581
  C  C401  1  0.200200  0.866000  0.970100  1.0  -0.0257
  C  C402  1  0.427400  0.804200  0.059400  1.0  0.2007
  C  C403  1  0.458800  0.741900  0.074100  1.0  -0.2516
  C  C404  1  0.517800  0.742300  0.111500  1.0  -0.0332
  C  C405  1  0.547100  0.799000  0.133900  1.0  -0.1217
  C  C406  1  0.513600  0.863000  0.117200  1.0  -0.0583
  C  C407  1  0.454500  0.867300  0.080300  1.0  -0.1709
  C  C408  1  0.308200  0.700100  0.822600  1.0  0.7238
  C  C409  1  0.113700  0.934800  0.005000  1.0  0.677
  C  C410  1  0.609400  0.793900  0.174600  1.0  0.6681
  C  C411  1  0.440000  0.518700  0.842700  1.0  0.6783
  C  C412  1  0.842800  0.695800  0.043000  1.0  0.1689
  C  C413  1  0.878600  0.734000  0.084100  1.0  -0.1063
  C  C414  1  0.911700  0.793300  0.074300  1.0  -0.0191
  C  C415  1  0.909500  0.815700  0.023600  1.0  -0.1381
  C  C416  1  0.874800  0.778700  0.984200  1.0  -0.0385
  C  C417  1  0.839100  0.717900  0.992800  1.0  -0.0386
  C  C418  1  0.794300  0.672100  0.960700  1.0  -0.0535
  C  C419  1  0.770100  0.665700  0.908500  1.0  -0.046
  C  C420  1  0.725000  0.613500  0.890100  1.0  -0.1244
  C  C421  1  0.704200  0.565400  0.923000  1.0  0.0024
  C  C422  1  0.728300  0.569400  0.974700  1.0  -0.0568
  C  C423  1  0.771800  0.623300  0.993500  1.0  0.168
  C  C424  1  0.795000  0.597800  0.086600  1.0  0.1928
  C  C425  1  0.733000  0.593000  0.100400  1.0  -0.1437
  C  C426  1  0.725500  0.552700  0.140600  1.0  -0.0774
  C  C427  1  0.779300  0.515700  0.168000  1.0  -0.171
  C  C428  1  0.840700  0.522000  0.154000  1.0  -0.0707
  C  C429  1  0.848200  0.563100  0.114100  1.0  -0.1266
  C  C430  1  0.943300  0.883700  0.015000  1.0  0.6631
  C  C431  1  0.697600  0.607800  0.834500  1.0  0.692
  C  C432  1  0.766500  0.467600  0.209500  1.0  0.7414
  C  C433  1  0.862400  0.279600  0.972500  1.0  0.1724
  C  C434  1  0.909800  0.241900  0.952600  1.0  -0.1458
  C  C435  1  0.890700  0.218000  0.903300  1.0  -0.0311
  C  C436  1  0.826100  0.232800  0.874000  1.0  -0.1438
  C  C437  1  0.780600  0.271300  0.894200  1.0  -0.0394
  C  C438  1  0.798500  0.295700  0.943800  1.0  -0.0494
  C  C439  1  0.763900  0.336000  0.977000  1.0  -0.0321
  C  C440  1  0.807200  0.340000  0.024200  1.0  0.1723
  C  C441  1  0.789400  0.374400  0.065400  1.0  -0.144
  C  C442  1  0.725100  0.403300  0.058400  1.0  0.0018
  C  C443  1  0.680400  0.401100  0.010900  1.0  -0.0581
  C  C444  1  0.700200  0.366000  0.970100  1.0  -0.0257
  C  C445  1  0.927400  0.304200  0.059400  1.0  0.2007
  C  C446  1  0.958800  0.241900  0.074100  1.0  -0.2516
  C  C447  1  0.017800  0.242300  0.111500  1.0  -0.0332
  C  C448  1  0.047100  0.299000  0.133900  1.0  -0.1217
  C  C449  1  0.013600  0.363000  0.117200  1.0  -0.0583
  C  C450  1  0.954500  0.367300  0.080300  1.0  -0.1709
  C  C451  1  0.808200  0.200100  0.822600  1.0  0.7238
  C  C452  1  0.613700  0.434800  0.005000  1.0  0.677
  C  C453  1  0.109400  0.293900  0.174600  1.0  0.6681
  C  C454  1  0.940000  0.018700  0.842700  1.0  0.6783
  C  C455  1  0.657200  0.195800  0.457000  1.0  0.1695
  C  C456  1  0.621400  0.234000  0.415900  1.0  -0.1022
  C  C457  1  0.588300  0.293300  0.425700  1.0  -0.0203
  C  C458  1  0.590500  0.315700  0.476400  1.0  -0.1378
  C  C459  1  0.625200  0.278700  0.515800  1.0  -0.0371
  C  C460  1  0.660900  0.217900  0.507200  1.0  -0.0386
  C  C461  1  0.705700  0.172100  0.539300  1.0  -0.0514
  C  C462  1  0.729900  0.165700  0.591500  1.0  -0.0458
  C  C463  1  0.775000  0.113500  0.609900  1.0  -0.1269
  C  C464  1  0.795800  0.065400  0.577000  1.0  0.0041
  C  C465  1  0.771700  0.069400  0.525300  1.0  -0.0551
  C  C466  1  0.728200  0.123300  0.506500  1.0  0.1687
  C  C467  1  0.705000  0.097800  0.413400  1.0  0.1915
  C  C468  1  0.767000  0.093000  0.399600  1.0  -0.1426
  C  C469  1  0.774500  0.052700  0.359400  1.0  -0.0779
  C  C470  1  0.720700  0.015700  0.332000  1.0  -0.1771
  C  C471  1  0.659300  0.022000  0.346000  1.0  -0.069
  C  C472  1  0.651800  0.063100  0.385900  1.0  -0.1277
  C  C473  1  0.556700  0.383700  0.485000  1.0  0.6633
  C  C474  1  0.802400  0.107800  0.665500  1.0  0.6922
  C  C475  1  0.733500  0.967600  0.290500  1.0  0.7388
  C  C476  1  0.637600  0.779600  0.527500  1.0  0.1724
  C  C477  1  0.590200  0.741900  0.547400  1.0  -0.1471
  C  C478  1  0.609300  0.718000  0.596700  1.0  -0.0301
  C  C479  1  0.673900  0.732800  0.626000  1.0  -0.1419
  C  C480  1  0.719400  0.771300  0.605800  1.0  -0.0369
  C  C481  1  0.701500  0.795700  0.556200  1.0  -0.0508
  C  C482  1  0.736100  0.836000  0.523000  1.0  -0.0339
  C  C483  1  0.692800  0.840000  0.475800  1.0  0.1729
  C  C484  1  0.710600  0.874400  0.434600  1.0  -0.1438
  C  C485  1  0.774900  0.903300  0.441600  1.0  0.0031
  C  C486  1  0.819600  0.901100  0.489100  1.0  -0.0578
  C  C487  1  0.799800  0.866000  0.529900  1.0  -0.027
  C  C488  1  0.572600  0.804200  0.440600  1.0  0.2
  C  C489  1  0.541200  0.741900  0.425900  1.0  -0.2505
  C  C490  1  0.482200  0.742300  0.388500  1.0  -0.0342
  C  C491  1  0.452900  0.799000  0.366100  1.0  -0.1287
  C  C492  1  0.486400  0.863000  0.382800  1.0  -0.0583
  C  C493  1  0.545500  0.867300  0.419700  1.0  -0.1708
  C  C494  1  0.691800  0.700100  0.677400  1.0  0.7251
  C  C495  1  0.886300  0.934800  0.495000  1.0  0.6789
  C  C496  1  0.390600  0.793900  0.325400  1.0  0.6687
  C  C497  1  0.560000  0.518700  0.657300  1.0  0.6785
  C  C498  1  0.157200  0.695800  0.457000  1.0  0.1695
  C  C499  1  0.121400  0.734000  0.415900  1.0  -0.1022
  C  C500  1  0.088300  0.793300  0.425700  1.0  -0.0203
  C  C501  1  0.090500  0.815700  0.476400  1.0  -0.1378
  C  C502  1  0.125200  0.778700  0.515800  1.0  -0.0371
  C  C503  1  0.160900  0.717900  0.507200  1.0  -0.0386
  C  C504  1  0.205700  0.672100  0.539300  1.0  -0.0514
  C  C505  1  0.229900  0.665700  0.591500  1.0  -0.0458
  C  C506  1  0.275000  0.613500  0.609900  1.0  -0.1269
  C  C507  1  0.295800  0.565400  0.577000  1.0  0.0041
  C  C508  1  0.271700  0.569400  0.525300  1.0  -0.0551
  C  C509  1  0.228200  0.623300  0.506500  1.0  0.1687
  C  C510  1  0.205000  0.597800  0.413400  1.0  0.1915
  C  C511  1  0.267000  0.593000  0.399600  1.0  -0.1426
  C  C512  1  0.274500  0.552700  0.359400  1.0  -0.0779
  C  C513  1  0.220700  0.515700  0.332000  1.0  -0.1771
  C  C514  1  0.159300  0.522000  0.346000  1.0  -0.069
  C  C515  1  0.151800  0.563100  0.385900  1.0  -0.1277
  C  C516  1  0.056700  0.883700  0.485000  1.0  0.6633
  C  C517  1  0.302400  0.607800  0.665500  1.0  0.6922
  C  C518  1  0.233500  0.467600  0.290500  1.0  0.7388
  C  C519  1  0.137600  0.279600  0.527500  1.0  0.1724
  C  C520  1  0.090200  0.241900  0.547400  1.0  -0.1471
  C  C521  1  0.109300  0.218000  0.596700  1.0  -0.0301
  C  C522  1  0.173900  0.232800  0.626000  1.0  -0.1419
  C  C523  1  0.219400  0.271300  0.605800  1.0  -0.0369
  C  C524  1  0.201500  0.295700  0.556200  1.0  -0.0508
  C  C525  1  0.236100  0.336000  0.523000  1.0  -0.0339
  C  C526  1  0.192800  0.340000  0.475800  1.0  0.1729
  C  C527  1  0.210600  0.374400  0.434600  1.0  -0.1438
  C  C528  1  0.274900  0.403300  0.441600  1.0  0.0031
  C  C529  1  0.319600  0.401100  0.489100  1.0  -0.0578
  C  C530  1  0.299800  0.366000  0.529900  1.0  -0.027
  C  C531  1  0.072600  0.304200  0.440600  1.0  0.2
  C  C532  1  0.041200  0.241900  0.425900  1.0  -0.2505
  C  C533  1  0.982200  0.242300  0.388500  1.0  -0.0342
  C  C534  1  0.952900  0.299000  0.366100  1.0  -0.1287
  C  C535  1  0.986400  0.363000  0.382800  1.0  -0.0583
  C  C536  1  0.045500  0.367300  0.419700  1.0  -0.1708
  C  C537  1  0.191800  0.200100  0.677400  1.0  0.7251
  C  C538  1  0.386300  0.434800  0.495000  1.0  0.6789
  C  C539  1  0.890600  0.293900  0.325400  1.0  0.6687
  C  C540  1  0.060000  0.018700  0.657300  1.0  0.6785
  C  C541  1  0.500000  0.374400  0.250000  1.0  0.6752
  C  C542  1  0.000000  0.874400  0.250000  1.0  0.6752
  C  C543  1  0.500000  0.625600  0.750000  1.0  0.6757
  C  C544  1  0.000000  0.125600  0.750000  1.0  0.6757
  N  N545  1  0.698500  0.861700  0.956800  1.0  -0.1268
  N  N546  1  0.632100  0.192500  0.979400  1.0  -0.1748
  N  N547  1  0.198500  0.361700  0.956800  1.0  -0.1268
  N  N548  1  0.132100  0.692500  0.979400  1.0  -0.1748
  N  N549  1  0.301500  0.861700  0.543200  1.0  -0.1278
  N  N550  1  0.367900  0.192500  0.520600  1.0  -0.1735
  N  N551  1  0.801500  0.361700  0.543200  1.0  -0.1278
  N  N552  1  0.867900  0.692500  0.520600  1.0  -0.1735
  N  N553  1  0.301500  0.138300  0.043200  1.0  -0.1277
  N  N554  1  0.367900  0.807500  0.020600  1.0  -0.1731
  N  N555  1  0.801500  0.638300  0.043200  1.0  -0.1277
  N  N556  1  0.867900  0.307500  0.020600  1.0  -0.1731
  N  N557  1  0.698500  0.138300  0.456800  1.0  -0.1267
  N  N558  1  0.632100  0.807500  0.479400  1.0  -0.174
  N  N559  1  0.198500  0.638300  0.456800  1.0  -0.1267
  N  N560  1  0.132100  0.307500  0.479400  1.0  -0.174
  O  O561  1  0.556600  0.601300  0.030700  1.0  -0.5705
  O  O562  1  0.531200  0.580200  0.947100  1.0  -0.582
  O  O563  1  0.786000  0.846400  0.196300  1.0  -0.6859
  O  O564  1  0.843700  0.939400  0.182300  1.0  -0.5652
  O  O565  1  0.782900  0.026000  0.771100  1.0  -0.617
  O  O566  1  0.690900  0.079000  0.777900  1.0  -0.5697
  O  O567  1  0.652200  0.343800  0.188500  1.0  -0.6228
  O  O568  1  0.747200  0.282400  0.206200  1.0  -0.6045
  O  O569  1  0.922300  0.063600  0.038800  1.0  -0.5717
  O  O570  1  0.900700  0.038100  0.955700  1.0  -0.5862
  O  O571  1  0.369800  0.146800  0.815500  1.0  -0.5832
  O  O572  1  0.364200  0.261700  0.811200  1.0  -0.503
  O  O573  1  0.554900  0.347800  0.250000  1.0  -0.5827
  O  O574  1  0.578200  0.485200  0.205500  1.0  -0.6316
  O  O575  1  0.537200  0.530100  0.130000  1.0  -0.6031
  O  O576  1  0.056600  0.101300  0.030700  1.0  -0.5705
  O  O577  1  0.031200  0.080200  0.947100  1.0  -0.5821
  O  O578  1  0.286000  0.346400  0.196300  1.0  -0.6859
  O  O579  1  0.343700  0.439400  0.182300  1.0  -0.5652
  O  O580  1  0.282900  0.526000  0.771100  1.0  -0.617
  O  O581  1  0.190900  0.579000  0.777900  1.0  -0.5697
  O  O582  1  0.152200  0.843800  0.188500  1.0  -0.6228
  O  O583  1  0.247200  0.782400  0.206200  1.0  -0.6045
  O  O584  1  0.422300  0.563600  0.038800  1.0  -0.5717
  O  O585  1  0.400700  0.538100  0.955700  1.0  -0.5863
  O  O586  1  0.869800  0.646800  0.815500  1.0  -0.5832
  O  O587  1  0.864200  0.761700  0.811200  1.0  -0.503
  O  O588  1  0.054900  0.847800  0.250000  1.0  -0.5827
  O  O589  1  0.078200  0.985200  0.205500  1.0  -0.6316
  O  O590  1  0.037200  0.030100  0.130000  1.0  -0.6031
  O  O591  1  0.443400  0.601300  0.469300  1.0  -0.5698
  O  O592  1  0.468800  0.580200  0.552900  1.0  -0.5816
  O  O593  1  0.214000  0.846400  0.303700  1.0  -0.687
  O  O594  1  0.156300  0.939400  0.317700  1.0  -0.5655
  O  O595  1  0.217100  0.026000  0.728900  1.0  -0.618
  O  O596  1  0.309100  0.079000  0.722100  1.0  -0.5693
  O  O597  1  0.347800  0.343800  0.311500  1.0  -0.621
  O  O598  1  0.252800  0.282400  0.293800  1.0  -0.6038
  O  O599  1  0.077700  0.063600  0.461200  1.0  -0.572
  O  O600  1  0.099300  0.038100  0.544300  1.0  -0.5863
  O  O601  1  0.630200  0.146800  0.684500  1.0  -0.5833
  O  O602  1  0.635800  0.261700  0.688800  1.0  -0.5029
  O  O603  1  0.445100  0.347800  0.250000  1.0  -0.5832
  O  O604  1  0.421800  0.485200  0.294500  1.0  -0.6313
  O  O605  1  0.462800  0.530100  0.370000  1.0  -0.6024
  O  O606  1  0.943400  0.101300  0.469300  1.0  -0.5698
  O  O607  1  0.968800  0.080200  0.552900  1.0  -0.5816
  O  O608  1  0.714000  0.346400  0.303700  1.0  -0.687
  O  O609  1  0.656300  0.439400  0.317700  1.0  -0.5655
  O  O610  1  0.717100  0.526000  0.728900  1.0  -0.618
  O  O611  1  0.809100  0.579000  0.722100  1.0  -0.5693
  O  O612  1  0.847800  0.843800  0.311500  1.0  -0.621
  O  O613  1  0.752800  0.782400  0.293800  1.0  -0.6038
  O  O614  1  0.577700  0.563600  0.461200  1.0  -0.572
  O  O615  1  0.599300  0.538100  0.544300  1.0  -0.5863
  O  O616  1  0.130200  0.646800  0.684500  1.0  -0.5833
  O  O617  1  0.135800  0.761700  0.688800  1.0  -0.5029
  O  O618  1  0.945100  0.847800  0.250000  1.0  -0.5832
  O  O619  1  0.921800  0.985200  0.294500  1.0  -0.6313
  O  O620  1  0.962800  0.030100  0.370000  1.0  -0.6024
  O  O621  1  0.443400  0.398700  0.969300  1.0  -0.5693
  O  O622  1  0.468800  0.419800  0.052900  1.0  -0.5821
  O  O623  1  0.214000  0.153600  0.803700  1.0  -0.6899
  O  O624  1  0.156300  0.060600  0.817700  1.0  -0.5648
  O  O625  1  0.217100  0.974000  0.228900  1.0  -0.6165
  O  O626  1  0.309100  0.921000  0.222100  1.0  -0.569
  O  O627  1  0.347800  0.656200  0.811500  1.0  -0.6204
  O  O628  1  0.252800  0.717600  0.793800  1.0  -0.6038
  O  O629  1  0.077700  0.936400  0.961200  1.0  -0.5719
  O  O630  1  0.099300  0.961900  0.044300  1.0  -0.5868
  O  O631  1  0.630200  0.853200  0.184500  1.0  -0.5837
  O  O632  1  0.635800  0.738300  0.188800  1.0  -0.5033
  O  O633  1  0.445100  0.652200  0.750000  1.0  -0.5825
  O  O634  1  0.421800  0.514800  0.794500  1.0  -0.6307
  O  O635  1  0.462800  0.469900  0.870000  1.0  -0.6022
  O  O636  1  0.943400  0.898700  0.969300  1.0  -0.5693
  O  O637  1  0.968800  0.919800  0.052900  1.0  -0.5824
  O  O638  1  0.714000  0.653600  0.803700  1.0  -0.6899
  O  O639  1  0.656300  0.560600  0.817700  1.0  -0.5648
  O  O640  1  0.717100  0.474000  0.228900  1.0  -0.6165
  O  O641  1  0.809100  0.421000  0.222100  1.0  -0.569
  O  O642  1  0.847800  0.156200  0.811500  1.0  -0.6204
  O  O643  1  0.752800  0.217600  0.793800  1.0  -0.6038
  O  O644  1  0.577700  0.436400  0.961200  1.0  -0.5719
  O  O645  1  0.599300  0.461900  0.044300  1.0  -0.5869
  O  O646  1  0.130200  0.353200  0.184500  1.0  -0.5837
  O  O647  1  0.135800  0.238300  0.188800  1.0  -0.5033
  O  O648  1  0.945100  0.152200  0.750000  1.0  -0.5825
  O  O649  1  0.921800  0.014800  0.794500  1.0  -0.6307
  O  O650  1  0.962800  0.969900  0.870000  1.0  -0.6022
  O  O651  1  0.556600  0.398700  0.530700  1.0  -0.5706
  O  O652  1  0.531200  0.419800  0.447100  1.0  -0.5824
  O  O653  1  0.786000  0.153600  0.696300  1.0  -0.6891
  O  O654  1  0.843700  0.060600  0.682300  1.0  -0.565
  O  O655  1  0.782900  0.974000  0.271100  1.0  -0.6168
  O  O656  1  0.690900  0.921000  0.277900  1.0  -0.5692
  O  O657  1  0.652200  0.656200  0.688500  1.0  -0.6227
  O  O658  1  0.747200  0.717600  0.706200  1.0  -0.6051
  O  O659  1  0.922300  0.936400  0.538800  1.0  -0.5718
  O  O660  1  0.900700  0.961900  0.455700  1.0  -0.5863
  O  O661  1  0.369800  0.853200  0.315500  1.0  -0.5825
  O  O662  1  0.364200  0.738300  0.311200  1.0  -0.5044
  O  O663  1  0.554900  0.652200  0.750000  1.0  -0.5839
  O  O664  1  0.578200  0.514800  0.705500  1.0  -0.6309
  O  O665  1  0.537200  0.469900  0.630000  1.0  -0.6021
  O  O666  1  0.056600  0.898700  0.530700  1.0  -0.5706
  O  O667  1  0.031200  0.919800  0.447100  1.0  -0.5826
  O  O668  1  0.286000  0.653600  0.696300  1.0  -0.6891
  O  O669  1  0.343700  0.560600  0.682300  1.0  -0.565
  O  O670  1  0.282900  0.474000  0.271100  1.0  -0.6168
  O  O671  1  0.190900  0.421000  0.277900  1.0  -0.5692
  O  O672  1  0.152200  0.156200  0.688500  1.0  -0.6227
  O  O673  1  0.247200  0.217600  0.706200  1.0  -0.6051
  O  O674  1  0.422300  0.436400  0.538800  1.0  -0.5718
  O  O675  1  0.400700  0.461900  0.455700  1.0  -0.5863
  O  O676  1  0.869800  0.353200  0.315500  1.0  -0.5825
  O  O677  1  0.864200  0.238300  0.311200  1.0  -0.5044
  O  O678  1  0.054900  0.152200  0.750000  1.0  -0.5839
  O  O679  1  0.078200  0.014800  0.705500  1.0  -0.6309
  O  O680  1  0.037200  0.969900  0.630000  1.0  -0.6021
