# generated using pymatgen
data_CuH24(C4N3)4
_symmetry_space_group_name_H-M   'P 1'
_cell_length_a   11.20150000
_cell_length_b   14.96930000
_cell_length_c   21.45850000
_cell_angle_alpha   90.00000000
_cell_angle_beta   92.09800000
_cell_angle_gamma   90.00000000
_symmetry_Int_Tables_number   1
_chemical_formula_structural   CuH24(C4N3)4
_chemical_formula_sum   'Cu4 H96 C64 N48'
_cell_volume   3595.71961012
_cell_formula_units_Z   4
loop_
 _symmetry_equiv_pos_site_id
 _symmetry_equiv_pos_as_xyz
  1  'x, y, z'
loop_
 _atom_site_type_symbol
 _atom_site_label
 _atom_site_symmetry_multiplicity
 _atom_site_fract_x
 _atom_site_fract_y
 _atom_site_fract_z
 _atom_site_occupancy
 _atom_site_charge
  Cu  Cu1  1  0.597550  0.237780  0.300330  1.0  0.4868
  Cu  Cu2  1  0.902450  0.737780  0.199670  1.0  0.4869
  Cu  Cu3  1  0.402450  0.762220  0.699670  1.0  0.4875
  Cu  Cu4  1  0.097550  0.262220  0.800330  1.0  0.4873
  H  H5  1  0.418900  0.384700  0.334700  1.0  0.078
  H  H6  1  0.509000  0.323600  0.166000  1.0  0.0855
  H  H7  1  0.255700  0.545700  0.240000  1.0  0.0785
  H  H8  1  0.279400  0.521100  0.310300  1.0  0.0614
  H  H9  1  0.443900  0.617000  0.240700  1.0  0.0626
  H  H10  1  0.353200  0.663500  0.284100  1.0  0.0634
  H  H11  1  0.555700  0.563200  0.321300  1.0  0.0655
  H  H12  1  0.450500  0.568600  0.367300  1.0  0.0563
  H  H13  1  0.576900  0.677100  0.399400  1.0  0.0961
  H  H14  1  0.471600  0.728000  0.364900  1.0  0.0717
  H  H15  1  0.724200  0.633300  0.282100  1.0  0.0819
  H  H16  1  0.753900  0.889600  0.272200  1.0  0.0625
  H  H17  1  0.321800  0.174600  0.322200  1.0  0.063
  H  H18  1  0.581500  0.215900  0.448400  1.0  0.0761
  H  H19  1  0.345500  0.126300  0.535600  1.0  0.0792
  H  H20  1  0.483200  0.144200  0.544200  1.0  0.0899
  H  H21  1  0.377100  0.988100  0.495200  1.0  0.0659
  H  H22  1  0.450400  0.994600  0.558200  1.0  0.0612
  H  H23  1  0.628200  0.031000  0.317400  1.0  0.0735
  H  H24  1  0.846600  0.209800  0.383900  1.0  0.0601
  H  H25  1  0.008900  0.010100  0.398200  1.0  0.0706
  H  H26  1  0.017500  0.107600  0.424900  1.0  0.0668
  H  H27  1  0.914000  0.069100  0.510600  1.0  0.0648
  H  H28  1  0.879600  0.975700  0.481800  1.0  0.0611
  H  H29  1  0.081100  0.884700  0.165300  1.0  0.0777
  H  H30  1  0.991000  0.823600  0.334000  1.0  0.0846
  H  H31  1  0.244300  0.045700  0.260000  1.0  0.0782
  H  H32  1  0.220600  0.021100  0.189700  1.0  0.0583
  H  H33  1  0.056100  0.117000  0.259300  1.0  0.063
  H  H34  1  0.146800  0.163500  0.215900  1.0  0.0641
  H  H35  1  0.944300  0.063200  0.178700  1.0  0.062
  H  H36  1  0.049500  0.068600  0.132700  1.0  0.0556
  H  H37  1  0.923100  0.177100  0.100600  1.0  0.0935
  H  H38  1  0.028400  0.228000  0.135100  1.0  0.07
  H  H39  1  0.775800  0.133300  0.217900  1.0  0.082
  H  H40  1  0.746100  0.389600  0.227800  1.0  0.0623
  H  H41  1  0.178200  0.674600  0.177800  1.0  0.0626
  H  H42  1  0.918500  0.715900  0.051600  1.0  0.0755
  H  H43  1  0.154500  0.626300  0.964400  1.0  0.0763
  H  H44  1  0.016800  0.644200  0.955800  1.0  0.0904
  H  H45  1  0.122900  0.488100  0.004800  1.0  0.0687
  H  H46  1  0.049600  0.494600  0.941800  1.0  0.0608
  H  H47  1  0.871800  0.531000  0.182600  1.0  0.0742
  H  H48  1  0.653400  0.709800  0.116100  1.0  0.0612
  H  H49  1  0.491100  0.510100  0.101800  1.0  0.0717
  H  H50  1  0.482500  0.607600  0.075100  1.0  0.0675
  H  H51  1  0.586000  0.569100  0.989400  1.0  0.0637
  H  H52  1  0.620400  0.475700  0.018200  1.0  0.0615
  H  H53  1  0.581100  0.615300  0.665300  1.0  0.0777
  H  H54  1  0.491000  0.676400  0.834000  1.0  0.085
  H  H55  1  0.744300  0.454300  0.760000  1.0  0.0781
  H  H56  1  0.720600  0.478900  0.689700  1.0  0.0584
  H  H57  1  0.556100  0.383000  0.759300  1.0  0.0628
  H  H58  1  0.646800  0.336500  0.715900  1.0  0.0635
  H  H59  1  0.444300  0.436800  0.678700  1.0  0.0626
  H  H60  1  0.549500  0.431400  0.632700  1.0  0.056
  H  H61  1  0.423100  0.322900  0.600600  1.0  0.0941
  H  H62  1  0.528400  0.272000  0.635100  1.0  0.0687
  H  H63  1  0.275800  0.366700  0.717900  1.0  0.082
  H  H64  1  0.246100  0.110400  0.727800  1.0  0.0626
  H  H65  1  0.678200  0.825400  0.677800  1.0  0.0629
  H  H66  1  0.418500  0.784100  0.551600  1.0  0.076
  H  H67  1  0.654500  0.873700  0.464400  1.0  0.076
  H  H68  1  0.516800  0.855800  0.455800  1.0  0.0904
  H  H69  1  0.622900  0.011900  0.504800  1.0  0.0682
  H  H70  1  0.549600  0.005400  0.441800  1.0  0.0608
  H  H71  1  0.371800  0.969000  0.682600  1.0  0.0744
  H  H72  1  0.153400  0.790200  0.616100  1.0  0.061
  H  H73  1  0.991100  0.989900  0.601800  1.0  0.0709
  H  H74  1  0.982500  0.892400  0.575100  1.0  0.0689
  H  H75  1  0.086000  0.930900  0.489400  1.0  0.0644
  H  H76  1  0.120400  0.024300  0.518200  1.0  0.0615
  H  H77  1  0.918900  0.115300  0.834700  1.0  0.0779
  H  H78  1  0.009000  0.176400  0.666000  1.0  0.0847
  H  H79  1  0.755700  0.954300  0.740000  1.0  0.0787
  H  H80  1  0.779400  0.978900  0.810300  1.0  0.061
  H  H81  1  0.943900  0.883000  0.740700  1.0  0.0622
  H  H82  1  0.853200  0.836500  0.784100  1.0  0.0622
  H  H83  1  0.055700  0.936800  0.821300  1.0  0.0655
  H  H84  1  0.950500  0.931400  0.867300  1.0  0.0561
  H  H85  1  0.076900  0.822900  0.899400  1.0  0.0965
  H  H86  1  0.971600  0.772000  0.864900  1.0  0.0702
  H  H87  1  0.224200  0.866700  0.782100  1.0  0.0815
  H  H88  1  0.253900  0.610400  0.772200  1.0  0.0622
  H  H89  1  0.821800  0.325400  0.822200  1.0  0.0628
  H  H90  1  0.081500  0.284100  0.948400  1.0  0.0757
  H  H91  1  0.845500  0.373700  0.035600  1.0  0.0798
  H  H92  1  0.983200  0.355800  0.044200  1.0  0.0906
  H  H93  1  0.877100  0.511900  0.995200  1.0  0.0652
  H  H94  1  0.950400  0.505400  0.058200  1.0  0.0618
  H  H95  1  0.128200  0.469000  0.817400  1.0  0.0736
  H  H96  1  0.346600  0.290200  0.883900  1.0  0.0613
  H  H97  1  0.508900  0.489900  0.898200  1.0  0.071
  H  H98  1  0.517500  0.392400  0.924900  1.0  0.0679
  H  H99  1  0.414000  0.430900  0.010600  1.0  0.0659
  H  H100  1  0.379600  0.524300  0.981800  1.0  0.0611
  C  C101  1  0.426900  0.385400  0.291700  1.0  0.0774
  C  C102  1  0.475000  0.353000  0.199200  1.0  0.2075
  C  C103  1  0.317600  0.531600  0.271100  1.0  -0.061
  C  C104  1  0.400000  0.609900  0.278500  1.0  -0.1272
  C  C105  1  0.489400  0.599800  0.334000  1.0  -0.1309
  C  C106  1  0.538000  0.687300  0.359000  1.0  -0.0776
  C  C107  1  0.709700  0.694100  0.286200  1.0  0.0752
  C  C108  1  0.725000  0.833000  0.281400  1.0  0.25
  C  C109  1  0.367700  0.175200  0.359200  1.0  0.1678
  C  C110  1  0.510800  0.198500  0.427800  1.0  0.0825
  C  C111  1  0.422000  0.115500  0.517700  1.0  -0.1141
  C  C112  1  0.446000  0.016200  0.515600  1.0  -0.1277
  C  C113  1  0.693900  0.057900  0.337500  1.0  0.2271
  C  C114  1  0.810800  0.155700  0.373000  1.0  0.1326
  C  C115  1  0.966500  0.055300  0.421100  1.0  0.0136
  C  C116  1  0.942000  0.020700  0.484800  1.0  -0.1404
  C  C117  1  0.073100  0.885400  0.208300  1.0  0.0773
  C  C118  1  0.025000  0.853000  0.300800  1.0  0.2076
  C  C119  1  0.182400  0.031600  0.228900  1.0  -0.061
  C  C120  1  0.100000  0.109900  0.221500  1.0  -0.1291
  C  C121  1  0.010600  0.099800  0.166000  1.0  -0.132
  C  C122  1  0.962000  0.187300  0.141000  1.0  -0.0772
  C  C123  1  0.790300  0.194100  0.213800  1.0  0.0752
  C  C124  1  0.775000  0.333000  0.218600  1.0  0.2481
  C  C125  1  0.132300  0.675200  0.140800  1.0  0.169
  C  C126  1  0.989200  0.698500  0.072200  1.0  0.0824
  C  C127  1  0.078000  0.615500  0.982300  1.0  -0.1126
  C  C128  1  0.054000  0.516200  0.984400  1.0  -0.1271
  C  C129  1  0.806100  0.557900  0.162500  1.0  0.2273
  C  C130  1  0.689200  0.655700  0.127000  1.0  0.1335
  C  C131  1  0.533500  0.555300  0.078900  1.0  0.0115
  C  C132  1  0.558000  0.520700  0.015200  1.0  -0.1384
  C  C133  1  0.573100  0.614600  0.708300  1.0  0.0776
  C  C134  1  0.525000  0.647000  0.800800  1.0  0.2066
  C  C135  1  0.682400  0.468400  0.728900  1.0  -0.0613
  C  C136  1  0.600000  0.390100  0.721500  1.0  -0.1282
  C  C137  1  0.510600  0.400200  0.666000  1.0  -0.1318
  C  C138  1  0.462000  0.312700  0.641000  1.0  -0.0764
  C  C139  1  0.290300  0.305900  0.713800  1.0  0.0757
  C  C140  1  0.275000  0.167000  0.718600  1.0  0.249
  C  C141  1  0.632300  0.824800  0.640800  1.0  0.1689
  C  C142  1  0.489200  0.801500  0.572200  1.0  0.0824
  C  C143  1  0.578000  0.884500  0.482300  1.0  -0.1124
  C  C144  1  0.554000  0.983800  0.484400  1.0  -0.1257
  C  C145  1  0.306100  0.942100  0.662500  1.0  0.2268
  C  C146  1  0.189200  0.844300  0.627000  1.0  0.1324
  C  C147  1  0.033500  0.944700  0.578900  1.0  0.012
  C  C148  1  0.058000  0.979300  0.515200  1.0  -0.1394
  C  C149  1  0.926900  0.114600  0.791700  1.0  0.0765
  C  C150  1  0.975000  0.147000  0.699200  1.0  0.2081
  C  C151  1  0.817600  0.968400  0.771100  1.0  -0.0617
  C  C152  1  0.900000  0.890100  0.778500  1.0  -0.1273
  C  C153  1  0.989400  0.900200  0.834000  1.0  -0.131
  C  C154  1  0.038000  0.812700  0.859000  1.0  -0.0774
  C  C155  1  0.209700  0.805900  0.786200  1.0  0.0756
  C  C156  1  0.225000  0.667000  0.781400  1.0  0.2496
  C  C157  1  0.867700  0.324800  0.859200  1.0  0.1679
  C  C158  1  0.010800  0.301500  0.927800  1.0  0.0818
  C  C159  1  0.922000  0.384500  0.017700  1.0  -0.1143
  C  C160  1  0.946000  0.483800  0.015600  1.0  -0.1265
  C  C161  1  0.193900  0.442100  0.837500  1.0  0.2267
  C  C162  1  0.310800  0.344300  0.873000  1.0  0.1308
  C  C163  1  0.466500  0.444700  0.921100  1.0  0.0129
  C  C164  1  0.442000  0.479300  0.984800  1.0  -0.1406
  N  N165  1  0.485400  0.326000  0.259800  1.0  -0.3738
  N  N166  1  0.407000  0.428300  0.194100  1.0  -0.3631
  N  N167  1  0.380000  0.447800  0.252200  1.0  0.1446
  N  N168  1  0.631300  0.820100  0.316400  1.0  -0.4548
  N  N169  1  0.620900  0.728300  0.318700  1.0  0.1126
  N  N170  1  0.775200  0.757900  0.260400  1.0  -0.4458
  N  N171  1  0.480900  0.213800  0.366500  1.0  -0.4525
  N  N172  1  0.423400  0.155600  0.452700  1.0  0.1376
  N  N173  1  0.336000  0.140300  0.411300  1.0  -0.2941
  N  N174  1  0.708300  0.148900  0.342500  1.0  -0.3896
  N  N175  1  0.782700  0.012900  0.364000  1.0  -0.3857
  N  N176  1  0.856500  0.079000  0.386300  1.0  0.1336
  N  N177  1  0.014600  0.826000  0.240200  1.0  -0.3737
  N  N178  1  0.093000  0.928300  0.305900  1.0  -0.3644
  N  N179  1  0.120000  0.947800  0.247800  1.0  0.1467
  N  N180  1  0.868700  0.320100  0.183600  1.0  -0.4566
  N  N181  1  0.879100  0.228300  0.181300  1.0  0.1116
  N  N182  1  0.724800  0.257900  0.239600  1.0  -0.4467
  N  N183  1  0.019100  0.713800  0.133500  1.0  -0.4518
  N  N184  1  0.076600  0.655600  0.047300  1.0  0.1369
  N  N185  1  0.164000  0.640300  0.088700  1.0  -0.2962
  N  N186  1  0.791700  0.648900  0.157500  1.0  -0.3881
  N  N187  1  0.717300  0.512900  0.136000  1.0  -0.3854
  N  N188  1  0.643500  0.579000  0.113700  1.0  0.1318
  N  N189  1  0.514600  0.674000  0.740200  1.0  -0.3738
  N  N190  1  0.593000  0.571700  0.805900  1.0  -0.3646
  N  N191  1  0.620000  0.552200  0.747800  1.0  0.1459
  N  N192  1  0.368700  0.179900  0.683600  1.0  -0.4537
  N  N193  1  0.379100  0.271700  0.681300  1.0  0.112
  N  N194  1  0.224800  0.242100  0.739600  1.0  -0.4466
  N  N195  1  0.519100  0.786200  0.633500  1.0  -0.4513
  N  N196  1  0.576600  0.844400  0.547300  1.0  0.1367
  N  N197  1  0.664000  0.859700  0.588700  1.0  -0.2954
  N  N198  1  0.291700  0.851100  0.657500  1.0  -0.3872
  N  N199  1  0.217300  0.987100  0.636000  1.0  -0.3866
  N  N200  1  0.143500  0.921000  0.613700  1.0  0.1322
  N  N201  1  0.985400  0.174000  0.759800  1.0  -0.3741
  N  N202  1  0.907000  0.071700  0.694100  1.0  -0.3635
  N  N203  1  0.880000  0.052200  0.752200  1.0  0.1445
  N  N204  1  0.131300  0.679900  0.816400  1.0  -0.4525
  N  N205  1  0.120900  0.771700  0.818700  1.0  0.1129
  N  N206  1  0.275200  0.742100  0.760400  1.0  -0.4455
  N  N207  1  0.980900  0.286200  0.866500  1.0  -0.4517
  N  N208  1  0.923400  0.344400  0.952700  1.0  0.1365
  N  N209  1  0.836000  0.359700  0.911300  1.0  -0.2932
  N  N210  1  0.208300  0.351100  0.842500  1.0  -0.3899
  N  N211  1  0.282700  0.487100  0.864000  1.0  -0.386
  N  N212  1  0.356500  0.421000  0.886300  1.0  0.1337
