# generated using pymatgen
data_Zn8H47(C44O13)2
_symmetry_space_group_name_H-M   'P 1'
_cell_length_a   17.50910000
_cell_length_b   41.25550000
_cell_length_c   41.25550000
_cell_angle_alpha   120.00000000
_cell_angle_beta   90.00000000
_cell_angle_gamma   90.00000000
_symmetry_Int_Tables_number   1
_chemical_formula_structural   Zn8H47(C44O13)2
_chemical_formula_sum   'Zn24 H141 C264 O78'
_cell_volume   25808.22668911
_cell_formula_units_Z   3
loop_
 _symmetry_equiv_pos_site_id
 _symmetry_equiv_pos_as_xyz
  1  'x, y, z'
loop_
 _atom_site_type_symbol
 _atom_site_label
 _atom_site_symmetry_multiplicity
 _atom_site_fract_x
 _atom_site_fract_y
 _atom_site_fract_z
 _atom_site_occupancy
 _atom_site_charge
  Zn  Zn1  1  0.837330  0.595220  0.968530  1.0  1.1431
  Zn  Zn2  1  0.831480  0.373550  0.405450  1.0  1.1874
  Zn  Zn3  1  0.835700  0.031320  0.627760  1.0  1.143
  Zn  Zn4  1  0.337440  0.404550  0.031590  1.0  1.1762
  Zn  Zn5  1  0.331590  0.627330  0.595460  1.0  1.1393
  Zn  Zn6  1  0.338670  0.968690  0.371850  1.0  1.1369
  Zn  Zn7  1  0.165860  0.404810  0.031600  1.0  1.1849
  Zn  Zn8  1  0.160130  0.626650  0.595510  1.0  1.1882
  Zn  Zn9  1  0.167070  0.968060  0.373430  1.0  1.1704
  Zn  Zn10  1  0.665810  0.594900  0.968330  1.0  1.1817
  Zn  Zn11  1  0.660050  0.373500  0.404960  1.0  1.1742
  Zn  Zn12  1  0.664510  0.031740  0.626060  1.0  1.1655
  Zn  Zn13  1  0.752460  0.570170  0.896930  1.0  1.1585
  Zn  Zn14  1  0.751610  0.522290  0.932950  1.0  1.1527
  Zn  Zn15  1  0.744730  0.326890  0.430120  1.0  1.1537
  Zn  Zn16  1  0.745820  0.410730  0.477990  1.0  1.1414
  Zn  Zn17  1  0.750300  0.103040  0.673400  1.0  1.1758
  Zn  Zn18  1  0.753840  0.067090  0.589580  1.0  1.1449
  Zn  Zn19  1  0.252070  0.429350  0.103010  1.0  1.1616
  Zn  Zn20  1  0.251520  0.477440  0.067220  1.0  1.1379
  Zn  Zn21  1  0.244550  0.673450  0.570350  1.0  1.1715
  Zn  Zn22  1  0.246070  0.589570  0.522730  1.0  1.1613
  Zn  Zn23  1  0.253180  0.896980  0.325510  1.0  1.1737
  Zn  Zn24  1  0.257020  0.932210  0.409110  1.0  1.1436
  H  H25  1  0.028780  0.640970  0.946400  1.0  0.1129
  H  H26  1  0.146830  0.648560  0.919440  1.0  0.114
  H  H27  1  0.044680  0.590270  0.809450  1.0  0.1147
  H  H28  1  0.925900  0.584260  0.836740  1.0  0.1096
  H  H29  1  0.128310  0.629380  0.801960  1.0  0.117
  H  H30  1  0.357720  0.655540  0.767770  1.0  0.115
  H  H31  1  0.893260  0.461250  0.961730  1.0  0.1137
  H  H32  1  0.013380  0.566750  0.017370  1.0  0.1134
  H  H33  1  0.700540  0.420910  0.831890  1.0  0.1149
  H  H34  1  0.698110  0.367600  0.768140  1.0  0.1155
  H  H35  1  0.356920  0.655340  0.708550  1.0  0.1123
  H  H36  1  0.021260  0.304250  0.358730  1.0  0.1142
  H  H37  1  0.138680  0.269720  0.351510  1.0  0.1166
  H  H38  1  0.039870  0.218640  0.411140  1.0  0.1138
  H  H39  1  0.918980  0.250620  0.416640  1.0  0.119
  H  H40  1  0.123230  0.172050  0.371320  1.0  0.1151
  H  H41  1  0.353830  0.112740  0.343250  1.0  0.1075
  H  H42  1  0.888770  0.500060  0.539640  1.0  0.1179
  H  H43  1  0.008860  0.449880  0.434110  1.0  0.1147
  H  H44  1  0.676680  0.297370  0.567970  1.0  0.1116
  H  H45  1  0.677800  0.306900  0.514360  1.0  0.1145
  H  H46  1  0.356770  0.053830  0.343560  1.0  0.1144
  H  H47  1  0.026070  0.054220  0.696680  1.0  0.1134
  H  H48  1  0.143720  0.081690  0.730930  1.0  0.1153
  H  H49  1  0.044810  0.192350  0.781590  1.0  0.1171
  H  H50  1  0.923770  0.165740  0.749880  1.0  0.1185
  H  H51  1  0.128110  0.199120  0.828220  1.0  0.1191
  H  H52  1  0.358820  0.231760  0.887410  1.0  0.115
  H  H53  1  0.692610  0.270900  0.703940  1.0  0.1146
  H  H54  1  0.693040  0.207860  0.694390  1.0  0.1142
  H  H55  1  0.360180  0.291050  0.946340  1.0  0.1153
  H  H56  1  0.528540  0.358340  0.054420  1.0  0.1085
  H  H57  1  0.646650  0.351480  0.081840  1.0  0.1141
  H  H58  1  0.546530  0.414100  0.192030  1.0  0.1132
  H  H59  1  0.427600  0.419190  0.164310  1.0  0.1148
  H  H60  1  0.628430  0.377150  0.202130  1.0  0.1069
  H  H61  1  0.858360  0.402590  0.262570  1.0  0.1142
  H  H62  1  0.393500  0.538700  0.038670  1.0  0.1135
  H  H63  1  0.513300  0.433120  0.982840  1.0  0.1116
  H  H64  1  0.199100  0.578500  0.168180  1.0  0.113
  H  H65  1  0.196830  0.631860  0.231880  1.0  0.1158
  H  H66  1  0.857290  0.400670  0.320580  1.0  0.1114
  H  H67  1  0.520660  0.695810  0.641250  1.0  0.1121
  H  H68  1  0.638820  0.730250  0.649050  1.0  0.1162
  H  H69  1  0.539130  0.780800  0.589140  1.0  0.1139
  H  H70  1  0.420000  0.747460  0.582790  1.0  0.1158
  H  H71  1  0.622690  0.827760  0.628700  1.0  0.1158
  H  H72  1  0.852680  0.887790  0.657050  1.0  0.1133
  H  H73  1  0.388760  0.500630  0.461400  1.0  0.113
  H  H74  1  0.509110  0.550320  0.566830  1.0  0.1124
  H  H75  1  0.177630  0.702840  0.432480  1.0  0.1157
  H  H76  1  0.178750  0.693450  0.486170  1.0  0.1151
  H  H77  1  0.854690  0.946680  0.656670  1.0  0.1137
  H  H78  1  0.528850  0.946490  0.303490  1.0  0.1142
  H  H79  1  0.647100  0.919600  0.269160  1.0  0.1157
  H  H80  1  0.545980  0.809420  0.218110  1.0  0.1159
  H  H81  1  0.426950  0.836620  0.251220  1.0  0.1158
  H  H82  1  0.629920  0.801820  0.171460  1.0  0.1178
  H  H83  1  0.860150  0.768000  0.111800  1.0  0.1151
  H  H84  1  0.397470  0.961460  0.498130  1.0  0.1136
  H  H85  1  0.517210  0.018150  0.449250  1.0  0.1119
  H  H86  1  0.198290  0.728270  0.293600  1.0  0.1136
  H  H87  1  0.199170  0.791210  0.302950  1.0  0.1109
  H  H88  1  0.860570  0.708530  0.053080  1.0  0.1137
  H  H89  1  0.975010  0.358230  0.054260  1.0  0.1108
  H  H90  1  0.857790  0.351060  0.081750  1.0  0.1148
  H  H91  1  0.957630  0.410250  0.192260  1.0  0.1157
  H  H92  1  0.078310  0.415620  0.165560  1.0  0.1173
  H  H93  1  0.873700  0.370990  0.199460  1.0  0.1176
  H  H94  1  0.642290  0.343960  0.231450  1.0  0.1112
  H  H95  1  0.108810  0.539270  0.039610  1.0  0.1131
  H  H96  1  0.988660  0.433780  0.983950  1.0  0.1147
  H  H97  1  0.314240  0.565790  0.271170  1.0  0.1132
  H  H98  1  0.311860  0.512140  0.208060  1.0  0.1129
  H  H99  1  0.639250  0.344770  0.290940  1.0  0.1141
  H  H100  1  0.968210  0.695680  0.641850  1.0  0.1117
  H  H101  1  0.850220  0.730090  0.648820  1.0  0.1184
  H  H102  1  0.951030  0.778370  0.587010  1.0  0.116
  H  H103  1  0.069790  0.745430  0.581800  1.0  0.1143
  H  H104  1  0.868120  0.825190  0.623570  1.0  0.1063
  H  H105  1  0.638070  0.859290  0.597140  1.0  0.1158
  H  H106  1  0.104410  0.499530  0.461450  1.0  0.1138
  H  H107  1  0.984310  0.549710  0.566970  1.0  0.1131
  H  H108  1  0.301330  0.589750  0.421880  1.0  0.1158
  H  H109  1  0.305050  0.600150  0.368580  1.0  0.1159
  H  H110  1  0.638080  0.919410  0.599410  1.0  0.1111
  H  H111  1  0.976080  0.945800  0.303970  1.0  0.1138
  H  H112  1  0.858270  0.918610  0.269330  1.0  0.1158
  H  H113  1  0.957970  0.808300  0.221310  1.0  0.1122
  H  H114  1  0.076730  0.835830  0.254440  1.0  0.1149
  H  H115  1  0.875130  0.797890  0.174480  1.0  0.1058
  H  H116  1  0.643330  0.738800  0.140610  1.0  0.1147
  H  H117  1  0.112600  0.958260  0.503310  1.0  0.1399
  H  H118  1  0.314040  0.831560  0.408760  1.0  0.1178
  H  H119  1  0.317820  0.767890  0.398500  1.0  0.1108
  H  H120  1  0.641830  0.680820  0.080670  1.0  0.113
  H  H121  1  0.475980  0.641310  0.945180  1.0  0.1146
  H  H122  1  0.357990  0.648590  0.918050  1.0  0.1153
  H  H123  1  0.456770  0.585660  0.807610  1.0  0.1138
  H  H124  1  0.575790  0.580040  0.835070  1.0  0.1119
  H  H125  1  0.373540  0.622420  0.797370  1.0  0.1073
  H  H126  1  0.140990  0.597460  0.738920  1.0  0.1145
  H  H127  1  0.608760  0.460580  0.960610  1.0  0.1138
  H  H128  1  0.488960  0.566150  0.016440  1.0  0.1163
  H  H129  1  0.816660  0.433600  0.729100  1.0  0.1138
  H  H130  1  0.814510  0.487160  0.792220  1.0  0.1131
  H  H131  1  0.138280  0.599950  0.681230  1.0  0.1113
  H  H132  1  0.468210  0.304810  0.359090  1.0  0.1127
  H  H133  1  0.350110  0.270480  0.352140  1.0  0.1119
  H  H134  1  0.450590  0.222330  0.414150  1.0  0.1136
  H  H135  1  0.569470  0.255200  0.419340  1.0  0.1145
  H  H136  1  0.368510  0.175350  0.377110  1.0  0.1051
  H  H137  1  0.139010  0.140510  0.402950  1.0  0.1146
  H  H138  1  0.604530  0.500600  0.539200  1.0  0.1138
  H  H139  1  0.484130  0.450940  0.433780  1.0  0.1128
  H  H140  1  0.803940  0.409540  0.578160  1.0  0.1176
  H  H141  1  0.807930  0.398910  0.631300  1.0  0.1167
  H  H142  1  0.139950  0.080360  0.400620  1.0  0.1124
  H  H143  1  0.472910  0.054520  0.695050  1.0  0.113
  H  H144  1  0.355080  0.081880  0.729620  1.0  0.1155
  H  H145  1  0.455490  0.192050  0.777660  1.0  0.1146
  H  H146  1  0.574180  0.164360  0.744560  1.0  0.1167
  H  H147  1  0.373300  0.202260  0.824670  1.0  0.1051
  H  H148  1  0.142670  0.262140  0.859200  1.0  0.1141
  H  H149  1  0.611900  0.040610  0.499480  1.0  0.1119
  H  H150  1  0.491710  0.983840  0.548140  1.0  0.112
  H  H151  1  0.814150  0.168220  0.590250  1.0  0.1152
  H  H152  1  0.818390  0.232050  0.600800  1.0  0.1143
  H  H153  1  0.142070  0.319910  0.919300  1.0  0.1122
  H  H154  1  0.739290  0.398120  0.678550  1.0  0.1209
  H  H155  1  0.749910  0.279760  0.601750  1.0  0.1086
  H  H156  1  0.769460  0.321910  0.719910  1.0  0.1211
  H  H157  1  0.236340  0.601910  0.321620  1.0  0.1187
  H  H158  1  0.253940  0.719930  0.398850  1.0  0.1045
  H  H159  1  0.271310  0.676840  0.279010  1.0  0.1198
  H  H160  1  0.251740  0.614950  0.883810  1.0  0.1188
  H  H161  1  0.244010  0.269040  0.385690  1.0  0.1176
  H  H162  1  0.248900  0.116650  0.731230  1.0  0.1169
  H  H163  1  0.752860  0.385090  0.116670  1.0  0.1144
  H  H164  1  0.744460  0.731390  0.615230  1.0  0.1149
  H  H165  1  0.752060  0.884240  0.267910  1.0  0.119
  C  C166  1  0.898330  0.603640  0.909690  1.0  0.7002
  C  C167  1  0.967330  0.612160  0.893840  1.0  -0.1221
  C  C168  1  0.031130  0.630310  0.916520  1.0  -0.0762
  C  C169  1  0.099380  0.634280  0.900920  1.0  -0.1106
  C  C170  1  0.106430  0.619810  0.862040  1.0  0.0122
  C  C171  1  0.041800  0.602410  0.839520  1.0  -0.1097
  C  C172  1  0.973300  0.598840  0.855200  1.0  -0.0816
  C  C173  1  0.181000  0.621870  0.844870  1.0  0.0034
  C  C174  1  0.181830  0.625550  0.812680  1.0  -0.1082
  C  C175  1  0.309930  0.642610  0.749030  1.0  -0.1314
  C  C176  1  0.887360  0.532890  0.973810  1.0  0.6706
  C  C177  1  0.945430  0.516300  0.987730  1.0  -0.0983
  C  C178  1  0.939970  0.478640  0.978730  1.0  -0.0743
  C  C179  1  0.007210  0.537710  0.009890  1.0  -0.0864
  C  C180  1  0.726100  0.423830  0.809580  1.0  -0.087
  C  C181  1  0.725190  0.393240  0.773020  1.0  -0.1461
  C  C182  1  0.309300  0.642830  0.715090  1.0  -0.0847
  C  C183  1  0.891090  0.305950  0.396920  1.0  0.6932
  C  C184  1  0.959410  0.281210  0.387950  1.0  -0.0797
  C  C185  1  0.023280  0.285270  0.369700  1.0  -0.0566
  C  C186  1  0.091400  0.265710  0.366050  1.0  -0.1128
  C  C187  1  0.099350  0.241700  0.381020  1.0  0.0088
  C  C188  1  0.035670  0.236390  0.398840  1.0  -0.1298
  C  C189  1  0.966330  0.254780  0.402230  1.0  -0.1243
  C  C190  1  0.174470  0.222790  0.378780  1.0  0.0102
  C  C191  1  0.176360  0.186840  0.374930  1.0  -0.0926
  C  C192  1  0.307250  0.106630  0.356580  1.0  -0.1264
  C  C193  1  0.882460  0.440610  0.467970  1.0  0.685
  C  C194  1  0.940930  0.470890  0.484600  1.0  -0.0864
  C  C195  1  0.935550  0.499580  0.522230  1.0  -0.0714
  C  C196  1  0.002780  0.471480  0.463140  1.0  -0.0779
  C  C197  1  0.705990  0.321660  0.570620  1.0  -0.1419
  C  C198  1  0.705950  0.327280  0.539900  1.0  -0.0806
  C  C199  1  0.308790  0.072520  0.356430  1.0  -0.0868
  C  C200  1  0.895840  0.090620  0.694870  1.0  0.6812
  C  C201  1  0.964190  0.106460  0.719560  1.0  -0.066
  C  C202  1  0.028120  0.084190  0.715520  1.0  -0.1087
  C  C203  1  0.096360  0.100180  0.734910  1.0  -0.1045
  C  C204  1  0.104300  0.139190  0.758720  1.0  0.0091
  C  C205  1  0.040580  0.162280  0.763990  1.0  -0.1313
  C  C206  1  0.971150  0.147210  0.745770  1.0  -0.1219
  C  C207  1  0.179430  0.155940  0.777500  1.0  0.0067
  C  C208  1  0.181260  0.188090  0.813390  1.0  -0.107
  C  C209  1  0.311620  0.250850  0.893420  1.0  -0.1292
  C  C210  1  0.887930  0.025000  0.560140  1.0  0.6891
  C  C211  1  0.944610  0.009920  0.529620  1.0  0.0155
  C  C212  1  0.950340  0.016770  0.498120  1.0  0.0779
  C  C213  1  0.006410  0.989590  0.526070  1.0  -0.004
  C  C214  1  0.720920  0.249100  0.679340  1.0  -0.1533
  C  C215  1  0.720440  0.212810  0.673710  1.0  -0.0807
  C  C216  1  0.312250  0.284850  0.927530  1.0  -0.084
  C  C217  1  0.398750  0.396790  0.090770  1.0  0.6798
  C  C218  1  0.468000  0.389040  0.107050  1.0  -0.1248
  C  C219  1  0.531370  0.370110  0.084460  1.0  -0.0826
  C  C220  1  0.599680  0.366600  0.100330  1.0  -0.124
  C  C221  1  0.607310  0.382400  0.139390  1.0  0.0313
  C  C222  1  0.543250  0.400850  0.161860  1.0  -0.1204
  C  C223  1  0.474630  0.403880  0.145930  1.0  -0.077
  C  C224  1  0.681610  0.379900  0.156510  1.0  0.0341
  C  C225  1  0.682160  0.377180  0.189280  1.0  -0.0638
  C  C226  1  0.810810  0.389000  0.267660  1.0  -0.133
  C  C227  1  0.387370  0.467000  0.026450  1.0  0.6876
  C  C228  1  0.445490  0.483610  0.012570  1.0  -0.0967
  C  C229  1  0.440150  0.521290  0.021630  1.0  -0.0745
  C  C230  1  0.507210  0.462180  0.990370  1.0  -0.0855
  C  C231  1  0.224390  0.575560  0.190540  1.0  -0.0855
  C  C232  1  0.223580  0.606180  0.227070  1.0  -0.1526
  C  C233  1  0.809990  0.388260  0.301300  1.0  -0.0757
  C  C234  1  0.391390  0.694460  0.603000  1.0  0.6807
  C  C235  1  0.460330  0.718870  0.611480  1.0  -0.1205
  C  C236  1  0.523530  0.714720  0.630220  1.0  -0.0755
  C  C237  1  0.591870  0.734230  0.634330  1.0  -0.0917
  C  C238  1  0.599670  0.758260  0.619460  1.0  0.0093
  C  C239  1  0.535620  0.763090  0.601520  1.0  -0.1091
  C  C240  1  0.466960  0.743850  0.597770  1.0  -0.0649
  C  C241  1  0.674530  0.777340  0.621720  1.0  0.0135
  C  C242  1  0.676020  0.813190  0.625330  1.0  -0.0953
  C  C243  1  0.805940  0.893730  0.643660  1.0  -0.129
  C  C244  1  0.382640  0.559920  0.533150  1.0  0.6854
  C  C245  1  0.441030  0.529570  0.516440  1.0  -0.0894
  C  C246  1  0.435560  0.501000  0.478740  1.0  -0.0694
  C  C247  1  0.502940  0.528810  0.537770  1.0  -0.0765
  C  C248  1  0.206050  0.678300  0.429730  1.0  -0.1274
  C  C249  1  0.206060  0.672790  0.460510  1.0  -0.0799
  C  C250  1  0.806930  0.927830  0.643790  1.0  -0.0868
  C  C251  1  0.398960  0.909660  0.304490  1.0  0.684
  C  C252  1  0.467890  0.893810  0.280090  1.0  -0.1167
  C  C253  1  0.531440  0.916580  0.284460  1.0  -0.0812
  C  C254  1  0.599810  0.901020  0.265010  1.0  -0.0937
  C  C255  1  0.607210  0.862110  0.240880  1.0  0.0114
  C  C256  1  0.542800  0.839510  0.235860  1.0  -0.1133
  C  C257  1  0.474180  0.855130  0.254990  1.0  -0.0654
  C  C258  1  0.681990  0.845040  0.221910  1.0  0.0042
  C  C259  1  0.683270  0.812740  0.186130  1.0  -0.11
  C  C260  1  0.812600  0.749140  0.105970  1.0  -0.1299
  C  C261  1  0.391650  0.973900  0.438980  1.0  0.6866
  C  C262  1  0.449570  0.987970  0.469540  1.0  -0.0918
  C  C263  1  0.443930  0.978730  0.498010  1.0  -0.0797
  C  C264  1  0.510990  0.010490  0.470680  1.0  -0.0785
  C  C265  1  0.225400  0.750200  0.318530  1.0  -0.1336
  C  C266  1  0.225160  0.786440  0.324030  1.0  -0.0802
  C  C267  1  0.812680  0.715040  0.071960  1.0  -0.0838
  C  C268  1  0.105740  0.396100  0.090540  1.0  0.6898
  C  C269  1  0.037370  0.387180  0.106370  1.0  -0.077
  C  C270  1  0.973250  0.369100  0.084180  1.0  -0.0607
  C  C271  1  0.905240  0.365480  0.100220  1.0  -0.1066
  C  C272  1  0.897590  0.380360  0.139220  1.0  -0.0
  C  C273  1  0.961530  0.398010  0.162210  1.0  -0.1298
  C  C274  1  0.030780  0.401330  0.147070  1.0  -0.1185
  C  C275  1  0.822480  0.378270  0.156040  1.0  0.0014
  C  C276  1  0.820580  0.374610  0.188280  1.0  -0.0956
  C  C277  1  0.689120  0.357170  0.250760  1.0  -0.1304
  C  C278  1  0.115030  0.467500  0.027190  1.0  0.6797
  C  C279  1  0.056640  0.484230  0.013580  1.0  -0.0931
  C  C280  1  0.062040  0.521900  0.022630  1.0  -0.0745
  C  C281  1  0.994790  0.462830  0.991470  1.0  -0.0789
  C  C282  1  0.287600  0.568970  0.249240  1.0  -0.1475
  C  C283  1  0.286870  0.538230  0.212950  1.0  -0.0801
  C  C284  1  0.687480  0.357310  0.284870  1.0  -0.0841
  C  C285  1  0.098360  0.693790  0.603610  1.0  0.6787
  C  C286  1  0.029090  0.717910  0.611520  1.0  -0.1209
  C  C287  1  0.965570  0.714140  0.630290  1.0  -0.0825
  C  C288  1  0.897320  0.733600  0.633860  1.0  -0.1345
  C  C289  1  0.889850  0.757080  0.618280  1.0  0.0202
  C  C290  1  0.954110  0.761270  0.600060  1.0  -0.1212
  C  C291  1  0.022660  0.742210  0.596960  1.0  -0.0717
  C  C292  1  0.815410  0.776590  0.620620  1.0  0.0301
  C  C293  1  0.814520  0.812100  0.623320  1.0  -0.0629
  C  C294  1  0.685050  0.878250  0.611110  1.0  -0.1319
  C  C295  1  0.110340  0.559170  0.533040  1.0  0.6761
  C  C296  1  0.052240  0.528710  0.516480  1.0  -0.0868
  C  C297  1  0.057670  0.499990  0.478860  1.0  -0.0772
  C  C298  1  0.990440  0.528090  0.537950  1.0  -0.0849
  C  C299  1  0.274050  0.614440  0.424320  1.0  -0.0947
  C  C300  1  0.275640  0.620370  0.393710  1.0  -0.1331
  C  C301  1  0.685220  0.912750  0.612080  1.0  -0.0852
  C  C302  1  0.105660  0.909280  0.306010  1.0  0.6779
  C  C303  1  0.036420  0.893120  0.281880  1.0  -0.1126
  C  C304  1  0.973210  0.915790  0.285540  1.0  -0.0876
  C  C305  1  0.905060  0.900030  0.265940  1.0  -0.1299
  C  C306  1  0.897310  0.860990  0.242470  1.0  0.0185
  C  C307  1  0.961270  0.838440  0.238400  1.0  -0.1186
  C  C308  1  0.029790  0.854280  0.257570  1.0  -0.0802
  C  C309  1  0.822820  0.844000  0.222870  1.0  0.0295
  C  C310  1  0.821680  0.811060  0.187450  1.0  -0.0669
  C  C311  1  0.690500  0.733300  0.121610  1.0  -0.1126
  C  C312  1  0.120680  0.971480  0.440540  1.0  0.6465
  C  C313  1  0.064210  0.984310  0.471190  1.0  -0.0744
  C  C314  1  0.067860  0.975050  0.500920  1.0  0.0509
  C  C315  1  0.000300  0.005800  0.474540  1.0  0.0512
  C  C316  1  0.288800  0.809090  0.383540  1.0  -0.0802
  C  C317  1  0.290510  0.772570  0.377670  1.0  -0.1217
  C  C318  1  0.689780  0.699690  0.087220  1.0  -0.0849
  C  C319  1  0.605140  0.602370  0.908700  1.0  0.6745
  C  C320  1  0.535940  0.610270  0.892430  1.0  -0.1178
  C  C321  1  0.472930  0.629510  0.915140  1.0  -0.0834
  C  C322  1  0.404650  0.633280  0.899430  1.0  -0.1285
  C  C323  1  0.396570  0.617460  0.860380  1.0  0.0119
  C  C324  1  0.460350  0.598830  0.837760  1.0  -0.1152
  C  C325  1  0.529010  0.595500  0.853550  1.0  -0.0759
  C  C326  1  0.321850  0.619980  0.843520  1.0  0.0279
  C  C327  1  0.320250  0.622560  0.810630  1.0  -0.0627
  C  C328  1  0.187890  0.611090  0.733410  1.0  -0.1173
  C  C329  1  0.615150  0.532350  0.973040  1.0  0.6854
  C  C330  1  0.556770  0.515660  0.986720  1.0  -0.0946
  C  C331  1  0.562070  0.477970  0.977630  1.0  -0.0724
  C  C332  1  0.495010  0.537090  0.008890  1.0  -0.0784
  C  C333  1  0.789850  0.430410  0.750980  1.0  -0.1443
  C  C334  1  0.789250  0.461110  0.787290  1.0  -0.0829
  C  C335  1  0.186470  0.612170  0.699950  1.0  -0.088
  C  C336  1  0.598250  0.306630  0.397290  1.0  0.6795
  C  C337  1  0.528920  0.282620  0.389500  1.0  -0.1202
  C  C338  1  0.465460  0.286410  0.370700  1.0  -0.0806
  C  C339  1  0.397160  0.267000  0.367140  1.0  -0.1227
  C  C340  1  0.389640  0.243560  0.382750  1.0  0.031
  C  C341  1  0.453780  0.239400  0.401060  1.0  -0.119
  C  C342  1  0.522380  0.258400  0.404150  1.0  -0.0757
  C  C343  1  0.315340  0.223910  0.380210  1.0  0.0308
  C  C344  1  0.314790  0.188330  0.377300  1.0  -0.0643
  C  C345  1  0.186240  0.121700  0.389030  1.0  -0.1231
  C  C346  1  0.610240  0.441130  0.467470  1.0  0.6807
  C  C347  1  0.552220  0.471660  0.484170  1.0  -0.0971
  C  C348  1  0.557750  0.500260  0.521860  1.0  -0.076
  C  C349  1  0.490370  0.472460  0.462840  1.0  -0.0835
  C  C350  1  0.775930  0.385050  0.575810  1.0  -0.0972
  C  C351  1  0.777670  0.378980  0.606330  1.0  -0.1495
  C  C352  1  0.186960  0.087190  0.388030  1.0  -0.0877
  C  C353  1  0.602870  0.090870  0.693110  1.0  0.6774
  C  C354  1  0.533580  0.107120  0.717160  1.0  -0.1111
  C  C355  1  0.470190  0.084540  0.713470  1.0  -0.0837
  C  C356  1  0.402030  0.100390  0.733030  1.0  -0.1264
  C  C357  1  0.394540  0.139430  0.756510  1.0  0.025
  C  C358  1  0.458630  0.161900  0.760570  1.0  -0.1247
  C  C359  1  0.527120  0.145980  0.741420  1.0  -0.077
  C  C360  1  0.320260  0.156530  0.776240  1.0  0.0288
  C  C361  1  0.319650  0.189320  0.811760  1.0  -0.0692
  C  C362  1  0.189880  0.267340  0.878100  1.0  -0.1165
  C  C363  1  0.617170  0.027630  0.558620  1.0  0.6825
  C  C364  1  0.559590  0.014040  0.527950  1.0  -0.0914
  C  C365  1  0.565330  0.023350  0.499500  1.0  -0.0702
  C  C366  1  0.498090  0.991580  0.526780  1.0  -0.08
  C  C367  1  0.787590  0.190550  0.615130  1.0  -0.0818
  C  C368  1  0.789600  0.227160  0.621170  1.0  -0.1301
  C  C369  1  0.189700  0.300840  0.912590  1.0  -0.0829
  C  C370  1  0.754750  0.491470  0.854980  1.0  0.7093
  C  C371  1  0.757210  0.458210  0.816960  1.0  -0.0953
  C  C372  1  0.756860  0.396130  0.743120  1.0  0.0443
  C  C373  1  0.754940  0.363840  0.703910  1.0  0.0564
  C  C374  1  0.747060  0.369910  0.673390  1.0  -0.1251
  C  C375  1  0.743260  0.363590  0.508820  1.0  0.7054
  C  C376  1  0.741140  0.358920  0.542110  1.0  -0.0731
  C  C377  1  0.743010  0.347070  0.604140  1.0  0.0229
  C  C378  1  0.747040  0.339920  0.636290  1.0  0.0419
  C  C379  1  0.751230  0.303120  0.630060  1.0  -0.0802
  C  C380  1  0.753810  0.145040  0.636680  1.0  0.708
  C  C381  1  0.753650  0.183130  0.641580  1.0  -0.0938
  C  C382  1  0.756230  0.257010  0.653420  1.0  0.0505
  C  C383  1  0.756650  0.296160  0.660080  1.0  0.0349
  C  C384  1  0.760660  0.326850  0.696780  1.0  -0.1224
  C  C385  1  0.253280  0.508000  0.145160  1.0  0.7069
  C  C386  1  0.255260  0.541170  0.183220  1.0  -0.0937
  C  C387  1  0.255190  0.603320  0.256990  1.0  0.0395
  C  C388  1  0.254290  0.635840  0.296070  1.0  0.004
  C  C389  1  0.245500  0.630030  0.326790  1.0  -0.1105
  C  C390  1  0.242830  0.636440  0.491620  1.0  0.7092
  C  C391  1  0.240410  0.640940  0.458220  1.0  -0.0861
  C  C392  1  0.242080  0.652560  0.396050  1.0  0.0306
  C  C393  1  0.246610  0.659830  0.364010  1.0  0.0008
  C  C394  1  0.252990  0.696570  0.370550  1.0  -0.0827
  C  C395  1  0.256710  0.854420  0.361600  1.0  0.7073
  C  C396  1  0.256690  0.816300  0.356580  1.0  -0.0963
  C  C397  1  0.258780  0.742560  0.345040  1.0  0.057
  C  C398  1  0.258770  0.703630  0.338780  1.0  -0.0363
  C  C399  1  0.261940  0.672520  0.302500  1.0  -0.141
  C  C400  1  0.251560  0.619090  0.859910  1.0  -0.0922
  C  C401  1  0.250680  0.625060  0.794610  1.0  0.0007
  C  C402  1  0.249460  0.626460  0.758750  1.0  0.0375
  C  C403  1  0.247410  0.627760  0.690180  1.0  -0.0865
  C  C404  1  0.246780  0.627770  0.654020  1.0  0.7063
  C  C405  1  0.244560  0.240940  0.381410  1.0  -0.0856
  C  C406  1  0.245860  0.169470  0.374930  1.0  0.003
  C  C407  1  0.246290  0.132090  0.373240  1.0  0.0342
  C  C408  1  0.248580  0.062320  0.372060  1.0  -0.0914
  C  C409  1  0.250290  0.026190  0.372080  1.0  0.7126
  C  C410  1  0.249500  0.140530  0.759300  1.0  -0.0877
  C  C411  1  0.250640  0.205710  0.830630  1.0  0.0012
  C  C412  1  0.250650  0.241560  0.867880  1.0  0.0428
  C  C413  1  0.251140  0.310190  0.937610  1.0  -0.0825
  C  C414  1  0.251540  0.346300  0.973790  1.0  0.7167
  C  C415  1  0.752360  0.380930  0.140560  1.0  -0.0859
  C  C416  1  0.751060  0.374800  0.205780  1.0  -0.0027
  C  C417  1  0.750500  0.373360  0.241630  1.0  0.0251
  C  C418  1  0.748020  0.372730  0.310520  1.0  -0.0835
  C  C419  1  0.746750  0.372820  0.346720  1.0  0.7094
  C  C420  1  0.744780  0.759430  0.619360  1.0  -0.0849
  C  C421  1  0.745360  0.830730  0.625420  1.0  -0.0005
  C  C422  1  0.745320  0.868070  0.626970  1.0  0.0278
  C  C423  1  0.746490  0.937830  0.628090  1.0  -0.0934
  C  C424  1  0.747810  0.973910  0.627910  1.0  0.7066
  C  C425  1  0.752300  0.860280  0.239900  1.0  -0.0925
  C  C426  1  0.752370  0.794810  0.168780  1.0  0.0008
  C  C427  1  0.751760  0.758820  0.131630  1.0  0.0388
  C  C428  1  0.751140  0.689950  0.062090  1.0  -0.0842
  C  C429  1  0.751260  0.653660  0.026060  1.0  0.705
  O  O430  1  0.837730  0.591290  0.890110  1.0  -0.6275
  O  O431  1  0.832800  0.512570  0.953470  1.0  -0.6266
  O  O432  1  0.902520  0.606850  0.941950  1.0  -0.6265
  O  O433  1  0.893150  0.566960  0.982130  1.0  -0.6358
  O  O434  1  0.309850  0.628340  0.638920  1.0  -0.6345
  O  O435  1  0.830750  0.299120  0.409800  1.0  -0.6317
  O  O436  1  0.827420  0.440780  0.488130  1.0  -0.6265
  O  O437  1  0.895500  0.334810  0.393360  1.0  -0.6241
  O  O438  1  0.888230  0.414870  0.433930  1.0  -0.6292
  O  O439  1  0.314280  0.010940  0.370940  1.0  -0.6332
  O  O440  1  0.835640  0.110370  0.701540  1.0  -0.626
  O  O441  1  0.834980  0.045810  0.559730  1.0  -0.6097
  O  O442  1  0.900080  0.058080  0.666220  1.0  -0.621
  O  O443  1  0.892590  0.016930  0.586090  1.0  -0.5968
  O  O444  1  0.314980  0.361140  0.989190  1.0  -0.6295
  O  O445  1  0.337930  0.408930  0.110180  1.0  -0.6268
  O  O446  1  0.332850  0.487310  0.046860  1.0  -0.6323
  O  O447  1  0.402890  0.393220  0.058350  1.0  -0.6235
  O  O448  1  0.393100  0.432890  0.018030  1.0  -0.6328
  O  O449  1  0.809640  0.373720  0.362660  1.0  -0.635
  O  O450  1  0.330770  0.701300  0.590290  1.0  -0.6308
  O  O451  1  0.327770  0.559740  0.512910  1.0  -0.6225
  O  O452  1  0.395710  0.665760  0.606810  1.0  -0.6245
  O  O453  1  0.388290  0.585700  0.567230  1.0  -0.6346
  O  O454  1  0.811640  0.989250  0.629050  1.0  -0.6334
  O  O455  1  0.338610  0.889940  0.297560  1.0  -0.6296
  O  O456  1  0.338290  0.952950  0.438770  1.0  -0.6218
  O  O457  1  0.403070  0.942110  0.333333  1.0  -0.6244
  O  O458  1  0.396030  0.982650  0.413490  1.0  -0.6313
  O  O459  1  0.814660  0.638610  0.010830  1.0  -0.6348
  O  O460  1  0.166060  0.408920  0.110260  1.0  -0.6266
  O  O461  1  0.170000  0.487630  0.047280  1.0  -0.6266
  O  O462  1  0.101460  0.392590  0.058120  1.0  -0.6232
  O  O463  1  0.109260  0.433410  0.018770  1.0  -0.6327
  O  O464  1  0.683030  0.372410  0.361460  1.0  -0.6329
  O  O465  1  0.158780  0.700940  0.591080  1.0  -0.6276
  O  O466  1  0.165080  0.559170  0.512800  1.0  -0.627
  O  O467  1  0.094580  0.664990  0.607330  1.0  -0.6264
  O  O468  1  0.104400  0.584930  0.567070  1.0  -0.6319
  O  O469  1  0.685190  0.988690  0.626140  1.0  -0.639
  O  O470  1  0.166670  0.889940  0.298380  1.0  -0.6278
  O  O471  1  0.176400  0.951450  0.439860  1.0  -0.6243
  O  O472  1  0.101390  0.941490  0.335220  1.0  -0.6304
  O  O473  1  0.112620  0.980420  0.415350  1.0  -0.604
  O  O474  1  0.688020  0.637960  0.011200  1.0  -0.6343
  O  O475  1  0.665760  0.589760  0.889150  1.0  -0.6324
  O  O476  1  0.670000  0.512150  0.952890  1.0  -0.6272
  O  O477  1  0.601100  0.606420  0.941350  1.0  -0.6238
  O  O478  1  0.609460  0.566440  0.981450  1.0  -0.633
  O  O479  1  0.183250  0.626710  0.638440  1.0  -0.635
  O  O480  1  0.658870  0.299380  0.409580  1.0  -0.6268
  O  O481  1  0.664690  0.440980  0.487780  1.0  -0.6284
  O  O482  1  0.594370  0.335430  0.393610  1.0  -0.6251
  O  O483  1  0.604500  0.415480  0.433330  1.0  -0.6316
  O  O484  1  0.187750  0.011250  0.373680  1.0  -0.6347
  O  O485  1  0.663740  0.110280  0.700550  1.0  -0.6238
  O  O486  1  0.672670  0.047660  0.558960  1.0  -0.6275
  O  O487  1  0.598770  0.058490  0.664150  1.0  -0.6303
  O  O488  1  0.610090  0.019110  0.584170  1.0  -0.6323
  O  O489  1  0.188350  0.362080  0.988600  1.0  -0.6356
  O  O490  1  0.751780  0.570640  0.941700  1.0  -1.3056
  O  O491  1  0.755150  0.523640  0.858100  1.0  -0.6099
  O  O492  1  0.752370  0.487620  0.883680  1.0  -0.6181
  O  O493  1  0.745470  0.371180  0.429630  1.0  -1.3027
  O  O494  1  0.742870  0.334510  0.476670  1.0  -0.6175
  O  O495  1  0.745320  0.396120  0.512630  1.0  -0.6178
  O  O496  1  0.751050  0.058280  0.629170  1.0  -1.2851
  O  O497  1  0.750660  0.141850  0.665660  1.0  -0.6089
  O  O498  1  0.756590  0.116360  0.604130  1.0  -0.6144
  O  O499  1  0.251710  0.429040  0.058340  1.0  -1.3024
  O  O500  1  0.253420  0.475800  0.141940  1.0  -0.608
  O  O501  1  0.251780  0.511960  0.116520  1.0  -0.6177
  O  O502  1  0.245530  0.629240  0.571020  1.0  -1.3048
  O  O503  1  0.242090  0.665590  0.523710  1.0  -0.6156
  O  O504  1  0.245520  0.603980  0.487940  1.0  -0.6204
  O  O505  1  0.253920  0.941520  0.369980  1.0  -1.295
  O  O506  1  0.253570  0.857820  0.332740  1.0  -0.6143
  O  O507  1  0.259470  0.882960  0.394210  1.0  -0.6185
