# generated using pymatgen
data_Ga12H18C54O49
_symmetry_space_group_name_H-M   'P 1'
_cell_length_a   14.56650000
_cell_length_b   14.56650000
_cell_length_c   31.68350000
_cell_angle_alpha   90.00000000
_cell_angle_beta   90.00000000
_cell_angle_gamma   120.00000000
_symmetry_Int_Tables_number   1
_chemical_formula_structural   Ga12H18C54O49
_chemical_formula_sum   'Ga24 H36 C108 O98'
_cell_volume   5822.02691838
_cell_formula_units_Z   2
loop_
 _symmetry_equiv_pos_site_id
 _symmetry_equiv_pos_as_xyz
  1  'x, y, z'
loop_
 _atom_site_type_symbol
 _atom_site_label
 _atom_site_symmetry_multiplicity
 _atom_site_fract_x
 _atom_site_fract_y
 _atom_site_fract_z
 _atom_site_occupancy
 _atom_site_charge
  Ga  Ga1  1  0.925680  0.074320  0.250000  1.0  1.6991
  Ga  Ga2  1  0.148640  0.074320  0.250000  1.0  1.6976
  Ga  Ga3  1  0.925680  0.851360  0.250000  1.0  1.6975
  Ga  Ga4  1  0.074320  0.925680  0.750000  1.0  1.6975
  Ga  Ga5  1  0.851360  0.925680  0.750000  1.0  1.699
  Ga  Ga6  1  0.074320  0.148640  0.750000  1.0  1.6987
  Ga  Ga7  1  0.583250  0.166500  0.415090  1.0  1.528
  Ga  Ga8  1  0.583250  0.416740  0.415090  1.0  1.5295
  Ga  Ga9  1  0.833490  0.416740  0.415090  1.0  1.5295
  Ga  Ga10  1  0.416750  0.833500  0.915090  1.0  1.5292
  Ga  Ga11  1  0.416750  0.583260  0.915090  1.0  1.5288
  Ga  Ga12  1  0.166510  0.583260  0.915090  1.0  1.529
  Ga  Ga13  1  0.416750  0.833500  0.584910  1.0  1.5288
  Ga  Ga14  1  0.166510  0.583260  0.584910  1.0  1.5294
  Ga  Ga15  1  0.416750  0.583260  0.584910  1.0  1.5288
  Ga  Ga16  1  0.583250  0.166500  0.084910  1.0  1.5286
  Ga  Ga17  1  0.833490  0.416740  0.084910  1.0  1.5291
  Ga  Ga18  1  0.583250  0.416740  0.084910  1.0  1.5296
  Ga  Ga19  1  0.500000  0.000000  0.500000  1.0  1.4969
  Ga  Ga20  1  0.500000  0.500000  0.500000  1.0  1.4969
  Ga  Ga21  1  0.000000  0.500000  0.500000  1.0  1.4969
  Ga  Ga22  1  0.500000  0.000000  0.000000  1.0  1.4969
  Ga  Ga23  1  0.500000  0.500000  0.000000  1.0  1.4969
  Ga  Ga24  1  0.000000  0.500000  0.000000  1.0  1.4969
  H  H25  1  0.723400  0.000000  0.355200  1.0  0.107
  H  H26  1  0.276600  0.276600  0.355200  1.0  0.1066
  H  H27  1  0.000000  0.723400  0.355200  1.0  0.1066
  H  H28  1  0.276600  0.000000  0.855200  1.0  0.1071
  H  H29  1  0.723400  0.723400  0.855200  1.0  0.1068
  H  H30  1  0.000000  0.276600  0.855200  1.0  0.1068
  H  H31  1  0.723400  0.000000  0.644800  1.0  0.1071
  H  H32  1  0.000000  0.723400  0.644800  1.0  0.107
  H  H33  1  0.276600  0.276600  0.644800  1.0  0.107
  H  H34  1  0.276600  0.000000  0.144800  1.0  0.1072
  H  H35  1  0.000000  0.276600  0.144800  1.0  0.1069
  H  H36  1  0.723400  0.723400  0.144800  1.0  0.1069
  H  H37  1  0.276600  0.000000  0.644800  1.0  0.1072
  H  H38  1  0.723400  0.723400  0.644800  1.0  0.1068
  H  H39  1  0.000000  0.276600  0.644800  1.0  0.1072
  H  H40  1  0.723400  0.000000  0.144800  1.0  0.1072
  H  H41  1  0.276600  0.276600  0.144800  1.0  0.1068
  H  H42  1  0.000000  0.723400  0.144800  1.0  0.1068
  H  H43  1  0.276600  0.000000  0.355200  1.0  0.1069
  H  H44  1  0.000000  0.276600  0.355200  1.0  0.107
  H  H45  1  0.723400  0.723400  0.355200  1.0  0.1067
  H  H46  1  0.723400  0.000000  0.855200  1.0  0.1069
  H  H47  1  0.000000  0.723400  0.855200  1.0  0.1067
  H  H48  1  0.276600  0.276600  0.855200  1.0  0.1068
  H  H49  1  0.574900  0.787450  0.447700  1.0  0.1161
  H  H50  1  0.212550  0.425100  0.447700  1.0  0.1162
  H  H51  1  0.212550  0.787450  0.447700  1.0  0.1163
  H  H52  1  0.425100  0.212550  0.947700  1.0  0.1159
  H  H53  1  0.787450  0.574900  0.947700  1.0  0.1165
  H  H54  1  0.787450  0.212550  0.947700  1.0  0.116
  H  H55  1  0.787450  0.212550  0.552300  1.0  0.1156
  H  H56  1  0.787450  0.574900  0.552300  1.0  0.1158
  H  H57  1  0.425100  0.212550  0.552300  1.0  0.1152
  H  H58  1  0.212550  0.787450  0.052300  1.0  0.1158
  H  H59  1  0.212550  0.425100  0.052300  1.0  0.1156
  H  H60  1  0.574900  0.787450  0.052300  1.0  0.1156
  C  C61  1  0.610500  0.975200  0.425000  1.0  0.7269
  C  C62  1  0.704400  0.935100  0.367800  1.0  0.0333
  C  C63  1  0.646000  0.905700  0.405100  1.0  -0.1634
  C  C64  1  0.364700  0.389500  0.425000  1.0  0.7271
  C  C65  1  0.230700  0.295600  0.367800  1.0  0.0319
  C  C66  1  0.259700  0.354000  0.405100  1.0  -0.163
  C  C67  1  0.024800  0.635300  0.425000  1.0  0.7261
  C  C68  1  0.064900  0.769300  0.367800  1.0  0.0338
  C  C69  1  0.094300  0.740300  0.405100  1.0  -0.1633
  C  C70  1  0.389500  0.024800  0.925000  1.0  0.7261
  C  C71  1  0.295600  0.064900  0.867800  1.0  0.0327
  C  C72  1  0.354000  0.094300  0.905100  1.0  -0.1637
  C  C73  1  0.635300  0.610500  0.925000  1.0  0.7277
  C  C74  1  0.769300  0.704400  0.867800  1.0  0.0316
  C  C75  1  0.740300  0.646000  0.905100  1.0  -0.1633
  C  C76  1  0.975200  0.364700  0.925000  1.0  0.7266
  C  C77  1  0.935100  0.230700  0.867800  1.0  0.0334
  C  C78  1  0.905700  0.259700  0.905100  1.0  -0.164
  C  C79  1  0.635300  0.024800  0.575000  1.0  0.7266
  C  C80  1  0.769300  0.064900  0.632200  1.0  0.0338
  C  C81  1  0.740300  0.094300  0.594900  1.0  -0.164
  C  C82  1  0.975200  0.610500  0.575000  1.0  0.7268
  C  C83  1  0.935100  0.704400  0.632200  1.0  0.0316
  C  C84  1  0.905700  0.646000  0.594900  1.0  -0.1632
  C  C85  1  0.389500  0.364700  0.575000  1.0  0.7266
  C  C86  1  0.295600  0.230700  0.632200  1.0  0.0333
  C  C87  1  0.354000  0.259700  0.594900  1.0  -0.1636
  C  C88  1  0.364700  0.975200  0.075000  1.0  0.7268
  C  C89  1  0.230700  0.935100  0.132200  1.0  0.0327
  C  C90  1  0.259700  0.905700  0.094900  1.0  -0.1639
  C  C91  1  0.024800  0.389500  0.075000  1.0  0.7281
  C  C92  1  0.064900  0.295600  0.132200  1.0  0.0316
  C  C93  1  0.094300  0.354000  0.094900  1.0  -0.1635
  C  C94  1  0.610500  0.635300  0.075000  1.0  0.7266
  C  C95  1  0.704400  0.769300  0.132200  1.0  0.0338
  C  C96  1  0.646000  0.740300  0.094900  1.0  -0.1639
  C  C97  1  0.389500  0.024800  0.575000  1.0  0.7262
  C  C98  1  0.295600  0.064900  0.632200  1.0  0.0335
  C  C99  1  0.354000  0.094300  0.594900  1.0  -0.164
  C  C100  1  0.635300  0.610500  0.575000  1.0  0.7277
  C  C101  1  0.769300  0.704400  0.632200  1.0  0.0315
  C  C102  1  0.740300  0.646000  0.594900  1.0  -0.1635
  C  C103  1  0.975200  0.364700  0.575000  1.0  0.7267
  C  C104  1  0.935100  0.230700  0.632200  1.0  0.033
  C  C105  1  0.905700  0.259700  0.594900  1.0  -0.1641
  C  C106  1  0.610500  0.975200  0.075000  1.0  0.727
  C  C107  1  0.704400  0.935100  0.132200  1.0  0.0327
  C  C108  1  0.646000  0.905700  0.094900  1.0  -0.1636
  C  C109  1  0.364700  0.389500  0.075000  1.0  0.7272
  C  C110  1  0.230700  0.295600  0.132200  1.0  0.0318
  C  C111  1  0.259700  0.354000  0.094900  1.0  -0.1632
  C  C112  1  0.024800  0.635300  0.075000  1.0  0.7264
  C  C113  1  0.064900  0.769300  0.132200  1.0  0.0343
  C  C114  1  0.094300  0.740300  0.094900  1.0  -0.1637
  C  C115  1  0.364700  0.975200  0.425000  1.0  0.7265
  C  C116  1  0.230700  0.935100  0.367800  1.0  0.0331
  C  C117  1  0.259700  0.905700  0.405100  1.0  -0.1637
  C  C118  1  0.024800  0.389500  0.425000  1.0  0.7282
  C  C119  1  0.064900  0.295600  0.367800  1.0  0.0317
  C  C120  1  0.094300  0.354000  0.405100  1.0  -0.1633
  C  C121  1  0.610500  0.635300  0.425000  1.0  0.7265
  C  C122  1  0.704400  0.769300  0.367800  1.0  0.0334
  C  C123  1  0.646000  0.740300  0.405100  1.0  -0.1636
  C  C124  1  0.635300  0.024800  0.925000  1.0  0.7267
  C  C125  1  0.769300  0.064900  0.867800  1.0  0.0331
  C  C126  1  0.740300  0.094300  0.905100  1.0  -0.1636
  C  C127  1  0.975200  0.610500  0.925000  1.0  0.7267
  C  C128  1  0.935100  0.704400  0.867800  1.0  0.0318
  C  C129  1  0.905700  0.646000  0.905100  1.0  -0.1631
  C  C130  1  0.389500  0.364700  0.925000  1.0  0.7264
  C  C131  1  0.295600  0.230700  0.867800  1.0  0.0336
  C  C132  1  0.354000  0.259700  0.905100  1.0  -0.1634
  C  C133  1  0.799500  0.899750  0.309500  1.0  0.7707
  C  C134  1  0.734400  0.867200  0.349300  1.0  -0.2021
  C  C135  1  0.615600  0.807800  0.423300  1.0  0.0386
  C  C136  1  0.100250  0.200500  0.309500  1.0  0.7683
  C  C137  1  0.132800  0.265600  0.349300  1.0  -0.2017
  C  C138  1  0.192200  0.384400  0.423300  1.0  0.0391
  C  C139  1  0.100250  0.899750  0.309500  1.0  0.7711
  C  C140  1  0.132800  0.867200  0.349300  1.0  -0.2022
  C  C141  1  0.192200  0.807800  0.423300  1.0  0.0394
  C  C142  1  0.200500  0.100250  0.809500  1.0  0.7701
  C  C143  1  0.265600  0.132800  0.849300  1.0  -0.2025
  C  C144  1  0.384400  0.192200  0.923300  1.0  0.0391
  C  C145  1  0.899750  0.799500  0.809500  1.0  0.7689
  C  C146  1  0.867200  0.734400  0.849300  1.0  -0.2011
  C  C147  1  0.807800  0.615600  0.923300  1.0  0.0393
  C  C148  1  0.899750  0.100250  0.809500  1.0  0.7702
  C  C149  1  0.867200  0.132800  0.849300  1.0  -0.2024
  C  C150  1  0.807800  0.192200  0.923300  1.0  0.0382
  C  C151  1  0.899750  0.100250  0.690500  1.0  0.7694
  C  C152  1  0.867200  0.132800  0.650700  1.0  -0.2022
  C  C153  1  0.807800  0.192200  0.576700  1.0  0.038
  C  C154  1  0.899750  0.799500  0.690500  1.0  0.7684
  C  C155  1  0.867200  0.734400  0.650700  1.0  -0.2013
  C  C156  1  0.807800  0.615600  0.576700  1.0  0.039
  C  C157  1  0.200500  0.100250  0.690500  1.0  0.7695
  C  C158  1  0.265600  0.132800  0.650700  1.0  -0.2021
  C  C159  1  0.384400  0.192200  0.576700  1.0  0.0388
  C  C160  1  0.100250  0.899750  0.190500  1.0  0.7705
  C  C161  1  0.132800  0.867200  0.150700  1.0  -0.202
  C  C162  1  0.192200  0.807800  0.076700  1.0  0.0391
  C  C163  1  0.100250  0.200500  0.190500  1.0  0.7676
  C  C164  1  0.132800  0.265600  0.150700  1.0  -0.201
  C  C165  1  0.192200  0.384400  0.076700  1.0  0.0388
  C  C166  1  0.799500  0.899750  0.190500  1.0  0.7699
  C  C167  1  0.734400  0.867200  0.150700  1.0  -0.2021
  C  C168  1  0.615600  0.807800  0.076700  1.0  0.0383
  O  O169  1  0.824700  0.989500  0.295120  1.0  -0.6318
  O  O170  1  0.623300  0.055000  0.404550  1.0  -0.6239
  O  O171  1  0.570800  0.948900  0.461100  1.0  -0.5815
  O  O172  1  0.164800  0.175300  0.295120  1.0  -0.6295
  O  O173  1  0.431700  0.376700  0.404550  1.0  -0.6245
  O  O174  1  0.378100  0.429200  0.461100  1.0  -0.5822
  O  O175  1  0.010500  0.835200  0.295120  1.0  -0.6281
  O  O176  1  0.945000  0.568300  0.404550  1.0  -0.6248
  O  O177  1  0.051100  0.621900  0.461100  1.0  -0.5811
  O  O178  1  0.175300  0.010500  0.795120  1.0  -0.6297
  O  O179  1  0.376700  0.945000  0.904550  1.0  -0.6243
  O  O180  1  0.429200  0.051100  0.961100  1.0  -0.5817
  O  O181  1  0.835200  0.824700  0.795120  1.0  -0.6289
  O  O182  1  0.568300  0.623300  0.904550  1.0  -0.6242
  O  O183  1  0.621900  0.570800  0.961100  1.0  -0.5823
  O  O184  1  0.989500  0.164800  0.795120  1.0  -0.6299
  O  O185  1  0.055000  0.431700  0.904550  1.0  -0.625
  O  O186  1  0.948900  0.378100  0.961100  1.0  -0.5811
  O  O187  1  0.835200  0.010500  0.704880  1.0  -0.6302
  O  O188  1  0.568300  0.945000  0.595450  1.0  -0.6236
  O  O189  1  0.621900  0.051100  0.538900  1.0  -0.5812
  O  O190  1  0.989500  0.824700  0.704880  1.0  -0.6289
  O  O191  1  0.055000  0.623300  0.595450  1.0  -0.6244
  O  O192  1  0.948900  0.570800  0.538900  1.0  -0.5813
  O  O193  1  0.175300  0.164800  0.704880  1.0  -0.6289
  O  O194  1  0.376700  0.431700  0.595450  1.0  -0.6246
  O  O195  1  0.429200  0.378100  0.538900  1.0  -0.5801
  O  O196  1  0.164800  0.989500  0.204880  1.0  -0.6323
  O  O197  1  0.431700  0.055000  0.095450  1.0  -0.6248
  O  O198  1  0.378100  0.948900  0.038900  1.0  -0.5808
  O  O199  1  0.010500  0.175300  0.204880  1.0  -0.629
  O  O200  1  0.945000  0.376700  0.095450  1.0  -0.6243
  O  O201  1  0.051100  0.429200  0.038900  1.0  -0.5813
  O  O202  1  0.824700  0.835200  0.204880  1.0  -0.6287
  O  O203  1  0.623300  0.568300  0.095450  1.0  -0.6254
  O  O204  1  0.570800  0.621900  0.038900  1.0  -0.5803
  O  O205  1  0.175300  0.010500  0.704880  1.0  -0.6299
  O  O206  1  0.376700  0.945000  0.595450  1.0  -0.6239
  O  O207  1  0.429200  0.051100  0.538900  1.0  -0.5813
  O  O208  1  0.835200  0.824700  0.704880  1.0  -0.6288
  O  O209  1  0.568300  0.623300  0.595450  1.0  -0.6243
  O  O210  1  0.621900  0.570800  0.538900  1.0  -0.5812
  O  O211  1  0.989500  0.164800  0.704880  1.0  -0.6299
  O  O212  1  0.055000  0.431700  0.595450  1.0  -0.625
  O  O213  1  0.948900  0.378100  0.538900  1.0  -0.5801
  O  O214  1  0.824700  0.989500  0.204880  1.0  -0.6317
  O  O215  1  0.623300  0.055000  0.095450  1.0  -0.6245
  O  O216  1  0.570800  0.948900  0.038900  1.0  -0.5808
  O  O217  1  0.164800  0.175300  0.204880  1.0  -0.6298
  O  O218  1  0.431700  0.376700  0.095450  1.0  -0.6244
  O  O219  1  0.378100  0.429200  0.038900  1.0  -0.5816
  O  O220  1  0.010500  0.835200  0.204880  1.0  -0.6284
  O  O221  1  0.945000  0.568300  0.095450  1.0  -0.6248
  O  O222  1  0.051100  0.621900  0.038900  1.0  -0.5805
  O  O223  1  0.164800  0.989500  0.295120  1.0  -0.6316
  O  O224  1  0.431700  0.055000  0.404550  1.0  -0.6245
  O  O225  1  0.378100  0.948900  0.461100  1.0  -0.5816
  O  O226  1  0.010500  0.175300  0.295120  1.0  -0.6289
  O  O227  1  0.945000  0.376700  0.404550  1.0  -0.6245
  O  O228  1  0.051100  0.429200  0.461100  1.0  -0.5821
  O  O229  1  0.824700  0.835200  0.295120  1.0  -0.6284
  O  O230  1  0.623300  0.568300  0.404550  1.0  -0.6254
  O  O231  1  0.570800  0.621900  0.461100  1.0  -0.5811
  O  O232  1  0.835200  0.010500  0.795120  1.0  -0.6306
  O  O233  1  0.568300  0.945000  0.904550  1.0  -0.624
  O  O234  1  0.621900  0.051100  0.961100  1.0  -0.5818
  O  O235  1  0.989500  0.824700  0.795120  1.0  -0.6286
  O  O236  1  0.055000  0.623300  0.904550  1.0  -0.6245
  O  O237  1  0.948900  0.570800  0.961100  1.0  -0.5822
  O  O238  1  0.175300  0.164800  0.795120  1.0  -0.6289
  O  O239  1  0.376700  0.431700  0.904550  1.0  -0.6244
  O  O240  1  0.429200  0.378100  0.961100  1.0  -0.5809
  O  O241  1  0.568600  0.137200  0.474500  1.0  -0.6058
  O  O242  1  0.568600  0.431400  0.474500  1.0  -0.6045
  O  O243  1  0.862800  0.431400  0.474500  1.0  -0.6047
  O  O244  1  0.431400  0.862800  0.974500  1.0  -0.6099
  O  O245  1  0.431400  0.568600  0.974500  1.0  -0.6029
  O  O246  1  0.137200  0.568600  0.974500  1.0  -0.6029
  O  O247  1  0.431400  0.862800  0.525500  1.0  -0.6104
  O  O248  1  0.137200  0.568600  0.525500  1.0  -0.6037
  O  O249  1  0.431400  0.568600  0.525500  1.0  -0.6042
  O  O250  1  0.568600  0.137200  0.025500  1.0  -0.6079
  O  O251  1  0.862800  0.431400  0.025500  1.0  -0.6059
  O  O252  1  0.568600  0.431400  0.025500  1.0  -0.6053
  O  O253  1  0.000000  0.000000  0.250000  1.0  -1.1687
  O  O254  1  0.000000  0.000000  0.750000  1.0  -1.1687
  O  O255  1  0.536000  0.268000  0.418600  1.0  -0.7837
  O  O256  1  0.732000  0.464000  0.418600  1.0  -0.7849
  O  O257  1  0.732000  0.268000  0.418600  1.0  -0.783
  O  O258  1  0.464000  0.732000  0.918600  1.0  -0.783
  O  O259  1  0.268000  0.536000  0.918600  1.0  -0.7846
  O  O260  1  0.268000  0.732000  0.918600  1.0  -0.7836
  O  O261  1  0.268000  0.732000  0.581400  1.0  -0.7834
  O  O262  1  0.268000  0.536000  0.581400  1.0  -0.7844
  O  O263  1  0.464000  0.732000  0.581400  1.0  -0.783
  O  O264  1  0.732000  0.268000  0.081400  1.0  -0.7829
  O  O265  1  0.732000  0.464000  0.081400  1.0  -0.7845
  O  O266  1  0.536000  0.268000  0.081400  1.0  -0.7834
