# generated using pymatgen
data_V2P2C2O7
_symmetry_space_group_name_H-M   'P 1'
_cell_length_a   7.90300000
_cell_length_b   9.35500000
_cell_length_c   7.48500000
_cell_angle_alpha   90.00000000
_cell_angle_beta   118.25000000
_cell_angle_gamma   90.00000000
_symmetry_Int_Tables_number   1
_chemical_formula_structural   V2P2C2O7
_chemical_formula_sum   'V4 P4 C4 O14'
_cell_volume   487.47194053
_cell_formula_units_Z   2
loop_
 _symmetry_equiv_pos_site_id
 _symmetry_equiv_pos_as_xyz
  1  'x, y, z'
loop_
 _atom_site_type_symbol
 _atom_site_label
 _atom_site_symmetry_multiplicity
 _atom_site_fract_x
 _atom_site_fract_y
 _atom_site_fract_z
 _atom_site_occupancy
 _atom_site_charge
  V  V1  1  0.961800  0.750000  0.434000  1.0  1.6722
  V  V2  1  0.038200  0.250000  0.566000  1.0  1.673
  V  V3  1  0.005100  0.250000  0.960800  1.0  1.4726
  V  V4  1  0.994900  0.750000  0.039200  1.0  1.4727
  P  P5  1  0.191800  0.484000  0.368300  1.0  1.5378
  P  P6  1  0.808200  0.984000  0.631700  1.0  1.5466
  P  P7  1  0.808200  0.516000  0.631700  1.0  1.5467
  P  P8  1  0.191800  0.016000  0.368300  1.0  1.5378
  C  C9  1  0.428300  0.571900  0.460500  1.0  -0.3211
  C  C10  1  0.571700  0.071900  0.539500  1.0  -0.3244
  C  C11  1  0.571700  0.428100  0.539500  1.0  -0.3234
  C  C12  1  0.428300  0.928100  0.460500  1.0  -0.3204
  O  O13  1  0.185700  0.388500  0.188800  1.0  -0.7966
  O  O14  1  0.065500  0.611400  0.294900  1.0  -0.9535
  O  O15  1  0.142000  0.407200  0.508600  1.0  -0.8073
  O  O16  1  0.814300  0.888500  0.811200  1.0  -0.7974
  O  O17  1  0.934500  0.111400  0.705100  1.0  -0.9529
  O  O18  1  0.858000  0.907200  0.491400  1.0  -0.8063
  O  O19  1  0.814300  0.611500  0.811200  1.0  -0.7978
  O  O20  1  0.934500  0.388600  0.705100  1.0  -0.9526
  O  O21  1  0.858000  0.592800  0.491400  1.0  -0.806
  O  O22  1  0.185700  0.111500  0.188800  1.0  -0.7967
  O  O23  1  0.065500  0.888600  0.294900  1.0  -0.9533
  O  O24  1  0.142000  0.092800  0.508600  1.0  -0.8072
  O  O25  1  0.728500  0.750000  0.104100  1.0  -0.4716
  O  O26  1  0.271500  0.250000  0.895900  1.0  -0.4709
