# generated using pymatgen
data_Zn4P4HO16
_symmetry_space_group_name_H-M   'P 1'
_cell_length_a   10.02100000
_cell_length_b   8.28600000
_cell_length_c   11.85600000
_cell_angle_alpha   90.00000000
_cell_angle_beta   103.13000000
_cell_angle_gamma   90.00000000
_symmetry_Int_Tables_number   1
_chemical_formula_structural   Zn4P4HO16
_chemical_formula_sum   'Zn8 P8 H2 O32'
_cell_volume   958.71482501
_cell_formula_units_Z   2
loop_
 _symmetry_equiv_pos_site_id
 _symmetry_equiv_pos_as_xyz
  1  'x, y, z'
loop_
 _atom_site_type_symbol
 _atom_site_label
 _atom_site_symmetry_multiplicity
 _atom_site_fract_x
 _atom_site_fract_y
 _atom_site_fract_z
 _atom_site_occupancy
 _atom_site_charge
  Zn  Zn1  1  0.677300  0.530300  0.470400  1.0  1.0265
  Zn  Zn2  1  0.621900  0.052100  0.429600  1.0  1.1315
  Zn  Zn3  1  0.926800  0.325400  0.163200  1.0  1.1471
  Zn  Zn4  1  0.663700  0.942200  0.785800  1.0  1.1561
  Zn  Zn5  1  0.322700  0.030300  0.529600  1.0  1.0264
  Zn  Zn6  1  0.378100  0.552100  0.570400  1.0  1.1306
  Zn  Zn7  1  0.073200  0.825400  0.836800  1.0  1.1457
  Zn  Zn8  1  0.336300  0.442200  0.214200  1.0  1.1546
  P  P9  1  0.645600  0.344400  0.240400  1.0  1.7438
  P  P10  1  0.582800  0.256500  0.625800  1.0  1.8541
  P  P11  1  0.927000  0.095400  0.955000  1.0  1.7044
  P  P12  1  0.826900  0.828700  0.602900  1.0  1.7726
  P  P13  1  0.354400  0.844400  0.759600  1.0  1.744
  P  P14  1  0.417200  0.756500  0.374200  1.0  1.855
  P  P15  1  0.073000  0.595400  0.045000  1.0  1.7045
  P  P16  1  0.173100  0.328700  0.397100  1.0  1.7698
  H  H17  1  0.809800  0.293800  0.919000  1.0  0.5141
  H  H18  1  0.190200  0.793800  0.081000  1.0  0.5152
  O  O19  1  0.705800  0.489700  0.317300  1.0  -0.7222
  O  O20  1  0.829800  0.674300  0.530200  1.0  -0.7384
  O  O21  1  0.687300  0.338600  0.569100  1.0  -0.7409
  O  O22  1  0.509600  0.123700  0.540300  1.0  -0.9198
  O  O23  1  0.650000  0.191100  0.310900  1.0  -0.822
  O  O24  1  0.477900  0.368500  0.655300  1.0  -0.7455
  O  O25  1  0.796300  0.977800  0.523100  1.0  -0.7239
  O  O26  1  0.730200  0.318800  0.147100  1.0  -0.7219
  O  O27  1  0.968900  0.856700  0.682000  1.0  -0.8204
  O  O28  1  0.971200  0.133600  0.081900  1.0  -0.7201
  O  O29  1  0.048200  0.039600  0.904700  1.0  -0.7316
  O  O30  1  0.716500  0.804200  0.672600  1.0  -0.7728
  O  O31  1  0.501300  0.383300  0.172000  1.0  -0.7326
  O  O32  1  0.658900  0.174100  0.739000  1.0  -0.768
  O  O33  1  0.808000  0.974200  0.931100  1.0  -0.7297
  O  O34  1  0.874000  0.260100  0.893500  1.0  -0.6398
  O  O35  1  0.294200  0.989700  0.682700  1.0  -0.7206
  O  O36  1  0.170200  0.174300  0.469800  1.0  -0.7369
  O  O37  1  0.312700  0.838600  0.430900  1.0  -0.7409
  O  O38  1  0.490400  0.623700  0.459700  1.0  -0.92
  O  O39  1  0.350000  0.691100  0.689100  1.0  -0.8228
  O  O40  1  0.522100  0.868500  0.344700  1.0  -0.7452
  O  O41  1  0.203700  0.477800  0.476900  1.0  -0.7232
  O  O42  1  0.269800  0.818800  0.852900  1.0  -0.7227
  O  O43  1  0.031100  0.356700  0.318000  1.0  -0.8194
  O  O44  1  0.028800  0.633600  0.918100  1.0  -0.7193
  O  O45  1  0.951800  0.539600  0.095300  1.0  -0.7293
  O  O46  1  0.283500  0.304200  0.327400  1.0  -0.7732
  O  O47  1  0.498700  0.883300  0.828000  1.0  -0.7327
  O  O48  1  0.341100  0.674100  0.261000  1.0  -0.767
  O  O49  1  0.192000  0.474200  0.068900  1.0  -0.7313
  O  O50  1  0.126000  0.760100  0.106500  1.0  -0.6418
