# generated using pymatgen
data_ZnPO4
_symmetry_space_group_name_H-M   'P 1'
_cell_length_a   10.00490000
_cell_length_b   8.27450000
_cell_length_c   11.83040000
_cell_angle_alpha   90.00000000
_cell_angle_beta   103.09300000
_cell_angle_gamma   90.00000000
_symmetry_Int_Tables_number   1
_chemical_formula_structural   ZnPO4
_chemical_formula_sum   'Zn8 P8 O32'
_cell_volume   953.92564868
_cell_formula_units_Z   8
loop_
 _symmetry_equiv_pos_site_id
 _symmetry_equiv_pos_as_xyz
  1  'x, y, z'
loop_
 _atom_site_type_symbol
 _atom_site_label
 _atom_site_symmetry_multiplicity
 _atom_site_fract_x
 _atom_site_fract_y
 _atom_site_fract_z
 _atom_site_occupancy
 _atom_site_charge
  Zn  Zn1  1  0.322760  0.675700  0.029650  1.0  1.1618
  Zn  Zn2  1  0.621630  0.653980  0.929510  1.0  1.1481
  Zn  Zn3  1  0.073140  0.880430  0.336410  1.0  1.1624
  Zn  Zn4  1  0.336330  0.263910  0.714620  1.0  1.1655
  Zn  Zn5  1  0.677240  0.175700  0.970350  1.0  1.1618
  Zn  Zn6  1  0.378370  0.153980  0.070490  1.0  1.1471
  Zn  Zn7  1  0.926860  0.380430  0.663590  1.0  1.162
  Zn  Zn8  1  0.663670  0.763910  0.285380  1.0  1.1643
  P  P9  1  0.583000  0.449800  0.125500  1.0  1.7558
  P  P10  1  0.354200  0.861300  0.259300  1.0  1.7714
  P  P11  1  0.073500  0.111000  0.545700  1.0  1.7304
  P  P12  1  0.173300  0.377100  0.897400  1.0  1.8628
  P  P13  1  0.417000  0.949800  0.874500  1.0  1.7556
  P  P14  1  0.645800  0.361300  0.740700  1.0  1.7709
  P  P15  1  0.926500  0.611000  0.454300  1.0  1.7294
  P  P16  1  0.826700  0.877100  0.102600  1.0  1.8653
  O  O17  1  0.509500  0.584500  0.039800  1.0  -0.9299
  O  O18  1  0.689000  0.365300  0.070100  1.0  -0.7425
  O  O19  1  0.169200  0.530000  0.968600  1.0  -0.7209
  O  O20  1  0.296500  0.717300  0.183000  1.0  -0.7203
  O  O21  1  0.476500  0.335800  0.154800  1.0  -0.7435
  O  O22  1  0.205900  0.230900  0.976900  1.0  -0.723
  O  O23  1  0.350100  0.014700  0.188400  1.0  -0.8189
  O  O24  1  0.268800  0.888800  0.350400  1.0  -0.7239
  O  O25  1  0.026600  0.072700  0.417100  1.0  -0.7008
  O  O26  1  0.032100  0.349900  0.818800  1.0  -0.818
  O  O27  1  0.953600  0.165100  0.595700  1.0  -0.6873
  O  O28  1  0.127000  0.944800  0.605800  1.0  -0.5021
  O  O29  1  0.190600  0.231800  0.568200  1.0  -0.7049
  O  O30  1  0.285400  0.402200  0.828600  1.0  -0.7723
  O  O31  1  0.498900  0.823900  0.328800  1.0  -0.7132
  O  O32  1  0.658200  0.532900  0.238600  1.0  -0.7348
  O  O33  1  0.490500  0.084500  0.960200  1.0  -0.9303
  O  O34  1  0.311000  0.865300  0.929900  1.0  -0.7411
  O  O35  1  0.830800  0.030000  0.031400  1.0  -0.7206
  O  O36  1  0.703500  0.217300  0.817000  1.0  -0.7209
  O  O37  1  0.523500  0.835800  0.845200  1.0  -0.7431
  O  O38  1  0.794100  0.730900  0.023100  1.0  -0.7232
  O  O39  1  0.649900  0.514700  0.811600  1.0  -0.8196
  O  O40  1  0.731200  0.388800  0.649600  1.0  -0.724
  O  O41  1  0.973400  0.572700  0.582900  1.0  -0.7019
  O  O42  1  0.967900  0.849900  0.181200  1.0  -0.8171
  O  O43  1  0.046400  0.665100  0.404300  1.0  -0.6869
  O  O44  1  0.873000  0.444800  0.394200  1.0  -0.5017
  O  O45  1  0.809400  0.731800  0.431800  1.0  -0.7051
  O  O46  1  0.714600  0.902200  0.171400  1.0  -0.7716
  O  O47  1  0.501100  0.323900  0.671200  1.0  -0.7158
  O  O48  1  0.341800  0.032900  0.761400  1.0  -0.7355
