# generated using pymatgen
data_MgH8C13NO5
_symmetry_space_group_name_H-M   'P 1'
_cell_length_a   18.11900000
_cell_length_b   17.22940000
_cell_length_c   13.47800000
_cell_angle_alpha   90.00000000
_cell_angle_beta   129.38000000
_cell_angle_gamma   90.00000000
_symmetry_Int_Tables_number   1
_chemical_formula_structural   MgH8C13NO5
_chemical_formula_sum   'Mg8 H64 C104 N8 O40'
_cell_volume   3252.25126825
_cell_formula_units_Z   8
loop_
 _symmetry_equiv_pos_site_id
 _symmetry_equiv_pos_as_xyz
  1  'x, y, z'
loop_
 _atom_site_type_symbol
 _atom_site_label
 _atom_site_symmetry_multiplicity
 _atom_site_fract_x
 _atom_site_fract_y
 _atom_site_fract_z
 _atom_site_occupancy
 _atom_site_charge
  Mg  Mg1  1  0.250000  0.250000  0.500000  1.0  1.5443
  Mg  Mg2  1  0.750000  0.250000  0.000000  1.0  1.5443
  Mg  Mg3  1  0.750000  0.750000  0.500000  1.0  1.5443
  Mg  Mg4  1  0.250000  0.750000  0.000000  1.0  1.5443
  Mg  Mg5  1  0.000000  0.194700  0.250000  1.0  1.4602
  Mg  Mg6  1  0.500000  0.694700  0.250000  1.0  1.4602
  Mg  Mg7  1  0.000000  0.805300  0.750000  1.0  1.4591
  Mg  Mg8  1  0.500000  0.305300  0.750000  1.0  1.4591
  H  H9  1  0.294000  0.065000  0.335000  1.0  0.086
  H  H10  1  0.291000  0.953000  0.227000  1.0  0.0873
  H  H11  1  0.038000  0.008000  0.915000  1.0  0.1159
  H  H12  1  0.041000  0.123000  0.013000  1.0  0.0831
  H  H13  1  0.111000  0.417000  0.365000  1.0  0.1289
  H  H14  1  0.066000  0.521000  0.404000  1.0  0.1293
  H  H15  1  0.975000  0.378000  0.545000  1.0  0.1122
  H  H16  1  0.029000  0.280000  0.489000  1.0  0.1919
  H  H17  1  0.794000  0.565000  0.335000  1.0  0.086
  H  H18  1  0.791000  0.453000  0.227000  1.0  0.0873
  H  H19  1  0.538000  0.508000  0.915000  1.0  0.1159
  H  H20  1  0.541000  0.623000  0.013000  1.0  0.0831
  H  H21  1  0.611000  0.917000  0.365000  1.0  0.1289
  H  H22  1  0.566000  0.021000  0.404000  1.0  0.1293
  H  H23  1  0.475000  0.878000  0.545000  1.0  0.1122
  H  H24  1  0.529000  0.780000  0.489000  1.0  0.1919
  H  H25  1  0.706000  0.065000  0.165000  1.0  0.0857
  H  H26  1  0.709000  0.953000  0.273000  1.0  0.087
  H  H27  1  0.962000  0.008000  0.585000  1.0  0.1161
  H  H28  1  0.959000  0.123000  0.487000  1.0  0.0821
  H  H29  1  0.889000  0.417000  0.135000  1.0  0.1286
  H  H30  1  0.934000  0.521000  0.096000  1.0  0.1294
  H  H31  1  0.025000  0.378000  0.955000  1.0  0.1127
  H  H32  1  0.971000  0.280000  0.011000  1.0  0.1903
  H  H33  1  0.206000  0.565000  0.165000  1.0  0.0857
  H  H34  1  0.209000  0.453000  0.273000  1.0  0.087
  H  H35  1  0.462000  0.508000  0.585000  1.0  0.1161
  H  H36  1  0.459000  0.623000  0.487000  1.0  0.0821
  H  H37  1  0.389000  0.917000  0.135000  1.0  0.1286
  H  H38  1  0.434000  0.021000  0.096000  1.0  0.1294
  H  H39  1  0.525000  0.878000  0.955000  1.0  0.1127
  H  H40  1  0.471000  0.780000  0.011000  1.0  0.1903
  H  H41  1  0.706000  0.935000  0.665000  1.0  0.0858
  H  H42  1  0.709000  0.047000  0.773000  1.0  0.0872
  H  H43  1  0.962000  0.992000  0.085000  1.0  0.1168
  H  H44  1  0.959000  0.877000  0.987000  1.0  0.0828
  H  H45  1  0.889000  0.583000  0.635000  1.0  0.1287
  H  H46  1  0.934000  0.479000  0.596000  1.0  0.1308
  H  H47  1  0.025000  0.622000  0.455000  1.0  0.1135
  H  H48  1  0.971000  0.720000  0.511000  1.0  0.191
  H  H49  1  0.206000  0.435000  0.665000  1.0  0.0858
  H  H50  1  0.209000  0.547000  0.773000  1.0  0.0872
  H  H51  1  0.462000  0.492000  0.085000  1.0  0.1168
  H  H52  1  0.459000  0.377000  0.987000  1.0  0.0828
  H  H53  1  0.389000  0.083000  0.635000  1.0  0.1287
  H  H54  1  0.434000  0.979000  0.596000  1.0  0.1308
  H  H55  1  0.525000  0.122000  0.455000  1.0  0.1135
  H  H56  1  0.471000  0.220000  0.511000  1.0  0.191
  H  H57  1  0.294000  0.935000  0.835000  1.0  0.0863
  H  H58  1  0.291000  0.047000  0.727000  1.0  0.0872
  H  H59  1  0.038000  0.992000  0.415000  1.0  0.1163
  H  H60  1  0.041000  0.877000  0.513000  1.0  0.0831
  H  H61  1  0.111000  0.583000  0.865000  1.0  0.1292
  H  H62  1  0.066000  0.479000  0.904000  1.0  0.1304
  H  H63  1  0.975000  0.622000  0.045000  1.0  0.1132
  H  H64  1  0.029000  0.720000  0.989000  1.0  0.1927
  H  H65  1  0.794000  0.435000  0.835000  1.0  0.0863
  H  H66  1  0.791000  0.547000  0.727000  1.0  0.0872
  H  H67  1  0.538000  0.492000  0.415000  1.0  0.1163
  H  H68  1  0.541000  0.377000  0.513000  1.0  0.0831
  H  H69  1  0.611000  0.083000  0.865000  1.0  0.1292
  H  H70  1  0.566000  0.979000  0.904000  1.0  0.1304
  H  H71  1  0.475000  0.122000  0.045000  1.0  0.1132
  H  H72  1  0.529000  0.220000  0.989000  1.0  0.1927
  C  C73  1  0.161700  0.101980  0.177200  1.0  -0.1617
  C  C74  1  0.239600  0.052300  0.244000  1.0  -0.1049
  C  C75  1  0.240700  0.987100  0.185600  1.0  -0.0974
  C  C76  1  0.164600  0.970550  0.058600  1.0  -0.225
  C  C77  1  0.087800  0.021300  0.991500  1.0  -0.1066
  C  C78  1  0.086100  0.085800  0.050500  1.0  -0.0844
  C  C79  1  0.156400  0.168220  0.245100  1.0  0.7
  C  C80  1  0.161000  0.897300  0.994700  1.0  0.6677
  C  C81  1  0.086200  0.411300  0.397700  1.0  0.0265
  C  C82  1  0.056900  0.474900  0.425400  1.0  -0.1375
  C  C83  1  0.015400  0.465800  0.483300  1.0  0.0587
  C  C84  1  0.007300  0.390900  0.512100  1.0  -0.1539
  C  C85  1  0.036800  0.328600  0.481500  1.0  0.0352
  C  C86  1  0.661700  0.601980  0.177200  1.0  -0.1617
  C  C87  1  0.739600  0.552300  0.244000  1.0  -0.1049
  C  C88  1  0.740700  0.487100  0.185600  1.0  -0.0974
  C  C89  1  0.664600  0.470550  0.058600  1.0  -0.225
  C  C90  1  0.587800  0.521300  0.991500  1.0  -0.1066
  C  C91  1  0.586100  0.585800  0.050500  1.0  -0.0844
  C  C92  1  0.656400  0.668220  0.245100  1.0  0.7
  C  C93  1  0.661000  0.397300  0.994700  1.0  0.6677
  C  C94  1  0.586200  0.911300  0.397700  1.0  0.0265
  C  C95  1  0.556900  0.974900  0.425400  1.0  -0.1375
  C  C96  1  0.515400  0.965800  0.483300  1.0  0.0587
  C  C97  1  0.507300  0.890900  0.512100  1.0  -0.1539
  C  C98  1  0.536800  0.828600  0.481500  1.0  0.0352
  C  C99  1  0.838300  0.101980  0.322800  1.0  -0.1617
  C  C100  1  0.760400  0.052300  0.256000  1.0  -0.1065
  C  C101  1  0.759300  0.987100  0.314400  1.0  -0.098
  C  C102  1  0.835400  0.970550  0.441400  1.0  -0.2237
  C  C103  1  0.912200  0.021300  0.508500  1.0  -0.108
  C  C104  1  0.913900  0.085800  0.449500  1.0  -0.0846
  C  C105  1  0.843600  0.168220  0.254900  1.0  0.6982
  C  C106  1  0.839000  0.897300  0.505300  1.0  0.6681
  C  C107  1  0.913800  0.411300  0.102300  1.0  0.0265
  C  C108  1  0.943100  0.474900  0.074600  1.0  -0.1381
  C  C109  1  0.984600  0.465800  0.016700  1.0  0.0584
  C  C110  1  0.992700  0.390900  0.987900  1.0  -0.155
  C  C111  1  0.963200  0.328600  0.018500  1.0  0.0309
  C  C112  1  0.338300  0.601980  0.322800  1.0  -0.1617
  C  C113  1  0.260400  0.552300  0.256000  1.0  -0.1065
  C  C114  1  0.259300  0.487100  0.314400  1.0  -0.098
  C  C115  1  0.335400  0.470550  0.441400  1.0  -0.2237
  C  C116  1  0.412200  0.521300  0.508500  1.0  -0.108
  C  C117  1  0.413900  0.585800  0.449500  1.0  -0.0846
  C  C118  1  0.343600  0.668220  0.254900  1.0  0.6982
  C  C119  1  0.339000  0.397300  0.505300  1.0  0.6681
  C  C120  1  0.413800  0.911300  0.102300  1.0  0.0265
  C  C121  1  0.443100  0.974900  0.074600  1.0  -0.1381
  C  C122  1  0.484600  0.965800  0.016700  1.0  0.0584
  C  C123  1  0.492700  0.890900  0.987900  1.0  -0.155
  C  C124  1  0.463200  0.828600  0.018500  1.0  0.0309
  C  C125  1  0.838300  0.898020  0.822800  1.0  -0.1627
  C  C126  1  0.760400  0.947700  0.756000  1.0  -0.1066
  C  C127  1  0.759300  0.012900  0.814400  1.0  -0.0981
  C  C128  1  0.835400  0.029450  0.941400  1.0  -0.224
  C  C129  1  0.912200  0.978700  0.008500  1.0  -0.1074
  C  C130  1  0.913900  0.914200  0.949500  1.0  -0.0839
  C  C131  1  0.843600  0.831780  0.754900  1.0  0.6987
  C  C132  1  0.839000  0.102700  0.005300  1.0  0.6685
  C  C133  1  0.913800  0.588700  0.602300  1.0  0.0269
  C  C134  1  0.943100  0.525100  0.574600  1.0  -0.1382
  C  C135  1  0.984600  0.534200  0.516700  1.0  0.0582
  C  C136  1  0.992700  0.609100  0.487900  1.0  -0.1545
  C  C137  1  0.963200  0.671400  0.518500  1.0  0.0323
  C  C138  1  0.338300  0.398020  0.822800  1.0  -0.1627
  C  C139  1  0.260400  0.447700  0.756000  1.0  -0.1066
  C  C140  1  0.259300  0.512900  0.814400  1.0  -0.0981
  C  C141  1  0.335400  0.529450  0.941400  1.0  -0.224
  C  C142  1  0.412200  0.478700  0.008500  1.0  -0.1074
  C  C143  1  0.413900  0.414200  0.949500  1.0  -0.0839
  C  C144  1  0.343600  0.331780  0.754900  1.0  0.6987
  C  C145  1  0.339000  0.602700  0.005300  1.0  0.6685
  C  C146  1  0.413800  0.088700  0.602300  1.0  0.0269
  C  C147  1  0.443100  0.025100  0.574600  1.0  -0.1382
  C  C148  1  0.484600  0.034200  0.516700  1.0  0.0582
  C  C149  1  0.492700  0.109100  0.487900  1.0  -0.1545
  C  C150  1  0.463200  0.171400  0.518500  1.0  0.0323
  C  C151  1  0.161700  0.898020  0.677200  1.0  -0.1633
  C  C152  1  0.239600  0.947700  0.744000  1.0  -0.105
  C  C153  1  0.240700  0.012900  0.685600  1.0  -0.097
  C  C154  1  0.164600  0.029450  0.558600  1.0  -0.2246
  C  C155  1  0.087800  0.978700  0.491500  1.0  -0.1056
  C  C156  1  0.086100  0.914200  0.550500  1.0  -0.0836
  C  C157  1  0.156400  0.831780  0.745100  1.0  0.7012
  C  C158  1  0.161000  0.102700  0.494700  1.0  0.668
  C  C159  1  0.086200  0.588700  0.897700  1.0  0.0268
  C  C160  1  0.056900  0.525100  0.925400  1.0  -0.1387
  C  C161  1  0.015400  0.534200  0.983300  1.0  0.0585
  C  C162  1  0.007300  0.609100  0.012100  1.0  -0.1547
  C  C163  1  0.036800  0.671400  0.981500  1.0  0.0342
  C  C164  1  0.661700  0.398020  0.677200  1.0  -0.1633
  C  C165  1  0.739600  0.447700  0.744000  1.0  -0.105
  C  C166  1  0.740700  0.512900  0.685600  1.0  -0.097
  C  C167  1  0.664600  0.529450  0.558600  1.0  -0.2246
  C  C168  1  0.587800  0.478700  0.491500  1.0  -0.1056
  C  C169  1  0.586100  0.414200  0.550500  1.0  -0.0836
  C  C170  1  0.656400  0.331780  0.745100  1.0  0.7012
  C  C171  1  0.661000  0.602700  0.494700  1.0  0.668
  C  C172  1  0.586200  0.088700  0.897700  1.0  0.0268
  C  C173  1  0.556900  0.025100  0.925400  1.0  -0.1387
  C  C174  1  0.515400  0.034200  0.983300  1.0  0.0585
  C  C175  1  0.507300  0.109100  0.012100  1.0  -0.1547
  C  C176  1  0.536800  0.171400  0.981500  1.0  0.0342
  N  N177  1  0.074070  0.339720  0.422800  1.0  0.2669
  N  N178  1  0.574070  0.839720  0.422800  1.0  0.2669
  N  N179  1  0.925930  0.339720  0.077200  1.0  0.2654
  N  N180  1  0.425930  0.839720  0.077200  1.0  0.2654
  N  N181  1  0.925930  0.660280  0.577200  1.0  0.2667
  N  N182  1  0.425930  0.160280  0.577200  1.0  0.2667
  N  N183  1  0.074070  0.660280  0.922800  1.0  0.2681
  N  N184  1  0.574070  0.160280  0.922800  1.0  0.2681
  O  O185  1  0.230130  0.186620  0.355000  1.0  -0.634
  O  O186  1  0.075550  0.200130  0.186200  1.0  -0.5821
  O  O187  1  0.230520  0.851040  0.061900  1.0  -0.6013
  O  O188  1  0.088370  0.888080  0.880000  1.0  -0.6205
  O  O189  1  0.099880  0.279060  0.389700  1.0  -0.679
  O  O190  1  0.730130  0.686620  0.355000  1.0  -0.634
  O  O191  1  0.575550  0.700130  0.186200  1.0  -0.5821
  O  O192  1  0.730520  0.351040  0.061900  1.0  -0.6013
  O  O193  1  0.588370  0.388080  0.880000  1.0  -0.6205
  O  O194  1  0.599880  0.779060  0.389700  1.0  -0.679
  O  O195  1  0.769870  0.186620  0.145000  1.0  -0.6347
  O  O196  1  0.924450  0.200130  0.313800  1.0  -0.5824
  O  O197  1  0.769480  0.851040  0.438100  1.0  -0.6007
  O  O198  1  0.911630  0.888080  0.620000  1.0  -0.6189
  O  O199  1  0.900120  0.279060  0.110300  1.0  -0.6787
  O  O200  1  0.269870  0.686620  0.145000  1.0  -0.6347
  O  O201  1  0.424450  0.700130  0.313800  1.0  -0.5824
  O  O202  1  0.269480  0.351040  0.438100  1.0  -0.6007
  O  O203  1  0.411630  0.388080  0.620000  1.0  -0.6189
  O  O204  1  0.400120  0.779060  0.110300  1.0  -0.6787
  O  O205  1  0.769870  0.813380  0.645000  1.0  -0.6349
  O  O206  1  0.924450  0.799870  0.813800  1.0  -0.5821
  O  O207  1  0.769480  0.148960  0.938100  1.0  -0.6003
  O  O208  1  0.911630  0.111920  0.120000  1.0  -0.6192
  O  O209  1  0.900120  0.720940  0.610300  1.0  -0.6788
  O  O210  1  0.269870  0.313380  0.645000  1.0  -0.6349
  O  O211  1  0.424450  0.299870  0.813800  1.0  -0.5821
  O  O212  1  0.269480  0.648960  0.938100  1.0  -0.6003
  O  O213  1  0.411630  0.611920  0.120000  1.0  -0.6192
  O  O214  1  0.400120  0.220940  0.610300  1.0  -0.6788
  O  O215  1  0.230130  0.813380  0.855000  1.0  -0.6349
  O  O216  1  0.075550  0.799870  0.686200  1.0  -0.5817
  O  O217  1  0.230520  0.148960  0.561900  1.0  -0.6013
  O  O218  1  0.088370  0.111920  0.380000  1.0  -0.6208
  O  O219  1  0.099880  0.720940  0.889700  1.0  -0.6789
  O  O220  1  0.730130  0.313380  0.855000  1.0  -0.6349
  O  O221  1  0.575550  0.299870  0.686200  1.0  -0.5817
  O  O222  1  0.730520  0.648960  0.561900  1.0  -0.6013
  O  O223  1  0.588370  0.611920  0.380000  1.0  -0.6208
  O  O224  1  0.599880  0.220940  0.889700  1.0  -0.6789
