# generated using pymatgen
data_MgH8C13NO5
_symmetry_space_group_name_H-M   'P 1'
_cell_length_a   16.55700000
_cell_length_b   18.31100000
_cell_length_c   11.93490000
_cell_angle_alpha   90.00000000
_cell_angle_beta   123.09600000
_cell_angle_gamma   90.00000000
_symmetry_Int_Tables_number   1
_chemical_formula_structural   MgH8C13NO5
_chemical_formula_sum   'Mg8 H64 C104 N8 O40'
_cell_volume   3031.31087900
_cell_formula_units_Z   8
loop_
 _symmetry_equiv_pos_site_id
 _symmetry_equiv_pos_as_xyz
  1  'x, y, z'
loop_
 _atom_site_type_symbol
 _atom_site_label
 _atom_site_symmetry_multiplicity
 _atom_site_fract_x
 _atom_site_fract_y
 _atom_site_fract_z
 _atom_site_occupancy
 _atom_site_charge
  Mg  Mg1  1  0.000000  0.302240  0.250000  1.0  1.3962
  Mg  Mg2  1  0.500000  0.802240  0.250000  1.0  1.3962
  Mg  Mg3  1  0.000000  0.697760  0.750000  1.0  1.3953
  Mg  Mg4  1  0.500000  0.197760  0.750000  1.0  1.3953
  Mg  Mg5  1  0.250000  0.250000  0.500000  1.0  1.5427
  Mg  Mg6  1  0.750000  0.250000  0.000000  1.0  1.5427
  Mg  Mg7  1  0.750000  0.750000  0.500000  1.0  1.5427
  Mg  Mg8  1  0.250000  0.750000  0.000000  1.0  1.5427
  H  H9  1  0.271000  0.443000  0.745000  1.0  0.0904
  H  H10  1  0.281000  0.554000  0.842000  1.0  0.0819
  H  H11  1  0.073000  0.619000  0.499000  1.0  0.1018
  H  H12  1  0.068000  0.507000  0.404000  1.0  0.1878
  H  H13  1  0.144000  0.100000  0.370000  1.0  0.0793
  H  H14  1  0.090000  0.991000  0.412000  1.0  0.1081
  H  H15  1  0.951000  0.111000  0.539000  1.0  0.0891
  H  H16  1  0.995000  0.219000  0.477000  1.0  0.1125
  H  H17  1  0.771000  0.943000  0.745000  1.0  0.0904
  H  H18  1  0.781000  0.054000  0.842000  1.0  0.0819
  H  H19  1  0.573000  0.119000  0.499000  1.0  0.1018
  H  H20  1  0.568000  0.007000  0.404000  1.0  0.1878
  H  H21  1  0.644000  0.600000  0.370000  1.0  0.0793
  H  H22  1  0.590000  0.491000  0.412000  1.0  0.1081
  H  H23  1  0.451000  0.611000  0.539000  1.0  0.0891
  H  H24  1  0.495000  0.719000  0.477000  1.0  0.1125
  H  H25  1  0.729000  0.443000  0.755000  1.0  0.0899
  H  H26  1  0.719000  0.554000  0.658000  1.0  0.0815
  H  H27  1  0.927000  0.619000  0.001000  1.0  0.1022
  H  H28  1  0.932000  0.507000  0.096000  1.0  0.1876
  H  H29  1  0.856000  0.100000  0.130000  1.0  0.0796
  H  H30  1  0.910000  0.991000  0.088000  1.0  0.1078
  H  H31  1  0.049000  0.111000  0.961000  1.0  0.0893
  H  H32  1  0.005000  0.219000  0.023000  1.0  0.1132
  H  H33  1  0.229000  0.943000  0.755000  1.0  0.0899
  H  H34  1  0.219000  0.054000  0.658000  1.0  0.0815
  H  H35  1  0.427000  0.119000  0.001000  1.0  0.1022
  H  H36  1  0.432000  0.007000  0.096000  1.0  0.1876
  H  H37  1  0.356000  0.600000  0.130000  1.0  0.0796
  H  H38  1  0.410000  0.491000  0.088000  1.0  0.1078
  H  H39  1  0.549000  0.611000  0.961000  1.0  0.0893
  H  H40  1  0.505000  0.719000  0.023000  1.0  0.1132
  H  H41  1  0.729000  0.557000  0.255000  1.0  0.0901
  H  H42  1  0.719000  0.446000  0.158000  1.0  0.0817
  H  H43  1  0.927000  0.381000  0.501000  1.0  0.1044
  H  H44  1  0.932000  0.493000  0.596000  1.0  0.1883
  H  H45  1  0.856000  0.900000  0.630000  1.0  0.0797
  H  H46  1  0.910000  0.009000  0.588000  1.0  0.1097
  H  H47  1  0.049000  0.889000  0.461000  1.0  0.0898
  H  H48  1  0.005000  0.781000  0.523000  1.0  0.1132
  H  H49  1  0.229000  0.057000  0.255000  1.0  0.0901
  H  H50  1  0.219000  0.946000  0.158000  1.0  0.0817
  H  H51  1  0.427000  0.881000  0.501000  1.0  0.1044
  H  H52  1  0.432000  0.993000  0.596000  1.0  0.1883
  H  H53  1  0.356000  0.400000  0.630000  1.0  0.0797
  H  H54  1  0.410000  0.509000  0.588000  1.0  0.1097
  H  H55  1  0.549000  0.389000  0.461000  1.0  0.0898
  H  H56  1  0.505000  0.281000  0.523000  1.0  0.1132
  H  H57  1  0.271000  0.557000  0.245000  1.0  0.0898
  H  H58  1  0.281000  0.446000  0.342000  1.0  0.0821
  H  H59  1  0.073000  0.381000  0.999000  1.0  0.1049
  H  H60  1  0.068000  0.493000  0.904000  1.0  0.1887
  H  H61  1  0.144000  0.900000  0.870000  1.0  0.0794
  H  H62  1  0.090000  0.009000  0.912000  1.0  0.1079
  H  H63  1  0.951000  0.889000  0.039000  1.0  0.0894
  H  H64  1  0.995000  0.781000  0.977000  1.0  0.1137
  H  H65  1  0.771000  0.057000  0.245000  1.0  0.0898
  H  H66  1  0.781000  0.946000  0.342000  1.0  0.0821
  H  H67  1  0.573000  0.881000  0.999000  1.0  0.1049
  H  H68  1  0.568000  0.993000  0.904000  1.0  0.1887
  H  H69  1  0.644000  0.400000  0.870000  1.0  0.0794
  H  H70  1  0.590000  0.509000  0.912000  1.0  0.1079
  H  H71  1  0.451000  0.389000  0.039000  1.0  0.0894
  H  H72  1  0.495000  0.281000  0.977000  1.0  0.1137
  C  C73  1  0.162700  0.464000  0.558100  1.0  -0.1676
  C  C74  1  0.231900  0.478500  0.690600  1.0  -0.1603
  C  C75  1  0.235000  0.545500  0.745000  1.0  -0.1392
  C  C76  1  0.168500  0.599100  0.670900  1.0  -0.1295
  C  C77  1  0.100100  0.584200  0.538300  1.0  -0.0359
  C  C78  1  0.098100  0.517600  0.484000  1.0  -0.086
  C  C79  1  0.154700  0.390000  0.498200  1.0  0.6909
  C  C80  1  0.164200  0.667900  0.736000  1.0  0.7007
  C  C81  1  0.096000  0.096800  0.395200  1.0  0.0012
  C  C82  1  0.067800  0.033100  0.424400  1.0  -0.1325
  C  C83  1  0.013900  0.034500  0.481300  1.0  0.0831
  C  C84  1  0.988700  0.102200  0.502600  1.0  -0.1181
  C  C85  1  0.016000  0.165000  0.471500  1.0  0.0216
  C  C86  1  0.662700  0.964000  0.558100  1.0  -0.1676
  C  C87  1  0.731900  0.978500  0.690600  1.0  -0.1603
  C  C88  1  0.735000  0.045500  0.745000  1.0  -0.1392
  C  C89  1  0.668500  0.099100  0.670900  1.0  -0.1295
  C  C90  1  0.600100  0.084200  0.538300  1.0  -0.0359
  C  C91  1  0.598100  0.017600  0.484000  1.0  -0.086
  C  C92  1  0.654700  0.890000  0.498200  1.0  0.6909
  C  C93  1  0.664200  0.167900  0.736000  1.0  0.7007
  C  C94  1  0.596000  0.596800  0.395200  1.0  0.0012
  C  C95  1  0.567800  0.533100  0.424400  1.0  -0.1325
  C  C96  1  0.513900  0.534500  0.481300  1.0  0.0831
  C  C97  1  0.488700  0.602200  0.502600  1.0  -0.1181
  C  C98  1  0.516000  0.665000  0.471500  1.0  0.0216
  C  C99  1  0.837300  0.464000  0.941900  1.0  -0.1685
  C  C100  1  0.768100  0.478500  0.809400  1.0  -0.1594
  C  C101  1  0.765000  0.545500  0.755000  1.0  -0.1403
  C  C102  1  0.831500  0.599100  0.829100  1.0  -0.1271
  C  C103  1  0.899900  0.584200  0.961700  1.0  -0.0349
  C  C104  1  0.901900  0.517600  0.016000  1.0  -0.0851
  C  C105  1  0.845300  0.390000  0.001800  1.0  0.6906
  C  C106  1  0.835800  0.667900  0.764000  1.0  0.6991
  C  C107  1  0.904000  0.096800  0.104800  1.0  -1e-04
  C  C108  1  0.932200  0.033100  0.075600  1.0  -0.1319
  C  C109  1  0.986100  0.034500  0.018700  1.0  0.0825
  C  C110  1  0.011300  0.102200  0.997400  1.0  -0.1178
  C  C111  1  0.984000  0.165000  0.028500  1.0  0.0254
  C  C112  1  0.337300  0.964000  0.941900  1.0  -0.1685
  C  C113  1  0.268100  0.978500  0.809400  1.0  -0.1594
  C  C114  1  0.265000  0.045500  0.755000  1.0  -0.1403
  C  C115  1  0.331500  0.099100  0.829100  1.0  -0.1271
  C  C116  1  0.399900  0.084200  0.961700  1.0  -0.0349
  C  C117  1  0.401900  0.017600  0.016000  1.0  -0.0851
  C  C118  1  0.345300  0.890000  0.001800  1.0  0.6906
  C  C119  1  0.335800  0.167900  0.764000  1.0  0.6991
  C  C120  1  0.404000  0.596800  0.104800  1.0  -1e-04
  C  C121  1  0.432200  0.533100  0.075600  1.0  -0.1319
  C  C122  1  0.486100  0.534500  0.018700  1.0  0.0825
  C  C123  1  0.511300  0.602200  0.997400  1.0  -0.1178
  C  C124  1  0.484000  0.665000  0.028500  1.0  0.0254
  C  C125  1  0.837300  0.536000  0.441900  1.0  -0.1681
  C  C126  1  0.768100  0.521500  0.309400  1.0  -0.159
  C  C127  1  0.765000  0.454500  0.255000  1.0  -0.141
  C  C128  1  0.831500  0.400900  0.329100  1.0  -0.1275
  C  C129  1  0.899900  0.415800  0.461700  1.0  -0.035
  C  C130  1  0.901900  0.482400  0.516000  1.0  -0.0857
  C  C131  1  0.845300  0.610000  0.501800  1.0  0.6907
  C  C132  1  0.835800  0.332100  0.264000  1.0  0.7003
  C  C133  1  0.904000  0.903200  0.604800  1.0  -1e-04
  C  C134  1  0.932200  0.966900  0.575600  1.0  -0.1329
  C  C135  1  0.986100  0.965500  0.518700  1.0  0.0827
  C  C136  1  0.011300  0.897800  0.497400  1.0  -0.1179
  C  C137  1  0.984000  0.835000  0.528500  1.0  0.023
  C  C138  1  0.337300  0.036000  0.441900  1.0  -0.1681
  C  C139  1  0.268100  0.021500  0.309400  1.0  -0.159
  C  C140  1  0.265000  0.954500  0.255000  1.0  -0.141
  C  C141  1  0.331500  0.900900  0.329100  1.0  -0.1275
  C  C142  1  0.399900  0.915800  0.461700  1.0  -0.035
  C  C143  1  0.401900  0.982400  0.516000  1.0  -0.0857
  C  C144  1  0.345300  0.110000  0.501800  1.0  0.6907
  C  C145  1  0.335800  0.832100  0.264000  1.0  0.7003
  C  C146  1  0.404000  0.403200  0.604800  1.0  -1e-04
  C  C147  1  0.432200  0.466900  0.575600  1.0  -0.1329
  C  C148  1  0.486100  0.465500  0.518700  1.0  0.0827
  C  C149  1  0.511300  0.397800  0.497400  1.0  -0.1179
  C  C150  1  0.484000  0.335000  0.528500  1.0  0.023
  C  C151  1  0.162700  0.536000  0.058100  1.0  -0.1675
  C  C152  1  0.231900  0.521500  0.190600  1.0  -0.1604
  C  C153  1  0.235000  0.454500  0.245000  1.0  -0.1397
  C  C154  1  0.168500  0.400900  0.170900  1.0  -0.1291
  C  C155  1  0.100100  0.415800  0.038300  1.0  -0.0361
  C  C156  1  0.098100  0.482400  0.984000  1.0  -0.0865
  C  C157  1  0.154700  0.610000  0.998200  1.0  0.6914
  C  C158  1  0.164200  0.332100  0.236000  1.0  0.6999
  C  C159  1  0.096000  0.903200  0.895200  1.0  0.0012
  C  C160  1  0.067800  0.966900  0.924400  1.0  -0.1321
  C  C161  1  0.013900  0.965500  0.981300  1.0  0.083
  C  C162  1  0.988700  0.897800  0.002600  1.0  -0.1177
  C  C163  1  0.016000  0.835000  0.971500  1.0  0.0215
  C  C164  1  0.662700  0.036000  0.058100  1.0  -0.1675
  C  C165  1  0.731900  0.021500  0.190600  1.0  -0.1604
  C  C166  1  0.735000  0.954500  0.245000  1.0  -0.1397
  C  C167  1  0.668500  0.900900  0.170900  1.0  -0.1291
  C  C168  1  0.600100  0.915800  0.038300  1.0  -0.0361
  C  C169  1  0.598100  0.982400  0.984000  1.0  -0.0865
  C  C170  1  0.654700  0.110000  0.998200  1.0  0.6914
  C  C171  1  0.664200  0.832100  0.236000  1.0  0.6999
  C  C172  1  0.596000  0.403200  0.895200  1.0  0.0012
  C  C173  1  0.567800  0.466900  0.924400  1.0  -0.1321
  C  C174  1  0.513900  0.465500  0.981300  1.0  0.083
  C  C175  1  0.488700  0.397800  0.002600  1.0  -0.1177
  C  C176  1  0.516000  0.335000  0.971500  1.0  0.0215
  N  N177  1  0.069800  0.160900  0.418700  1.0  0.2982
  N  N178  1  0.569800  0.660900  0.418700  1.0  0.2982
  N  N179  1  0.930200  0.160900  0.081300  1.0  0.2992
  N  N180  1  0.430200  0.660900  0.081300  1.0  0.2992
  N  N181  1  0.930200  0.839100  0.581300  1.0  0.2976
  N  N182  1  0.430200  0.339100  0.581300  1.0  0.2976
  N  N183  1  0.069800  0.839100  0.918700  1.0  0.2974
  N  N184  1  0.569800  0.339100  0.918700  1.0  0.2974
  O  O185  1  0.084390  0.379900  0.382000  1.0  -0.6161
  O  O186  1  0.220400  0.343180  0.568600  1.0  -0.6291
  O  O187  1  0.085950  0.702280  0.676100  1.0  -0.6
  O  O188  1  0.237620  0.686460  0.847200  1.0  -0.6211
  O  O189  1  0.097580  0.222530  0.388300  1.0  -0.6845
  O  O190  1  0.584390  0.879900  0.382000  1.0  -0.6161
  O  O191  1  0.720400  0.843180  0.568600  1.0  -0.6291
  O  O192  1  0.585950  0.202280  0.676100  1.0  -0.6
  O  O193  1  0.737620  0.186460  0.847200  1.0  -0.6211
  O  O194  1  0.597580  0.722530  0.388300  1.0  -0.6845
  O  O195  1  0.915610  0.379900  0.118000  1.0  -0.6175
  O  O196  1  0.779600  0.343180  0.931400  1.0  -0.6274
  O  O197  1  0.914050  0.702280  0.823900  1.0  -0.5987
  O  O198  1  0.762380  0.686460  0.652800  1.0  -0.6216
  O  O199  1  0.902420  0.222530  0.111700  1.0  -0.6851
  O  O200  1  0.415610  0.879900  0.118000  1.0  -0.6175
  O  O201  1  0.279600  0.843180  0.931400  1.0  -0.6274
  O  O202  1  0.414050  0.202280  0.823900  1.0  -0.5987
  O  O203  1  0.262380  0.186460  0.652800  1.0  -0.6216
  O  O204  1  0.402420  0.722530  0.111700  1.0  -0.6851
  O  O205  1  0.915610  0.620100  0.618000  1.0  -0.6175
  O  O206  1  0.779600  0.656820  0.431400  1.0  -0.6272
  O  O207  1  0.914050  0.297720  0.323900  1.0  -0.5988
  O  O208  1  0.762380  0.313540  0.152800  1.0  -0.6207
  O  O209  1  0.902420  0.777470  0.611700  1.0  -0.6846
  O  O210  1  0.415610  0.120100  0.618000  1.0  -0.6175
  O  O211  1  0.279600  0.156820  0.431400  1.0  -0.6272
  O  O212  1  0.414050  0.797720  0.323900  1.0  -0.5988
  O  O213  1  0.262380  0.813540  0.152800  1.0  -0.6207
  O  O214  1  0.402420  0.277470  0.611700  1.0  -0.6846
  O  O215  1  0.084390  0.620100  0.882000  1.0  -0.6161
  O  O216  1  0.220400  0.656820  0.068600  1.0  -0.6295
  O  O217  1  0.085950  0.297720  0.176100  1.0  -0.6012
  O  O218  1  0.237620  0.313540  0.347200  1.0  -0.6214
  O  O219  1  0.097580  0.777470  0.888300  1.0  -0.6843
  O  O220  1  0.584390  0.120100  0.882000  1.0  -0.6161
  O  O221  1  0.720400  0.156820  0.068600  1.0  -0.6295
  O  O222  1  0.585950  0.797720  0.176100  1.0  -0.6012
  O  O223  1  0.737620  0.813540  0.347200  1.0  -0.6214
  O  O224  1  0.597580  0.277470  0.888300  1.0  -0.6843
