# generated using pymatgen
data_MgH8C13NO5
_symmetry_space_group_name_H-M   'P 1'
_cell_length_a   12.56690000
_cell_length_b   12.56690000
_cell_length_c   13.54830000
_cell_angle_alpha   65.70860000
_cell_angle_beta   62.39750000
_cell_angle_gamma   93.26660000
_symmetry_Int_Tables_number   1
_chemical_formula_structural   MgH8C13NO5
_chemical_formula_sum   'Mg4 H32 C52 N4 O20'
_cell_volume   1645.04987646
_cell_formula_units_Z   4
loop_
 _symmetry_equiv_pos_site_id
 _symmetry_equiv_pos_as_xyz
  1  'x, y, z'
loop_
 _atom_site_type_symbol
 _atom_site_label
 _atom_site_symmetry_multiplicity
 _atom_site_fract_x
 _atom_site_fract_y
 _atom_site_fract_z
 _atom_site_occupancy
 _atom_site_charge
  Mg  Mg1  1  0.555320  0.805320  0.250000  1.0  1.4673
  Mg  Mg2  1  0.444680  0.194680  0.750000  1.0  1.4684
  Mg  Mg3  1  0.500000  0.000000  0.000000  1.0  1.552
  Mg  Mg4  1  0.500000  0.500000  0.500000  1.0  1.552
  H  H5  1  0.357300  0.024300  0.597000  1.0  0.0982
  H  H6  1  0.107200  0.754300  0.233700  1.0  0.0928
  H  H7  1  0.909200  0.849400  0.003200  1.0  0.097
  H  H8  1  0.325400  0.696500  0.139100  1.0  0.1006
  H  H9  1  0.953300  0.362600  0.447300  1.0  0.1064
  H  H10  1  0.664400  0.535500  0.639100  1.0  0.0984
  H  H11  1  0.690100  0.599400  0.947300  1.0  0.1038
  H  H12  1  0.121300  0.954300  0.903000  1.0  0.098
  H  H13  1  0.685200  0.462000  0.905600  1.0  0.1291
  H  H14  1  0.477100  0.228500  0.168200  1.0  0.0696
  H  H15  1  0.090800  0.150600  0.996800  1.0  0.0959
  H  H16  1  0.512000  0.659100  0.733700  1.0  0.0921
  H  H17  1  0.335600  0.464500  0.360900  1.0  0.0984
  H  H18  1  0.642700  0.975700  0.403000  1.0  0.0974
  H  H19  1  0.314800  0.538000  0.094400  1.0  0.1289
  H  H20  1  0.674600  0.303500  0.860900  1.0  0.1016
  H  H21  1  0.896700  0.645300  0.331800  1.0  0.07
  H  H22  1  0.309900  0.400600  0.052700  1.0  0.1024
  H  H23  1  0.103300  0.354700  0.668200  1.0  0.0691
  H  H24  1  0.522900  0.771500  0.831800  1.0  0.0709
  H  H25  1  0.488000  0.340900  0.266300  1.0  0.0922
  H  H26  1  0.046700  0.637400  0.552700  1.0  0.106
  H  H27  1  0.253300  0.690700  0.501800  1.0  0.1084
  H  H28  1  0.892800  0.245700  0.766300  1.0  0.0924
  H  H29  1  0.352600  0.912400  0.496800  1.0  0.0949
  H  H30  1  0.746700  0.309300  0.498200  1.0  0.1088
  H  H31  1  0.647400  0.087600  0.503200  1.0  0.0957
  H  H32  1  0.878700  0.045700  0.097000  1.0  0.0981
  H  H33  1  0.867600  0.590800  0.594400  1.0  0.1316
  H  H34  1  0.132400  0.409200  0.405600  1.0  0.1326
  H  H35  1  0.307500  0.244900  0.001800  1.0  0.1076
  H  H36  1  0.692500  0.755100  0.998200  1.0  0.1078
  C  C37  1  0.075370  0.892650  0.990800  1.0  -0.0436
  C  C38  1  0.844730  0.532750  0.574200  1.0  -0.1502
  C  C39  1  0.772060  0.365860  0.518700  1.0  -0.0217
  C  C40  1  0.268900  0.942260  0.994980  1.0  0.6626
  C  C41  1  0.050770  0.170390  0.949700  1.0  -0.0468
  C  C42  1  0.741830  0.676830  0.245560  1.0  0.6833
  C  C43  1  0.383450  0.066170  0.509200  1.0  -0.0432
  C  C44  1  0.600810  0.325690  0.898000  1.0  -0.0328
  C  C45  1  0.416070  0.059470  0.322040  1.0  -0.1441
  C  C46  1  0.104960  0.601920  0.512000  1.0  -0.1498
  C  C47  1  0.498250  0.450410  0.983820  1.0  0.0151
  C  C48  1  0.562760  0.736120  0.494980  1.0  0.6634
  C  C49  1  0.227940  0.634140  0.481300  1.0  -0.025
  C  C50  1  0.616550  0.933830  0.490800  1.0  -0.0432
  C  C51  1  0.924630  0.107350  0.009200  1.0  -0.0442
  C  C52  1  0.118490  0.261890  0.822040  1.0  -0.1403
  C  C53  1  0.422390  0.987390  0.254440  1.0  0.6878
  C  C54  1  0.865450  0.133970  0.940820  1.0  -0.1426
  C  C55  1  0.949230  0.829610  0.050300  1.0  -0.0461
  C  C56  1  0.058390  0.290570  0.754900  1.0  -0.0537
  C  C57  1  0.574790  0.806270  0.559180  1.0  -0.1448
  C  C58  1  0.276310  0.501190  0.398000  1.0  -0.0302
  C  C59  1  0.539870  0.746170  0.686400  1.0  -0.0609
  C  C60  1  0.067430  0.773730  0.186400  1.0  -0.0602
  C  C61  1  0.620090  0.000470  0.550300  1.0  -0.0444
  C  C62  1  0.613920  0.616960  0.988000  1.0  -0.1437
  C  C63  1  0.723690  0.498810  0.602000  1.0  -0.0298
  C  C64  1  0.881510  0.738110  0.177960  1.0  -0.1424
  C  C65  1  0.501750  0.549590  0.016180  1.0  0.017
  C  C66  1  0.258170  0.323170  0.754440  1.0  0.683
  C  C67  1  0.379910  0.999530  0.449700  1.0  -0.0437
  C  C68  1  0.932570  0.226270  0.813600  1.0  -0.059
  C  C69  1  0.399190  0.674310  0.102000  1.0  -0.0314
  C  C70  1  0.577610  0.012610  0.745560  1.0  0.69
  C  C71  1  0.895040  0.398080  0.488000  1.0  -0.1541
  C  C72  1  0.393050  0.581070  0.074200  1.0  -0.1455
  C  C73  1  0.941610  0.709430  0.245100  1.0  -0.0551
  C  C74  1  0.934230  0.482070  0.516180  1.0  0.0168
  C  C75  1  0.384560  0.290760  0.981300  1.0  -0.0232
  C  C76  1  0.615440  0.709240  0.018700  1.0  -0.0217
  C  C77  1  0.155270  0.467250  0.425800  1.0  -0.1492
  C  C78  1  0.731100  0.057740  0.005020  1.0  0.6625
  C  C79  1  0.606950  0.418930  0.925800  1.0  -0.1472
  C  C80  1  0.065770  0.517930  0.483820  1.0  0.0146
  C  C81  1  0.134550  0.866030  0.059180  1.0  -0.142
  C  C82  1  0.460130  0.253830  0.313600  1.0  -0.0609
  C  C83  1  0.425210  0.193730  0.440820  1.0  -0.1438
  C  C84  1  0.545470  0.813290  0.745100  1.0  -0.0535
  C  C85  1  0.454530  0.186710  0.254900  1.0  -0.0524
  C  C86  1  0.583930  0.940530  0.677960  1.0  -0.144
  C  C87  1  0.386080  0.383040  0.012000  1.0  -0.1454
  C  C88  1  0.437240  0.263880  0.505020  1.0  0.6625
  N  N89  1  0.508230  0.734110  0.077360  1.0  0.3132
  N  N90  1  0.491770  0.265890  0.922640  1.0  0.3142
  N  N91  1  0.688530  0.414410  0.577360  1.0  0.3126
  N  N92  1  0.311470  0.585590  0.422640  1.0  0.3123
  O  O93  1  0.480910  0.379320  0.437850  1.0  -0.6077
  O  O94  1  0.682830  0.081240  0.937850  1.0  -0.6081
  O  O95  1  0.317170  0.918760  0.062150  1.0  -0.6081
  O  O96  1  0.431170  0.620530  0.389160  1.0  -0.6768
  O  O97  1  0.559830  0.956630  0.855420  1.0  -0.636
  O  O98  1  0.310580  0.274400  0.814140  1.0  -0.6049
  O  O99  1  0.687950  0.584750  0.355420  1.0  -0.6356
  O  O100  1  0.440170  0.043370  0.144580  1.0  -0.6351
  O  O101  1  0.588540  0.124720  0.685860  1.0  -0.6059
  O  O102  1  0.320470  0.023960  0.880250  1.0  -0.6211
  O  O103  1  0.404210  0.200720  0.619750  1.0  -0.6217
  O  O104  1  0.411460  0.875280  0.314140  1.0  -0.6061
  O  O105  1  0.595790  0.799280  0.380250  1.0  -0.6205
  O  O106  1  0.490310  0.179670  0.889160  1.0  -0.6791
  O  O107  1  0.509690  0.820330  0.110840  1.0  -0.6778
  O  O108  1  0.568830  0.379470  0.610840  1.0  -0.6773
  O  O109  1  0.679530  0.976040  0.119750  1.0  -0.6207
  O  O110  1  0.689420  0.725600  0.185860  1.0  -0.6041
  O  O111  1  0.312050  0.415250  0.644580  1.0  -0.6369
  O  O112  1  0.519090  0.620680  0.562150  1.0  -0.6083
