# generated using pymatgen
data_MgH8C13NO5
_symmetry_space_group_name_H-M   'P 1'
_cell_length_a   18.05410000
_cell_length_b   17.25270000
_cell_length_c   13.41280000
_cell_angle_alpha   90.00000000
_cell_angle_beta   129.27400000
_cell_angle_gamma   90.00000000
_symmetry_Int_Tables_number   1
_chemical_formula_structural   MgH8C13NO5
_chemical_formula_sum   'Mg8 H64 C104 N8 O40'
_cell_volume   3234.18520602
_cell_formula_units_Z   8
loop_
 _symmetry_equiv_pos_site_id
 _symmetry_equiv_pos_as_xyz
  1  'x, y, z'
loop_
 _atom_site_type_symbol
 _atom_site_label
 _atom_site_symmetry_multiplicity
 _atom_site_fract_x
 _atom_site_fract_y
 _atom_site_fract_z
 _atom_site_occupancy
 _atom_site_charge
  Mg  Mg1  1  0.000000  0.304990  0.250000  1.0  1.4643
  Mg  Mg2  1  0.500000  0.804990  0.250000  1.0  1.4643
  Mg  Mg3  1  0.000000  0.695010  0.750000  1.0  1.4655
  Mg  Mg4  1  0.500000  0.195010  0.750000  1.0  1.4655
  Mg  Mg5  1  0.250000  0.250000  0.500000  1.0  1.5497
  Mg  Mg6  1  0.750000  0.250000  0.000000  1.0  1.5497
  Mg  Mg7  1  0.750000  0.750000  0.500000  1.0  1.5497
  Mg  Mg8  1  0.250000  0.750000  0.000000  1.0  1.5497
  H  H9  1  0.037000  0.382000  0.010000  1.0  0.1109
  H  H10  1  0.037000  0.493000  0.903000  1.0  0.1021
  H  H11  1  0.291000  0.552000  0.230000  1.0  0.0977
  H  H12  1  0.286000  0.443000  0.333000  1.0  0.0793
  H  H13  1  0.035000  0.224000  0.496000  1.0  0.1017
  H  H14  1  0.979000  0.120000  0.553000  1.0  0.1151
  H  H15  1  0.069000  0.978000  0.404000  1.0  0.1004
  H  H16  1  0.119000  0.086000  0.364000  1.0  0.1013
  H  H17  1  0.537000  0.882000  0.010000  1.0  0.1109
  H  H18  1  0.537000  0.993000  0.903000  1.0  0.1021
  H  H19  1  0.791000  0.052000  0.230000  1.0  0.0977
  H  H20  1  0.786000  0.943000  0.333000  1.0  0.0793
  H  H21  1  0.535000  0.724000  0.496000  1.0  0.1017
  H  H22  1  0.479000  0.620000  0.553000  1.0  0.1151
  H  H23  1  0.569000  0.478000  0.404000  1.0  0.0994
  H  H24  1  0.619000  0.586000  0.364000  1.0  0.1013
  H  H25  1  0.963000  0.382000  0.490000  1.0  0.1106
  H  H26  1  0.963000  0.493000  0.597000  1.0  0.1024
  H  H27  1  0.709000  0.552000  0.270000  1.0  0.098
  H  H28  1  0.714000  0.443000  0.167000  1.0  0.0794
  H  H29  1  0.965000  0.224000  0.004000  1.0  0.1012
  H  H30  1  0.021000  0.120000  0.947000  1.0  0.1155
  H  H31  1  0.931000  0.978000  0.096000  1.0  0.1
  H  H32  1  0.881000  0.086000  0.136000  1.0  0.1021
  H  H33  1  0.463000  0.882000  0.490000  1.0  0.1106
  H  H34  1  0.463000  0.993000  0.597000  1.0  0.1024
  H  H35  1  0.209000  0.052000  0.270000  1.0  0.098
  H  H36  1  0.214000  0.943000  0.167000  1.0  0.0794
  H  H37  1  0.465000  0.724000  0.004000  1.0  0.1012
  H  H38  1  0.521000  0.620000  0.947000  1.0  0.1155
  H  H39  1  0.431000  0.478000  0.096000  1.0  0.0989
  H  H40  1  0.381000  0.586000  0.136000  1.0  0.1021
  H  H41  1  0.963000  0.618000  0.990000  1.0  0.1103
  H  H42  1  0.963000  0.507000  0.097000  1.0  0.1025
  H  H43  1  0.709000  0.448000  0.770000  1.0  0.0978
  H  H44  1  0.714000  0.557000  0.667000  1.0  0.0791
  H  H45  1  0.965000  0.776000  0.504000  1.0  0.1001
  H  H46  1  0.021000  0.880000  0.447000  1.0  0.1151
  H  H47  1  0.931000  0.022000  0.596000  1.0  0.1015
  H  H48  1  0.881000  0.914000  0.636000  1.0  0.1018
  H  H49  1  0.463000  0.118000  0.990000  1.0  0.1103
  H  H50  1  0.463000  0.007000  0.097000  1.0  0.1025
  H  H51  1  0.209000  0.948000  0.770000  1.0  0.0978
  H  H52  1  0.214000  0.057000  0.667000  1.0  0.0791
  H  H53  1  0.465000  0.276000  0.504000  1.0  0.1001
  H  H54  1  0.521000  0.380000  0.447000  1.0  0.1151
  H  H55  1  0.431000  0.522000  0.596000  1.0  0.1009
  H  H56  1  0.381000  0.414000  0.636000  1.0  0.1018
  H  H57  1  0.037000  0.618000  0.510000  1.0  0.1107
  H  H58  1  0.037000  0.507000  0.403000  1.0  0.102
  H  H59  1  0.291000  0.448000  0.730000  1.0  0.0983
  H  H60  1  0.286000  0.557000  0.833000  1.0  0.0793
  H  H61  1  0.035000  0.776000  0.996000  1.0  0.1013
  H  H62  1  0.979000  0.880000  0.053000  1.0  0.1139
  H  H63  1  0.069000  0.022000  0.904000  1.0  0.1013
  H  H64  1  0.119000  0.914000  0.864000  1.0  0.1013
  H  H65  1  0.537000  0.118000  0.510000  1.0  0.1107
  H  H66  1  0.537000  0.007000  0.403000  1.0  0.102
  H  H67  1  0.791000  0.948000  0.730000  1.0  0.0983
  H  H68  1  0.786000  0.057000  0.833000  1.0  0.0793
  H  H69  1  0.535000  0.276000  0.996000  1.0  0.1013
  H  H70  1  0.479000  0.380000  0.053000  1.0  0.1139
  H  H71  1  0.569000  0.522000  0.904000  1.0  0.1008
  H  H72  1  0.619000  0.414000  0.864000  1.0  0.1013
  C  C73  1  0.161500  0.398270  0.177200  1.0  -0.1438
  C  C74  1  0.086200  0.414300  0.049700  1.0  -0.1049
  C  C75  1  0.087500  0.479200  0.990500  1.0  -0.0928
  C  C76  1  0.164300  0.529760  0.058400  1.0  -0.1575
  C  C77  1  0.240100  0.513600  0.185700  1.0  -0.073
  C  C78  1  0.239000  0.447900  0.243900  1.0  -0.0272
  C  C79  1  0.156000  0.331470  0.244800  1.0  0.6984
  C  C80  1  0.160700  0.603420  0.994800  1.0  0.6724
  C  C81  1  0.036700  0.171400  0.481500  1.0  -0.0469
  C  C82  1  0.007100  0.108800  0.512100  1.0  -0.1296
  C  C83  1  0.015500  0.033990  0.483500  1.0  0.0585
  C  C84  1  0.057200  0.025050  0.425300  1.0  -0.1302
  C  C85  1  0.086700  0.088610  0.397100  1.0  -0.0173
  C  C86  1  0.661500  0.898270  0.177200  1.0  -0.1438
  C  C87  1  0.586200  0.914300  0.049700  1.0  -0.1049
  C  C88  1  0.587500  0.979200  0.990500  1.0  -0.0928
  C  C89  1  0.664300  0.029760  0.058400  1.0  -0.1575
  C  C90  1  0.740100  0.013600  0.185700  1.0  -0.073
  C  C91  1  0.739000  0.947900  0.243900  1.0  -0.0272
  C  C92  1  0.656000  0.831470  0.244800  1.0  0.6984
  C  C93  1  0.660700  0.103420  0.994800  1.0  0.6724
  C  C94  1  0.536700  0.671400  0.481500  1.0  -0.0469
  C  C95  1  0.507100  0.608800  0.512100  1.0  -0.1296
  C  C96  1  0.515500  0.533990  0.483500  1.0  0.0585
  C  C97  1  0.557200  0.525050  0.425300  1.0  -0.1302
  C  C98  1  0.586700  0.588610  0.397100  1.0  -0.0173
  C  C99  1  0.838500  0.398270  0.322800  1.0  -0.1446
  C  C100  1  0.913800  0.414300  0.450300  1.0  -0.1048
  C  C101  1  0.912500  0.479200  0.509500  1.0  -0.0917
  C  C102  1  0.835700  0.529760  0.441600  1.0  -0.1575
  C  C103  1  0.759900  0.513600  0.314300  1.0  -0.0742
  C  C104  1  0.761000  0.447900  0.256100  1.0  -0.0257
  C  C105  1  0.844000  0.331470  0.255200  1.0  0.6958
  C  C106  1  0.839300  0.603420  0.505200  1.0  0.6726
  C  C107  1  0.963300  0.171400  0.018500  1.0  -0.0454
  C  C108  1  0.992900  0.108800  0.987900  1.0  -0.1293
  C  C109  1  0.984500  0.033990  0.016500  1.0  0.0587
  C  C110  1  0.942800  0.025050  0.074700  1.0  -0.131
  C  C111  1  0.913300  0.088610  0.102900  1.0  -0.0184
  C  C112  1  0.338500  0.898270  0.322800  1.0  -0.1446
  C  C113  1  0.413800  0.914300  0.450300  1.0  -0.1048
  C  C114  1  0.412500  0.979200  0.509500  1.0  -0.0917
  C  C115  1  0.335700  0.029760  0.441600  1.0  -0.1575
  C  C116  1  0.259900  0.013600  0.314300  1.0  -0.0742
  C  C117  1  0.261000  0.947900  0.256100  1.0  -0.0257
  C  C118  1  0.344000  0.831470  0.255200  1.0  0.6958
  C  C119  1  0.339300  0.103420  0.505200  1.0  0.6726
  C  C120  1  0.463300  0.671400  0.018500  1.0  -0.0454
  C  C121  1  0.492900  0.608800  0.987900  1.0  -0.1293
  C  C122  1  0.484500  0.533990  0.016500  1.0  0.0587
  C  C123  1  0.442800  0.525050  0.074700  1.0  -0.131
  C  C124  1  0.413300  0.588610  0.102900  1.0  -0.0184
  C  C125  1  0.838500  0.601730  0.822800  1.0  -0.1436
  C  C126  1  0.913800  0.585700  0.950300  1.0  -0.1042
  C  C127  1  0.912500  0.520800  0.009500  1.0  -0.0914
  C  C128  1  0.835700  0.470240  0.941600  1.0  -0.1577
  C  C129  1  0.759900  0.486400  0.814300  1.0  -0.0745
  C  C130  1  0.761000  0.552100  0.756100  1.0  -0.0259
  C  C131  1  0.844000  0.668530  0.755200  1.0  0.695
  C  C132  1  0.839300  0.396580  0.005200  1.0  0.6724
  C  C133  1  0.963300  0.828600  0.518500  1.0  -0.0473
  C  C134  1  0.992900  0.891200  0.487900  1.0  -0.1301
  C  C135  1  0.984500  0.966010  0.516500  1.0  0.0587
  C  C136  1  0.942800  0.974950  0.574700  1.0  -0.1303
  C  C137  1  0.913300  0.911390  0.602900  1.0  -0.0188
  C  C138  1  0.338500  0.101730  0.822800  1.0  -0.1436
  C  C139  1  0.413800  0.085700  0.950300  1.0  -0.1042
  C  C140  1  0.412500  0.020800  0.009500  1.0  -0.0914
  C  C141  1  0.335700  0.970240  0.941600  1.0  -0.1577
  C  C142  1  0.259900  0.986400  0.814300  1.0  -0.0745
  C  C143  1  0.261000  0.052100  0.756100  1.0  -0.0259
  C  C144  1  0.344000  0.168530  0.755200  1.0  0.695
  C  C145  1  0.339300  0.896580  0.005200  1.0  0.6724
  C  C146  1  0.463300  0.328600  0.518500  1.0  -0.0473
  C  C147  1  0.492900  0.391200  0.487900  1.0  -0.1301
  C  C148  1  0.484500  0.466010  0.516500  1.0  0.0587
  C  C149  1  0.442800  0.474950  0.574700  1.0  -0.1303
  C  C150  1  0.413300  0.411390  0.602900  1.0  -0.0188
  C  C151  1  0.161500  0.601730  0.677200  1.0  -0.1433
  C  C152  1  0.086200  0.585700  0.549700  1.0  -0.1051
  C  C153  1  0.087500  0.520800  0.490500  1.0  -0.092
  C  C154  1  0.164300  0.470240  0.558400  1.0  -0.1584
  C  C155  1  0.240100  0.486400  0.685700  1.0  -0.0735
  C  C156  1  0.239000  0.552100  0.743900  1.0  -0.0273
  C  C157  1  0.156000  0.668530  0.744800  1.0  0.6979
  C  C158  1  0.160700  0.396580  0.494800  1.0  0.6722
  C  C159  1  0.036700  0.828600  0.981500  1.0  -0.0465
  C  C160  1  0.007100  0.891200  0.012100  1.0  -0.1303
  C  C161  1  0.015500  0.966010  0.983500  1.0  0.0585
  C  C162  1  0.057200  0.974950  0.925300  1.0  -0.1286
  C  C163  1  0.086700  0.911390  0.897100  1.0  -0.0175
  C  C164  1  0.661500  0.101730  0.677200  1.0  -0.1433
  C  C165  1  0.586200  0.085700  0.549700  1.0  -0.1051
  C  C166  1  0.587500  0.020800  0.490500  1.0  -0.092
  C  C167  1  0.664300  0.970240  0.558400  1.0  -0.1584
  C  C168  1  0.740100  0.986400  0.685700  1.0  -0.0735
  C  C169  1  0.739000  0.052100  0.743900  1.0  -0.0273
  C  C170  1  0.656000  0.168530  0.744800  1.0  0.6979
  C  C171  1  0.660700  0.896580  0.494800  1.0  0.6722
  C  C172  1  0.536700  0.328600  0.981500  1.0  -0.0465
  C  C173  1  0.507100  0.391200  0.012100  1.0  -0.1303
  C  C174  1  0.515500  0.466010  0.983500  1.0  0.0585
  C  C175  1  0.557200  0.474950  0.925300  1.0  -0.1286
  C  C176  1  0.586700  0.411390  0.897100  1.0  -0.0175
  N  N177  1  0.074110  0.160200  0.422800  1.0  0.2724
  N  N178  1  0.574110  0.660200  0.422800  1.0  0.2724
  N  N179  1  0.925890  0.160200  0.077200  1.0  0.2708
  N  N180  1  0.425890  0.660200  0.077200  1.0  0.2708
  N  N181  1  0.925890  0.839800  0.577200  1.0  0.2701
  N  N182  1  0.425890  0.339800  0.577200  1.0  0.2701
  N  N183  1  0.074110  0.839800  0.922800  1.0  0.2721
  N  N184  1  0.574110  0.339800  0.922800  1.0  0.2721
  O  O185  1  0.075490  0.299570  0.185330  1.0  -0.5942
  O  O186  1  0.229920  0.313510  0.354590  1.0  -0.6231
  O  O187  1  0.088410  0.612570  0.879900  1.0  -0.6166
  O  O188  1  0.230290  0.649390  0.062270  1.0  -0.5927
  O  O189  1  0.099950  0.220880  0.389670  1.0  -0.6648
  O  O190  1  0.575490  0.799570  0.185330  1.0  -0.5942
  O  O191  1  0.729920  0.813510  0.354590  1.0  -0.6231
  O  O192  1  0.588410  0.112570  0.879900  1.0  -0.6166
  O  O193  1  0.730290  0.149390  0.062270  1.0  -0.5927
  O  O194  1  0.599950  0.720880  0.389670  1.0  -0.6648
  O  O195  1  0.924510  0.299570  0.314670  1.0  -0.5949
  O  O196  1  0.770080  0.313510  0.145410  1.0  -0.6232
  O  O197  1  0.911590  0.612570  0.620100  1.0  -0.6164
  O  O198  1  0.769710  0.649390  0.437730  1.0  -0.5917
  O  O199  1  0.900050  0.220880  0.110330  1.0  -0.6647
  O  O200  1  0.424510  0.799570  0.314670  1.0  -0.5949
  O  O201  1  0.270080  0.813510  0.145410  1.0  -0.6232
  O  O202  1  0.411590  0.112570  0.620100  1.0  -0.6164
  O  O203  1  0.269710  0.149390  0.437730  1.0  -0.5917
  O  O204  1  0.400050  0.720880  0.110330  1.0  -0.6647
  O  O205  1  0.924510  0.700430  0.814670  1.0  -0.5945
  O  O206  1  0.770080  0.686490  0.645410  1.0  -0.6235
  O  O207  1  0.911590  0.387430  0.120100  1.0  -0.6168
  O  O208  1  0.769710  0.350610  0.937730  1.0  -0.5923
  O  O209  1  0.900050  0.779120  0.610330  1.0  -0.6646
  O  O210  1  0.424510  0.200430  0.814670  1.0  -0.5945
  O  O211  1  0.270080  0.186490  0.645410  1.0  -0.6235
  O  O212  1  0.411590  0.887430  0.120100  1.0  -0.6168
  O  O213  1  0.269710  0.850610  0.937730  1.0  -0.5923
  O  O214  1  0.400050  0.279120  0.610330  1.0  -0.6646
  O  O215  1  0.075490  0.700430  0.685330  1.0  -0.5943
  O  O216  1  0.229920  0.686490  0.854590  1.0  -0.6228
  O  O217  1  0.088410  0.387430  0.379900  1.0  -0.6166
  O  O218  1  0.230290  0.350610  0.562270  1.0  -0.5929
  O  O219  1  0.099950  0.779120  0.889670  1.0  -0.6652
  O  O220  1  0.575490  0.200430  0.685330  1.0  -0.5943
  O  O221  1  0.729920  0.186490  0.854590  1.0  -0.6228
  O  O222  1  0.588410  0.887430  0.379900  1.0  -0.6166
  O  O223  1  0.730290  0.850610  0.562270  1.0  -0.5929
  O  O224  1  0.599950  0.279120  0.889670  1.0  -0.6652
