# generated using pymatgen
data_MgH8C13NO5
_symmetry_space_group_name_H-M   'P 1'
_cell_length_a   18.18760000
_cell_length_b   17.24410000
_cell_length_c   13.53130000
_cell_angle_alpha   90.00000000
_cell_angle_beta   129.50500000
_cell_angle_gamma   90.00000000
_symmetry_Int_Tables_number   1
_chemical_formula_structural   MgH8C13NO5
_chemical_formula_sum   'Mg8 H64 C104 N8 O40'
_cell_volume   3274.38890915
_cell_formula_units_Z   8
loop_
 _symmetry_equiv_pos_site_id
 _symmetry_equiv_pos_as_xyz
  1  'x, y, z'
loop_
 _atom_site_type_symbol
 _atom_site_label
 _atom_site_symmetry_multiplicity
 _atom_site_fract_x
 _atom_site_fract_y
 _atom_site_fract_z
 _atom_site_occupancy
 _atom_site_charge
  Mg  Mg1  1  0.000000  0.194460  0.750000  1.0  1.4651
  Mg  Mg2  1  0.500000  0.694460  0.750000  1.0  1.4651
  Mg  Mg3  1  0.000000  0.805540  0.250000  1.0  1.4634
  Mg  Mg4  1  0.500000  0.305540  0.250000  1.0  1.4634
  Mg  Mg5  1  0.250000  0.250000  0.000000  1.0  1.5492
  Mg  Mg6  1  0.750000  0.250000  0.500000  1.0  1.5492
  Mg  Mg7  1  0.750000  0.750000  0.000000  1.0  1.5492
  Mg  Mg8  1  0.250000  0.750000  0.500000  1.0  1.5492
  H  H9  1  0.295000  0.071000  0.841000  1.0  0.079
  H  H10  1  0.290000  0.953000  0.725000  1.0  0.091
  H  H11  1  0.035000  0.009000  0.407000  1.0  0.0965
  H  H12  1  0.040000  0.120000  0.513000  1.0  0.0944
  H  H13  1  0.111000  0.416000  0.863000  1.0  0.1831
  H  H14  1  0.072000  0.519000  0.912000  1.0  0.1692
  H  H15  1  0.977000  0.378000  0.047000  1.0  0.1034
  H  H16  1  0.030000  0.277000  0.991000  1.0  0.0985
  H  H17  1  0.795000  0.571000  0.841000  1.0  0.079
  H  H18  1  0.790000  0.453000  0.725000  1.0  0.091
  H  H19  1  0.535000  0.509000  0.407000  1.0  0.0965
  H  H20  1  0.540000  0.620000  0.513000  1.0  0.0944
  H  H21  1  0.611000  0.916000  0.863000  1.0  0.1831
  H  H22  1  0.572000  0.019000  0.912000  1.0  0.1693
  H  H23  1  0.477000  0.878000  0.047000  1.0  0.1034
  H  H24  1  0.530000  0.777000  0.991000  1.0  0.0985
  H  H25  1  0.705000  0.071000  0.659000  1.0  0.0791
  H  H26  1  0.710000  0.953000  0.775000  1.0  0.0902
  H  H27  1  0.965000  0.009000  0.093000  1.0  0.0969
  H  H28  1  0.960000  0.120000  0.987000  1.0  0.094
  H  H29  1  0.889000  0.416000  0.637000  1.0  0.1803
  H  H30  1  0.928000  0.519000  0.588000  1.0  0.1694
  H  H31  1  0.023000  0.378000  0.453000  1.0  0.1039
  H  H32  1  0.970000  0.277000  0.509000  1.0  0.0984
  H  H33  1  0.205000  0.571000  0.659000  1.0  0.0791
  H  H34  1  0.210000  0.453000  0.775000  1.0  0.0902
  H  H35  1  0.465000  0.509000  0.093000  1.0  0.0969
  H  H36  1  0.460000  0.620000  0.987000  1.0  0.094
  H  H37  1  0.389000  0.916000  0.637000  1.0  0.1803
  H  H38  1  0.428000  0.019000  0.588000  1.0  0.1695
  H  H39  1  0.523000  0.878000  0.453000  1.0  0.1039
  H  H40  1  0.470000  0.777000  0.509000  1.0  0.0984
  H  H41  1  0.705000  0.929000  0.159000  1.0  0.0791
  H  H42  1  0.710000  0.047000  0.275000  1.0  0.0905
  H  H43  1  0.965000  0.991000  0.593000  1.0  0.0968
  H  H44  1  0.960000  0.880000  0.487000  1.0  0.0942
  H  H45  1  0.889000  0.584000  0.137000  1.0  0.1806
  H  H46  1  0.928000  0.481000  0.088000  1.0  0.1695
  H  H47  1  0.023000  0.622000  0.953000  1.0  0.1045
  H  H48  1  0.970000  0.723000  0.009000  1.0  0.0994
  H  H49  1  0.205000  0.429000  0.159000  1.0  0.0791
  H  H50  1  0.210000  0.547000  0.275000  1.0  0.0905
  H  H51  1  0.465000  0.491000  0.593000  1.0  0.0968
  H  H52  1  0.460000  0.380000  0.487000  1.0  0.0942
  H  H53  1  0.389000  0.084000  0.137000  1.0  0.1806
  H  H54  1  0.428000  0.981000  0.088000  1.0  0.1691
  H  H55  1  0.523000  0.122000  0.953000  1.0  0.1045
  H  H56  1  0.470000  0.223000  0.009000  1.0  0.0994
  H  H57  1  0.295000  0.929000  0.341000  1.0  0.0792
  H  H58  1  0.290000  0.047000  0.225000  1.0  0.0907
  H  H59  1  0.035000  0.991000  0.907000  1.0  0.0965
  H  H60  1  0.040000  0.880000  0.013000  1.0  0.0949
  H  H61  1  0.111000  0.584000  0.363000  1.0  0.1836
  H  H62  1  0.072000  0.481000  0.412000  1.0  0.169
  H  H63  1  0.977000  0.622000  0.547000  1.0  0.1045
  H  H64  1  0.030000  0.723000  0.491000  1.0  0.0995
  H  H65  1  0.795000  0.429000  0.341000  1.0  0.0792
  H  H66  1  0.790000  0.547000  0.225000  1.0  0.0907
  H  H67  1  0.535000  0.491000  0.907000  1.0  0.0965
  H  H68  1  0.540000  0.380000  0.013000  1.0  0.0949
  H  H69  1  0.611000  0.084000  0.363000  1.0  0.1836
  H  H70  1  0.572000  0.981000  0.412000  1.0  0.1686
  H  H71  1  0.477000  0.122000  0.547000  1.0  0.1045
  H  H72  1  0.530000  0.223000  0.491000  1.0  0.0995
  C  C73  1  0.161900  0.102290  0.677500  1.0  -0.1483
  C  C74  1  0.239900  0.053200  0.743700  1.0  -0.0565
  C  C75  1  0.240500  0.987200  0.684400  1.0  -0.0918
  C  C76  1  0.164700  0.970930  0.558600  1.0  -0.2085
  C  C77  1  0.087500  0.021500  0.491300  1.0  -0.0904
  C  C78  1  0.086400  0.086000  0.550800  1.0  -0.1046
  C  C79  1  0.156300  0.168310  0.745100  1.0  0.6798
  C  C80  1  0.160900  0.897430  0.494400  1.0  0.6638
  C  C81  1  0.086200  0.411800  0.897600  1.0  0.0333
  C  C82  1  0.056700  0.475100  0.925600  1.0  -0.1213
  C  C83  1  0.015300  0.466100  0.983000  1.0  0.043
  C  C84  1  0.006800  0.390700  0.011100  1.0  -0.1372
  C  C85  1  0.036400  0.328300  0.980300  1.0  0.0009
  C  C86  1  0.661900  0.602290  0.677500  1.0  -0.1483
  C  C87  1  0.739900  0.553200  0.743700  1.0  -0.0565
  C  C88  1  0.740500  0.487200  0.684400  1.0  -0.0918
  C  C89  1  0.664700  0.470930  0.558600  1.0  -0.2085
  C  C90  1  0.587500  0.521500  0.491300  1.0  -0.0904
  C  C91  1  0.586400  0.586000  0.550800  1.0  -0.1046
  C  C92  1  0.656300  0.668310  0.745100  1.0  0.6798
  C  C93  1  0.660900  0.397430  0.494400  1.0  0.6638
  C  C94  1  0.586200  0.911800  0.897600  1.0  0.0333
  C  C95  1  0.556700  0.975100  0.925600  1.0  -0.1213
  C  C96  1  0.515300  0.966100  0.983000  1.0  0.043
  C  C97  1  0.506800  0.890700  0.011100  1.0  -0.1372
  C  C98  1  0.536400  0.828300  0.980300  1.0  0.0009
  C  C99  1  0.838100  0.102290  0.822500  1.0  -0.1488
  C  C100  1  0.760100  0.053200  0.756300  1.0  -0.0568
  C  C101  1  0.759500  0.987200  0.815600  1.0  -0.0924
  C  C102  1  0.835300  0.970930  0.941400  1.0  -0.2081
  C  C103  1  0.912500  0.021500  0.008700  1.0  -0.0909
  C  C104  1  0.913600  0.086000  0.949200  1.0  -0.1056
  C  C105  1  0.843700  0.168310  0.754900  1.0  0.6784
  C  C106  1  0.839100  0.897430  0.005600  1.0  0.6644
  C  C107  1  0.913800  0.411800  0.602400  1.0  0.0342
  C  C108  1  0.943300  0.475100  0.574400  1.0  -0.1222
  C  C109  1  0.984700  0.466100  0.517000  1.0  0.0429
  C  C110  1  0.993200  0.390700  0.488900  1.0  -0.1392
  C  C111  1  0.963600  0.328300  0.519700  1.0  -0.0025
  C  C112  1  0.338100  0.602290  0.822500  1.0  -0.1488
  C  C113  1  0.260100  0.553200  0.756300  1.0  -0.0568
  C  C114  1  0.259500  0.487200  0.815600  1.0  -0.0924
  C  C115  1  0.335300  0.470930  0.941400  1.0  -0.2081
  C  C116  1  0.412500  0.521500  0.008700  1.0  -0.0909
  C  C117  1  0.413600  0.586000  0.949200  1.0  -0.1056
  C  C118  1  0.343700  0.668310  0.754900  1.0  0.6784
  C  C119  1  0.339100  0.397430  0.005600  1.0  0.6644
  C  C120  1  0.413800  0.911800  0.602400  1.0  0.0342
  C  C121  1  0.443300  0.975100  0.574400  1.0  -0.1222
  C  C122  1  0.484700  0.966100  0.517000  1.0  0.0429
  C  C123  1  0.493200  0.890700  0.488900  1.0  -0.1392
  C  C124  1  0.463600  0.828300  0.519700  1.0  -0.0025
  C  C125  1  0.838100  0.897710  0.322500  1.0  -0.15
  C  C126  1  0.760100  0.946800  0.256300  1.0  -0.0571
  C  C127  1  0.759500  0.012800  0.315600  1.0  -0.0926
  C  C128  1  0.835300  0.029070  0.441400  1.0  -0.2094
  C  C129  1  0.912500  0.978500  0.508700  1.0  -0.0911
  C  C130  1  0.913600  0.914000  0.449200  1.0  -0.1064
  C  C131  1  0.843700  0.831690  0.254900  1.0  0.6777
  C  C132  1  0.839100  0.102570  0.505600  1.0  0.6649
  C  C133  1  0.913800  0.588200  0.102400  1.0  0.034
  C  C134  1  0.943300  0.524900  0.074400  1.0  -0.1213
  C  C135  1  0.984700  0.533900  0.017000  1.0  0.0426
  C  C136  1  0.993200  0.609300  0.988900  1.0  -0.1393
  C  C137  1  0.963600  0.671700  0.019700  1.0  -0.0025
  C  C138  1  0.338100  0.397710  0.322500  1.0  -0.15
  C  C139  1  0.260100  0.446800  0.256300  1.0  -0.0571
  C  C140  1  0.259500  0.512800  0.315600  1.0  -0.0926
  C  C141  1  0.335300  0.529070  0.441400  1.0  -0.2094
  C  C142  1  0.412500  0.478500  0.508700  1.0  -0.0911
  C  C143  1  0.413600  0.414000  0.449200  1.0  -0.1064
  C  C144  1  0.343700  0.331690  0.254900  1.0  0.6777
  C  C145  1  0.339100  0.602570  0.505600  1.0  0.6649
  C  C146  1  0.413800  0.088200  0.102400  1.0  0.034
  C  C147  1  0.443300  0.024900  0.074400  1.0  -0.1213
  C  C148  1  0.484700  0.033900  0.017000  1.0  0.0426
  C  C149  1  0.493200  0.109300  0.988900  1.0  -0.1393
  C  C150  1  0.463600  0.171700  0.019700  1.0  -0.0025
  C  C151  1  0.161900  0.897710  0.177500  1.0  -0.1505
  C  C152  1  0.239900  0.946800  0.243700  1.0  -0.0565
  C  C153  1  0.240500  0.012800  0.184400  1.0  -0.0913
  C  C154  1  0.164700  0.029070  0.058600  1.0  -0.2085
  C  C155  1  0.087500  0.978500  0.991300  1.0  -0.0905
  C  C156  1  0.086400  0.914000  0.050800  1.0  -0.105
  C  C157  1  0.156300  0.831690  0.245100  1.0  0.6799
  C  C158  1  0.160900  0.102570  0.994400  1.0  0.6642
  C  C159  1  0.086200  0.588200  0.397600  1.0  0.0332
  C  C160  1  0.056700  0.524900  0.425600  1.0  -0.1226
  C  C161  1  0.015300  0.533900  0.483000  1.0  0.0428
  C  C162  1  0.006800  0.609300  0.511100  1.0  -0.1382
  C  C163  1  0.036400  0.671700  0.480300  1.0  -0.0005
  C  C164  1  0.661900  0.397710  0.177500  1.0  -0.1505
  C  C165  1  0.739900  0.446800  0.243700  1.0  -0.0565
  C  C166  1  0.740500  0.512800  0.184400  1.0  -0.0913
  C  C167  1  0.664700  0.529070  0.058600  1.0  -0.2085
  C  C168  1  0.587500  0.478500  0.991300  1.0  -0.0905
  C  C169  1  0.586400  0.414000  0.050800  1.0  -0.105
  C  C170  1  0.656300  0.331690  0.245100  1.0  0.6799
  C  C171  1  0.660900  0.602570  0.994400  1.0  0.6642
  C  C172  1  0.586200  0.088200  0.397600  1.0  0.0332
  C  C173  1  0.556700  0.024900  0.425600  1.0  -0.1226
  C  C174  1  0.515300  0.033900  0.483000  1.0  0.0428
  C  C175  1  0.506800  0.109300  0.511100  1.0  -0.1382
  C  C176  1  0.536400  0.171700  0.480300  1.0  -0.0005
  N  N177  1  0.074070  0.339900  0.922800  1.0  0.2473
  N  N178  1  0.574070  0.839900  0.922800  1.0  0.2473
  N  N179  1  0.925930  0.339900  0.577200  1.0  0.247
  N  N180  1  0.425930  0.839900  0.577200  1.0  0.247
  N  N181  1  0.925930  0.660100  0.077200  1.0  0.2476
  N  N182  1  0.425930  0.160100  0.077200  1.0  0.2476
  N  N183  1  0.074070  0.660100  0.422800  1.0  0.2477
  N  N184  1  0.574070  0.160100  0.422800  1.0  0.2477
  O  O185  1  0.075360  0.199990  0.686400  1.0  -0.5838
  O  O186  1  0.230310  0.186610  0.855100  1.0  -0.6215
  O  O187  1  0.088530  0.888150  0.379900  1.0  -0.6328
  O  O188  1  0.230450  0.851130  0.561400  1.0  -0.615
  O  O189  1  0.099750  0.279070  0.889300  1.0  -0.6716
  O  O190  1  0.575360  0.699990  0.686400  1.0  -0.5838
  O  O191  1  0.730310  0.686610  0.855100  1.0  -0.6215
  O  O192  1  0.588530  0.388150  0.379900  1.0  -0.6328
  O  O193  1  0.730450  0.351130  0.561400  1.0  -0.615
  O  O194  1  0.599750  0.779070  0.889300  1.0  -0.6716
  O  O195  1  0.924640  0.199990  0.813600  1.0  -0.584
  O  O196  1  0.769690  0.186610  0.644900  1.0  -0.6234
  O  O197  1  0.911470  0.888150  0.120100  1.0  -0.632
  O  O198  1  0.769550  0.851130  0.938600  1.0  -0.6143
  O  O199  1  0.900250  0.279070  0.610700  1.0  -0.6705
  O  O200  1  0.424640  0.699990  0.813600  1.0  -0.584
  O  O201  1  0.269690  0.686610  0.644900  1.0  -0.6234
  O  O202  1  0.411470  0.388150  0.120100  1.0  -0.632
  O  O203  1  0.269550  0.351130  0.938600  1.0  -0.6143
  O  O204  1  0.400250  0.779070  0.610700  1.0  -0.6705
  O  O205  1  0.924640  0.800010  0.313600  1.0  -0.5838
  O  O206  1  0.769690  0.813390  0.144900  1.0  -0.6238
  O  O207  1  0.911470  0.111850  0.620100  1.0  -0.6323
  O  O208  1  0.769550  0.148870  0.438600  1.0  -0.6139
  O  O209  1  0.900250  0.720930  0.110700  1.0  -0.6707
  O  O210  1  0.424640  0.300010  0.313600  1.0  -0.5838
  O  O211  1  0.269690  0.313390  0.144900  1.0  -0.6238
  O  O212  1  0.411470  0.611850  0.620100  1.0  -0.6323
  O  O213  1  0.269550  0.648870  0.438600  1.0  -0.6139
  O  O214  1  0.400250  0.220930  0.110700  1.0  -0.6707
  O  O215  1  0.075360  0.800010  0.186400  1.0  -0.5833
  O  O216  1  0.230310  0.813390  0.355100  1.0  -0.6222
  O  O217  1  0.088530  0.111850  0.879900  1.0  -0.6332
  O  O218  1  0.230450  0.148870  0.061400  1.0  -0.6149
  O  O219  1  0.099750  0.720930  0.389300  1.0  -0.6713
  O  O220  1  0.575360  0.300010  0.186400  1.0  -0.5833
  O  O221  1  0.730310  0.313390  0.355100  1.0  -0.6222
  O  O222  1  0.588530  0.611850  0.879900  1.0  -0.6332
  O  O223  1  0.730450  0.648870  0.061400  1.0  -0.6149
  O  O224  1  0.599750  0.220930  0.389300  1.0  -0.6713
