# generated using pymatgen
data_MgH8C13NO5
_symmetry_space_group_name_H-M   'P 1'
_cell_length_a   18.51000000
_cell_length_b   16.89400000
_cell_length_c   13.92400000
_cell_angle_alpha   90.00000000
_cell_angle_beta   130.54200000
_cell_angle_gamma   90.00000000
_symmetry_Int_Tables_number   1
_chemical_formula_structural   MgH8C13NO5
_chemical_formula_sum   'Mg8 H64 C104 N8 O40'
_cell_volume   3308.84433563
_cell_formula_units_Z   8
loop_
 _symmetry_equiv_pos_site_id
 _symmetry_equiv_pos_as_xyz
  1  'x, y, z'
loop_
 _atom_site_type_symbol
 _atom_site_label
 _atom_site_symmetry_multiplicity
 _atom_site_fract_x
 _atom_site_fract_y
 _atom_site_fract_z
 _atom_site_occupancy
 _atom_site_charge
  Mg  Mg1  1  0.500000  0.307900  0.250000  1.0  1.4758
  Mg  Mg2  1  0.000000  0.807900  0.250000  1.0  1.4758
  Mg  Mg3  1  0.500000  0.692100  0.750000  1.0  1.4736
  Mg  Mg4  1  0.000000  0.192100  0.750000  1.0  1.4736
  Mg  Mg5  1  0.750000  0.250000  0.500000  1.0  1.5637
  Mg  Mg6  1  0.250000  0.250000  0.000000  1.0  1.5637
  Mg  Mg7  1  0.250000  0.750000  0.500000  1.0  1.5637
  Mg  Mg8  1  0.750000  0.750000  0.000000  1.0  1.5637
  H  H9  1  0.537000  0.514900  0.409400  1.0  0.0906
  H  H10  1  0.534000  0.620700  0.510900  1.0  0.0943
  H  H11  1  0.792300  0.563500  0.827700  1.0  0.0641
  H  H12  1  0.793600  0.455100  0.728300  1.0  0.0846
  H  H13  1  0.468400  0.225200  0.005600  1.0  0.1077
  H  H14  1  0.517400  0.121700  0.953300  1.0  0.1135
  H  H15  1  0.436400  0.971300  0.088600  1.0  0.1173
  H  H16  1  0.386900  0.077100  0.136600  1.0  0.1077
  H  H17  1  0.037000  0.014900  0.409400  1.0  0.0906
  H  H18  1  0.034000  0.120700  0.510900  1.0  0.0943
  H  H19  1  0.292300  0.063500  0.827700  1.0  0.0641
  H  H20  1  0.293600  0.955100  0.728300  1.0  0.0846
  H  H21  1  0.968400  0.725200  0.005600  1.0  0.1077
  H  H22  1  0.017400  0.621700  0.953300  1.0  0.1135
  H  H23  1  0.936400  0.471300  0.088600  1.0  0.1173
  H  H24  1  0.886900  0.577100  0.136600  1.0  0.1077
  H  H25  1  0.463000  0.514900  0.090600  1.0  0.0908
  H  H26  1  0.466000  0.620700  0.989100  1.0  0.0938
  H  H27  1  0.207700  0.563500  0.672300  1.0  0.064
  H  H28  1  0.206400  0.455100  0.771700  1.0  0.0837
  H  H29  1  0.531600  0.225200  0.494400  1.0  0.1079
  H  H30  1  0.482600  0.121700  0.546700  1.0  0.1148
  H  H31  1  0.563600  0.971300  0.411400  1.0  0.1177
  H  H32  1  0.613100  0.077100  0.363400  1.0  0.1071
  H  H33  1  0.963000  0.014900  0.090600  1.0  0.0908
  H  H34  1  0.966000  0.120700  0.989100  1.0  0.0938
  H  H35  1  0.707700  0.063500  0.672300  1.0  0.064
  H  H36  1  0.706400  0.955100  0.771700  1.0  0.0837
  H  H37  1  0.031600  0.725200  0.494400  1.0  0.1079
  H  H38  1  0.982600  0.621700  0.546700  1.0  0.1148
  H  H39  1  0.063600  0.471300  0.411400  1.0  0.1177
  H  H40  1  0.113100  0.577100  0.363400  1.0  0.1071
  H  H41  1  0.463000  0.485100  0.590600  1.0  0.0909
  H  H42  1  0.466000  0.379300  0.489100  1.0  0.0939
  H  H43  1  0.207700  0.436500  0.172300  1.0  0.064
  H  H44  1  0.206400  0.544900  0.271700  1.0  0.0841
  H  H45  1  0.531600  0.774800  0.994400  1.0  0.1079
  H  H46  1  0.482600  0.878300  0.046700  1.0  0.1144
  H  H47  1  0.563600  0.028700  0.911400  1.0  0.1178
  H  H48  1  0.613100  0.922900  0.863400  1.0  0.1073
  H  H49  1  0.963000  0.985100  0.590600  1.0  0.0909
  H  H50  1  0.966000  0.879300  0.489100  1.0  0.0939
  H  H51  1  0.707700  0.936500  0.172300  1.0  0.064
  H  H52  1  0.706400  0.044900  0.271700  1.0  0.0841
  H  H53  1  0.031600  0.274800  0.994400  1.0  0.1079
  H  H54  1  0.982600  0.378300  0.046700  1.0  0.1144
  H  H55  1  0.063600  0.528700  0.911400  1.0  0.1178
  H  H56  1  0.113100  0.422900  0.863400  1.0  0.1073
  H  H57  1  0.537000  0.485100  0.909400  1.0  0.0905
  H  H58  1  0.534000  0.379300  0.010900  1.0  0.094
  H  H59  1  0.792300  0.436500  0.327700  1.0  0.0643
  H  H60  1  0.793600  0.544900  0.228300  1.0  0.0845
  H  H61  1  0.468400  0.774800  0.505600  1.0  0.108
  H  H62  1  0.517400  0.878300  0.453300  1.0  0.1138
  H  H63  1  0.436400  0.028700  0.588600  1.0  0.1181
  H  H64  1  0.386900  0.922900  0.636600  1.0  0.1076
  H  H65  1  0.037000  0.985100  0.909400  1.0  0.0905
  H  H66  1  0.034000  0.879300  0.010900  1.0  0.094
  H  H67  1  0.292300  0.936500  0.327700  1.0  0.0643
  H  H68  1  0.293600  0.044900  0.228300  1.0  0.0845
  H  H69  1  0.968400  0.274800  0.505600  1.0  0.108
  H  H70  1  0.017400  0.378300  0.453300  1.0  0.1138
  H  H71  1  0.936400  0.528700  0.588600  1.0  0.1181
  H  H72  1  0.886900  0.422900  0.636600  1.0  0.1076
  C  C73  1  0.664940  0.473050  0.558600  1.0  -0.1567
  C  C74  1  0.588300  0.523710  0.494500  1.0  -0.0461
  C  C75  1  0.586700  0.587510  0.555300  1.0  -0.0476
  C  C76  1  0.662450  0.602620  0.680900  1.0  -0.1521
  C  C77  1  0.739800  0.553300  0.743600  1.0  -0.0447
  C  C78  1  0.741000  0.488420  0.683700  1.0  -0.0543
  C  C79  1  0.661100  0.400000  0.493800  1.0  0.6696
  C  C80  1  0.656450  0.667750  0.749300  1.0  0.6963
  C  C81  1  0.463000  0.173480  0.023200  1.0  -0.0202
  C  C82  1  0.492200  0.111440  0.991900  1.0  -0.1429
  C  C83  1  0.484610  0.033850  0.017000  1.0  0.017
  C  C84  1  0.444000  0.022440  0.071700  1.0  -0.1239
  C  C85  1  0.414900  0.085660  0.101200  1.0  -0.0506
  C  C86  1  0.164940  0.973050  0.558600  1.0  -0.1567
  C  C87  1  0.088300  0.023710  0.494500  1.0  -0.0461
  C  C88  1  0.086700  0.087510  0.555300  1.0  -0.0476
  C  C89  1  0.162450  0.102620  0.680900  1.0  -0.1521
  C  C90  1  0.239800  0.053300  0.743600  1.0  -0.0447
  C  C91  1  0.241000  0.988420  0.683700  1.0  -0.0543
  C  C92  1  0.161100  0.900000  0.493800  1.0  0.6696
  C  C93  1  0.156450  0.167750  0.749300  1.0  0.6963
  C  C94  1  0.963000  0.673480  0.023200  1.0  -0.0202
  C  C95  1  0.992200  0.611440  0.991900  1.0  -0.1429
  C  C96  1  0.984610  0.533850  0.017000  1.0  0.017
  C  C97  1  0.944000  0.522440  0.071700  1.0  -0.1239
  C  C98  1  0.914900  0.585660  0.101200  1.0  -0.0506
  C  C99  1  0.335060  0.473050  0.941400  1.0  -0.1558
  C  C100  1  0.411700  0.523710  0.005500  1.0  -0.0459
  C  C101  1  0.413300  0.587510  0.944700  1.0  -0.0469
  C  C102  1  0.337550  0.602620  0.819100  1.0  -0.1515
  C  C103  1  0.260200  0.553300  0.756400  1.0  -0.0439
  C  C104  1  0.259000  0.488420  0.816300  1.0  -0.0535
  C  C105  1  0.338900  0.400000  0.006200  1.0  0.6691
  C  C106  1  0.343550  0.667750  0.750700  1.0  0.6962
  C  C107  1  0.537000  0.173480  0.476800  1.0  -0.0213
  C  C108  1  0.507800  0.111440  0.508100  1.0  -0.1419
  C  C109  1  0.515390  0.033850  0.483000  1.0  0.0167
  C  C110  1  0.556000  0.022440  0.428300  1.0  -0.1247
  C  C111  1  0.585100  0.085660  0.398800  1.0  -0.0528
  C  C112  1  0.835060  0.973050  0.941400  1.0  -0.1558
  C  C113  1  0.911700  0.023710  0.005500  1.0  -0.0459
  C  C114  1  0.913300  0.087510  0.944700  1.0  -0.0469
  C  C115  1  0.837550  0.102620  0.819100  1.0  -0.1515
  C  C116  1  0.760200  0.053300  0.756400  1.0  -0.0439
  C  C117  1  0.759000  0.988420  0.816300  1.0  -0.0535
  C  C118  1  0.838900  0.900000  0.006200  1.0  0.6691
  C  C119  1  0.843550  0.167750  0.750700  1.0  0.6962
  C  C120  1  0.037000  0.673480  0.476800  1.0  -0.0213
  C  C121  1  0.007800  0.611440  0.508100  1.0  -0.1419
  C  C122  1  0.015390  0.533850  0.483000  1.0  0.0167
  C  C123  1  0.056000  0.522440  0.428300  1.0  -0.1247
  C  C124  1  0.085100  0.585660  0.398800  1.0  -0.0528
  C  C125  1  0.335060  0.526950  0.441400  1.0  -0.1562
  C  C126  1  0.411700  0.476290  0.505500  1.0  -0.0462
  C  C127  1  0.413300  0.412490  0.444700  1.0  -0.0468
  C  C128  1  0.337550  0.397380  0.319100  1.0  -0.1539
  C  C129  1  0.260200  0.446700  0.256400  1.0  -0.044
  C  C130  1  0.259000  0.511580  0.316300  1.0  -0.0527
  C  C131  1  0.338900  0.600000  0.506200  1.0  0.6695
  C  C132  1  0.343550  0.332250  0.250700  1.0  0.6956
  C  C133  1  0.537000  0.826520  0.976800  1.0  -0.0201
  C  C134  1  0.507800  0.888560  0.008100  1.0  -0.1428
  C  C135  1  0.515390  0.966150  0.983000  1.0  0.0169
  C  C136  1  0.556000  0.977560  0.928300  1.0  -0.1228
  C  C137  1  0.585100  0.914340  0.898800  1.0  -0.0532
  C  C138  1  0.835060  0.026950  0.441400  1.0  -0.1562
  C  C139  1  0.911700  0.976290  0.505500  1.0  -0.0462
  C  C140  1  0.913300  0.912490  0.444700  1.0  -0.0468
  C  C141  1  0.837550  0.897380  0.319100  1.0  -0.1539
  C  C142  1  0.760200  0.946700  0.256400  1.0  -0.044
  C  C143  1  0.759000  0.011580  0.316300  1.0  -0.0527
  C  C144  1  0.838900  0.100000  0.506200  1.0  0.6695
  C  C145  1  0.843550  0.832250  0.250700  1.0  0.6956
  C  C146  1  0.037000  0.326520  0.976800  1.0  -0.0201
  C  C147  1  0.007800  0.388560  0.008100  1.0  -0.1428
  C  C148  1  0.015390  0.466150  0.983000  1.0  0.0169
  C  C149  1  0.056000  0.477560  0.928300  1.0  -0.1228
  C  C150  1  0.085100  0.414340  0.898800  1.0  -0.0532
  C  C151  1  0.664940  0.526950  0.058600  1.0  -0.1561
  C  C152  1  0.588300  0.476290  0.994500  1.0  -0.0466
  C  C153  1  0.586700  0.412490  0.055300  1.0  -0.047
  C  C154  1  0.662450  0.397380  0.180900  1.0  -0.1543
  C  C155  1  0.739800  0.446700  0.243600  1.0  -0.0449
  C  C156  1  0.741000  0.511580  0.183700  1.0  -0.0535
  C  C157  1  0.661100  0.600000  0.993800  1.0  0.6699
  C  C158  1  0.656450  0.332250  0.249300  1.0  0.6963
  C  C159  1  0.463000  0.826520  0.523200  1.0  -0.0213
  C  C160  1  0.492200  0.888560  0.491900  1.0  -0.1437
  C  C161  1  0.484610  0.966150  0.517000  1.0  0.0172
  C  C162  1  0.444000  0.977560  0.571700  1.0  -0.1219
  C  C163  1  0.414900  0.914340  0.601200  1.0  -0.0514
  C  C164  1  0.164940  0.026950  0.058600  1.0  -0.1561
  C  C165  1  0.088300  0.976290  0.994500  1.0  -0.0466
  C  C166  1  0.086700  0.912490  0.055300  1.0  -0.047
  C  C167  1  0.162450  0.897380  0.180900  1.0  -0.1543
  C  C168  1  0.239800  0.946700  0.243600  1.0  -0.0449
  C  C169  1  0.241000  0.011580  0.183700  1.0  -0.0535
  C  C170  1  0.161100  0.100000  0.993800  1.0  0.6699
  C  C171  1  0.156450  0.832250  0.249300  1.0  0.6963
  C  C172  1  0.963000  0.326520  0.523200  1.0  -0.0213
  C  C173  1  0.992200  0.388560  0.491900  1.0  -0.1437
  C  C174  1  0.984610  0.466150  0.517000  1.0  0.0172
  C  C175  1  0.944000  0.477560  0.571700  1.0  -0.1219
  C  C176  1  0.914900  0.414340  0.601200  1.0  -0.0514
  N  N177  1  0.426690  0.159490  0.079100  1.0  0.2959
  N  N178  1  0.926690  0.659490  0.079100  1.0  0.2959
  N  N179  1  0.573310  0.159490  0.420900  1.0  0.2964
  N  N180  1  0.073310  0.659490  0.420900  1.0  0.2964
  N  N181  1  0.573310  0.840510  0.920900  1.0  0.296
  N  N182  1  0.073310  0.340510  0.920900  1.0  0.296
  N  N183  1  0.426690  0.840510  0.579100  1.0  0.2955
  N  N184  1  0.926690  0.340510  0.579100  1.0  0.2955
  O  O185  1  0.588400  0.391310  0.380600  1.0  -0.6351
  O  O186  1  0.730610  0.353180  0.558480  1.0  -0.62
  O  O187  1  0.576000  0.697970  0.692390  1.0  -0.6111
  O  O188  1  0.730300  0.685900  0.857970  1.0  -0.6249
  O  O189  1  0.400790  0.219900  0.112330  1.0  -0.6477
  O  O190  1  0.088400  0.891310  0.380600  1.0  -0.6351
  O  O191  1  0.230610  0.853180  0.558480  1.0  -0.62
  O  O192  1  0.076000  0.197970  0.692390  1.0  -0.6111
  O  O193  1  0.230300  0.185900  0.857970  1.0  -0.6249
  O  O194  1  0.900790  0.719900  0.112330  1.0  -0.6477
  O  O195  1  0.411600  0.391310  0.119400  1.0  -0.6351
  O  O196  1  0.269390  0.353180  0.941520  1.0  -0.6196
  O  O197  1  0.424000  0.697970  0.807610  1.0  -0.6116
  O  O198  1  0.269700  0.685900  0.642030  1.0  -0.6246
  O  O199  1  0.599210  0.219900  0.387670  1.0  -0.6474
  O  O200  1  0.911600  0.891310  0.119400  1.0  -0.6351
  O  O201  1  0.769390  0.853180  0.941520  1.0  -0.6196
  O  O202  1  0.924000  0.197970  0.807610  1.0  -0.6116
  O  O203  1  0.769700  0.185900  0.642030  1.0  -0.6246
  O  O204  1  0.099210  0.719900  0.387670  1.0  -0.6474
  O  O205  1  0.411600  0.608690  0.619400  1.0  -0.6351
  O  O206  1  0.269390  0.646820  0.441520  1.0  -0.6193
  O  O207  1  0.424000  0.302030  0.307610  1.0  -0.6118
  O  O208  1  0.269700  0.314100  0.142030  1.0  -0.6246
  O  O209  1  0.599210  0.780100  0.887670  1.0  -0.6482
  O  O210  1  0.911600  0.108690  0.619400  1.0  -0.6351
  O  O211  1  0.769390  0.146820  0.441520  1.0  -0.6193
  O  O212  1  0.924000  0.802030  0.307610  1.0  -0.6118
  O  O213  1  0.769700  0.814100  0.142030  1.0  -0.6246
  O  O214  1  0.099210  0.280100  0.887670  1.0  -0.6482
  O  O215  1  0.588400  0.608690  0.880600  1.0  -0.6354
  O  O216  1  0.730610  0.646820  0.058480  1.0  -0.62
  O  O217  1  0.576000  0.302030  0.192390  1.0  -0.611
  O  O218  1  0.730300  0.314100  0.357970  1.0  -0.6245
  O  O219  1  0.400790  0.780100  0.612330  1.0  -0.6479
  O  O220  1  0.088400  0.108690  0.880600  1.0  -0.6354
  O  O221  1  0.230610  0.146820  0.058480  1.0  -0.62
  O  O222  1  0.076000  0.802030  0.192390  1.0  -0.611
  O  O223  1  0.230300  0.814100  0.357970  1.0  -0.6245
  O  O224  1  0.900790  0.280100  0.612330  1.0  -0.6479
