# generated using pymatgen
data_MgH8C13NO5
_symmetry_space_group_name_H-M   'P 1'
_cell_length_a   17.32880000
_cell_length_b   17.74910000
_cell_length_c   12.85700000
_cell_angle_alpha   90.00000000
_cell_angle_beta   126.53000000
_cell_angle_gamma   90.00000000
_symmetry_Int_Tables_number   1
_chemical_formula_structural   MgH8C13NO5
_chemical_formula_sum   'Mg8 H64 C104 N8 O40'
_cell_volume   3177.56787238
_cell_formula_units_Z   8
loop_
 _symmetry_equiv_pos_site_id
 _symmetry_equiv_pos_as_xyz
  1  'x, y, z'
loop_
 _atom_site_type_symbol
 _atom_site_label
 _atom_site_symmetry_multiplicity
 _atom_site_fract_x
 _atom_site_fract_y
 _atom_site_fract_z
 _atom_site_occupancy
 _atom_site_charge
  Mg  Mg1  1  0.250000  0.250000  0.500000  1.0  1.5321
  Mg  Mg2  1  0.750000  0.250000  0.000000  1.0  1.5321
  Mg  Mg3  1  0.750000  0.750000  0.500000  1.0  1.5321
  Mg  Mg4  1  0.250000  0.750000  0.000000  1.0  1.5321
  Mg  Mg5  1  0.500000  0.194830  0.750000  1.0  1.4687
  Mg  Mg6  1  0.000000  0.694830  0.750000  1.0  1.4687
  Mg  Mg7  1  0.500000  0.805170  0.250000  1.0  1.4654
  Mg  Mg8  1  0.000000  0.305170  0.250000  1.0  1.4654
  H  H9  1  0.456700  0.987200  0.597800  1.0  0.0942
  H  H10  1  0.456400  0.879000  0.499100  1.0  0.0943
  H  H11  1  0.207100  0.939700  0.172000  1.0  0.0662
  H  H12  1  0.210700  0.051200  0.268000  1.0  0.0904
  H  H13  1  0.493300  0.284200  0.519000  1.0  0.1025
  H  H14  1  0.539200  0.387900  0.463300  1.0  0.1109
  H  H15  1  0.422300  0.518600  0.588200  1.0  0.1127
  H  H16  1  0.375200  0.411700  0.638500  1.0  0.1011
  H  H17  1  0.956700  0.487200  0.597800  1.0  0.0942
  H  H18  1  0.956400  0.379000  0.499100  1.0  0.0943
  H  H19  1  0.707100  0.439700  0.172000  1.0  0.0662
  H  H20  1  0.710700  0.551200  0.268000  1.0  0.0904
  H  H21  1  0.993300  0.784200  0.519000  1.0  0.1025
  H  H22  1  0.039200  0.887900  0.463300  1.0  0.1109
  H  H23  1  0.922300  0.018600  0.588200  1.0  0.1127
  H  H24  1  0.875200  0.911700  0.638500  1.0  0.1011
  H  H25  1  0.543300  0.987200  0.902200  1.0  0.0938
  H  H26  1  0.543600  0.879000  0.000900  1.0  0.094
  H  H27  1  0.792900  0.939700  0.328000  1.0  0.0662
  H  H28  1  0.789300  0.051200  0.232000  1.0  0.0897
  H  H29  1  0.506700  0.284200  0.981000  1.0  0.1026
  H  H30  1  0.460800  0.387900  0.036700  1.0  0.1115
  H  H31  1  0.577700  0.518600  0.911800  1.0  0.113
  H  H32  1  0.624800  0.411700  0.861500  1.0  0.1022
  H  H33  1  0.043300  0.487200  0.902200  1.0  0.0938
  H  H34  1  0.043600  0.379000  0.000900  1.0  0.094
  H  H35  1  0.292900  0.439700  0.328000  1.0  0.0662
  H  H36  1  0.289300  0.551200  0.232000  1.0  0.0897
  H  H37  1  0.006700  0.784200  0.981000  1.0  0.1026
  H  H38  1  0.960800  0.887900  0.036700  1.0  0.1115
  H  H39  1  0.077700  0.018600  0.911800  1.0  0.113
  H  H40  1  0.124800  0.911700  0.861500  1.0  0.1022
  H  H41  1  0.543300  0.012800  0.402200  1.0  0.0936
  H  H42  1  0.543600  0.121000  0.500900  1.0  0.0945
  H  H43  1  0.792900  0.060300  0.828000  1.0  0.0661
  H  H44  1  0.789300  0.948800  0.732000  1.0  0.0899
  H  H45  1  0.506700  0.715800  0.481000  1.0  0.1029
  H  H46  1  0.460800  0.612100  0.536700  1.0  0.1109
  H  H47  1  0.577700  0.481400  0.411800  1.0  0.1153
  H  H48  1  0.624800  0.588300  0.361500  1.0  0.1017
  H  H49  1  0.043300  0.512800  0.402200  1.0  0.0936
  H  H50  1  0.043600  0.621000  0.500900  1.0  0.0945
  H  H51  1  0.292900  0.560300  0.828000  1.0  0.0661
  H  H52  1  0.289300  0.448800  0.732000  1.0  0.0899
  H  H53  1  0.006700  0.215800  0.481000  1.0  0.1029
  H  H54  1  0.960800  0.112100  0.536700  1.0  0.1109
  H  H55  1  0.077700  0.981400  0.411800  1.0  0.1153
  H  H56  1  0.124800  0.088300  0.361500  1.0  0.1017
  H  H57  1  0.456700  0.012800  0.097800  1.0  0.094
  H  H58  1  0.456400  0.121000  0.999100  1.0  0.0943
  H  H59  1  0.207100  0.060300  0.672000  1.0  0.0664
  H  H60  1  0.210700  0.948800  0.768000  1.0  0.09
  H  H61  1  0.493300  0.715800  0.019000  1.0  0.1034
  H  H62  1  0.539200  0.612100  0.963300  1.0  0.1104
  H  H63  1  0.422300  0.481400  0.088200  1.0  0.1137
  H  H64  1  0.375200  0.588300  0.138500  1.0  0.1012
  H  H65  1  0.956700  0.512800  0.097800  1.0  0.094
  H  H66  1  0.956400  0.621000  0.999100  1.0  0.0943
  H  H67  1  0.707100  0.560300  0.672000  1.0  0.0664
  H  H68  1  0.710700  0.448800  0.768000  1.0  0.09
  H  H69  1  0.993300  0.215800  0.019000  1.0  0.1034
  H  H70  1  0.039200  0.112100  0.963300  1.0  0.1104
  H  H71  1  0.922300  0.981400  0.088200  1.0  0.1137
  H  H72  1  0.875200  0.088300  0.138500  1.0  0.1012
  C  C73  1  0.335000  0.031400  0.442700  1.0  -0.1434
  C  C74  1  0.407100  0.978700  0.511000  1.0  -0.0325
  C  C75  1  0.406600  0.913500  0.452000  1.0  -0.0523
  C  C76  1  0.333000  0.898980  0.324400  1.0  -0.1449
  C  C77  1  0.258700  0.950000  0.257100  1.0  -0.0484
  C  C78  1  0.260300  0.016500  0.315200  1.0  -0.0314
  C  C79  1  0.341700  0.105700  0.504900  1.0  0.6739
  C  C80  1  0.337500  0.831940  0.256200  1.0  0.6907
  C  C81  1  0.478500  0.332000  0.532000  1.0  -0.0439
  C  C82  1  0.506300  0.394000  0.499300  1.0  -0.145
  C  C83  1  0.486200  0.466000  0.518800  1.0  0.0205
  C  C84  1  0.436800  0.471300  0.572600  1.0  -0.1461
  C  C85  1  0.408900  0.407400  0.603300  1.0  -0.0608
  C  C86  1  0.835000  0.531400  0.442700  1.0  -0.1434
  C  C87  1  0.907100  0.478700  0.511000  1.0  -0.0325
  C  C88  1  0.906600  0.413500  0.452000  1.0  -0.0523
  C  C89  1  0.833000  0.398980  0.324400  1.0  -0.1449
  C  C90  1  0.758700  0.450000  0.257100  1.0  -0.0484
  C  C91  1  0.760300  0.516500  0.315200  1.0  -0.0314
  C  C92  1  0.841700  0.605700  0.504900  1.0  0.6739
  C  C93  1  0.837500  0.331940  0.256200  1.0  0.6907
  C  C94  1  0.978500  0.832000  0.532000  1.0  -0.0439
  C  C95  1  0.006300  0.894000  0.499300  1.0  -0.145
  C  C96  1  0.986200  0.966000  0.518800  1.0  0.0205
  C  C97  1  0.936800  0.971300  0.572600  1.0  -0.1461
  C  C98  1  0.908900  0.907400  0.603300  1.0  -0.0608
  C  C99  1  0.665000  0.031400  0.057300  1.0  -0.1436
  C  C100  1  0.592900  0.978700  0.989000  1.0  -0.0328
  C  C101  1  0.593400  0.913500  0.048000  1.0  -0.0528
  C  C102  1  0.667000  0.898980  0.175600  1.0  -0.1448
  C  C103  1  0.741300  0.950000  0.242900  1.0  -0.0496
  C  C104  1  0.739700  0.016500  0.184800  1.0  -0.0304
  C  C105  1  0.658300  0.105700  0.995100  1.0  0.6728
  C  C106  1  0.662500  0.831940  0.243800  1.0  0.692
  C  C107  1  0.521500  0.332000  0.968000  1.0  -0.0429
  C  C108  1  0.493700  0.394000  0.000700  1.0  -0.1424
  C  C109  1  0.513800  0.466000  0.981200  1.0  0.0201
  C  C110  1  0.563200  0.471300  0.927400  1.0  -0.1442
  C  C111  1  0.591100  0.407400  0.896700  1.0  -0.0598
  C  C112  1  0.165000  0.531400  0.057300  1.0  -0.1436
  C  C113  1  0.092900  0.478700  0.989000  1.0  -0.0328
  C  C114  1  0.093400  0.413500  0.048000  1.0  -0.0528
  C  C115  1  0.167000  0.398980  0.175600  1.0  -0.1448
  C  C116  1  0.241300  0.450000  0.242900  1.0  -0.0496
  C  C117  1  0.239700  0.516500  0.184800  1.0  -0.0304
  C  C118  1  0.158300  0.605700  0.995100  1.0  0.6728
  C  C119  1  0.162500  0.331940  0.243800  1.0  0.692
  C  C120  1  0.021500  0.832000  0.968000  1.0  -0.0429
  C  C121  1  0.993700  0.894000  0.000700  1.0  -0.1424
  C  C122  1  0.013800  0.966000  0.981200  1.0  0.0201
  C  C123  1  0.063200  0.971300  0.927400  1.0  -0.1442
  C  C124  1  0.091100  0.907400  0.896700  1.0  -0.0598
  C  C125  1  0.665000  0.968600  0.557300  1.0  -0.143
  C  C126  1  0.592900  0.021300  0.489000  1.0  -0.0329
  C  C127  1  0.593400  0.086500  0.548000  1.0  -0.0524
  C  C128  1  0.667000  0.101020  0.675600  1.0  -0.144
  C  C129  1  0.741300  0.050000  0.742900  1.0  -0.0498
  C  C130  1  0.739700  0.983500  0.684800  1.0  -0.0316
  C  C131  1  0.658300  0.894300  0.495100  1.0  0.6727
  C  C132  1  0.662500  0.168060  0.743800  1.0  0.6925
  C  C133  1  0.521500  0.668000  0.468000  1.0  -0.0416
  C  C134  1  0.493700  0.606000  0.500700  1.0  -0.1427
  C  C135  1  0.513800  0.534000  0.481200  1.0  0.02
  C  C136  1  0.563200  0.528700  0.427400  1.0  -0.1373
  C  C137  1  0.591100  0.592600  0.396700  1.0  -0.0596
  C  C138  1  0.165000  0.468600  0.557300  1.0  -0.143
  C  C139  1  0.092900  0.521300  0.489000  1.0  -0.0329
  C  C140  1  0.093400  0.586500  0.548000  1.0  -0.0524
  C  C141  1  0.167000  0.601020  0.675600  1.0  -0.144
  C  C142  1  0.241300  0.550000  0.742900  1.0  -0.0498
  C  C143  1  0.239700  0.483500  0.684800  1.0  -0.0316
  C  C144  1  0.158300  0.394300  0.495100  1.0  0.6727
  C  C145  1  0.162500  0.668060  0.743800  1.0  0.6925
  C  C146  1  0.021500  0.168000  0.468000  1.0  -0.0416
  C  C147  1  0.993700  0.106000  0.500700  1.0  -0.1427
  C  C148  1  0.013800  0.034000  0.481200  1.0  0.02
  C  C149  1  0.063200  0.028700  0.427400  1.0  -0.1373
  C  C150  1  0.091100  0.092600  0.396700  1.0  -0.0596
  C  C151  1  0.335000  0.968600  0.942700  1.0  -0.1423
  C  C152  1  0.407100  0.021300  0.011000  1.0  -0.0324
  C  C153  1  0.406600  0.086500  0.952000  1.0  -0.0523
  C  C154  1  0.333000  0.101020  0.824400  1.0  -0.1443
  C  C155  1  0.258700  0.050000  0.757100  1.0  -0.0485
  C  C156  1  0.260300  0.983500  0.815200  1.0  -0.0327
  C  C157  1  0.341700  0.894300  0.004900  1.0  0.6738
  C  C158  1  0.337500  0.168060  0.756200  1.0  0.6905
  C  C159  1  0.478500  0.668000  0.032000  1.0  -0.0406
  C  C160  1  0.506300  0.606000  0.999300  1.0  -0.1451
  C  C161  1  0.486200  0.534000  0.018800  1.0  0.0203
  C  C162  1  0.436800  0.528700  0.072600  1.0  -0.1383
  C  C163  1  0.408900  0.592600  0.103300  1.0  -0.0607
  C  C164  1  0.835000  0.468600  0.942700  1.0  -0.1423
  C  C165  1  0.907100  0.521300  0.011000  1.0  -0.0324
  C  C166  1  0.906600  0.586500  0.952000  1.0  -0.0523
  C  C167  1  0.833000  0.601020  0.824400  1.0  -0.1443
  C  C168  1  0.758700  0.550000  0.757100  1.0  -0.0485
  C  C169  1  0.760300  0.483500  0.815200  1.0  -0.0327
  C  C170  1  0.841700  0.394300  0.004900  1.0  0.6738
  C  C171  1  0.837500  0.668060  0.756200  1.0  0.6905
  C  C172  1  0.978500  0.168000  0.032000  1.0  -0.0406
  C  C173  1  0.006300  0.106000  0.999300  1.0  -0.1451
  C  C174  1  0.986200  0.034000  0.018800  1.0  0.0203
  C  C175  1  0.936800  0.028700  0.072600  1.0  -0.1383
  C  C176  1  0.908900  0.092600  0.103300  1.0  -0.0607
  N  N177  1  0.430100  0.339440  0.582600  1.0  0.2994
  N  N178  1  0.930100  0.839440  0.582600  1.0  0.2994
  N  N179  1  0.569900  0.339440  0.917400  1.0  0.3007
  N  N180  1  0.069900  0.839440  0.917400  1.0  0.3007
  N  N181  1  0.569900  0.660560  0.417400  1.0  0.3011
  N  N182  1  0.069900  0.160560  0.417400  1.0  0.3011
  N  N183  1  0.430100  0.660560  0.082600  1.0  0.3002
  N  N184  1  0.930100  0.160560  0.082600  1.0  0.3002
  O  O185  1  0.274540  0.152910  0.437100  1.0  -0.6178
  O  O186  1  0.413850  0.115080  0.619300  1.0  -0.6275
  O  O187  1  0.263950  0.813840  0.146700  1.0  -0.6244
  O  O188  1  0.417930  0.799300  0.314100  1.0  -0.5835
  O  O189  1  0.402620  0.278750  0.613200  1.0  -0.6633
  O  O190  1  0.774540  0.652910  0.437100  1.0  -0.6178
  O  O191  1  0.913850  0.615080  0.619300  1.0  -0.6275
  O  O192  1  0.763950  0.313840  0.146700  1.0  -0.6244
  O  O193  1  0.917930  0.299300  0.314100  1.0  -0.5835
  O  O194  1  0.902620  0.778750  0.613200  1.0  -0.6633
  O  O195  1  0.725460  0.152910  0.062900  1.0  -0.6176
  O  O196  1  0.586150  0.115080  0.880700  1.0  -0.6277
  O  O197  1  0.736050  0.813840  0.353300  1.0  -0.6238
  O  O198  1  0.582070  0.799300  0.185900  1.0  -0.584
  O  O199  1  0.597380  0.278750  0.886800  1.0  -0.6636
  O  O200  1  0.225460  0.652910  0.062900  1.0  -0.6176
  O  O201  1  0.086150  0.615080  0.880700  1.0  -0.6277
  O  O202  1  0.236050  0.313840  0.353300  1.0  -0.6238
  O  O203  1  0.082070  0.299300  0.185900  1.0  -0.584
  O  O204  1  0.097380  0.778750  0.886800  1.0  -0.6636
  O  O205  1  0.725460  0.847090  0.562900  1.0  -0.6192
  O  O206  1  0.586150  0.884920  0.380700  1.0  -0.6275
  O  O207  1  0.736050  0.186160  0.853300  1.0  -0.6232
  O  O208  1  0.582070  0.200700  0.685900  1.0  -0.5832
  O  O209  1  0.597380  0.721250  0.386800  1.0  -0.6639
  O  O210  1  0.225460  0.347090  0.562900  1.0  -0.6192
  O  O211  1  0.086150  0.384920  0.380700  1.0  -0.6275
  O  O212  1  0.236050  0.686160  0.853300  1.0  -0.6232
  O  O213  1  0.082070  0.700700  0.685900  1.0  -0.5832
  O  O214  1  0.097380  0.221250  0.386800  1.0  -0.6639
  O  O215  1  0.274540  0.847090  0.937100  1.0  -0.6195
  O  O216  1  0.413850  0.884920  0.119300  1.0  -0.6274
  O  O217  1  0.263950  0.186160  0.646700  1.0  -0.6243
  O  O218  1  0.417930  0.200700  0.814100  1.0  -0.5828
  O  O219  1  0.402620  0.721250  0.113200  1.0  -0.6643
  O  O220  1  0.774540  0.347090  0.937100  1.0  -0.6195
  O  O221  1  0.913850  0.384920  0.119300  1.0  -0.6274
  O  O222  1  0.763950  0.686160  0.646700  1.0  -0.6243
  O  O223  1  0.917930  0.700700  0.814100  1.0  -0.5828
  O  O224  1  0.902620  0.221250  0.113200  1.0  -0.6643
