# generated using pymatgen
data_ErHC7(NO3)2
_symmetry_space_group_name_H-M   'P 1'
_cell_length_a   6.54950000
_cell_length_b   9.53840000
_cell_length_c   17.16930000
_cell_angle_alpha   90.00000000
_cell_angle_beta   90.00000000
_cell_angle_gamma   90.00000000
_symmetry_Int_Tables_number   1
_chemical_formula_structural   ErHC7(NO3)2
_chemical_formula_sum   'Er4 H4 C28 N8 O24'
_cell_volume   1072.59623101
_cell_formula_units_Z   4
loop_
 _symmetry_equiv_pos_site_id
 _symmetry_equiv_pos_as_xyz
  1  'x, y, z'
loop_
 _atom_site_type_symbol
 _atom_site_label
 _atom_site_symmetry_multiplicity
 _atom_site_fract_x
 _atom_site_fract_y
 _atom_site_fract_z
 _atom_site_occupancy
 _atom_site_charge
  Er  Er1  1  0.750000  0.783380  0.620350  1.0  1.4861
  Er  Er2  1  0.250000  0.716620  0.120350  1.0  1.4857
  Er  Er3  1  0.250000  0.216620  0.379650  1.0  1.4859
  Er  Er4  1  0.750000  0.283380  0.879650  1.0  1.4862
  H  H5  1  0.750000  0.228900  0.651900  1.0  0.1076
  H  H6  1  0.250000  0.271100  0.151900  1.0  0.1075
  H  H7  1  0.250000  0.771100  0.348100  1.0  0.1081
  H  H8  1  0.750000  0.728900  0.848100  1.0  0.1075
  C  C9  1  0.750000  0.629100  0.451100  1.0  0.6056
  C  C10  1  0.750000  0.502100  0.505400  1.0  0.0479
  C  C11  1  0.750000  0.359700  0.484000  1.0  0.0891
  C  C12  1  0.750000  0.308400  0.400600  1.0  0.6935
  C  C13  1  0.750000  0.297300  0.613400  1.0  0.1962
  C  C14  1  0.750000  0.437800  0.634500  1.0  0.068
  C  C15  1  0.750000  0.491800  0.716700  1.0  0.7017
  C  C16  1  0.250000  0.870900  0.951100  1.0  0.606
  C  C17  1  0.250000  0.997900  0.005400  1.0  0.0478
  C  C18  1  0.250000  0.140300  0.984000  1.0  0.0895
  C  C19  1  0.250000  0.191600  0.900600  1.0  0.6952
  C  C20  1  0.250000  0.202700  0.113400  1.0  0.1964
  C  C21  1  0.250000  0.062200  0.134500  1.0  0.0684
  C  C22  1  0.250000  0.008200  0.216700  1.0  0.7014
  C  C23  1  0.250000  0.370900  0.548900  1.0  0.6075
  C  C24  1  0.250000  0.497900  0.494600  1.0  0.0503
  C  C25  1  0.250000  0.640300  0.516000  1.0  0.0887
  C  C26  1  0.250000  0.691600  0.599400  1.0  0.6931
  C  C27  1  0.250000  0.702700  0.386600  1.0  0.1959
  C  C28  1  0.250000  0.562200  0.365500  1.0  0.068
  C  C29  1  0.250000  0.508200  0.283300  1.0  0.7013
  C  C30  1  0.750000  0.129100  0.048900  1.0  0.605
  C  C31  1  0.750000  0.002100  0.994600  1.0  0.0504
  C  C32  1  0.750000  0.859700  0.016000  1.0  0.0889
  C  C33  1  0.750000  0.808400  0.099400  1.0  0.6939
  C  C34  1  0.750000  0.797300  0.886600  1.0  0.1955
  C  C35  1  0.750000  0.937800  0.865500  1.0  0.0679
  C  C36  1  0.750000  0.991800  0.783300  1.0  0.7018
  N  N37  1  0.750000  0.536500  0.580570  1.0  -0.2759
  N  N38  1  0.750000  0.258600  0.538400  1.0  -0.2621
  N  N39  1  0.250000  0.963500  0.080570  1.0  -0.2751
  N  N40  1  0.250000  0.241400  0.038400  1.0  -0.2592
  N  N41  1  0.250000  0.463500  0.419430  1.0  -0.2752
  N  N42  1  0.250000  0.741400  0.461600  1.0  -0.2601
  N  N43  1  0.750000  0.036500  0.919430  1.0  -0.2762
  N  N44  1  0.750000  0.758600  0.961600  1.0  -0.2635
  O  O45  1  0.918400  0.286900  0.369220  1.0  -0.6051
  O  O46  1  0.081600  0.213100  0.869220  1.0  -0.6088
  O  O47  1  0.418400  0.713100  0.630780  1.0  -0.6021
  O  O48  1  0.581600  0.786900  0.130780  1.0  -0.6059
  O  O49  1  0.081600  0.713100  0.630780  1.0  -0.6052
  O  O50  1  0.918400  0.786900  0.130780  1.0  -0.6013
  O  O51  1  0.581600  0.286900  0.369220  1.0  -0.6096
  O  O52  1  0.418400  0.213100  0.869220  1.0  -0.6055
  O  O53  1  0.750000  0.746300  0.487010  1.0  -0.6612
  O  O54  1  0.750000  0.610000  0.380820  1.0  -0.4
  O  O55  1  0.750000  0.405000  0.770140  1.0  -0.6341
  O  O56  1  0.750000  0.621800  0.724430  1.0  -0.5517
  O  O57  1  0.250000  0.753700  0.987010  1.0  -0.66
  O  O58  1  0.250000  0.890000  0.880820  1.0  -0.399
  O  O59  1  0.250000  0.095000  0.270140  1.0  -0.6326
  O  O60  1  0.250000  0.878200  0.224430  1.0  -0.5517
  O  O61  1  0.250000  0.253700  0.512990  1.0  -0.6598
  O  O62  1  0.250000  0.390000  0.619180  1.0  -0.4089
  O  O63  1  0.250000  0.595000  0.229860  1.0  -0.6305
  O  O64  1  0.250000  0.378200  0.275570  1.0  -0.5534
  O  O65  1  0.750000  0.246300  0.012990  1.0  -0.6608
  O  O66  1  0.750000  0.110000  0.119180  1.0  -0.4107
  O  O67  1  0.750000  0.905000  0.729860  1.0  -0.6316
  O  O68  1  0.750000  0.121800  0.775570  1.0  -0.5528
