# generated using pymatgen
data_YbHC7(NO3)2
_symmetry_space_group_name_H-M   'P 1'
_cell_length_a   6.51750000
_cell_length_b   9.50540000
_cell_length_c   17.08780000
_cell_angle_alpha   90.00000000
_cell_angle_beta   90.00000000
_cell_angle_gamma   90.00000000
_symmetry_Int_Tables_number   1
_chemical_formula_structural   YbHC7(NO3)2
_chemical_formula_sum   'Yb4 H4 C28 N8 O24'
_cell_volume   1058.61389333
_cell_formula_units_Z   4
loop_
 _symmetry_equiv_pos_site_id
 _symmetry_equiv_pos_as_xyz
  1  'x, y, z'
loop_
 _atom_site_type_symbol
 _atom_site_label
 _atom_site_symmetry_multiplicity
 _atom_site_fract_x
 _atom_site_fract_y
 _atom_site_fract_z
 _atom_site_occupancy
 _atom_site_charge
  Yb  Yb1  1  0.750000  0.780800  0.620880  1.0  1.4838
  Yb  Yb2  1  0.250000  0.719200  0.120880  1.0  1.4838
  Yb  Yb3  1  0.250000  0.219200  0.379120  1.0  1.4843
  Yb  Yb4  1  0.750000  0.280800  0.879120  1.0  1.4846
  H  H5  1  0.750000  0.227400  0.652100  1.0  0.1046
  H  H6  1  0.250000  0.272600  0.152100  1.0  0.1045
  H  H7  1  0.250000  0.772600  0.347900  1.0  0.1044
  H  H8  1  0.750000  0.727400  0.847900  1.0  0.104
  C  C9  1  0.750000  0.630300  0.451900  1.0  0.6099
  C  C10  1  0.750000  0.501900  0.504800  1.0  0.0288
  C  C11  1  0.750000  0.359300  0.483800  1.0  0.1059
  C  C12  1  0.750000  0.307700  0.400000  1.0  0.6924
  C  C13  1  0.750000  0.296200  0.613400  1.0  0.1969
  C  C14  1  0.750000  0.435900  0.634700  1.0  0.0583
  C  C15  1  0.750000  0.489600  0.717100  1.0  0.7023
  C  C16  1  0.250000  0.869700  0.951900  1.0  0.6116
  C  C17  1  0.250000  0.998100  0.004800  1.0  0.0289
  C  C18  1  0.250000  0.140700  0.983800  1.0  0.1055
  C  C19  1  0.250000  0.192300  0.900000  1.0  0.6938
  C  C20  1  0.250000  0.203800  0.113400  1.0  0.1952
  C  C21  1  0.250000  0.064100  0.134700  1.0  0.0587
  C  C22  1  0.250000  0.010400  0.217100  1.0  0.702
  C  C23  1  0.250000  0.369700  0.548100  1.0  0.6112
  C  C24  1  0.250000  0.498100  0.495200  1.0  0.0301
  C  C25  1  0.250000  0.640700  0.516200  1.0  0.1045
  C  C26  1  0.250000  0.692300  0.600000  1.0  0.6897
  C  C27  1  0.250000  0.703800  0.386600  1.0  0.1946
  C  C28  1  0.250000  0.564100  0.365300  1.0  0.0595
  C  C29  1  0.250000  0.510400  0.282900  1.0  0.7027
  C  C30  1  0.750000  0.130300  0.048100  1.0  0.608
  C  C31  1  0.750000  0.001900  0.995200  1.0  0.0301
  C  C32  1  0.750000  0.859300  0.016200  1.0  0.1058
  C  C33  1  0.750000  0.807700  0.100000  1.0  0.6899
  C  C34  1  0.750000  0.796200  0.886600  1.0  0.1958
  C  C35  1  0.750000  0.935900  0.865300  1.0  0.0592
  C  C36  1  0.750000  0.989600  0.782900  1.0  0.7029
  N  N37  1  0.750000  0.535400  0.580800  1.0  -0.2846
  N  N38  1  0.750000  0.256900  0.537600  1.0  -0.2654
  N  N39  1  0.250000  0.964600  0.080800  1.0  -0.2835
  N  N40  1  0.250000  0.243100  0.037600  1.0  -0.2636
  N  N41  1  0.250000  0.464600  0.419200  1.0  -0.284
  N  N42  1  0.250000  0.743100  0.462400  1.0  -0.2646
  N  N43  1  0.750000  0.035400  0.919200  1.0  -0.2853
  N  N44  1  0.750000  0.756900  0.962400  1.0  -0.2666
  O  O45  1  0.919500  0.289200  0.367520  1.0  -0.5958
  O  O46  1  0.080500  0.210800  0.867520  1.0  -0.6006
  O  O47  1  0.419500  0.710800  0.632480  1.0  -0.5983
  O  O48  1  0.580500  0.789200  0.132480  1.0  -0.5997
  O  O49  1  0.080500  0.710800  0.632480  1.0  -0.6003
  O  O50  1  0.919500  0.789200  0.132480  1.0  -0.5963
  O  O51  1  0.580500  0.289200  0.367520  1.0  -0.5992
  O  O52  1  0.419500  0.210800  0.867520  1.0  -0.5982
  O  O53  1  0.750000  0.747800  0.488300  1.0  -0.6575
  O  O54  1  0.750000  0.613200  0.380710  1.0  -0.405
  O  O55  1  0.750000  0.402400  0.770700  1.0  -0.6263
  O  O56  1  0.750000  0.619500  0.725400  1.0  -0.5467
  O  O57  1  0.250000  0.752200  0.988300  1.0  -0.6572
  O  O58  1  0.250000  0.886800  0.880710  1.0  -0.4046
  O  O59  1  0.250000  0.097600  0.270700  1.0  -0.6252
  O  O60  1  0.250000  0.880500  0.225400  1.0  -0.5452
  O  O61  1  0.250000  0.252200  0.511700  1.0  -0.6569
  O  O62  1  0.250000  0.386800  0.619290  1.0  -0.4064
  O  O63  1  0.250000  0.597600  0.229300  1.0  -0.6257
  O  O64  1  0.250000  0.380500  0.274600  1.0  -0.5465
  O  O65  1  0.750000  0.247800  0.011700  1.0  -0.657
  O  O66  1  0.750000  0.113200  0.119290  1.0  -0.4086
  O  O67  1  0.750000  0.902400  0.729300  1.0  -0.6266
  O  O68  1  0.750000  0.119500  0.774600  1.0  -0.5472
