# generated using pymatgen
data_CdH33(C11N4)3
_symmetry_space_group_name_H-M   'P 1'
_cell_length_a   21.21800000
_cell_length_b   21.21800000
_cell_length_c   15.25900000
_cell_angle_alpha   90.00000000
_cell_angle_beta   90.00000000
_cell_angle_gamma   120.00000000
_symmetry_Int_Tables_number   1
_chemical_formula_structural   CdH33(C11N4)3
_chemical_formula_sum   'Cd6 H198 C198 N72'
_cell_volume   5949.29624122
_cell_formula_units_Z   6
loop_
 _symmetry_equiv_pos_site_id
 _symmetry_equiv_pos_as_xyz
  1  'x, y, z'
loop_
 _atom_site_type_symbol
 _atom_site_label
 _atom_site_symmetry_multiplicity
 _atom_site_fract_x
 _atom_site_fract_y
 _atom_site_fract_z
 _atom_site_occupancy
 _atom_site_charge
  Cd  Cd1  1  0.000000  0.000000  0.000000  1.0  0.6987
  Cd  Cd2  1  0.666667  0.333333  0.333333  1.0  0.6917
  Cd  Cd3  1  0.333333  0.666667  0.666667  1.0  0.6917
  Cd  Cd4  1  0.000000  0.000000  0.500000  1.0  0.7363
  Cd  Cd5  1  0.666667  0.333333  0.833330  1.0  0.7337
  Cd  Cd6  1  0.333333  0.666667  0.166670  1.0  0.7335
  H  H7  1  0.111100  0.379500  0.243300  1.0  0.0875
  H  H8  1  0.112100  0.317400  0.124700  1.0  0.0946
  H  H9  1  0.175400  0.297300  0.119200  1.0  0.0745
  H  H10  1  0.115500  0.177400  0.040800  1.0  0.0748
  H  H11  1  0.934800  0.064100  0.175900  1.0  0.0787
  H  H12  1  0.996400  0.189100  0.236100  1.0  0.102
  H  H13  1  0.185100  0.210600  0.208900  1.0  0.0701
  H  H14  1  0.258200  0.251300  0.265800  1.0  0.0966
  H  H15  1  0.070300  0.133100  0.347300  1.0  0.0739
  H  H16  1  0.182200  0.046200  0.441800  1.0  0.0801
  H  H17  1  0.265400  0.148500  0.347300  1.0  0.1003
  H  H18  1  0.777770  0.712830  0.576630  1.0  0.0875
  H  H19  1  0.778770  0.650730  0.458030  1.0  0.0946
  H  H20  1  0.842070  0.630630  0.452530  1.0  0.0745
  H  H21  1  0.782170  0.510730  0.374130  1.0  0.0748
  H  H22  1  0.601470  0.397430  0.509230  1.0  0.0787
  H  H23  1  0.663070  0.522430  0.569430  1.0  0.102
  H  H24  1  0.851770  0.543930  0.542230  1.0  0.0701
  H  H25  1  0.924870  0.584630  0.599130  1.0  0.0966
  H  H26  1  0.736970  0.466430  0.680630  1.0  0.0739
  H  H27  1  0.848870  0.379530  0.775130  1.0  0.0801
  H  H28  1  0.932070  0.481830  0.680630  1.0  0.1003
  H  H29  1  0.444430  0.046170  0.909970  1.0  0.0874
  H  H30  1  0.445430  0.984070  0.791370  1.0  0.0946
  H  H31  1  0.508730  0.963970  0.785870  1.0  0.0745
  H  H32  1  0.448830  0.844070  0.707470  1.0  0.0748
  H  H33  1  0.268130  0.730770  0.842570  1.0  0.0787
  H  H34  1  0.329730  0.855770  0.902770  1.0  0.102
  H  H35  1  0.518430  0.877270  0.875570  1.0  0.0701
  H  H36  1  0.591530  0.917970  0.932470  1.0  0.0966
  H  H37  1  0.403630  0.799770  0.013970  1.0  0.0739
  H  H38  1  0.515530  0.712870  0.108470  1.0  0.0801
  H  H39  1  0.598730  0.815170  0.013970  1.0  0.1003
  H  H40  1  0.620500  0.731600  0.243300  1.0  0.0874
  H  H41  1  0.682600  0.794700  0.124700  1.0  0.094
  H  H42  1  0.702700  0.878100  0.119200  1.0  0.0766
  H  H43  1  0.822600  0.938100  0.040800  1.0  0.0752
  H  H44  1  0.935900  0.870700  0.175900  1.0  0.0776
  H  H45  1  0.810900  0.807300  0.236100  1.0  0.1039
  H  H46  1  0.789400  0.974500  0.208900  1.0  0.0677
  H  H47  1  0.748700  0.006900  0.265800  1.0  0.0953
  H  H48  1  0.866900  0.937200  0.347300  1.0  0.0741
  H  H49  1  0.953800  0.136000  0.441800  1.0  0.0806
  H  H50  1  0.851500  0.116900  0.347300  1.0  0.0998
  H  H51  1  0.287170  0.064930  0.576630  1.0  0.0874
  H  H52  1  0.349270  0.128030  0.458030  1.0  0.094
  H  H53  1  0.369370  0.211430  0.452530  1.0  0.0766
  H  H54  1  0.489270  0.271430  0.374130  1.0  0.0752
  H  H55  1  0.602570  0.204030  0.509230  1.0  0.0776
  H  H56  1  0.477570  0.140630  0.569430  1.0  0.1039
  H  H57  1  0.456070  0.307830  0.542230  1.0  0.0677
  H  H58  1  0.415370  0.340230  0.599130  1.0  0.0953
  H  H59  1  0.533570  0.270530  0.680630  1.0  0.0741
  H  H60  1  0.620470  0.469330  0.775130  1.0  0.0805
  H  H61  1  0.518170  0.450230  0.680630  1.0  0.0998
  H  H62  1  0.953830  0.398270  0.909970  1.0  0.0875
  H  H63  1  0.015930  0.461370  0.791370  1.0  0.094
  H  H64  1  0.036030  0.544770  0.785870  1.0  0.0766
  H  H65  1  0.155930  0.604770  0.707470  1.0  0.0752
  H  H66  1  0.269230  0.537370  0.842570  1.0  0.0776
  H  H67  1  0.144230  0.473970  0.902770  1.0  0.1039
  H  H68  1  0.122730  0.641170  0.875570  1.0  0.0678
  H  H69  1  0.082030  0.673570  0.932470  1.0  0.0953
  H  H70  1  0.200230  0.603870  0.013970  1.0  0.0741
  H  H71  1  0.287130  0.802670  0.108470  1.0  0.0806
  H  H72  1  0.184830  0.783570  0.013970  1.0  0.0998
  H  H73  1  0.268400  0.888900  0.243300  1.0  0.0881
  H  H74  1  0.205300  0.887900  0.124700  1.0  0.0949
  H  H75  1  0.121900  0.824600  0.119200  1.0  0.0764
  H  H76  1  0.061900  0.884500  0.040800  1.0  0.0733
  H  H77  1  0.129300  0.065200  0.175900  1.0  0.0778
  H  H78  1  0.192700  0.003600  0.236100  1.0  0.1025
  H  H79  1  0.025500  0.814900  0.208900  1.0  0.0668
  H  H80  1  0.993100  0.741800  0.265800  1.0  0.0955
  H  H81  1  0.062800  0.929700  0.347300  1.0  0.0737
  H  H82  1  0.864000  0.817800  0.441800  1.0  0.0806
  H  H83  1  0.883100  0.734600  0.347300  1.0  0.1022
  H  H84  1  0.935070  0.222230  0.576630  1.0  0.0879
  H  H85  1  0.871970  0.221230  0.458030  1.0  0.0949
  H  H86  1  0.788570  0.157930  0.452530  1.0  0.0764
  H  H87  1  0.728570  0.217830  0.374130  1.0  0.0733
  H  H88  1  0.795970  0.398530  0.509230  1.0  0.0778
  H  H89  1  0.859370  0.336930  0.569430  1.0  0.1025
  H  H90  1  0.692170  0.148230  0.542230  1.0  0.0668
  H  H91  1  0.659770  0.075130  0.599130  1.0  0.0955
  H  H92  1  0.729470  0.263030  0.680630  1.0  0.0737
  H  H93  1  0.530670  0.151130  0.775130  1.0  0.0806
  H  H94  1  0.549770  0.067930  0.680630  1.0  0.1022
  H  H95  1  0.601730  0.555570  0.909970  1.0  0.0881
  H  H96  1  0.538630  0.554570  0.791370  1.0  0.0949
  H  H97  1  0.455230  0.491270  0.785870  1.0  0.0764
  H  H98  1  0.395230  0.551170  0.707470  1.0  0.0733
  H  H99  1  0.462630  0.731870  0.842570  1.0  0.0778
  H  H100  1  0.526030  0.670270  0.902770  1.0  0.1025
  H  H101  1  0.358830  0.481570  0.875570  1.0  0.0668
  H  H102  1  0.326430  0.408470  0.932470  1.0  0.0955
  H  H103  1  0.396130  0.596370  0.013970  1.0  0.0737
  H  H104  1  0.197330  0.484470  0.108470  1.0  0.0806
  H  H105  1  0.216430  0.401270  0.013970  1.0  0.1022
  H  H106  1  0.888900  0.620500  0.756700  1.0  0.0883
  H  H107  1  0.887900  0.682600  0.875300  1.0  0.0939
  H  H108  1  0.824600  0.702700  0.880800  1.0  0.0722
  H  H109  1  0.884500  0.822600  0.959200  1.0  0.075
  H  H110  1  0.065200  0.935900  0.824100  1.0  0.0777
  H  H111  1  0.003600  0.810900  0.763900  1.0  0.1022
  H  H112  1  0.814900  0.789400  0.791100  1.0  0.069
  H  H113  1  0.741800  0.748700  0.734200  1.0  0.097
  H  H114  1  0.929700  0.866900  0.652700  1.0  0.0737
  H  H115  1  0.817800  0.953800  0.558200  1.0  0.08
  H  H116  1  0.734600  0.851500  0.652700  1.0  0.1014
  H  H117  1  0.555570  0.953830  0.090030  1.0  0.0881
  H  H118  1  0.554570  0.015930  0.208630  1.0  0.0939
  H  H119  1  0.491270  0.036030  0.214130  1.0  0.0722
  H  H120  1  0.551170  0.155930  0.292530  1.0  0.075
  H  H121  1  0.731870  0.269230  0.157430  1.0  0.0777
  H  H122  1  0.670270  0.144230  0.097230  1.0  0.1022
  H  H123  1  0.481570  0.122730  0.124430  1.0  0.0691
  H  H124  1  0.408470  0.082030  0.067530  1.0  0.097
  H  H125  1  0.596370  0.200230  0.986030  1.0  0.0737
  H  H126  1  0.484470  0.287130  0.891530  1.0  0.08
  H  H127  1  0.401270  0.184830  0.986030  1.0  0.1014
  H  H128  1  0.222230  0.287170  0.423370  1.0  0.0883
  H  H129  1  0.221230  0.349270  0.541970  1.0  0.0939
  H  H130  1  0.157930  0.369370  0.547470  1.0  0.0722
  H  H131  1  0.217830  0.489270  0.625870  1.0  0.075
  H  H132  1  0.398530  0.602570  0.490770  1.0  0.0777
  H  H133  1  0.336930  0.477570  0.430570  1.0  0.1022
  H  H134  1  0.148230  0.456070  0.457770  1.0  0.069
  H  H135  1  0.075130  0.415370  0.400870  1.0  0.097
  H  H136  1  0.263030  0.533570  0.319370  1.0  0.0737
  H  H137  1  0.151130  0.620470  0.224870  1.0  0.08
  H  H138  1  0.067930  0.518170  0.319370  1.0  0.1014
  H  H139  1  0.379500  0.268400  0.756700  1.0  0.0878
  H  H140  1  0.317400  0.205300  0.875300  1.0  0.0925
  H  H141  1  0.297300  0.121900  0.880800  1.0  0.0763
  H  H142  1  0.177400  0.061900  0.959200  1.0  0.0748
  H  H143  1  0.064100  0.129300  0.824100  1.0  0.078
  H  H144  1  0.189100  0.192700  0.763900  1.0  0.103
  H  H145  1  0.210600  0.025500  0.791100  1.0  0.0665
  H  H146  1  0.251300  0.993100  0.734200  1.0  0.0946
  H  H147  1  0.133100  0.062800  0.652700  1.0  0.0742
  H  H148  1  0.046200  0.864000  0.558200  1.0  0.0803
  H  H149  1  0.148500  0.883100  0.652700  1.0  0.0996
  H  H150  1  0.046170  0.601730  0.090030  1.0  0.088
  H  H151  1  0.984070  0.538630  0.208630  1.0  0.0925
  H  H152  1  0.963970  0.455230  0.214130  1.0  0.0763
  H  H153  1  0.844070  0.395230  0.292530  1.0  0.0748
  H  H154  1  0.730770  0.462630  0.157430  1.0  0.078
  H  H155  1  0.855770  0.526030  0.097230  1.0  0.103
  H  H156  1  0.877270  0.358830  0.124430  1.0  0.0665
  H  H157  1  0.917970  0.326430  0.067530  1.0  0.0946
  H  H158  1  0.799770  0.396130  0.986030  1.0  0.0742
  H  H159  1  0.712870  0.197330  0.891530  1.0  0.0803
  H  H160  1  0.815170  0.216430  0.986030  1.0  0.0996
  H  H161  1  0.712830  0.935070  0.423370  1.0  0.0879
  H  H162  1  0.650730  0.871970  0.541970  1.0  0.0925
  H  H163  1  0.630630  0.788570  0.547470  1.0  0.0763
  H  H164  1  0.510730  0.728570  0.625870  1.0  0.0748
  H  H165  1  0.397430  0.795970  0.490770  1.0  0.078
  H  H166  1  0.522430  0.859370  0.430570  1.0  0.103
  H  H167  1  0.543930  0.692170  0.457770  1.0  0.0665
  H  H168  1  0.584630  0.659770  0.400870  1.0  0.0946
  H  H169  1  0.466430  0.729470  0.319370  1.0  0.0742
  H  H170  1  0.379530  0.530670  0.224870  1.0  0.0803
  H  H171  1  0.481830  0.549770  0.319370  1.0  0.0996
  H  H172  1  0.731600  0.111100  0.756700  1.0  0.088
  H  H173  1  0.794700  0.112100  0.875300  1.0  0.0948
  H  H174  1  0.878100  0.175400  0.880800  1.0  0.0761
  H  H175  1  0.938100  0.115500  0.959200  1.0  0.0738
  H  H176  1  0.870700  0.934800  0.824100  1.0  0.0784
  H  H177  1  0.807300  0.996400  0.763900  1.0  0.1021
  H  H178  1  0.974500  0.185100  0.791100  1.0  0.0665
  H  H179  1  0.006900  0.258200  0.734200  1.0  0.096
  H  H180  1  0.937200  0.070300  0.652700  1.0  0.0738
  H  H181  1  0.136000  0.182200  0.558200  1.0  0.0804
  H  H182  1  0.116900  0.265400  0.652700  1.0  0.1018
  H  H183  1  0.398270  0.444430  0.090030  1.0  0.088
  H  H184  1  0.461370  0.445430  0.208630  1.0  0.0947
  H  H185  1  0.544770  0.508730  0.214130  1.0  0.0761
  H  H186  1  0.604770  0.448830  0.292530  1.0  0.0738
  H  H187  1  0.537370  0.268130  0.157430  1.0  0.0784
  H  H188  1  0.473970  0.329730  0.097230  1.0  0.1021
  H  H189  1  0.641170  0.518430  0.124430  1.0  0.0665
  H  H190  1  0.673570  0.591530  0.067530  1.0  0.096
  H  H191  1  0.603870  0.403630  0.986030  1.0  0.0738
  H  H192  1  0.802670  0.515530  0.891530  1.0  0.0804
  H  H193  1  0.783570  0.598730  0.986030  1.0  0.1018
  H  H194  1  0.064930  0.777770  0.423370  1.0  0.0878
  H  H195  1  0.128030  0.778770  0.541970  1.0  0.0948
  H  H196  1  0.211430  0.842070  0.547470  1.0  0.0761
  H  H197  1  0.271430  0.782170  0.625870  1.0  0.0738
  H  H198  1  0.204030  0.601470  0.490770  1.0  0.0784
  H  H199  1  0.140630  0.663070  0.430570  1.0  0.1021
  H  H200  1  0.307830  0.851770  0.457770  1.0  0.0665
  H  H201  1  0.340230  0.924870  0.400870  1.0  0.096
  H  H202  1  0.270530  0.736970  0.319370  1.0  0.0738
  H  H203  1  0.469330  0.848870  0.224870  1.0  0.0804
  H  H204  1  0.450230  0.932070  0.319370  1.0  0.1018
  C  C205  1  0.149910  0.309200  0.246030  1.0  0.0358
  C  C206  1  0.182820  0.281300  0.299850  1.0  0.0336
  C  C207  1  0.133910  0.360650  0.279970  1.0  -0.2198
  C  C208  1  0.130880  0.287420  0.151330  1.0  -0.1166
  C  C209  1  0.077490  0.164100  0.082340  1.0  0.1273
  C  C210  1  0.979760  0.103290  0.155800  1.0  0.0121
  C  C211  1  0.013080  0.171510  0.189400  1.0  -0.1378
  C  C212  1  0.204450  0.227100  0.268730  1.0  -0.0809
  C  C213  1  0.108960  0.124150  0.360000  1.0  0.1356
  C  C214  1  0.169800  0.077240  0.410600  1.0  0.0
  C  C215  1  0.215810  0.133260  0.359100  1.0  -0.1616
  C  C216  1  0.816580  0.642530  0.579360  1.0  0.0358
  C  C217  1  0.849490  0.614630  0.633180  1.0  0.0339
  C  C218  1  0.800580  0.693980  0.613300  1.0  -0.2198
  C  C219  1  0.797550  0.620750  0.484660  1.0  -0.1166
  C  C220  1  0.744160  0.497430  0.415670  1.0  0.1273
  C  C221  1  0.646430  0.436620  0.489130  1.0  0.0121
  C  C222  1  0.679750  0.504840  0.522730  1.0  -0.1378
  C  C223  1  0.871120  0.560430  0.602060  1.0  -0.0809
  C  C224  1  0.775630  0.457480  0.693330  1.0  0.1356
  C  C225  1  0.836470  0.410570  0.743930  1.0  0.0
  C  C226  1  0.882480  0.466590  0.692430  1.0  -0.1616
  C  C227  1  0.483240  0.975870  0.912700  1.0  0.0357
  C  C228  1  0.516150  0.947970  0.966520  1.0  0.0336
  C  C229  1  0.467240  0.027320  0.946640  1.0  -0.2196
  C  C230  1  0.464210  0.954090  0.818000  1.0  -0.1166
  C  C231  1  0.410820  0.830770  0.749010  1.0  0.1273
  C  C232  1  0.313090  0.769960  0.822470  1.0  0.0121
  C  C233  1  0.346410  0.838180  0.856070  1.0  -0.1378
  C  C234  1  0.537780  0.893770  0.935400  1.0  -0.0809
  C  C235  1  0.442290  0.790820  0.026670  1.0  0.1356
  C  C236  1  0.503130  0.743910  0.077270  1.0  0.0
  C  C237  1  0.549140  0.799930  0.025770  1.0  -0.1616
  C  C238  1  0.690800  0.840710  0.246030  1.0  0.0358
  C  C239  1  0.718700  0.901520  0.299850  1.0  0.0329
  C  C240  1  0.639350  0.773260  0.279970  1.0  -0.2177
  C  C241  1  0.712580  0.843460  0.151330  1.0  -0.114
  C  C242  1  0.835900  0.913390  0.082340  1.0  0.1288
  C  C243  1  0.896710  0.876470  0.155800  1.0  0.0141
  C  C244  1  0.828490  0.841570  0.189400  1.0  -0.1376
  C  C245  1  0.772900  0.977350  0.268730  1.0  -0.0827
  C  C246  1  0.875850  0.984810  0.360000  1.0  0.1382
  C  C247  1  0.922760  0.092560  0.410600  1.0  -0.0003
  C  C248  1  0.866740  0.082550  0.359100  1.0  -0.1627
  C  C249  1  0.357470  0.174040  0.579360  1.0  0.0358
  C  C250  1  0.385370  0.234850  0.633180  1.0  0.0328
  C  C251  1  0.306020  0.106590  0.613300  1.0  -0.2176
  C  C252  1  0.379250  0.176790  0.484660  1.0  -0.114
  C  C253  1  0.502570  0.246720  0.415670  1.0  0.1288
  C  C254  1  0.563380  0.209800  0.489130  1.0  0.0141
  C  C255  1  0.495160  0.174900  0.522730  1.0  -0.1376
  C  C256  1  0.439570  0.310680  0.602060  1.0  -0.0827
  C  C257  1  0.542520  0.318140  0.693330  1.0  0.1382
  C  C258  1  0.589430  0.425890  0.743930  1.0  -0.0003
  C  C259  1  0.533410  0.415880  0.692430  1.0  -0.1627
  C  C260  1  0.024130  0.507380  0.912700  1.0  0.0357
  C  C261  1  0.052030  0.568190  0.966520  1.0  0.0328
  C  C262  1  0.972680  0.439930  0.946640  1.0  -0.2175
  C  C263  1  0.045910  0.510130  0.818000  1.0  -0.114
  C  C264  1  0.169230  0.580060  0.749010  1.0  0.1288
  C  C265  1  0.230040  0.543140  0.822470  1.0  0.0141
  C  C266  1  0.161820  0.508240  0.856070  1.0  -0.1376
  C  C267  1  0.106230  0.644020  0.935400  1.0  -0.0827
  C  C268  1  0.209180  0.651480  0.026670  1.0  0.1382
  C  C269  1  0.256090  0.759230  0.077270  1.0  -0.0003
  C  C270  1  0.200070  0.749220  0.025770  1.0  -0.1627
  C  C271  1  0.159290  0.850090  0.246030  1.0  0.0363
  C  C272  1  0.098480  0.817180  0.299850  1.0  0.0321
  C  C273  1  0.226740  0.866090  0.279970  1.0  -0.2186
  C  C274  1  0.156540  0.869120  0.151330  1.0  -0.1142
  C  C275  1  0.086610  0.922510  0.082340  1.0  0.1264
  C  C276  1  0.123530  0.020240  0.155800  1.0  0.0118
  C  C277  1  0.158430  0.986920  0.189400  1.0  -0.1389
  C  C278  1  0.022650  0.795550  0.268730  1.0  -0.0836
  C  C279  1  0.015190  0.891040  0.360000  1.0  0.1367
  C  C280  1  0.907440  0.830200  0.410600  1.0  -0.0007
  C  C281  1  0.917450  0.784190  0.359100  1.0  -0.1617
  C  C282  1  0.825960  0.183420  0.579360  1.0  0.0362
  C  C283  1  0.765150  0.150510  0.633180  1.0  0.032
  C  C284  1  0.893410  0.199420  0.613300  1.0  -0.2186
  C  C285  1  0.823210  0.202450  0.484660  1.0  -0.1142
  C  C286  1  0.753280  0.255840  0.415670  1.0  0.1264
  C  C287  1  0.790200  0.353570  0.489130  1.0  0.0118
  C  C288  1  0.825100  0.320250  0.522730  1.0  -0.1389
  C  C289  1  0.689320  0.128880  0.602060  1.0  -0.0836
  C  C290  1  0.681860  0.224370  0.693330  1.0  0.1367
  C  C291  1  0.574110  0.163530  0.743930  1.0  -0.0007
  C  C292  1  0.584120  0.117520  0.692430  1.0  -0.1617
  C  C293  1  0.492620  0.516760  0.912700  1.0  0.0363
  C  C294  1  0.431810  0.483850  0.966520  1.0  0.0321
  C  C295  1  0.560070  0.532760  0.946640  1.0  -0.2187
  C  C296  1  0.489870  0.535790  0.818000  1.0  -0.1142
  C  C297  1  0.419940  0.589180  0.749010  1.0  0.1264
  C  C298  1  0.456860  0.686910  0.822470  1.0  0.0118
  C  C299  1  0.491760  0.653590  0.856070  1.0  -0.1389
  C  C300  1  0.355980  0.462220  0.935400  1.0  -0.0836
  C  C301  1  0.348520  0.557710  0.026670  1.0  0.1367
  C  C302  1  0.240770  0.496870  0.077270  1.0  -0.0007
  C  C303  1  0.250780  0.450860  0.025770  1.0  -0.1617
  C  C304  1  0.850090  0.690800  0.753970  1.0  0.0379
  C  C305  1  0.817180  0.718700  0.700150  1.0  0.0335
  C  C306  1  0.866090  0.639350  0.720030  1.0  -0.2198
  C  C307  1  0.869120  0.712580  0.848670  1.0  -0.1195
  C  C308  1  0.922510  0.835900  0.917660  1.0  0.1276
  C  C309  1  0.020240  0.896710  0.844200  1.0  0.018
  C  C310  1  0.986920  0.828490  0.810600  1.0  -0.1362
  C  C311  1  0.795550  0.772900  0.731270  1.0  -0.0844
  C  C312  1  0.891040  0.875850  0.640000  1.0  0.1361
  C  C313  1  0.830200  0.922760  0.589400  1.0  0.0005
  C  C314  1  0.784190  0.866740  0.640900  1.0  -0.1625
  C  C315  1  0.516760  0.024130  0.087300  1.0  0.0378
  C  C316  1  0.483850  0.052030  0.033480  1.0  0.0334
  C  C317  1  0.532760  0.972680  0.053360  1.0  -0.2196
  C  C318  1  0.535790  0.045910  0.182000  1.0  -0.1195
  C  C319  1  0.589180  0.169230  0.250990  1.0  0.1276
  C  C320  1  0.686910  0.230040  0.177530  1.0  0.018
  C  C321  1  0.653590  0.161820  0.143930  1.0  -0.1362
  C  C322  1  0.462220  0.106230  0.064600  1.0  -0.0844
  C  C323  1  0.557710  0.209180  0.973330  1.0  0.1361
  C  C324  1  0.496870  0.256090  0.922730  1.0  0.0005
  C  C325  1  0.450860  0.200070  0.974230  1.0  -0.1625
  C  C326  1  0.183420  0.357470  0.420640  1.0  0.0379
  C  C327  1  0.150510  0.385370  0.366820  1.0  0.0338
  C  C328  1  0.199420  0.306020  0.386700  1.0  -0.2198
  C  C329  1  0.202450  0.379250  0.515340  1.0  -0.1195
  C  C330  1  0.255840  0.502570  0.584330  1.0  0.1276
  C  C331  1  0.353570  0.563380  0.510870  1.0  0.018
  C  C332  1  0.320250  0.495160  0.477270  1.0  -0.1362
  C  C333  1  0.128880  0.439570  0.397940  1.0  -0.0844
  C  C334  1  0.224370  0.542520  0.306670  1.0  0.1361
  C  C335  1  0.163530  0.589430  0.256070  1.0  0.0005
  C  C336  1  0.117520  0.533410  0.307570  1.0  -0.1625
  C  C337  1  0.309200  0.159290  0.753970  1.0  0.0371
  C  C338  1  0.281300  0.098480  0.700150  1.0  0.0332
  C  C339  1  0.360650  0.226740  0.720030  1.0  -0.2193
  C  C340  1  0.287420  0.156540  0.848670  1.0  -0.1179
  C  C341  1  0.164100  0.086610  0.917660  1.0  0.1281
  C  C342  1  0.103290  0.123530  0.844200  1.0  0.0165
  C  C343  1  0.171510  0.158430  0.810600  1.0  -0.1364
  C  C344  1  0.227100  0.022650  0.731270  1.0  -0.0864
  C  C345  1  0.124150  0.015190  0.640000  1.0  0.1368
  C  C346  1  0.077240  0.907440  0.589400  1.0  -0.0007
  C  C347  1  0.133260  0.917450  0.640900  1.0  -0.1611
  C  C348  1  0.975870  0.492620  0.087300  1.0  0.037
  C  C349  1  0.947970  0.431810  0.033480  1.0  0.0331
  C  C350  1  0.027320  0.560070  0.053360  1.0  -0.2192
  C  C351  1  0.954090  0.489870  0.182000  1.0  -0.1179
  C  C352  1  0.830770  0.419940  0.250990  1.0  0.1281
  C  C353  1  0.769960  0.456860  0.177530  1.0  0.0165
  C  C354  1  0.838180  0.491760  0.143930  1.0  -0.1364
  C  C355  1  0.893770  0.355980  0.064600  1.0  -0.0864
  C  C356  1  0.790820  0.348520  0.973330  1.0  0.1368
  C  C357  1  0.743910  0.240770  0.922730  1.0  -0.0007
  C  C358  1  0.799930  0.250780  0.974230  1.0  -0.1611
  C  C359  1  0.642530  0.825960  0.420640  1.0  0.0371
  C  C360  1  0.614630  0.765150  0.366820  1.0  0.0331
  C  C361  1  0.693980  0.893410  0.386700  1.0  -0.2193
  C  C362  1  0.620750  0.823210  0.515340  1.0  -0.1179
  C  C363  1  0.497430  0.753280  0.584330  1.0  0.1281
  C  C364  1  0.436620  0.790200  0.510870  1.0  0.0165
  C  C365  1  0.504840  0.825100  0.477270  1.0  -0.1364
  C  C366  1  0.560430  0.689320  0.397940  1.0  -0.0864
  C  C367  1  0.457480  0.681860  0.306670  1.0  0.1368
  C  C368  1  0.410570  0.574110  0.256070  1.0  -0.0007
  C  C369  1  0.466590  0.584120  0.307570  1.0  -0.1611
  C  C370  1  0.840710  0.149910  0.753970  1.0  0.0372
  C  C371  1  0.901520  0.182820  0.700150  1.0  0.0339
  C  C372  1  0.773260  0.133910  0.720030  1.0  -0.2202
  C  C373  1  0.843460  0.130880  0.848670  1.0  -0.1174
  C  C374  1  0.913390  0.077490  0.917660  1.0  0.1274
  C  C375  1  0.876470  0.979760  0.844200  1.0  0.016
  C  C376  1  0.841570  0.013080  0.810600  1.0  -0.1398
  C  C377  1  0.977350  0.204450  0.731270  1.0  -0.0848
  C  C378  1  0.984810  0.108960  0.640000  1.0  0.1376
  C  C379  1  0.092560  0.169800  0.589400  1.0  -0.0006
  C  C380  1  0.082550  0.215810  0.640900  1.0  -0.1614
  C  C381  1  0.507380  0.483240  0.087300  1.0  0.0372
  C  C382  1  0.568190  0.516150  0.033480  1.0  0.0339
  C  C383  1  0.439930  0.467240  0.053360  1.0  -0.2203
  C  C384  1  0.510130  0.464210  0.182000  1.0  -0.1174
  C  C385  1  0.580060  0.410820  0.250990  1.0  0.1274
  C  C386  1  0.543140  0.313090  0.177530  1.0  0.016
  C  C387  1  0.508240  0.346410  0.143930  1.0  -0.1398
  C  C388  1  0.644020  0.537780  0.064600  1.0  -0.0848
  C  C389  1  0.651480  0.442290  0.973330  1.0  0.1377
  C  C390  1  0.759230  0.503130  0.922730  1.0  -0.0006
  C  C391  1  0.749220  0.549140  0.974230  1.0  -0.1614
  C  C392  1  0.174040  0.816580  0.420640  1.0  0.0371
  C  C393  1  0.234850  0.849490  0.366820  1.0  0.0338
  C  C394  1  0.106590  0.800580  0.386700  1.0  -0.2202
  C  C395  1  0.176790  0.797550  0.515340  1.0  -0.1174
  C  C396  1  0.246720  0.744160  0.584330  1.0  0.1274
  C  C397  1  0.209800  0.646430  0.510870  1.0  0.016
  C  C398  1  0.174900  0.679750  0.477270  1.0  -0.1398
  C  C399  1  0.310680  0.871120  0.397940  1.0  -0.0848
  C  C400  1  0.318140  0.775630  0.306670  1.0  0.1376
  C  C401  1  0.425890  0.836470  0.256070  1.0  -0.0006
  C  C402  1  0.415880  0.882480  0.307570  1.0  -0.1614
  N  N403  1  0.075820  0.209830  0.141980  1.0  0.0146
  N  N404  1  0.020330  0.098910  0.088440  1.0  -0.4117
  N  N405  1  0.176810  0.163470  0.327310  1.0  0.0193
  N  N406  1  0.102970  0.071790  0.411540  1.0  -0.4225
  N  N407  1  0.742490  0.543160  0.475310  1.0  0.0146
  N  N408  1  0.687000  0.432240  0.421770  1.0  -0.4117
  N  N409  1  0.843480  0.496800  0.660640  1.0  0.0193
  N  N410  1  0.769640  0.405120  0.744870  1.0  -0.4225
  N  N411  1  0.409150  0.876500  0.808650  1.0  0.0146
  N  N412  1  0.353660  0.765580  0.755110  1.0  -0.4117
  N  N413  1  0.510140  0.830140  0.993980  1.0  0.019
  N  N414  1  0.436300  0.738460  0.078210  1.0  -0.4225
  N  N415  1  0.790170  0.865990  0.141980  1.0  0.0132
  N  N416  1  0.901090  0.921420  0.088440  1.0  -0.4075
  N  N417  1  0.836530  0.013340  0.327310  1.0  0.0182
  N  N418  1  0.928210  0.031180  0.411540  1.0  -0.4224
  N  N419  1  0.456840  0.199320  0.475310  1.0  0.0132
  N  N420  1  0.567760  0.254750  0.421770  1.0  -0.4075
  N  N421  1  0.503200  0.346670  0.660640  1.0  0.0182
  N  N422  1  0.594880  0.364510  0.744870  1.0  -0.4224
  N  N423  1  0.123500  0.532660  0.808650  1.0  0.0132
  N  N424  1  0.234420  0.588090  0.755110  1.0  -0.4075
  N  N425  1  0.169860  0.680010  0.993980  1.0  0.0183
  N  N426  1  0.261540  0.697850  0.078210  1.0  -0.4224
  N  N427  1  0.134010  0.924180  0.141980  1.0  0.0157
  N  N428  1  0.078580  0.979670  0.088440  1.0  -0.4066
  N  N429  1  0.986660  0.823190  0.327310  1.0  0.0186
  N  N430  1  0.968820  0.897030  0.411540  1.0  -0.4248
  N  N431  1  0.800680  0.257510  0.475310  1.0  0.0157
  N  N432  1  0.745250  0.313000  0.421770  1.0  -0.4066
  N  N433  1  0.653330  0.156520  0.660640  1.0  0.0186
  N  N434  1  0.635490  0.230360  0.744870  1.0  -0.4248
  N  N435  1  0.467340  0.590850  0.808650  1.0  0.0157
  N  N436  1  0.411910  0.646340  0.755110  1.0  -0.4066
  N  N437  1  0.319990  0.489860  0.993980  1.0  0.0191
  N  N438  1  0.302150  0.563700  0.078210  1.0  -0.4248
  N  N439  1  0.924180  0.790170  0.858020  1.0  0.0149
  N  N440  1  0.979670  0.901090  0.911560  1.0  -0.4099
  N  N441  1  0.823190  0.836530  0.672690  1.0  0.0188
  N  N442  1  0.897030  0.928210  0.588460  1.0  -0.4222
  N  N443  1  0.590850  0.123500  0.191350  1.0  0.0148
  N  N444  1  0.646340  0.234420  0.244890  1.0  -0.4099
  N  N445  1  0.489860  0.169860  0.006020  1.0  0.0185
  N  N446  1  0.563700  0.261540  0.921790  1.0  -0.4222
  N  N447  1  0.257510  0.456840  0.524690  1.0  0.0148
  N  N448  1  0.313000  0.567760  0.578230  1.0  -0.4099
  N  N449  1  0.156520  0.503200  0.339360  1.0  0.0188
  N  N450  1  0.230360  0.594880  0.255130  1.0  -0.4222
  N  N451  1  0.209830  0.134010  0.858020  1.0  0.0139
  N  N452  1  0.098910  0.078580  0.911560  1.0  -0.4065
  N  N453  1  0.163470  0.986660  0.672690  1.0  0.0185
  N  N454  1  0.071790  0.968820  0.588460  1.0  -0.4231
  N  N455  1  0.876500  0.467340  0.191350  1.0  0.0139
  N  N456  1  0.765580  0.411910  0.244890  1.0  -0.4065
  N  N457  1  0.830140  0.319990  0.006020  1.0  0.0186
  N  N458  1  0.738460  0.302150  0.921790  1.0  -0.4231
  N  N459  1  0.543160  0.800680  0.524690  1.0  0.0139
  N  N460  1  0.432240  0.745250  0.578230  1.0  -0.4065
  N  N461  1  0.496800  0.653330  0.339360  1.0  0.0185
  N  N462  1  0.405120  0.635490  0.255130  1.0  -0.4231
  N  N463  1  0.865990  0.075820  0.858020  1.0  0.0151
  N  N464  1  0.921420  0.020330  0.911560  1.0  -0.4086
  N  N465  1  0.013340  0.176810  0.672690  1.0  0.0183
  N  N466  1  0.031180  0.102970  0.588460  1.0  -0.426
  N  N467  1  0.532660  0.409150  0.191350  1.0  0.0151
  N  N468  1  0.588090  0.353660  0.244890  1.0  -0.4086
  N  N469  1  0.680010  0.510140  0.006020  1.0  0.0187
  N  N470  1  0.697850  0.436300  0.921790  1.0  -0.426
  N  N471  1  0.199320  0.742490  0.524690  1.0  0.0151
  N  N472  1  0.254750  0.687000  0.578230  1.0  -0.4086
  N  N473  1  0.346670  0.843480  0.339360  1.0  0.0183
  N  N474  1  0.364510  0.769640  0.255130  1.0  -0.426
