# generated using pymatgen
data_CdH33(C11N4)3
_symmetry_space_group_name_H-M   'P 1'
_cell_length_a   21.55940000
_cell_length_b   21.55940000
_cell_length_c   14.91950000
_cell_angle_alpha   90.00000000
_cell_angle_beta   90.00000000
_cell_angle_gamma   120.00000000
_symmetry_Int_Tables_number   1
_chemical_formula_structural   CdH33(C11N4)3
_chemical_formula_sum   'Cd6 H198 C198 N72'
_cell_volume   6005.62541783
_cell_formula_units_Z   6
loop_
 _symmetry_equiv_pos_site_id
 _symmetry_equiv_pos_as_xyz
  1  'x, y, z'
loop_
 _atom_site_type_symbol
 _atom_site_label
 _atom_site_symmetry_multiplicity
 _atom_site_fract_x
 _atom_site_fract_y
 _atom_site_fract_z
 _atom_site_occupancy
 _atom_site_charge
  Cd  Cd1  1  0.000000  0.000000  0.500000  1.0  0.7645
  Cd  Cd2  1  0.666667  0.333333  0.833330  1.0  0.7573
  Cd  Cd3  1  0.333333  0.666667  0.166670  1.0  0.7572
  Cd  Cd4  1  0.000000  0.000000  0.000000  1.0  0.6769
  Cd  Cd5  1  0.666667  0.333333  0.333333  1.0  0.6706
  Cd  Cd6  1  0.333333  0.666667  0.666667  1.0  0.6706
  H  H7  1  0.112100  0.376700  0.241800  1.0  0.079
  H  H8  1  0.172000  0.292900  0.116700  1.0  0.0717
  H  H9  1  0.111100  0.312500  0.120600  1.0  0.0929
  H  H10  1  0.115600  0.174200  0.043100  1.0  0.0722
  H  H11  1  0.936900  0.065900  0.176100  1.0  0.0761
  H  H12  1  0.997100  0.188300  0.234000  1.0  0.1033
  H  H13  1  0.185500  0.212400  0.209800  1.0  0.0641
  H  H14  1  0.255100  0.250600  0.268600  1.0  0.0938
  H  H15  1  0.070300  0.132500  0.345300  1.0  0.0733
  H  H16  1  0.178800  0.048100  0.441100  1.0  0.0777
  H  H17  1  0.261000  0.150700  0.353100  1.0  0.1024
  H  H18  1  0.778770  0.710030  0.575130  1.0  0.0789
  H  H19  1  0.838670  0.626230  0.450030  1.0  0.0717
  H  H20  1  0.777770  0.645830  0.453930  1.0  0.0929
  H  H21  1  0.782270  0.507530  0.376430  1.0  0.0722
  H  H22  1  0.603570  0.399230  0.509430  1.0  0.0761
  H  H23  1  0.663770  0.521630  0.567330  1.0  0.1033
  H  H24  1  0.852170  0.545730  0.543130  1.0  0.0641
  H  H25  1  0.921770  0.583930  0.601930  1.0  0.0937
  H  H26  1  0.736970  0.465830  0.678630  1.0  0.0733
  H  H27  1  0.845470  0.381430  0.774430  1.0  0.0776
  H  H28  1  0.927670  0.484030  0.686430  1.0  0.1024
  H  H29  1  0.445430  0.043370  0.908470  1.0  0.079
  H  H30  1  0.505330  0.959570  0.783370  1.0  0.0709
  H  H31  1  0.444430  0.979170  0.787270  1.0  0.0929
  H  H32  1  0.448930  0.840870  0.709770  1.0  0.0722
  H  H33  1  0.270230  0.732570  0.842770  1.0  0.0761
  H  H34  1  0.330430  0.854970  0.900670  1.0  0.1033
  H  H35  1  0.518830  0.879070  0.876470  1.0  0.0642
  H  H36  1  0.588430  0.917270  0.935270  1.0  0.0938
  H  H37  1  0.403630  0.799170  0.011970  1.0  0.0733
  H  H38  1  0.512130  0.714770  0.107770  1.0  0.0777
  H  H39  1  0.594330  0.817370  0.019770  1.0  0.1024
  H  H40  1  0.623300  0.735400  0.241800  1.0  0.0783
  H  H41  1  0.707100  0.879100  0.116700  1.0  0.0738
  H  H42  1  0.687500  0.798600  0.120600  1.0  0.0915
  H  H43  1  0.825800  0.941400  0.043100  1.0  0.0734
  H  H44  1  0.934100  0.871000  0.176100  1.0  0.076
  H  H45  1  0.811700  0.808800  0.234000  1.0  0.105
  H  H46  1  0.787600  0.973100  0.209800  1.0  0.0608
  H  H47  1  0.749400  0.004500  0.268600  1.0  0.0927
  H  H48  1  0.867500  0.937800  0.345300  1.0  0.0727
  H  H49  1  0.951900  0.130700  0.441100  1.0  0.0787
  H  H50  1  0.849300  0.110300  0.353100  1.0  0.1004
  H  H51  1  0.289970  0.068730  0.575130  1.0  0.0783
  H  H52  1  0.373770  0.212430  0.450030  1.0  0.0738
  H  H53  1  0.354170  0.131930  0.453930  1.0  0.0915
  H  H54  1  0.492470  0.274730  0.376430  1.0  0.0734
  H  H55  1  0.600770  0.204330  0.509430  1.0  0.076
  H  H56  1  0.478370  0.142130  0.567330  1.0  0.105
  H  H57  1  0.454270  0.306430  0.543130  1.0  0.0608
  H  H58  1  0.416070  0.337830  0.601930  1.0  0.0927
  H  H59  1  0.534170  0.271130  0.678630  1.0  0.0727
  H  H60  1  0.618570  0.464030  0.774430  1.0  0.0785
  H  H61  1  0.515970  0.443630  0.686430  1.0  0.1004
  H  H62  1  0.956630  0.402070  0.908470  1.0  0.0782
  H  H63  1  0.040430  0.545770  0.783370  1.0  0.0734
  H  H64  1  0.020830  0.465270  0.787270  1.0  0.0913
  H  H65  1  0.159130  0.608070  0.709770  1.0  0.0734
  H  H66  1  0.267430  0.537670  0.842770  1.0  0.076
  H  H67  1  0.145030  0.475470  0.900670  1.0  0.105
  H  H68  1  0.120930  0.639770  0.876470  1.0  0.0609
  H  H69  1  0.082730  0.671170  0.935270  1.0  0.0927
  H  H70  1  0.200830  0.604470  0.011970  1.0  0.0727
  H  H71  1  0.285230  0.797370  0.107770  1.0  0.0787
  H  H72  1  0.182630  0.776970  0.019770  1.0  0.1004
  H  H73  1  0.264600  0.887900  0.241800  1.0  0.0784
  H  H74  1  0.120900  0.828000  0.116700  1.0  0.0734
  H  H75  1  0.201400  0.888900  0.120600  1.0  0.0924
  H  H76  1  0.058600  0.884400  0.043100  1.0  0.0723
  H  H77  1  0.129000  0.063100  0.176100  1.0  0.076
  H  H78  1  0.191200  0.002900  0.234000  1.0  0.1041
  H  H79  1  0.026900  0.814500  0.209800  1.0  0.0613
  H  H80  1  0.995500  0.744900  0.268600  1.0  0.0942
  H  H81  1  0.062200  0.929700  0.345300  1.0  0.0724
  H  H82  1  0.869300  0.821200  0.441100  1.0  0.078
  H  H83  1  0.889700  0.739000  0.353100  1.0  0.1013
  H  H84  1  0.931270  0.221230  0.575130  1.0  0.0784
  H  H85  1  0.787570  0.161330  0.450030  1.0  0.0734
  H  H86  1  0.868070  0.222230  0.453930  1.0  0.0924
  H  H87  1  0.725270  0.217730  0.376430  1.0  0.0723
  H  H88  1  0.795670  0.396430  0.509430  1.0  0.076
  H  H89  1  0.857870  0.336230  0.567330  1.0  0.1041
  H  H90  1  0.693570  0.147830  0.543130  1.0  0.0613
  H  H91  1  0.662170  0.078230  0.601930  1.0  0.0942
  H  H92  1  0.728870  0.263030  0.678630  1.0  0.0724
  H  H93  1  0.535970  0.154530  0.774430  1.0  0.0777
  H  H94  1  0.556370  0.072330  0.686430  1.0  0.1013
  H  H95  1  0.597930  0.554570  0.908470  1.0  0.0784
  H  H96  1  0.454230  0.494670  0.783370  1.0  0.0735
  H  H97  1  0.534730  0.555570  0.787270  1.0  0.0924
  H  H98  1  0.391930  0.551070  0.709770  1.0  0.0723
  H  H99  1  0.462330  0.729770  0.842770  1.0  0.076
  H  H100  1  0.524530  0.669570  0.900670  1.0  0.1041
  H  H101  1  0.360230  0.481170  0.876470  1.0  0.0613
  H  H102  1  0.328830  0.411570  0.935270  1.0  0.0942
  H  H103  1  0.395530  0.596370  0.011970  1.0  0.0724
  H  H104  1  0.202630  0.487870  0.107770  1.0  0.078
  H  H105  1  0.223030  0.405670  0.019770  1.0  0.1013
  H  H106  1  0.887900  0.623300  0.758200  1.0  0.0783
  H  H107  1  0.828000  0.707100  0.883300  1.0  0.071
  H  H108  1  0.888900  0.687500  0.879400  1.0  0.0912
  H  H109  1  0.884400  0.825800  0.956900  1.0  0.0727
  H  H110  1  0.063100  0.934100  0.823900  1.0  0.0758
  H  H111  1  0.002900  0.811700  0.766000  1.0  0.1035
  H  H112  1  0.814500  0.787600  0.790200  1.0  0.0628
  H  H113  1  0.744900  0.749400  0.731400  1.0  0.0961
  H  H114  1  0.929700  0.867500  0.654700  1.0  0.0732
  H  H115  1  0.821200  0.951900  0.558900  1.0  0.0786
  H  H116  1  0.739000  0.849300  0.646900  1.0  0.1019
  H  H117  1  0.554570  0.956630  0.091530  1.0  0.0783
  H  H118  1  0.494670  0.040430  0.216630  1.0  0.0702
  H  H119  1  0.555570  0.020830  0.212730  1.0  0.0912
  H  H120  1  0.551070  0.159130  0.290230  1.0  0.0727
  H  H121  1  0.729770  0.267430  0.157230  1.0  0.0758
  H  H122  1  0.669570  0.145030  0.099330  1.0  0.1035
  H  H123  1  0.481170  0.120930  0.123530  1.0  0.0628
  H  H124  1  0.411570  0.082730  0.064730  1.0  0.0961
  H  H125  1  0.596370  0.200830  0.988030  1.0  0.0732
  H  H126  1  0.487870  0.285230  0.892230  1.0  0.0786
  H  H127  1  0.405670  0.182630  0.980230  1.0  0.1019
  H  H128  1  0.221230  0.289970  0.424870  1.0  0.0783
  H  H129  1  0.161330  0.373770  0.549970  1.0  0.071
  H  H130  1  0.222230  0.354170  0.546070  1.0  0.0912
  H  H131  1  0.217730  0.492470  0.623570  1.0  0.0727
  H  H132  1  0.396430  0.600770  0.490570  1.0  0.0758
  H  H133  1  0.336230  0.478370  0.432670  1.0  0.1035
  H  H134  1  0.147830  0.454270  0.456870  1.0  0.0628
  H  H135  1  0.078230  0.416070  0.398070  1.0  0.0961
  H  H136  1  0.263030  0.534170  0.321370  1.0  0.0732
  H  H137  1  0.154530  0.618570  0.225570  1.0  0.0785
  H  H138  1  0.072330  0.515970  0.313570  1.0  0.102
  H  H139  1  0.376700  0.264600  0.758200  1.0  0.0782
  H  H140  1  0.292900  0.120900  0.883300  1.0  0.0744
  H  H141  1  0.312500  0.201400  0.879400  1.0  0.0915
  H  H142  1  0.174200  0.058600  0.956900  1.0  0.0731
  H  H143  1  0.065900  0.129000  0.823900  1.0  0.0764
  H  H144  1  0.188300  0.191200  0.766000  1.0  0.1046
  H  H145  1  0.212400  0.026900  0.790200  1.0  0.0609
  H  H146  1  0.250600  0.995500  0.731400  1.0  0.093
  H  H147  1  0.132500  0.062200  0.654700  1.0  0.0726
  H  H148  1  0.048100  0.869300  0.558900  1.0  0.0776
  H  H149  1  0.150700  0.889700  0.646900  1.0  0.1
  H  H150  1  0.043370  0.597930  0.091530  1.0  0.0782
  H  H151  1  0.959570  0.454230  0.216630  1.0  0.074
  H  H152  1  0.979170  0.534730  0.212730  1.0  0.0913
  H  H153  1  0.840870  0.391930  0.290230  1.0  0.0732
  H  H154  1  0.732570  0.462330  0.157230  1.0  0.0764
  H  H155  1  0.854970  0.524530  0.099330  1.0  0.1046
  H  H156  1  0.879070  0.360230  0.123530  1.0  0.0609
  H  H157  1  0.917270  0.328830  0.064730  1.0  0.093
  H  H158  1  0.799170  0.395530  0.988030  1.0  0.0727
  H  H159  1  0.714770  0.202630  0.892230  1.0  0.0776
  H  H160  1  0.817370  0.223030  0.980230  1.0  0.1
  H  H161  1  0.710030  0.931270  0.424870  1.0  0.0783
  H  H162  1  0.626230  0.787570  0.549970  1.0  0.0744
  H  H163  1  0.645830  0.868070  0.546070  1.0  0.0915
  H  H164  1  0.507530  0.725270  0.623570  1.0  0.0732
  H  H165  1  0.399230  0.795670  0.490570  1.0  0.0764
  H  H166  1  0.521630  0.857870  0.432670  1.0  0.1046
  H  H167  1  0.545730  0.693570  0.456870  1.0  0.0609
  H  H168  1  0.583930  0.662170  0.398070  1.0  0.0929
  H  H169  1  0.465830  0.728870  0.321370  1.0  0.0726
  H  H170  1  0.381430  0.535970  0.225570  1.0  0.0774
  H  H171  1  0.484030  0.556370  0.313570  1.0  0.1
  H  H172  1  0.735400  0.112100  0.758200  1.0  0.0781
  H  H173  1  0.879100  0.172000  0.883300  1.0  0.0732
  H  H174  1  0.798600  0.111100  0.879400  1.0  0.0926
  H  H175  1  0.941400  0.115600  0.956900  1.0  0.0717
  H  H176  1  0.871000  0.936900  0.823900  1.0  0.0765
  H  H177  1  0.808800  0.997100  0.766000  1.0  0.1032
  H  H178  1  0.973100  0.185500  0.790200  1.0  0.0602
  H  H179  1  0.004500  0.255100  0.731400  1.0  0.0945
  H  H180  1  0.937800  0.070300  0.654700  1.0  0.0719
  H  H181  1  0.130700  0.178800  0.558900  1.0  0.0775
  H  H182  1  0.110300  0.261000  0.646900  1.0  0.1014
  H  H183  1  0.402070  0.445430  0.091530  1.0  0.0781
  H  H184  1  0.545770  0.505330  0.216630  1.0  0.0733
  H  H185  1  0.465270  0.444430  0.212730  1.0  0.0925
  H  H186  1  0.608070  0.448930  0.290230  1.0  0.0717
  H  H187  1  0.537670  0.270230  0.157230  1.0  0.0765
  H  H188  1  0.475470  0.330430  0.099330  1.0  0.1032
  H  H189  1  0.639770  0.518830  0.123530  1.0  0.0602
  H  H190  1  0.671170  0.588430  0.064730  1.0  0.0945
  H  H191  1  0.604470  0.403630  0.988030  1.0  0.0719
  H  H192  1  0.797370  0.512130  0.892230  1.0  0.0775
  H  H193  1  0.776970  0.594330  0.980230  1.0  0.1014
  H  H194  1  0.068730  0.778770  0.424870  1.0  0.0781
  H  H195  1  0.212430  0.838670  0.549970  1.0  0.0732
  H  H196  1  0.131930  0.777770  0.546070  1.0  0.0926
  H  H197  1  0.274730  0.782270  0.623570  1.0  0.0717
  H  H198  1  0.204330  0.603570  0.490570  1.0  0.0765
  H  H199  1  0.142130  0.663770  0.432670  1.0  0.1032
  H  H200  1  0.306430  0.852170  0.456870  1.0  0.0602
  H  H201  1  0.337830  0.921770  0.398070  1.0  0.0945
  H  H202  1  0.271130  0.736970  0.321370  1.0  0.0719
  H  H203  1  0.464030  0.845470  0.225570  1.0  0.0772
  H  H204  1  0.443630  0.927670  0.313570  1.0  0.1014
  C  C205  1  0.148800  0.308300  0.246100  1.0  0.0293
  C  C206  1  0.134300  0.359200  0.279300  1.0  -0.1965
  C  C207  1  0.182200  0.281200  0.301600  1.0  0.0601
  C  C208  1  0.129200  0.284200  0.148800  1.0  -0.1024
  C  C209  1  0.078100  0.162100  0.083100  1.0  0.1108
  C  C210  1  0.980600  0.103200  0.156200  1.0  0.0157
  C  C211  1  0.013500  0.170800  0.188400  1.0  -0.174
  C  C212  1  0.203300  0.227700  0.270200  1.0  -0.0618
  C  C213  1  0.107700  0.124400  0.359100  1.0  0.1237
  C  C214  1  0.167000  0.078600  0.411000  1.0  0.014
  C  C215  1  0.212700  0.134900  0.362400  1.0  -0.189
  C  C216  1  0.815470  0.641630  0.579430  1.0  0.0293
  C  C217  1  0.800970  0.692530  0.612630  1.0  -0.1965
  C  C218  1  0.848870  0.614530  0.634930  1.0  0.0601
  C  C219  1  0.795870  0.617530  0.482130  1.0  -0.1024
  C  C220  1  0.744770  0.495430  0.416430  1.0  0.1108
  C  C221  1  0.647270  0.436530  0.489530  1.0  0.0157
  C  C222  1  0.680170  0.504130  0.521730  1.0  -0.174
  C  C223  1  0.869970  0.561030  0.603530  1.0  -0.0618
  C  C224  1  0.774370  0.457730  0.692430  1.0  0.1237
  C  C225  1  0.833670  0.411930  0.744330  1.0  0.014
  C  C226  1  0.879370  0.468230  0.695730  1.0  -0.1889
  C  C227  1  0.482130  0.974970  0.912770  1.0  0.0293
  C  C228  1  0.467630  0.025870  0.945970  1.0  -0.1965
  C  C229  1  0.515530  0.947870  0.968270  1.0  0.0596
  C  C230  1  0.462530  0.950870  0.815470  1.0  -0.1024
  C  C231  1  0.411430  0.828770  0.749770  1.0  0.1108
  C  C232  1  0.313930  0.769870  0.822870  1.0  0.0157
  C  C233  1  0.346830  0.837470  0.855070  1.0  -0.174
  C  C234  1  0.536630  0.894370  0.936870  1.0  -0.0618
  C  C235  1  0.441030  0.791070  0.025770  1.0  0.1237
  C  C236  1  0.500330  0.745270  0.077670  1.0  0.014
  C  C237  1  0.546030  0.801570  0.029070  1.0  -0.1889
  C  C238  1  0.691700  0.840500  0.246100  1.0  0.0289
  C  C239  1  0.640800  0.775100  0.279300  1.0  -0.1949
  C  C240  1  0.718800  0.901000  0.301600  1.0  0.0588
  C  C241  1  0.715800  0.845000  0.148800  1.0  -0.1018
  C  C242  1  0.837900  0.916000  0.083100  1.0  0.1119
  C  C243  1  0.896800  0.877400  0.156200  1.0  0.0176
  C  C244  1  0.829200  0.842700  0.188400  1.0  -0.172
  C  C245  1  0.772300  0.975600  0.270200  1.0  -0.0617
  C  C246  1  0.875600  0.983300  0.359100  1.0  0.1269
  C  C247  1  0.921400  0.088400  0.411000  1.0  0.0132
  C  C248  1  0.865100  0.077800  0.362400  1.0  -0.1906
  C  C249  1  0.358370  0.173830  0.579430  1.0  0.029
  C  C250  1  0.307470  0.108430  0.612630  1.0  -0.1949
  C  C251  1  0.385470  0.234330  0.634930  1.0  0.0588
  C  C252  1  0.382470  0.178330  0.482130  1.0  -0.1018
  C  C253  1  0.504570  0.249330  0.416430  1.0  0.1119
  C  C254  1  0.563470  0.210730  0.489530  1.0  0.0176
  C  C255  1  0.495870  0.176030  0.521730  1.0  -0.172
  C  C256  1  0.438970  0.308930  0.603530  1.0  -0.0617
  C  C257  1  0.542270  0.316630  0.692430  1.0  0.1269
  C  C258  1  0.588070  0.421730  0.744330  1.0  0.0132
  C  C259  1  0.531770  0.411130  0.695730  1.0  -0.1907
  C  C260  1  0.025030  0.507170  0.912770  1.0  0.0289
  C  C261  1  0.974130  0.441770  0.945970  1.0  -0.1949
  C  C262  1  0.052130  0.567670  0.968270  1.0  0.0583
  C  C263  1  0.049130  0.511670  0.815470  1.0  -0.1018
  C  C264  1  0.171230  0.582670  0.749770  1.0  0.1119
  C  C265  1  0.230130  0.544070  0.822870  1.0  0.0176
  C  C266  1  0.162530  0.509370  0.855070  1.0  -0.172
  C  C267  1  0.105630  0.642270  0.936870  1.0  -0.0617
  C  C268  1  0.208930  0.649970  0.025770  1.0  0.1269
  C  C269  1  0.254730  0.755070  0.077670  1.0  0.0132
  C  C270  1  0.198430  0.744470  0.029070  1.0  -0.1906
  C  C271  1  0.159500  0.851200  0.246100  1.0  0.0282
  C  C272  1  0.224900  0.865700  0.279300  1.0  -0.1962
  C  C273  1  0.099000  0.817800  0.301600  1.0  0.0591
  C  C274  1  0.155000  0.870800  0.148800  1.0  -0.0998
  C  C275  1  0.084000  0.921900  0.083100  1.0  0.1101
  C  C276  1  0.122600  0.019400  0.156200  1.0  0.0155
  C  C277  1  0.157300  0.986500  0.188400  1.0  -0.1738
  C  C278  1  0.024400  0.796700  0.270200  1.0  -0.0609
  C  C279  1  0.016700  0.892300  0.359100  1.0  0.1251
  C  C280  1  0.911600  0.833000  0.411000  1.0  0.0129
  C  C281  1  0.922200  0.787300  0.362400  1.0  -0.1913
  C  C282  1  0.826170  0.184530  0.579430  1.0  0.0282
  C  C283  1  0.891570  0.199030  0.612630  1.0  -0.1962
  C  C284  1  0.765670  0.151130  0.634930  1.0  0.0591
  C  C285  1  0.821670  0.204130  0.482130  1.0  -0.0998
  C  C286  1  0.750670  0.255230  0.416430  1.0  0.1101
  C  C287  1  0.789270  0.352730  0.489530  1.0  0.0155
  C  C288  1  0.823970  0.319830  0.521730  1.0  -0.1738
  C  C289  1  0.691070  0.130030  0.603530  1.0  -0.0608
  C  C290  1  0.683370  0.225630  0.692430  1.0  0.1251
  C  C291  1  0.578270  0.166330  0.744330  1.0  0.013
  C  C292  1  0.588870  0.120630  0.695730  1.0  -0.1913
  C  C293  1  0.492830  0.517870  0.912770  1.0  0.0283
  C  C294  1  0.558230  0.532370  0.945970  1.0  -0.1963
  C  C295  1  0.432330  0.484470  0.968270  1.0  0.0596
  C  C296  1  0.488330  0.537470  0.815470  1.0  -0.0998
  C  C297  1  0.417330  0.588570  0.749770  1.0  0.1101
  C  C298  1  0.455930  0.686070  0.822870  1.0  0.0155
  C  C299  1  0.490630  0.653170  0.855070  1.0  -0.1738
  C  C300  1  0.357730  0.463370  0.936870  1.0  -0.0609
  C  C301  1  0.350030  0.558970  0.025770  1.0  0.1251
  C  C302  1  0.244930  0.499670  0.077670  1.0  0.0129
  C  C303  1  0.255530  0.453970  0.029070  1.0  -0.1915
  C  C304  1  0.851200  0.691700  0.753900  1.0  0.0296
  C  C305  1  0.865700  0.640800  0.720700  1.0  -0.1982
  C  C306  1  0.817800  0.718800  0.698400  1.0  0.0592
  C  C307  1  0.870800  0.715800  0.851200  1.0  -0.1047
  C  C308  1  0.921900  0.837900  0.916900  1.0  0.112
  C  C309  1  0.019400  0.896800  0.843800  1.0  0.018
  C  C310  1  0.986500  0.829200  0.811600  1.0  -0.1735
  C  C311  1  0.796700  0.772300  0.729800  1.0  -0.0653
  C  C312  1  0.892300  0.875600  0.640900  1.0  0.1255
  C  C313  1  0.833000  0.921400  0.589000  1.0  0.0137
  C  C314  1  0.787300  0.865100  0.637600  1.0  -0.1906
  C  C315  1  0.517870  0.025030  0.087230  1.0  0.0295
  C  C316  1  0.532370  0.974130  0.054030  1.0  -0.1982
  C  C317  1  0.484470  0.052130  0.031730  1.0  0.0587
  C  C318  1  0.537470  0.049130  0.184530  1.0  -0.1047
  C  C319  1  0.588570  0.171230  0.250230  1.0  0.112
  C  C320  1  0.686070  0.230130  0.177130  1.0  0.018
  C  C321  1  0.653170  0.162530  0.144930  1.0  -0.1735
  C  C322  1  0.463370  0.105630  0.063130  1.0  -0.0652
  C  C323  1  0.558970  0.208930  0.974230  1.0  0.1255
  C  C324  1  0.499670  0.254730  0.922330  1.0  0.0137
  C  C325  1  0.453970  0.198430  0.970930  1.0  -0.1904
  C  C326  1  0.184530  0.358370  0.420570  1.0  0.0296
  C  C327  1  0.199030  0.307470  0.387370  1.0  -0.1982
  C  C328  1  0.151130  0.385470  0.365070  1.0  0.0592
  C  C329  1  0.204130  0.382470  0.517870  1.0  -0.1047
  C  C330  1  0.255230  0.504570  0.583570  1.0  0.112
  C  C331  1  0.352730  0.563470  0.510470  1.0  0.0181
  C  C332  1  0.319830  0.495870  0.478270  1.0  -0.1735
  C  C333  1  0.130030  0.438970  0.396470  1.0  -0.0653
  C  C334  1  0.225630  0.542270  0.307570  1.0  0.1255
  C  C335  1  0.166330  0.588070  0.255670  1.0  0.0137
  C  C336  1  0.120630  0.531770  0.304270  1.0  -0.1904
  C  C337  1  0.308300  0.159500  0.753900  1.0  0.0296
  C  C338  1  0.359200  0.224900  0.720700  1.0  -0.1968
  C  C339  1  0.281200  0.099000  0.698400  1.0  0.0602
  C  C340  1  0.284200  0.155000  0.851200  1.0  -0.1022
  C  C341  1  0.162100  0.084000  0.916900  1.0  0.1131
  C  C342  1  0.103200  0.122600  0.843800  1.0  0.0175
  C  C343  1  0.170800  0.157300  0.811600  1.0  -0.1714
  C  C344  1  0.227700  0.024400  0.729800  1.0  -0.0648
  C  C345  1  0.124400  0.016700  0.640900  1.0  0.1247
  C  C346  1  0.078600  0.911600  0.589000  1.0  0.0118
  C  C347  1  0.134900  0.922200  0.637600  1.0  -0.192
  C  C348  1  0.974970  0.492830  0.087230  1.0  0.0295
  C  C349  1  0.025870  0.558230  0.054030  1.0  -0.1968
  C  C350  1  0.947870  0.432330  0.031730  1.0  0.0597
  C  C351  1  0.950870  0.488330  0.184530  1.0  -0.1022
  C  C352  1  0.828770  0.417330  0.250230  1.0  0.1131
  C  C353  1  0.769870  0.455930  0.177130  1.0  0.0175
  C  C354  1  0.837470  0.490630  0.144930  1.0  -0.1714
  C  C355  1  0.894370  0.357730  0.063130  1.0  -0.0648
  C  C356  1  0.791070  0.350030  0.974230  1.0  0.1247
  C  C357  1  0.745270  0.244930  0.922330  1.0  0.0118
  C  C358  1  0.801570  0.255530  0.970930  1.0  -0.192
  C  C359  1  0.641630  0.826170  0.420570  1.0  0.0296
  C  C360  1  0.692530  0.891570  0.387370  1.0  -0.1968
  C  C361  1  0.614530  0.765670  0.365070  1.0  0.0602
  C  C362  1  0.617530  0.821670  0.517870  1.0  -0.1022
  C  C363  1  0.495430  0.750670  0.583570  1.0  0.1131
  C  C364  1  0.436530  0.789270  0.510470  1.0  0.0175
  C  C365  1  0.504130  0.823970  0.478270  1.0  -0.1714
  C  C366  1  0.561030  0.691070  0.396470  1.0  -0.0648
  C  C367  1  0.457730  0.683370  0.307570  1.0  0.1247
  C  C368  1  0.411930  0.578270  0.255670  1.0  0.0118
  C  C369  1  0.468230  0.588870  0.304270  1.0  -0.1921
  C  C370  1  0.840500  0.148800  0.753900  1.0  0.0292
  C  C371  1  0.775100  0.134300  0.720700  1.0  -0.1977
  C  C372  1  0.901000  0.182200  0.698400  1.0  0.0592
  C  C373  1  0.845000  0.129200  0.851200  1.0  -0.1012
  C  C374  1  0.916000  0.078100  0.916900  1.0  0.1117
  C  C375  1  0.877400  0.980600  0.843800  1.0  0.0167
  C  C376  1  0.842700  0.013500  0.811600  1.0  -0.1753
  C  C377  1  0.975600  0.203300  0.729800  1.0  -0.0626
  C  C378  1  0.983300  0.107700  0.640900  1.0  0.1266
  C  C379  1  0.088400  0.167000  0.589000  1.0  0.014
  C  C380  1  0.077800  0.212700  0.637600  1.0  -0.1898
  C  C381  1  0.507170  0.482130  0.087230  1.0  0.0294
  C  C382  1  0.441770  0.467630  0.054030  1.0  -0.1977
  C  C383  1  0.567670  0.515530  0.031730  1.0  0.0597
  C  C384  1  0.511670  0.462530  0.184530  1.0  -0.1012
  C  C385  1  0.582670  0.411430  0.250230  1.0  0.1117
  C  C386  1  0.544070  0.313930  0.177130  1.0  0.0167
  C  C387  1  0.509370  0.346830  0.144930  1.0  -0.1753
  C  C388  1  0.642270  0.536630  0.063130  1.0  -0.0626
  C  C389  1  0.649970  0.441030  0.974230  1.0  0.1265
  C  C390  1  0.755070  0.500330  0.922330  1.0  0.014
  C  C391  1  0.744470  0.546030  0.970930  1.0  -0.1898
  C  C392  1  0.173830  0.815470  0.420570  1.0  0.0292
  C  C393  1  0.108430  0.800970  0.387370  1.0  -0.1977
  C  C394  1  0.234330  0.848870  0.365070  1.0  0.0592
  C  C395  1  0.178330  0.795870  0.517870  1.0  -0.1012
  C  C396  1  0.249330  0.744770  0.583570  1.0  0.1117
  C  C397  1  0.210730  0.647270  0.510470  1.0  0.0167
  C  C398  1  0.176030  0.680170  0.478270  1.0  -0.1753
  C  C399  1  0.308930  0.869970  0.396470  1.0  -0.0625
  C  C400  1  0.316630  0.774370  0.307570  1.0  0.1266
  C  C401  1  0.421730  0.833670  0.255670  1.0  0.014
  C  C402  1  0.411130  0.879370  0.304270  1.0  -0.1898
  N  N403  1  0.075100  0.208100  0.141400  1.0  0.0136
  N  N404  1  0.021500  0.097900  0.089700  1.0  -0.4013
  N  N405  1  0.174900  0.164800  0.328800  1.0  0.0257
  N  N406  1  0.101100  0.071900  0.410700  1.0  -0.4105
  N  N407  1  0.741770  0.541430  0.474730  1.0  0.0136
  N  N408  1  0.688170  0.431230  0.423030  1.0  -0.4013
  N  N409  1  0.841570  0.498130  0.662130  1.0  0.0257
  N  N410  1  0.767770  0.405230  0.744030  1.0  -0.4105
  N  N411  1  0.408430  0.874770  0.808070  1.0  0.0136
  N  N412  1  0.354830  0.764570  0.756370  1.0  -0.4013
  N  N413  1  0.508230  0.831470  0.995470  1.0  0.0257
  N  N414  1  0.434430  0.738570  0.077370  1.0  -0.4105
  N  N415  1  0.791900  0.867000  0.141400  1.0  0.0122
  N  N416  1  0.902100  0.923600  0.089700  1.0  -0.3983
  N  N417  1  0.835200  0.010100  0.328800  1.0  0.0253
  N  N418  1  0.928100  0.029200  0.410700  1.0  -0.4095
  N  N419  1  0.458570  0.200330  0.474730  1.0  0.0122
  N  N420  1  0.568770  0.256930  0.423030  1.0  -0.3984
  N  N421  1  0.501870  0.343430  0.662130  1.0  0.0253
  N  N422  1  0.594770  0.362530  0.744030  1.0  -0.4095
  N  N423  1  0.125230  0.533670  0.808070  1.0  0.0122
  N  N424  1  0.235430  0.590270  0.756370  1.0  -0.3983
  N  N425  1  0.168530  0.676770  0.995470  1.0  0.0253
  N  N426  1  0.261430  0.695870  0.077370  1.0  -0.4095
  N  N427  1  0.133000  0.924900  0.141400  1.0  0.0149
  N  N428  1  0.076400  0.978500  0.089700  1.0  -0.399
  N  N429  1  0.989900  0.825100  0.328800  1.0  0.025
  N  N430  1  0.970800  0.898900  0.410700  1.0  -0.4136
  N  N431  1  0.799670  0.258230  0.474730  1.0  0.0149
  N  N432  1  0.743070  0.311830  0.423030  1.0  -0.399
  N  N433  1  0.656570  0.158430  0.662130  1.0  0.025
  N  N434  1  0.637470  0.232230  0.744030  1.0  -0.4136
  N  N435  1  0.466330  0.591570  0.808070  1.0  0.0149
  N  N436  1  0.409730  0.645170  0.756370  1.0  -0.3991
  N  N437  1  0.323230  0.491770  0.995470  1.0  0.025
  N  N438  1  0.304130  0.565570  0.077370  1.0  -0.4136
  N  N439  1  0.924900  0.791900  0.858600  1.0  0.0137
  N  N440  1  0.978500  0.902100  0.910300  1.0  -0.401
  N  N441  1  0.825100  0.835200  0.671200  1.0  0.0253
  N  N442  1  0.898900  0.928100  0.589300  1.0  -0.4111
  N  N443  1  0.591570  0.125230  0.191930  1.0  0.0137
  N  N444  1  0.645170  0.235430  0.243630  1.0  -0.401
  N  N445  1  0.491770  0.168530  0.004530  1.0  0.0253
  N  N446  1  0.565570  0.261430  0.922630  1.0  -0.4111
  N  N447  1  0.258230  0.458570  0.525270  1.0  0.0137
  N  N448  1  0.311830  0.568770  0.576970  1.0  -0.401
  N  N449  1  0.158430  0.501870  0.337870  1.0  0.0252
  N  N450  1  0.232230  0.594770  0.255970  1.0  -0.4111
  N  N451  1  0.208100  0.133000  0.858600  1.0  0.0125
  N  N452  1  0.097900  0.076400  0.910300  1.0  -0.3989
  N  N453  1  0.164800  0.989900  0.671200  1.0  0.0259
  N  N454  1  0.071900  0.970800  0.589300  1.0  -0.4082
  N  N455  1  0.874770  0.466330  0.191930  1.0  0.0125
  N  N456  1  0.764570  0.409730  0.243630  1.0  -0.3989
  N  N457  1  0.831470  0.323230  0.004530  1.0  0.0259
  N  N458  1  0.738570  0.304130  0.922630  1.0  -0.4082
  N  N459  1  0.541430  0.799670  0.525270  1.0  0.0125
  N  N460  1  0.431230  0.743070  0.576970  1.0  -0.3989
  N  N461  1  0.498130  0.656570  0.337870  1.0  0.0259
  N  N462  1  0.405230  0.637470  0.255970  1.0  -0.4082
  N  N463  1  0.867000  0.075100  0.858600  1.0  0.0128
  N  N464  1  0.923600  0.021500  0.910300  1.0  -0.4012
  N  N465  1  0.010100  0.174900  0.671200  1.0  0.0254
  N  N466  1  0.029200  0.101100  0.589300  1.0  -0.4141
  N  N467  1  0.533670  0.408430  0.191930  1.0  0.0128
  N  N468  1  0.590270  0.354830  0.243630  1.0  -0.4012
  N  N469  1  0.676770  0.508230  0.004530  1.0  0.0254
  N  N470  1  0.695870  0.434430  0.922630  1.0  -0.4141
  N  N471  1  0.200330  0.741770  0.525270  1.0  0.0128
  N  N472  1  0.256930  0.688170  0.576970  1.0  -0.4012
  N  N473  1  0.343430  0.841570  0.337870  1.0  0.0254
  N  N474  1  0.362530  0.767770  0.255970  1.0  -0.4141
