# generated using pymatgen
data_CdH33(C11N4)3
_symmetry_space_group_name_H-M   'P 1'
_cell_length_a   21.29700000
_cell_length_b   21.29700000
_cell_length_c   15.38000000
_cell_angle_alpha   90.00000000
_cell_angle_beta   90.00000000
_cell_angle_gamma   120.00000000
_symmetry_Int_Tables_number   1
_chemical_formula_structural   CdH33(C11N4)3
_chemical_formula_sum   'Cd6 H198 C198 N72'
_cell_volume   6041.20855803
_cell_formula_units_Z   6
loop_
 _symmetry_equiv_pos_site_id
 _symmetry_equiv_pos_as_xyz
  1  'x, y, z'
loop_
 _atom_site_type_symbol
 _atom_site_label
 _atom_site_symmetry_multiplicity
 _atom_site_fract_x
 _atom_site_fract_y
 _atom_site_fract_z
 _atom_site_occupancy
 _atom_site_charge
  Cd  Cd1  1  0.000000  0.000000  0.000000  1.0  0.7587
  Cd  Cd2  1  0.666667  0.333333  0.333333  1.0  0.7531
  Cd  Cd3  1  0.333333  0.666667  0.666667  1.0  0.7531
  Cd  Cd4  1  0.000000  0.000000  0.500000  1.0  0.7079
  Cd  Cd5  1  0.666667  0.333333  0.833330  1.0  0.7015
  Cd  Cd6  1  0.333333  0.666667  0.166670  1.0  0.7009
  H  H7  1  0.286500  0.065700  0.077300  1.0  0.089
  H  H8  1  0.249600  0.993400  0.234500  1.0  0.0981
  H  H9  1  0.208600  0.026200  0.289100  1.0  0.07
  H  H10  1  0.131200  0.061800  0.151600  1.0  0.0775
  H  H11  1  0.047600  0.864300  0.056000  1.0  0.0769
  H  H12  1  0.149700  0.884400  0.150900  1.0  0.1035
  H  H13  1  0.296700  0.122300  0.379300  1.0  0.0911
  H  H14  1  0.316400  0.205200  0.373500  1.0  0.0966
  H  H15  1  0.177800  0.063200  0.458900  1.0  0.0774
  H  H16  1  0.063300  0.129200  0.324000  1.0  0.0761
  H  H17  1  0.187100  0.190700  0.262600  1.0  0.1076
  H  H18  1  0.953170  0.399030  0.410630  1.0  0.0891
  H  H19  1  0.916270  0.326730  0.567830  1.0  0.0981
  H  H20  1  0.875270  0.359530  0.622430  1.0  0.07
  H  H21  1  0.797870  0.395130  0.484930  1.0  0.0775
  H  H22  1  0.714270  0.197630  0.389330  1.0  0.0764
  H  H23  1  0.816370  0.217730  0.484230  1.0  0.1035
  H  H24  1  0.963370  0.455630  0.712630  1.0  0.0912
  H  H25  1  0.983070  0.538530  0.706830  1.0  0.0966
  H  H26  1  0.844470  0.396530  0.792230  1.0  0.0776
  H  H27  1  0.729970  0.462530  0.657330  1.0  0.0761
  H  H28  1  0.853770  0.524030  0.595930  1.0  0.1076
  H  H29  1  0.619830  0.732370  0.743970  1.0  0.0891
  H  H30  1  0.582930  0.660070  0.901170  1.0  0.0981
  H  H31  1  0.541930  0.692870  0.955770  1.0  0.07
  H  H32  1  0.464530  0.728470  0.818270  1.0  0.0775
  H  H33  1  0.380930  0.530970  0.722670  1.0  0.0764
  H  H34  1  0.483030  0.551070  0.817570  1.0  0.1035
  H  H35  1  0.630030  0.788970  0.045970  1.0  0.0915
  H  H36  1  0.649730  0.871870  0.040170  1.0  0.0966
  H  H37  1  0.511130  0.729870  0.125570  1.0  0.0774
  H  H38  1  0.396630  0.795870  0.990670  1.0  0.0761
  H  H39  1  0.520430  0.857370  0.929270  1.0  0.1078
  H  H40  1  0.934300  0.220800  0.077300  1.0  0.0915
  H  H41  1  0.006600  0.256200  0.234500  1.0  0.0988
  H  H42  1  0.973800  0.182400  0.289100  1.0  0.0699
  H  H43  1  0.938200  0.069400  0.151600  1.0  0.077
  H  H44  1  0.135700  0.183300  0.056000  1.0  0.0754
  H  H45  1  0.115600  0.265300  0.150900  1.0  0.1054
  H  H46  1  0.877700  0.174400  0.379300  1.0  0.0899
  H  H47  1  0.794800  0.111200  0.373500  1.0  0.0989
  H  H48  1  0.936800  0.114600  0.458900  1.0  0.0768
  H  H49  1  0.870800  0.934100  0.324000  1.0  0.0761
  H  H50  1  0.809300  0.996400  0.262600  1.0  0.105
  H  H51  1  0.600970  0.554130  0.410630  1.0  0.091
  H  H52  1  0.673270  0.589530  0.567830  1.0  0.0988
  H  H53  1  0.640470  0.515730  0.622430  1.0  0.0699
  H  H54  1  0.604870  0.402730  0.484930  1.0  0.077
  H  H55  1  0.802370  0.516630  0.389330  1.0  0.0753
  H  H56  1  0.782270  0.598630  0.484230  1.0  0.1054
  H  H57  1  0.544370  0.507730  0.712630  1.0  0.0897
  H  H58  1  0.461470  0.444530  0.706830  1.0  0.0994
  H  H59  1  0.603470  0.447930  0.792230  1.0  0.0764
  H  H60  1  0.537470  0.267430  0.657330  1.0  0.0762
  H  H61  1  0.475970  0.329730  0.595930  1.0  0.105
  H  H62  1  0.267630  0.887470  0.743970  1.0  0.0915
  H  H63  1  0.339930  0.922870  0.901170  1.0  0.0988
  H  H64  1  0.307130  0.849070  0.955770  1.0  0.0699
  H  H65  1  0.271530  0.736070  0.818270  1.0  0.077
  H  H66  1  0.469030  0.849970  0.722670  1.0  0.0754
  H  H67  1  0.448930  0.931970  0.817570  1.0  0.1054
  H  H68  1  0.211030  0.841070  0.045970  1.0  0.0898
  H  H69  1  0.128130  0.777870  0.040170  1.0  0.0989
  H  H70  1  0.270130  0.781270  0.125570  1.0  0.0768
  H  H71  1  0.204130  0.600770  0.990670  1.0  0.0762
  H  H72  1  0.142630  0.663070  0.929270  1.0  0.1052
  H  H73  1  0.779200  0.713500  0.077300  1.0  0.0895
  H  H74  1  0.743800  0.750400  0.234500  1.0  0.1024
  H  H75  1  0.817600  0.791400  0.289100  1.0  0.0728
  H  H76  1  0.930600  0.868800  0.151600  1.0  0.0765
  H  H77  1  0.816700  0.952400  0.056000  1.0  0.076
  H  H78  1  0.734700  0.850300  0.150900  1.0  0.1055
  H  H79  1  0.825600  0.703300  0.379300  1.0  0.0885
  H  H80  1  0.888800  0.683600  0.373500  1.0  0.0981
  H  H81  1  0.885400  0.822200  0.458900  1.0  0.078
  H  H82  1  0.065900  0.936700  0.324000  1.0  0.0765
  H  H83  1  0.003600  0.812900  0.262600  1.0  0.1059
  H  H84  1  0.445870  0.046830  0.410630  1.0  0.0898
  H  H85  1  0.410470  0.083730  0.567830  1.0  0.1024
  H  H86  1  0.484270  0.124730  0.622430  1.0  0.0729
  H  H87  1  0.597270  0.202130  0.484930  1.0  0.0765
  H  H88  1  0.483370  0.285730  0.389330  1.0  0.076
  H  H89  1  0.401370  0.183630  0.484230  1.0  0.1055
  H  H90  1  0.492270  0.036630  0.712630  1.0  0.0886
  H  H91  1  0.555470  0.016930  0.706830  1.0  0.0981
  H  H92  1  0.552070  0.155530  0.792230  1.0  0.0783
  H  H93  1  0.732570  0.270030  0.657330  1.0  0.0754
  H  H94  1  0.670270  0.146230  0.595930  1.0  0.1059
  H  H95  1  0.112530  0.380170  0.743970  1.0  0.0895
  H  H96  1  0.077130  0.417070  0.901170  1.0  0.1024
  H  H97  1  0.150930  0.458070  0.955770  1.0  0.0728
  H  H98  1  0.263930  0.535470  0.818270  1.0  0.0765
  H  H99  1  0.150030  0.619070  0.722670  1.0  0.076
  H  H100  1  0.068030  0.516970  0.817570  1.0  0.1055
  H  H101  1  0.158930  0.369970  0.045970  1.0  0.0888
  H  H102  1  0.222130  0.350270  0.040170  1.0  0.0981
  H  H103  1  0.218730  0.488870  0.125570  1.0  0.078
  H  H104  1  0.399230  0.603370  0.990670  1.0  0.0754
  H  H105  1  0.336930  0.479570  0.929270  1.0  0.1056
  H  H106  1  0.713500  0.934300  0.922700  1.0  0.0905
  H  H107  1  0.750400  0.006600  0.765500  1.0  0.0986
  H  H108  1  0.791400  0.973800  0.710900  1.0  0.0711
  H  H109  1  0.868800  0.938200  0.848400  1.0  0.0777
  H  H110  1  0.952400  0.135700  0.944000  1.0  0.0768
  H  H111  1  0.850300  0.115600  0.849100  1.0  0.102
  H  H112  1  0.703300  0.877700  0.620700  1.0  0.0907
  H  H113  1  0.683600  0.794800  0.626500  1.0  0.0982
  H  H114  1  0.822200  0.936800  0.541100  1.0  0.0781
  H  H115  1  0.936700  0.870800  0.676000  1.0  0.0759
  H  H116  1  0.812900  0.809300  0.737400  1.0  0.1078
  H  H117  1  0.380170  0.267630  0.256030  1.0  0.0905
  H  H118  1  0.417070  0.339930  0.098830  1.0  0.0986
  H  H119  1  0.458070  0.307130  0.044230  1.0  0.0711
  H  H120  1  0.535470  0.271530  0.181730  1.0  0.0777
  H  H121  1  0.619070  0.469030  0.277330  1.0  0.0768
  H  H122  1  0.516970  0.448930  0.182430  1.0  0.1038
  H  H123  1  0.369970  0.211030  0.954030  1.0  0.0907
  H  H124  1  0.350270  0.128130  0.959830  1.0  0.0982
  H  H125  1  0.488870  0.270130  0.874430  1.0  0.0781
  H  H126  1  0.603370  0.204130  0.009330  1.0  0.0759
  H  H127  1  0.479570  0.142630  0.070730  1.0  0.108
  H  H128  1  0.046830  0.600970  0.589370  1.0  0.0905
  H  H129  1  0.083730  0.673270  0.432170  1.0  0.0986
  H  H130  1  0.124730  0.640470  0.377570  1.0  0.0711
  H  H131  1  0.202130  0.604870  0.515070  1.0  0.0777
  H  H132  1  0.285730  0.802370  0.610670  1.0  0.0768
  H  H133  1  0.183630  0.782270  0.515770  1.0  0.1038
  H  H134  1  0.036630  0.544370  0.287370  1.0  0.0908
  H  H135  1  0.016930  0.461470  0.293170  1.0  0.0982
  H  H136  1  0.155530  0.603470  0.207770  1.0  0.0784
  H  H137  1  0.270030  0.537470  0.342670  1.0  0.0759
  H  H138  1  0.146230  0.475970  0.404070  1.0  0.1078
  H  H139  1  0.065700  0.779200  0.922700  1.0  0.0902
  H  H140  1  0.993400  0.743800  0.765500  1.0  0.0997
  H  H141  1  0.026200  0.817600  0.710900  1.0  0.0708
  H  H142  1  0.061800  0.930600  0.848400  1.0  0.077
  H  H143  1  0.864300  0.816700  0.944000  1.0  0.0756
  H  H144  1  0.884400  0.734700  0.849100  1.0  0.1036
  H  H145  1  0.122300  0.825600  0.620700  1.0  0.0919
  H  H146  1  0.205200  0.888800  0.626500  1.0  0.0993
  H  H147  1  0.063200  0.885400  0.541100  1.0  0.0769
  H  H148  1  0.129200  0.065900  0.676000  1.0  0.0769
  H  H149  1  0.190700  0.003600  0.737400  1.0  0.106
  H  H150  1  0.732370  0.112530  0.256030  1.0  0.0904
  H  H151  1  0.660070  0.077130  0.098830  1.0  0.0997
  H  H152  1  0.692870  0.150930  0.044230  1.0  0.0708
  H  H153  1  0.728470  0.263930  0.181730  1.0  0.077
  H  H154  1  0.530970  0.150030  0.277330  1.0  0.0756
  H  H155  1  0.551070  0.068030  0.182430  1.0  0.1036
  H  H156  1  0.788970  0.158930  0.954030  1.0  0.0913
  H  H157  1  0.871870  0.222130  0.959830  1.0  0.0993
  H  H158  1  0.729870  0.218730  0.874430  1.0  0.0769
  H  H159  1  0.795870  0.399230  0.009330  1.0  0.076
  H  H160  1  0.857370  0.336930  0.070730  1.0  0.1062
  H  H161  1  0.399030  0.445870  0.589370  1.0  0.0899
  H  H162  1  0.326730  0.410470  0.432170  1.0  0.0996
  H  H163  1  0.359530  0.484270  0.377570  1.0  0.0708
  H  H164  1  0.395130  0.597270  0.515070  1.0  0.077
  H  H165  1  0.197630  0.483370  0.610670  1.0  0.0755
  H  H166  1  0.217730  0.401370  0.515770  1.0  0.1036
  H  H167  1  0.455630  0.492270  0.287370  1.0  0.0918
  H  H168  1  0.538530  0.555470  0.293170  1.0  0.0998
  H  H169  1  0.396530  0.552070  0.207770  1.0  0.0765
  H  H170  1  0.462530  0.732570  0.342670  1.0  0.076
  H  H171  1  0.524030  0.670270  0.404070  1.0  0.106
  H  H172  1  0.220800  0.286500  0.922700  1.0  0.0914
  H  H173  1  0.256200  0.249600  0.765500  1.0  0.0999
  H  H174  1  0.182400  0.208600  0.710900  1.0  0.074
  H  H175  1  0.069400  0.131200  0.848400  1.0  0.0764
  H  H176  1  0.183300  0.047600  0.944000  1.0  0.0763
  H  H177  1  0.265300  0.149700  0.849100  1.0  0.1056
  H  H178  1  0.174400  0.296700  0.620700  1.0  0.0896
  H  H179  1  0.111200  0.316400  0.626500  1.0  0.0997
  H  H180  1  0.114600  0.177800  0.541100  1.0  0.0769
  H  H181  1  0.934100  0.063300  0.676000  1.0  0.0765
  H  H182  1  0.996400  0.187100  0.737400  1.0  0.1054
  H  H183  1  0.887470  0.619830  0.256030  1.0  0.0914
  H  H184  1  0.922870  0.582930  0.098830  1.0  0.0999
  H  H185  1  0.849070  0.541930  0.044230  1.0  0.074
  H  H186  1  0.736070  0.464530  0.181730  1.0  0.0764
  H  H187  1  0.849970  0.380930  0.277330  1.0  0.0763
  H  H188  1  0.931970  0.483030  0.182430  1.0  0.1056
  H  H189  1  0.841070  0.630030  0.954030  1.0  0.0896
  H  H190  1  0.777870  0.649730  0.959830  1.0  0.0997
  H  H191  1  0.781270  0.511130  0.874430  1.0  0.0772
  H  H192  1  0.600770  0.396630  0.009330  1.0  0.0765
  H  H193  1  0.663070  0.520430  0.070730  1.0  0.1051
  H  H194  1  0.554130  0.953170  0.589370  1.0  0.0914
  H  H195  1  0.589530  0.916270  0.432170  1.0  0.0999
  H  H196  1  0.515730  0.875270  0.377570  1.0  0.074
  H  H197  1  0.402730  0.797870  0.515070  1.0  0.0763
  H  H198  1  0.516630  0.714270  0.610670  1.0  0.0763
  H  H199  1  0.598630  0.816370  0.515770  1.0  0.1056
  H  H200  1  0.507730  0.963370  0.287370  1.0  0.0898
  H  H201  1  0.444530  0.983070  0.293170  1.0  0.0997
  H  H202  1  0.447930  0.844470  0.207770  1.0  0.0775
  H  H203  1  0.267430  0.729970  0.342670  1.0  0.0765
  H  H204  1  0.329730  0.853770  0.404070  1.0  0.1054
  C  C205  1  0.280330  0.098500  0.199100  1.0  0.0494
  C  C206  1  0.309020  0.159400  0.253000  1.0  -0.0026
  C  C207  1  0.305600  0.107100  0.114000  1.0  -0.217
  C  C208  1  0.225700  0.023000  0.230300  1.0  -0.0853
  C  C209  1  0.122900  0.014600  0.138800  1.0  0.1411
  C  C210  1  0.077800  0.907400  0.087500  1.0  -0.005
  C  C211  1  0.133800  0.918000  0.139300  1.0  -0.1545
  C  C212  1  0.286700  0.156700  0.347100  1.0  -0.123
  C  C213  1  0.164100  0.087200  0.417500  1.0  0.1193
  C  C214  1  0.102500  0.123400  0.343800  1.0  0.0004
  C  C215  1  0.170100  0.157400  0.309800  1.0  -0.1348
  C  C216  1  0.947000  0.431830  0.532430  1.0  0.0495
  C  C217  1  0.975690  0.492730  0.586330  1.0  -0.0026
  C  C218  1  0.972270  0.440430  0.447330  1.0  -0.217
  C  C219  1  0.892370  0.356330  0.563630  1.0  -0.0853
  C  C220  1  0.789570  0.347930  0.472130  1.0  0.1411
  C  C221  1  0.744470  0.240730  0.420830  1.0  -0.0085
  C  C222  1  0.800470  0.251330  0.472630  1.0  -0.1543
  C  C223  1  0.953370  0.490030  0.680430  1.0  -0.123
  C  C224  1  0.830770  0.420530  0.750830  1.0  0.1193
  C  C225  1  0.769170  0.456730  0.677130  1.0  0.0004
  C  C226  1  0.836770  0.490730  0.643130  1.0  -0.1347
  C  C227  1  0.613660  0.765170  0.865770  1.0  0.0494
  C  C228  1  0.642350  0.826070  0.919670  1.0  -0.0026
  C  C229  1  0.638930  0.773770  0.780670  1.0  -0.217
  C  C230  1  0.559030  0.689670  0.896970  1.0  -0.0853
  C  C231  1  0.456230  0.681270  0.805470  1.0  0.1411
  C  C232  1  0.411130  0.574070  0.754170  1.0  -0.0084
  C  C233  1  0.467130  0.584670  0.805970  1.0  -0.1543
  C  C234  1  0.620030  0.823370  0.013770  1.0  -0.123
  C  C235  1  0.497430  0.753870  0.084170  1.0  0.1193
  C  C236  1  0.435830  0.790070  0.010470  1.0  0.0004
  C  C237  1  0.503430  0.824070  0.976470  1.0  -0.1348
  C  C238  1  0.901500  0.181830  0.199100  1.0  0.0492
  C  C239  1  0.840600  0.149620  0.253000  1.0  -0.0033
  C  C240  1  0.892900  0.198500  0.114000  1.0  -0.2159
  C  C241  1  0.977000  0.202700  0.230300  1.0  -0.0847
  C  C242  1  0.985400  0.108300  0.138800  1.0  0.1421
  C  C243  1  0.092600  0.170400  0.087500  1.0  -0.0092
  C  C244  1  0.082000  0.215800  0.139300  1.0  -0.1626
  C  C245  1  0.843300  0.130000  0.347100  1.0  -0.1217
  C  C246  1  0.912800  0.076900  0.417500  1.0  0.1199
  C  C247  1  0.876600  0.979100  0.343800  1.0  0.0057
  C  C248  1  0.842600  0.012700  0.309800  1.0  -0.1363
  C  C249  1  0.568170  0.515160  0.532430  1.0  0.0492
  C  C250  1  0.507270  0.482950  0.586330  1.0  -0.0032
  C  C251  1  0.559570  0.531830  0.447330  1.0  -0.215
  C  C252  1  0.643670  0.536030  0.563630  1.0  -0.0848
  C  C253  1  0.652070  0.441630  0.472130  1.0  0.1421
  C  C254  1  0.759270  0.503730  0.420830  1.0  -0.0092
  C  C255  1  0.748670  0.549130  0.472630  1.0  -0.1626
  C  C256  1  0.509970  0.463330  0.680430  1.0  -0.1217
  C  C257  1  0.579470  0.410230  0.750830  1.0  0.1199
  C  C258  1  0.543270  0.312430  0.677130  1.0  0.0057
  C  C259  1  0.509270  0.346030  0.643130  1.0  -0.1363
  C  C260  1  0.234830  0.848500  0.865770  1.0  0.0492
  C  C261  1  0.173930  0.816290  0.919670  1.0  -0.0033
  C  C262  1  0.226230  0.865170  0.780670  1.0  -0.2159
  C  C263  1  0.310330  0.869370  0.896970  1.0  -0.0847
  C  C264  1  0.318730  0.774970  0.805470  1.0  0.1421
  C  C265  1  0.425930  0.837070  0.754170  1.0  -0.0092
  C  C266  1  0.415330  0.882470  0.805970  1.0  -0.1626
  C  C267  1  0.176630  0.796670  0.013770  1.0  -0.1217
  C  C268  1  0.246130  0.743570  0.084170  1.0  0.1199
  C  C269  1  0.209930  0.645770  0.010470  1.0  0.0057
  C  C270  1  0.175930  0.679370  0.976470  1.0  -0.1363
  C  C271  1  0.818170  0.719670  0.199100  1.0  0.0501
  C  C272  1  0.850380  0.690980  0.253000  1.0  -0.0027
  C  C273  1  0.801500  0.694400  0.114000  1.0  -0.2188
  C  C274  1  0.797300  0.774300  0.230300  1.0  -0.0843
  C  C275  1  0.891700  0.877100  0.138800  1.0  0.1404
  C  C276  1  0.829600  0.922200  0.087500  1.0  -0.0096
  C  C277  1  0.784200  0.866200  0.139300  1.0  -0.1552
  C  C278  1  0.870000  0.713300  0.347100  1.0  -0.1241
  C  C279  1  0.923100  0.835900  0.417500  1.0  0.1187
  C  C280  1  0.020900  0.897500  0.343800  1.0  0.0093
  C  C281  1  0.987300  0.829900  0.309800  1.0  -0.1347
  C  C282  1  0.484840  0.053000  0.532430  1.0  0.0501
  C  C283  1  0.517050  0.024310  0.586330  1.0  -0.0029
  C  C284  1  0.468170  0.027730  0.447330  1.0  -0.22
  C  C285  1  0.463970  0.107630  0.563630  1.0  -0.0843
  C  C286  1  0.558370  0.210430  0.472130  1.0  0.1404
  C  C287  1  0.496270  0.255530  0.420830  1.0  -0.0096
  C  C288  1  0.450870  0.199530  0.472630  1.0  -0.1552
  C  C289  1  0.536670  0.046630  0.680430  1.0  -0.124
  C  C290  1  0.589770  0.169230  0.750830  1.0  0.1187
  C  C291  1  0.687570  0.230830  0.677130  1.0  0.0109
  C  C292  1  0.653970  0.163230  0.643130  1.0  -0.1347
  C  C293  1  0.151500  0.386340  0.865770  1.0  0.0501
  C  C294  1  0.183710  0.357650  0.919670  1.0  -0.0027
  C  C295  1  0.134830  0.361070  0.780670  1.0  -0.2191
  C  C296  1  0.130630  0.440970  0.896970  1.0  -0.0843
  C  C297  1  0.225030  0.543770  0.805470  1.0  0.1404
  C  C298  1  0.162930  0.588870  0.754170  1.0  -0.0097
  C  C299  1  0.117530  0.532870  0.805970  1.0  -0.1552
  C  C300  1  0.203330  0.379970  0.013770  1.0  -0.1241
  C  C301  1  0.256430  0.502570  0.084170  1.0  0.1187
  C  C302  1  0.354230  0.564170  0.010470  1.0  0.0109
  C  C303  1  0.320630  0.496570  0.976470  1.0  -0.1341
  C  C304  1  0.719670  0.901500  0.800900  1.0  0.0497
  C  C305  1  0.690980  0.840600  0.747000  1.0  -0.0058
  C  C306  1  0.694400  0.892900  0.886000  1.0  -0.2152
  C  C307  1  0.774300  0.977000  0.769700  1.0  -0.0836
  C  C308  1  0.877100  0.985400  0.861200  1.0  0.1424
  C  C309  1  0.922200  0.092600  0.912500  1.0  -0.0093
  C  C310  1  0.866200  0.082000  0.860700  1.0  -0.1551
  C  C311  1  0.713300  0.843300  0.652900  1.0  -0.1208
  C  C312  1  0.835900  0.912800  0.582500  1.0  0.1218
  C  C313  1  0.897500  0.876600  0.656200  1.0  0.0069
  C  C314  1  0.829900  0.842600  0.690200  1.0  -0.1326
  C  C315  1  0.386340  0.234830  0.134230  1.0  0.0497
  C  C316  1  0.357650  0.173930  0.080330  1.0  -0.0058
  C  C317  1  0.361070  0.226230  0.219330  1.0  -0.2151
  C  C318  1  0.440970  0.310330  0.103030  1.0  -0.0836
  C  C319  1  0.543770  0.318730  0.194530  1.0  0.1424
  C  C320  1  0.588870  0.425930  0.245830  1.0  -0.0092
  C  C321  1  0.532870  0.415330  0.194030  1.0  -0.1552
  C  C322  1  0.379970  0.176630  0.986230  1.0  -0.1208
  C  C323  1  0.502570  0.246130  0.915830  1.0  0.1218
  C  C324  1  0.564170  0.209930  0.989530  1.0  0.0069
  C  C325  1  0.496570  0.175930  0.023530  1.0  -0.1346
  C  C326  1  0.053000  0.568170  0.467570  1.0  0.0497
  C  C327  1  0.024310  0.507270  0.413670  1.0  -0.0058
  C  C328  1  0.027730  0.559570  0.552670  1.0  -0.2151
  C  C329  1  0.107630  0.643670  0.436370  1.0  -0.0836
  C  C330  1  0.210430  0.652070  0.527870  1.0  0.1424
  C  C331  1  0.255530  0.759270  0.579170  1.0  -0.0093
  C  C332  1  0.199530  0.748670  0.527370  1.0  -0.1551
  C  C333  1  0.046630  0.509970  0.319570  1.0  -0.1208
  C  C334  1  0.169230  0.579470  0.249170  1.0  0.1218
  C  C335  1  0.230830  0.543270  0.322870  1.0  0.0069
  C  C336  1  0.163230  0.509270  0.356870  1.0  -0.1325
  C  C337  1  0.098500  0.818170  0.800900  1.0  0.0484
  C  C338  1  0.159400  0.850380  0.747000  1.0  -0.0051
  C  C339  1  0.107100  0.801500  0.886000  1.0  -0.2189
  C  C340  1  0.023000  0.797300  0.769700  1.0  -0.083
  C  C341  1  0.014600  0.891700  0.861200  1.0  0.1412
  C  C342  1  0.907400  0.829600  0.912500  1.0  -0.009
  C  C343  1  0.918000  0.784200  0.860700  1.0  -0.1523
  C  C344  1  0.156700  0.870000  0.652900  1.0  -0.12
  C  C345  1  0.087200  0.923100  0.582500  1.0  0.1187
  C  C346  1  0.123400  0.020900  0.656200  1.0  0.0018
  C  C347  1  0.157400  0.987300  0.690200  1.0  -0.137
  C  C348  1  0.765170  0.151500  0.134230  1.0  0.0484
  C  C349  1  0.826070  0.183710  0.080330  1.0  -0.0051
  C  C350  1  0.773770  0.134830  0.219330  1.0  -0.2189
  C  C351  1  0.689670  0.130630  0.103030  1.0  -0.083
  C  C352  1  0.681270  0.225030  0.194530  1.0  0.1412
  C  C353  1  0.574070  0.162930  0.245830  1.0  -0.009
  C  C354  1  0.584670  0.117530  0.194030  1.0  -0.1523
  C  C355  1  0.823370  0.203330  0.986230  1.0  -0.12
  C  C356  1  0.753870  0.256430  0.915830  1.0  0.1188
  C  C357  1  0.790070  0.354230  0.989530  1.0  0.0063
  C  C358  1  0.824070  0.320630  0.023530  1.0  -0.137
  C  C359  1  0.431830  0.484840  0.467570  1.0  0.0484
  C  C360  1  0.492730  0.517050  0.413670  1.0  -0.0052
  C  C361  1  0.440430  0.468170  0.552670  1.0  -0.2178
  C  C362  1  0.356330  0.463970  0.436370  1.0  -0.0831
  C  C363  1  0.347930  0.558370  0.527870  1.0  0.1412
  C  C364  1  0.240730  0.496270  0.579170  1.0  -0.009
  C  C365  1  0.251330  0.450870  0.527370  1.0  -0.1523
  C  C366  1  0.490030  0.536670  0.319570  1.0  -0.12
  C  C367  1  0.420530  0.589770  0.249170  1.0  0.1188
  C  C368  1  0.456730  0.687570  0.322870  1.0  0.0063
  C  C369  1  0.490730  0.653970  0.356870  1.0  -0.137
  C  C370  1  0.181830  0.280330  0.800900  1.0  0.0491
  C  C371  1  0.149620  0.309020  0.747000  1.0  -0.0055
  C  C372  1  0.198500  0.305600  0.886000  1.0  -0.2159
  C  C373  1  0.202700  0.225700  0.769700  1.0  -0.081
  C  C374  1  0.108300  0.122900  0.861200  1.0  0.14
  C  C375  1  0.170400  0.077800  0.912500  1.0  -0.008
  C  C376  1  0.215800  0.133800  0.860700  1.0  -0.1576
  C  C377  1  0.130000  0.286700  0.652900  1.0  -0.1232
  C  C378  1  0.076900  0.164100  0.582500  1.0  0.1186
  C  C379  1  0.979100  0.102500  0.656200  1.0  0.0021
  C  C380  1  0.012700  0.170100  0.690200  1.0  -0.1358
  C  C381  1  0.848500  0.613660  0.134230  1.0  0.0491
  C  C382  1  0.816290  0.642350  0.080330  1.0  -0.0055
  C  C383  1  0.865170  0.638930  0.219330  1.0  -0.2159
  C  C384  1  0.869370  0.559030  0.103030  1.0  -0.081
  C  C385  1  0.774970  0.456230  0.194530  1.0  0.14
  C  C386  1  0.837070  0.411130  0.245830  1.0  -0.008
  C  C387  1  0.882470  0.467130  0.194030  1.0  -0.1576
  C  C388  1  0.796670  0.620030  0.986230  1.0  -0.1232
  C  C389  1  0.743570  0.497430  0.915830  1.0  0.1186
  C  C390  1  0.645770  0.435830  0.989530  1.0  0.0021
  C  C391  1  0.679370  0.503430  0.023530  1.0  -0.135
  C  C392  1  0.515160  0.947000  0.467570  1.0  0.0491
  C  C393  1  0.482950  0.975690  0.413670  1.0  -0.0055
  C  C394  1  0.531830  0.972270  0.552670  1.0  -0.2168
  C  C395  1  0.536030  0.892370  0.436370  1.0  -0.081
  C  C396  1  0.441630  0.789570  0.527870  1.0  0.14
  C  C397  1  0.503730  0.744470  0.579170  1.0  -0.008
  C  C398  1  0.549130  0.800470  0.527370  1.0  -0.1576
  C  C399  1  0.463330  0.953370  0.319570  1.0  -0.1232
  C  C400  1  0.410230  0.830770  0.249170  1.0  0.1186
  C  C401  1  0.312430  0.769170  0.322870  1.0  0.0021
  C  C402  1  0.346030  0.836770  0.356870  1.0  -0.1358
  N  N403  1  0.162920  0.986950  0.171300  1.0  0.0214
  N  N404  1  0.071170  0.968420  0.087500  1.0  -0.4337
  N  N405  1  0.209340  0.134120  0.356800  1.0  0.0084
  N  N406  1  0.098890  0.079100  0.411800  1.0  -0.3942
  N  N407  1  0.829590  0.320280  0.504630  1.0  0.0214
  N  N408  1  0.737840  0.301750  0.420830  1.0  -0.4329
  N  N409  1  0.876010  0.467450  0.690130  1.0  0.0084
  N  N410  1  0.765560  0.412430  0.745130  1.0  -0.3942
  N  N411  1  0.496250  0.653620  0.837970  1.0  0.0214
  N  N412  1  0.404500  0.635090  0.754170  1.0  -0.4327
  N  N413  1  0.542670  0.800790  0.023470  1.0  0.0084
  N  N414  1  0.432220  0.745770  0.078470  1.0  -0.3942
  N  N415  1  0.013050  0.175970  0.171300  1.0  0.021
  N  N416  1  0.031580  0.102750  0.087500  1.0  -0.4361
  N  N417  1  0.865880  0.075220  0.356800  1.0  0.01
  N  N418  1  0.920900  0.019790  0.411800  1.0  -0.3957
  N  N419  1  0.679720  0.509300  0.504630  1.0  0.021
  N  N420  1  0.698250  0.436080  0.420830  1.0  -0.436
  N  N421  1  0.532550  0.408550  0.690130  1.0  0.0099
  N  N422  1  0.587570  0.353120  0.745130  1.0  -0.3957
  N  N423  1  0.346380  0.842640  0.837970  1.0  0.021
  N  N424  1  0.364910  0.769420  0.754170  1.0  -0.4361
  N  N425  1  0.199210  0.741890  0.023470  1.0  0.01
  N  N426  1  0.254230  0.686460  0.078470  1.0  -0.3957
  N  N427  1  0.824030  0.837080  0.171300  1.0  0.0208
  N  N428  1  0.897250  0.928830  0.087500  1.0  -0.4318
  N  N429  1  0.924780  0.790660  0.356800  1.0  0.0095
  N  N430  1  0.980210  0.901110  0.411800  1.0  -0.3971
  N  N431  1  0.490700  0.170410  0.504630  1.0  0.0208
  N  N432  1  0.563920  0.262160  0.420830  1.0  -0.4316
  N  N433  1  0.591450  0.123990  0.690130  1.0  0.0095
  N  N434  1  0.646880  0.234440  0.745130  1.0  -0.3971
  N  N435  1  0.157360  0.503750  0.837970  1.0  0.0208
  N  N436  1  0.230580  0.595500  0.754170  1.0  -0.4318
  N  N437  1  0.258110  0.457330  0.023470  1.0  0.0095
  N  N438  1  0.313540  0.567780  0.078470  1.0  -0.3971
  N  N439  1  0.837080  0.013050  0.828700  1.0  0.0208
  N  N440  1  0.928830  0.031580  0.912500  1.0  -0.4339
  N  N441  1  0.790660  0.865880  0.643200  1.0  0.0087
  N  N442  1  0.901110  0.920900  0.588200  1.0  -0.3943
  N  N443  1  0.503750  0.346380  0.162030  1.0  0.0208
  N  N444  1  0.595500  0.364910  0.245830  1.0  -0.4338
  N  N445  1  0.457330  0.199210  0.976530  1.0  0.0087
  N  N446  1  0.567780  0.254230  0.921530  1.0  -0.3943
  N  N447  1  0.170410  0.679720  0.495370  1.0  0.0208
  N  N448  1  0.262160  0.698250  0.579170  1.0  -0.4339
  N  N449  1  0.123990  0.532550  0.309870  1.0  0.0087
  N  N450  1  0.234440  0.587570  0.254870  1.0  -0.3943
  N  N451  1  0.986950  0.824030  0.828700  1.0  0.021
  N  N452  1  0.968420  0.897250  0.912500  1.0  -0.4342
  N  N453  1  0.134120  0.924780  0.643200  1.0  0.0107
  N  N454  1  0.079100  0.980210  0.588200  1.0  -0.3944
  N  N455  1  0.653620  0.157360  0.162030  1.0  0.021
  N  N456  1  0.635090  0.230580  0.245830  1.0  -0.4344
  N  N457  1  0.800790  0.258110  0.976530  1.0  0.0107
  N  N458  1  0.745770  0.313540  0.921530  1.0  -0.3944
  N  N459  1  0.320280  0.490700  0.495370  1.0  0.021
  N  N460  1  0.301750  0.563920  0.579170  1.0  -0.4342
  N  N461  1  0.467450  0.591450  0.309870  1.0  0.0107
  N  N462  1  0.412430  0.646880  0.254870  1.0  -0.3944
  N  N463  1  0.175970  0.162920  0.828700  1.0  0.0212
  N  N464  1  0.102750  0.071170  0.912500  1.0  -0.4328
  N  N465  1  0.075220  0.209340  0.643200  1.0  0.0099
  N  N466  1  0.019790  0.098890  0.588200  1.0  -0.3978
  N  N467  1  0.842640  0.496250  0.162030  1.0  0.0212
  N  N468  1  0.769420  0.404500  0.245830  1.0  -0.4328
  N  N469  1  0.741890  0.542670  0.976530  1.0  0.0099
  N  N470  1  0.686460  0.432220  0.921530  1.0  -0.3978
  N  N471  1  0.509300  0.829590  0.495370  1.0  0.0212
  N  N472  1  0.436080  0.737840  0.579170  1.0  -0.4327
  N  N473  1  0.408550  0.876010  0.309870  1.0  0.0099
  N  N474  1  0.353120  0.765560  0.254870  1.0  -0.3978
