# generated using pymatgen
data_Zn3H12C22(N3O4)2
_symmetry_space_group_name_H-M   'P 1'
_cell_length_a   10.25200000
_cell_length_b   13.22800000
_cell_length_c   20.55300000
_cell_angle_alpha   90.00000000
_cell_angle_beta   90.00000000
_cell_angle_gamma   90.00000000
_symmetry_Int_Tables_number   1
_chemical_formula_structural   Zn3H12C22(N3O4)2
_chemical_formula_sum   'Zn12 H48 C88 N24 O32'
_cell_volume   2787.26336117
_cell_formula_units_Z   4
loop_
 _symmetry_equiv_pos_site_id
 _symmetry_equiv_pos_as_xyz
  1  'x, y, z'
loop_
 _atom_site_type_symbol
 _atom_site_label
 _atom_site_symmetry_multiplicity
 _atom_site_fract_x
 _atom_site_fract_y
 _atom_site_fract_z
 _atom_site_occupancy
 _atom_site_charge
  Zn  Zn1  1  0.437020  0.610670  0.293770  1.0  0.8574
  Zn  Zn2  1  0.062980  0.889330  0.293770  1.0  0.8563
  Zn  Zn3  1  0.562980  0.110670  0.206230  1.0  0.8553
  Zn  Zn4  1  0.937020  0.389330  0.206230  1.0  0.8553
  Zn  Zn5  1  0.562980  0.389330  0.706230  1.0  0.8548
  Zn  Zn6  1  0.937020  0.110670  0.706230  1.0  0.8558
  Zn  Zn7  1  0.437020  0.889330  0.793770  1.0  0.8568
  Zn  Zn8  1  0.062980  0.610670  0.793770  1.0  0.857
  Zn  Zn9  1  0.750000  0.750000  0.075460  1.0  1.0577
  Zn  Zn10  1  0.250000  0.250000  0.424540  1.0  1.0579
  Zn  Zn11  1  0.250000  0.250000  0.924540  1.0  1.0579
  Zn  Zn12  1  0.750000  0.750000  0.575460  1.0  1.0577
  H  H13  1  0.687200  0.440200  0.307500  1.0  0.0915
  H  H14  1  0.366300  0.683500  0.426100  1.0  0.0812
  H  H15  1  0.396300  0.819700  0.493400  1.0  0.1239
  H  H16  1  0.577100  0.959400  0.347500  1.0  0.1112
  H  H17  1  0.542000  0.819800  0.284500  1.0  0.0783
  H  H18  1  0.565900  0.047700  0.451300  1.0  0.1017
  H  H19  1  0.812800  0.059800  0.307500  1.0  0.0913
  H  H20  1  0.133700  0.816500  0.426100  1.0  0.0817
  H  H21  1  0.103700  0.680300  0.493400  1.0  0.1239
  H  H22  1  0.922900  0.540600  0.347500  1.0  0.1116
  H  H23  1  0.958000  0.680200  0.284500  1.0  0.0782
  H  H24  1  0.934100  0.452300  0.451300  1.0  0.1016
  H  H25  1  0.312800  0.940200  0.192500  1.0  0.0927
  H  H26  1  0.633700  0.183500  0.073900  1.0  0.0817
  H  H27  1  0.603700  0.319700  0.006600  1.0  0.1246
  H  H28  1  0.422900  0.459400  0.152500  1.0  0.1116
  H  H29  1  0.458000  0.319800  0.215500  1.0  0.0781
  H  H30  1  0.434100  0.547700  0.048700  1.0  0.1021
  H  H31  1  0.187200  0.559800  0.192500  1.0  0.0922
  H  H32  1  0.866300  0.316500  0.073900  1.0  0.0815
  H  H33  1  0.896300  0.180300  0.006600  1.0  0.1249
  H  H34  1  0.077100  0.040600  0.152500  1.0  0.1111
  H  H35  1  0.042000  0.180200  0.215500  1.0  0.0782
  H  H36  1  0.065900  0.952300  0.048700  1.0  0.1017
  H  H37  1  0.312800  0.559800  0.692500  1.0  0.0923
  H  H38  1  0.633700  0.316500  0.573900  1.0  0.0818
  H  H39  1  0.603700  0.180300  0.506600  1.0  0.1247
  H  H40  1  0.422900  0.040600  0.652500  1.0  0.1114
  H  H41  1  0.458000  0.180200  0.715500  1.0  0.078
  H  H42  1  0.434100  0.952300  0.548700  1.0  0.1019
  H  H43  1  0.187200  0.940200  0.692500  1.0  0.0927
  H  H44  1  0.866300  0.183500  0.573900  1.0  0.0811
  H  H45  1  0.896300  0.319700  0.506600  1.0  0.1249
  H  H46  1  0.077100  0.459400  0.652500  1.0  0.111
  H  H47  1  0.042000  0.319800  0.715500  1.0  0.0783
  H  H48  1  0.065900  0.547700  0.548700  1.0  0.1018
  H  H49  1  0.687200  0.059800  0.807500  1.0  0.0911
  H  H50  1  0.366300  0.816500  0.926100  1.0  0.0812
  H  H51  1  0.396300  0.680300  0.993400  1.0  0.124
  H  H52  1  0.577100  0.540600  0.847500  1.0  0.1114
  H  H53  1  0.542000  0.680200  0.784500  1.0  0.0783
  H  H54  1  0.565900  0.452300  0.951300  1.0  0.1014
  H  H55  1  0.812800  0.440200  0.807500  1.0  0.0916
  H  H56  1  0.133700  0.683500  0.926100  1.0  0.0818
  H  H57  1  0.103700  0.819700  0.993400  1.0  0.1239
  H  H58  1  0.922900  0.959400  0.847500  1.0  0.1119
  H  H59  1  0.958000  0.819800  0.784500  1.0  0.0781
  H  H60  1  0.934100  0.047700  0.951300  1.0  0.1021
  C  C61  1  0.689700  0.480400  0.270400  1.0  0.2856
  C  C62  1  0.641300  0.593600  0.199800  1.0  0.0432
  C  C63  1  0.746900  0.543600  0.177900  1.0  -0.0223
  C  C64  1  0.555000  0.674600  0.172000  1.0  0.6632
  C  C65  1  0.831900  0.544100  0.119700  1.0  0.6855
  C  C66  1  0.410500  0.739700  0.410200  1.0  0.1817
  C  C67  1  0.428400  0.821700  0.451100  1.0  -0.1951
  C  C68  1  0.493700  0.906300  0.429300  1.0  0.1227
  C  C69  1  0.534700  0.903700  0.365200  1.0  -0.234
  C  C70  1  0.513300  0.819500  0.327400  1.0  0.1818
  C  C71  1  0.519100  0.994700  0.469800  1.0  -0.1305
  C  C72  1  0.810300  0.019600  0.270400  1.0  0.2858
  C  C73  1  0.858700  0.906400  0.199800  1.0  0.0438
  C  C74  1  0.753100  0.956400  0.177900  1.0  -0.0236
  C  C75  1  0.945000  0.825400  0.172000  1.0  0.6645
  C  C76  1  0.668100  0.955900  0.119700  1.0  0.6872
  C  C77  1  0.089500  0.760300  0.410200  1.0  0.1816
  C  C78  1  0.071600  0.678300  0.451100  1.0  -0.1945
  C  C79  1  0.006300  0.593700  0.429300  1.0  0.1234
  C  C80  1  0.965300  0.596300  0.365200  1.0  -0.2337
  C  C81  1  0.986700  0.680500  0.327400  1.0  0.1819
  C  C82  1  0.980900  0.505300  0.469800  1.0  -0.1297
  C  C83  1  0.310300  0.980400  0.229600  1.0  0.2868
  C  C84  1  0.358700  0.093600  0.300200  1.0  0.043
  C  C85  1  0.253100  0.043600  0.322100  1.0  -0.0243
  C  C86  1  0.445000  0.174600  0.328000  1.0  0.6638
  C  C87  1  0.168100  0.044100  0.380300  1.0  0.6844
  C  C88  1  0.589500  0.239700  0.089800  1.0  0.1815
  C  C89  1  0.571600  0.321700  0.048900  1.0  -0.1948
  C  C90  1  0.506300  0.406300  0.070700  1.0  0.1223
  C  C91  1  0.465300  0.403700  0.134800  1.0  -0.2337
  C  C92  1  0.486700  0.319500  0.172600  1.0  0.1837
  C  C93  1  0.480900  0.494700  0.030200  1.0  -0.129
  C  C94  1  0.189700  0.519600  0.229600  1.0  0.2862
  C  C95  1  0.141300  0.406400  0.300200  1.0  0.0432
  C  C96  1  0.246900  0.456400  0.322100  1.0  -0.0233
  C  C97  1  0.055000  0.325400  0.328000  1.0  0.6655
  C  C98  1  0.331900  0.455900  0.380300  1.0  0.6865
  C  C99  1  0.910500  0.260300  0.089800  1.0  0.1826
  C  C100  1  0.928400  0.178300  0.048900  1.0  -0.1945
  C  C101  1  0.993700  0.093700  0.070700  1.0  0.1238
  C  C102  1  0.034700  0.096300  0.134800  1.0  -0.234
  C  C103  1  0.013300  0.180500  0.172600  1.0  0.1833
  C  C104  1  0.019100  0.005300  0.030200  1.0  -0.1297
  C  C105  1  0.310300  0.519600  0.729600  1.0  0.2865
  C  C106  1  0.358700  0.406400  0.800200  1.0  0.0433
  C  C107  1  0.253100  0.456400  0.822100  1.0  -0.0242
  C  C108  1  0.445000  0.325400  0.828000  1.0  0.6659
  C  C109  1  0.168100  0.455900  0.880300  1.0  0.6849
  C  C110  1  0.589500  0.260300  0.589800  1.0  0.1828
  C  C111  1  0.571600  0.178300  0.548900  1.0  -0.1949
  C  C112  1  0.506300  0.093700  0.570700  1.0  0.1228
  C  C113  1  0.465300  0.096300  0.634800  1.0  -0.2335
  C  C114  1  0.486700  0.180500  0.672600  1.0  0.1833
  C  C115  1  0.480900  0.005300  0.530200  1.0  -0.1301
  C  C116  1  0.189700  0.980400  0.729600  1.0  0.2866
  C  C117  1  0.141300  0.093600  0.800200  1.0  0.0429
  C  C118  1  0.246900  0.043600  0.822100  1.0  -0.0237
  C  C119  1  0.055000  0.174600  0.828000  1.0  0.6634
  C  C120  1  0.331900  0.044100  0.880300  1.0  0.6859
  C  C121  1  0.910500  0.239700  0.589800  1.0  0.1815
  C  C122  1  0.928400  0.321700  0.548900  1.0  -0.1942
  C  C123  1  0.993700  0.406300  0.570700  1.0  0.1234
  C  C124  1  0.034700  0.403700  0.634800  1.0  -0.2337
  C  C125  1  0.013300  0.319500  0.672600  1.0  0.1836
  C  C126  1  0.019100  0.494700  0.530200  1.0  -0.1309
  C  C127  1  0.689700  0.019600  0.770400  1.0  0.2853
  C  C128  1  0.641300  0.906400  0.699800  1.0  0.0437
  C  C129  1  0.746900  0.956400  0.677900  1.0  -0.0226
  C  C130  1  0.555000  0.825400  0.672000  1.0  0.6643
  C  C131  1  0.831900  0.955900  0.619700  1.0  0.6862
  C  C132  1  0.410500  0.760300  0.910200  1.0  0.1816
  C  C133  1  0.428400  0.678300  0.951100  1.0  -0.1945
  C  C134  1  0.493700  0.593700  0.929300  1.0  0.1234
  C  C135  1  0.534700  0.596300  0.865200  1.0  -0.2343
  C  C136  1  0.513300  0.680500  0.827400  1.0  0.1819
  C  C137  1  0.519100  0.505300  0.969800  1.0  -0.1307
  C  C138  1  0.810300  0.480400  0.770400  1.0  0.286
  C  C139  1  0.858700  0.593600  0.699800  1.0  0.0433
  C  C140  1  0.753100  0.543600  0.677900  1.0  -0.0231
  C  C141  1  0.945000  0.674600  0.672000  1.0  0.6636
  C  C142  1  0.668100  0.544100  0.619700  1.0  0.6868
  C  C143  1  0.089500  0.739700  0.910200  1.0  0.1816
  C  C144  1  0.071600  0.821700  0.951100  1.0  -0.1952
  C  C145  1  0.006300  0.906300  0.929300  1.0  0.1225
  C  C146  1  0.965300  0.903700  0.865200  1.0  -0.2337
  C  C147  1  0.986700  0.819500  0.827400  1.0  0.1816
  C  C148  1  0.980900  0.994700  0.969800  1.0  -0.1302
  N  N149  1  0.604600  0.554600  0.258700  1.0  -0.4361
  N  N150  1  0.776500  0.470000  0.224600  1.0  -0.3855
  N  N151  1  0.453200  0.737900  0.349900  1.0  -0.3273
  N  N152  1  0.895400  0.945400  0.258700  1.0  -0.4342
  N  N153  1  0.723500  0.030000  0.224600  1.0  -0.3886
  N  N154  1  0.046800  0.762100  0.349900  1.0  -0.3275
  N  N155  1  0.395400  0.054600  0.241300  1.0  -0.4329
  N  N156  1  0.223500  0.970000  0.275400  1.0  -0.3871
  N  N157  1  0.546800  0.237900  0.150100  1.0  -0.3269
  N  N158  1  0.104600  0.445400  0.241300  1.0  -0.435
  N  N159  1  0.276500  0.530000  0.275400  1.0  -0.387
  N  N160  1  0.953200  0.262100  0.150100  1.0  -0.3262
  N  N161  1  0.395400  0.445400  0.741300  1.0  -0.4337
  N  N162  1  0.223500  0.530000  0.775400  1.0  -0.3882
  N  N163  1  0.546800  0.262100  0.650100  1.0  -0.3274
  N  N164  1  0.104600  0.054600  0.741300  1.0  -0.4339
  N  N165  1  0.276500  0.970000  0.775400  1.0  -0.3854
  N  N166  1  0.953200  0.237900  0.650100  1.0  -0.3262
  N  N167  1  0.604600  0.945400  0.758700  1.0  -0.4362
  N  N168  1  0.776500  0.030000  0.724600  1.0  -0.3873
  N  N169  1  0.453200  0.762100  0.849900  1.0  -0.3269
  N  N170  1  0.895400  0.554600  0.758700  1.0  -0.4342
  N  N171  1  0.723500  0.470000  0.724600  1.0  -0.3874
  N  N172  1  0.046800  0.737900  0.849900  1.0  -0.3278
  O  O173  1  0.924300  0.480700  0.119900  1.0  -0.5798
  O  O174  1  0.806200  0.603000  0.072800  1.0  -0.6291
  O  O175  1  0.450700  0.689500  0.203500  1.0  -0.6129
  O  O176  1  0.583500  0.721900  0.122000  1.0  -0.5888
  O  O177  1  0.575700  0.019300  0.119900  1.0  -0.5788
  O  O178  1  0.693800  0.897000  0.072800  1.0  -0.6296
  O  O179  1  0.049300  0.810500  0.203500  1.0  -0.6112
  O  O180  1  0.916500  0.778100  0.122000  1.0  -0.5902
  O  O181  1  0.075700  0.980700  0.380100  1.0  -0.5788
  O  O182  1  0.193800  0.103000  0.427200  1.0  -0.6302
  O  O183  1  0.549300  0.189500  0.296500  1.0  -0.6121
  O  O184  1  0.416500  0.221900  0.378000  1.0  -0.5901
  O  O185  1  0.424300  0.519300  0.380100  1.0  -0.5791
  O  O186  1  0.306200  0.397000  0.427200  1.0  -0.6291
  O  O187  1  0.950700  0.310500  0.296500  1.0  -0.6125
  O  O188  1  0.083500  0.278100  0.378000  1.0  -0.59
  O  O189  1  0.075700  0.519300  0.880100  1.0  -0.5791
  O  O190  1  0.193800  0.397000  0.927200  1.0  -0.6302
  O  O191  1  0.549300  0.310500  0.796500  1.0  -0.6115
  O  O192  1  0.416500  0.278100  0.878000  1.0  -0.5902
  O  O193  1  0.424300  0.980700  0.880100  1.0  -0.5792
  O  O194  1  0.306200  0.103000  0.927200  1.0  -0.6293
  O  O195  1  0.950700  0.189500  0.796500  1.0  -0.6128
  O  O196  1  0.083500  0.221900  0.878000  1.0  -0.5901
  O  O197  1  0.924300  0.019300  0.619900  1.0  -0.5792
  O  O198  1  0.806200  0.897000  0.572800  1.0  -0.6288
  O  O199  1  0.450700  0.810500  0.703500  1.0  -0.613
  O  O200  1  0.583500  0.778100  0.622000  1.0  -0.5898
  O  O201  1  0.575700  0.480700  0.619900  1.0  -0.5792
  O  O202  1  0.693800  0.603000  0.572800  1.0  -0.6296
  O  O203  1  0.049300  0.689500  0.703500  1.0  -0.6115
  O  O204  1  0.916500  0.721900  0.622000  1.0  -0.5889
