# generated using pymatgen
data_NdH4C5O6
_symmetry_space_group_name_H-M   'P 1'
_cell_length_a   9.07220000
_cell_length_b   9.07220000
_cell_length_c   14.58200000
_cell_angle_alpha   79.91720000
_cell_angle_beta   79.91760000
_cell_angle_gamma   115.92600000
_symmetry_Int_Tables_number   1
_chemical_formula_structural   NdH4C5O6
_chemical_formula_sum   'Nd4 H16 C20 O24'
_cell_volume   1018.90738161
_cell_formula_units_Z   4
loop_
 _symmetry_equiv_pos_site_id
 _symmetry_equiv_pos_as_xyz
  1  'x, y, z'
loop_
 _atom_site_type_symbol
 _atom_site_label
 _atom_site_symmetry_multiplicity
 _atom_site_fract_x
 _atom_site_fract_y
 _atom_site_fract_z
 _atom_site_occupancy
 _atom_site_charge
  Nd  Nd1  1  0.490590  0.740590  0.018820  1.0  2.2508
  Nd  Nd2  1  0.259410  0.509410  0.481180  1.0  2.2552
  Nd  Nd3  1  0.509410  0.259410  0.981180  1.0  2.2552
  Nd  Nd4  1  0.740590  0.490590  0.518820  1.0  2.2508
  H  H5  1  0.907800  0.312400  0.029600  1.0  0.0659
  H  H6  1  0.836900  0.222700  0.141200  1.0  0.0921
  H  H7  1  0.062600  0.158000  0.029600  1.0  0.0671
  H  H8  1  0.021900  0.136100  0.141200  1.0  0.0917
  H  H9  1  0.687600  0.092200  0.470400  1.0  0.0651
  H  H10  1  0.777300  0.163100  0.358800  1.0  0.0922
  H  H11  1  0.842000  0.937400  0.470400  1.0  0.0665
  H  H12  1  0.863900  0.978100  0.358800  1.0  0.0919
  H  H13  1  0.092200  0.687600  0.970400  1.0  0.0661
  H  H14  1  0.163100  0.777300  0.858800  1.0  0.0921
  H  H15  1  0.937400  0.842000  0.970400  1.0  0.0671
  H  H16  1  0.978100  0.863900  0.858800  1.0  0.092
  H  H17  1  0.312400  0.907800  0.529600  1.0  0.0663
  H  H18  1  0.222700  0.836900  0.641200  1.0  0.092
  H  H19  1  0.158000  0.062600  0.529600  1.0  0.0666
  H  H20  1  0.136100  0.021900  0.641200  1.0  0.0919
  C  C21  1  0.744700  0.061500  0.062200  1.0  0.7506
  C  C22  1  0.882000  0.211200  0.079000  1.0  -0.2754
  C  C23  1  0.193100  0.376300  0.062200  1.0  0.7548
  C  C24  1  0.039000  0.209800  0.079000  1.0  -0.2799
  C  C25  1  0.938500  0.255300  0.437800  1.0  0.7503
  C  C26  1  0.788800  0.118000  0.421000  1.0  -0.2759
  C  C27  1  0.623700  0.806900  0.437800  1.0  0.7564
  C  C28  1  0.790200  0.961000  0.421000  1.0  -0.2749
  C  C29  1  0.255300  0.938500  0.937800  1.0  0.7482
  C  C30  1  0.118000  0.788800  0.921000  1.0  -0.2764
  C  C31  1  0.806900  0.623700  0.937800  1.0  0.7575
  C  C32  1  0.961000  0.790200  0.921000  1.0  -0.2764
  C  C33  1  0.061500  0.744700  0.562200  1.0  0.7494
  C  C34  1  0.211200  0.882000  0.579000  1.0  -0.2732
  C  C35  1  0.376300  0.193100  0.562200  1.0  0.757
  C  C36  1  0.209800  0.039000  0.579000  1.0  -0.2772
  C  C37  1  0.425400  0.574600  0.250000  1.0  0.5753
  C  C38  1  0.324600  0.675400  0.250000  1.0  0.5752
  C  C39  1  0.574600  0.425400  0.750000  1.0  0.5752
  C  C40  1  0.675400  0.324600  0.750000  1.0  0.5753
  O  O41  1  0.735710  0.919290  0.079000  1.0  -0.6222
  O  O42  1  0.634120  0.085840  0.032840  1.0  -0.7834
  O  O43  1  0.490230  0.567710  0.170260  1.0  -0.6458
  O  O44  1  0.185290  0.501710  0.079000  1.0  -0.6233
  O  O45  1  0.333040  0.381320  0.032840  1.0  -0.7823
  O  O46  1  0.339510  0.762030  0.170260  1.0  -0.6477
  O  O47  1  0.080710  0.264290  0.421000  1.0  -0.6248
  O  O48  1  0.914160  0.365880  0.467160  1.0  -0.7799
  O  O49  1  0.432290  0.509770  0.329740  1.0  -0.6465
  O  O50  1  0.498290  0.814710  0.421000  1.0  -0.6229
  O  O51  1  0.618680  0.666960  0.467160  1.0  -0.7806
  O  O52  1  0.237970  0.660490  0.329740  1.0  -0.6449
  O  O53  1  0.264290  0.080710  0.921000  1.0  -0.6212
  O  O54  1  0.365880  0.914160  0.967160  1.0  -0.7785
  O  O55  1  0.509770  0.432290  0.829740  1.0  -0.6461
  O  O56  1  0.814710  0.498290  0.921000  1.0  -0.6225
  O  O57  1  0.666960  0.618680  0.967160  1.0  -0.7823
  O  O58  1  0.660490  0.237970  0.829740  1.0  -0.6461
  O  O59  1  0.919290  0.735710  0.579000  1.0  -0.6231
  O  O60  1  0.085840  0.634120  0.532840  1.0  -0.7779
  O  O61  1  0.567710  0.490230  0.670260  1.0  -0.6461
  O  O62  1  0.501710  0.185290  0.579000  1.0  -0.6241
  O  O63  1  0.381320  0.333040  0.532840  1.0  -0.7766
  O  O64  1  0.762030  0.339510  0.670260  1.0  -0.6453
