# generated using pymatgen
data_CdH21C33N9O4
_symmetry_space_group_name_H-M   'P 1'
_cell_length_a   11.15970000
_cell_length_b   22.07500000
_cell_length_c   17.43400000
_cell_angle_alpha   90.00000000
_cell_angle_beta   99.42400000
_cell_angle_gamma   90.00000000
_symmetry_Int_Tables_number   1
_chemical_formula_structural   CdH21C33N9O4
_chemical_formula_sum   'Cd4 H84 C132 N36 O16'
_cell_volume   4236.90742739
_cell_formula_units_Z   4
loop_
 _symmetry_equiv_pos_site_id
 _symmetry_equiv_pos_as_xyz
  1  'x, y, z'
loop_
 _atom_site_type_symbol
 _atom_site_label
 _atom_site_symmetry_multiplicity
 _atom_site_fract_x
 _atom_site_fract_y
 _atom_site_fract_z
 _atom_site_occupancy
 _atom_site_charge
  Cd  Cd1  1  0.367630  0.442610  0.471280  1.0  0.9974
  Cd  Cd2  1  0.632370  0.942610  0.028720  1.0  0.9979
  Cd  Cd3  1  0.632370  0.557390  0.528720  1.0  0.9983
  Cd  Cd4  1  0.367630  0.057390  0.971280  1.0  0.9979
  H  H5  1  0.115900  0.418500  0.833500  1.0  0.3142
  H  H6  1  0.763100  0.406800  0.173600  1.0  0.3024
  H  H7  1  0.339800  0.500900  0.306500  1.0  0.0667
  H  H8  1  0.227200  0.401700  0.740900  1.0  0.1249
  H  H9  1  0.424500  0.513100  0.196700  1.0  0.1117
  H  H10  1  0.022900  0.525100  0.609900  1.0  0.1102
  H  H11  1  0.604200  0.395200  0.399100  1.0  0.0736
  H  H12  1  0.695400  0.403600  0.290200  1.0  0.117
  H  H13  1  0.147900  0.515000  0.518800  1.0  0.0661
  H  H14  1  0.101300  0.391600  0.948800  1.0  0.0734
  H  H15  1  0.787300  0.481100  0.935800  1.0  0.1005
  H  H16  1  0.343500  0.393700  0.643700  1.0  0.0765
  H  H17  1  0.934000  0.392200  0.127500  1.0  0.0679
  H  H18  1  0.159700  0.822800  0.267100  1.0  0.0969
  H  H19  1  0.433800  0.680600  0.342800  1.0  0.095
  H  H20  1  0.024000  0.890100  0.197400  1.0  0.0708
  H  H21  1  0.940100  0.684500  0.184400  1.0  0.0908
  H  H22  1  0.305200  0.743400  0.262000  1.0  0.1065
  H  H23  1  0.020400  0.648400  0.308500  1.0  0.0983
  H  H24  1  0.150300  0.585300  0.390300  1.0  0.0841
  H  H25  1  0.805400  0.752900  0.117800  1.0  0.104
  H  H26  1  0.884100  0.918500  0.666500  1.0  0.3136
  H  H27  1  0.236900  0.906800  0.326400  1.0  0.3028
  H  H28  1  0.660200  0.000900  0.193500  1.0  0.0668
  H  H29  1  0.772800  0.901700  0.759100  1.0  0.1253
  H  H30  1  0.575500  0.013100  0.303300  1.0  0.1121
  H  H31  1  0.977100  0.025100  0.890100  1.0  0.1099
  H  H32  1  0.395800  0.895200  0.100900  1.0  0.0734
  H  H33  1  0.304600  0.903600  0.209800  1.0  0.116
  H  H34  1  0.852100  0.015000  0.981200  1.0  0.0658
  H  H35  1  0.898700  0.891600  0.551200  1.0  0.0736
  H  H36  1  0.212700  0.981100  0.564200  1.0  0.0995
  H  H37  1  0.656500  0.893700  0.856300  1.0  0.0761
  H  H38  1  0.066000  0.892200  0.372500  1.0  0.0695
  H  H39  1  0.840300  0.322800  0.232900  1.0  0.0955
  H  H40  1  0.566200  0.180600  0.157200  1.0  0.0958
  H  H41  1  0.976000  0.390100  0.302600  1.0  0.0714
  H  H42  1  0.059900  0.184500  0.315600  1.0  0.0905
  H  H43  1  0.694800  0.243400  0.238000  1.0  0.1063
  H  H44  1  0.979600  0.148400  0.191500  1.0  0.0979
  H  H45  1  0.849700  0.085300  0.109700  1.0  0.0842
  H  H46  1  0.194600  0.252900  0.382200  1.0  0.1042
  H  H47  1  0.884100  0.581500  0.166500  1.0  0.314
  H  H48  1  0.236900  0.593200  0.826400  1.0  0.3022
  H  H49  1  0.660200  0.499100  0.693500  1.0  0.0669
  H  H50  1  0.772800  0.598300  0.259100  1.0  0.1244
  H  H51  1  0.575500  0.486900  0.803300  1.0  0.1122
  H  H52  1  0.977100  0.474900  0.390100  1.0  0.1105
  H  H53  1  0.395800  0.604800  0.600900  1.0  0.0743
  H  H54  1  0.304600  0.596400  0.709800  1.0  0.1167
  H  H55  1  0.852100  0.485000  0.481200  1.0  0.0661
  H  H56  1  0.898700  0.608400  0.051200  1.0  0.074
  H  H57  1  0.212700  0.518900  0.064200  1.0  0.0994
  H  H58  1  0.656500  0.606300  0.356300  1.0  0.0767
  H  H59  1  0.066000  0.607800  0.872500  1.0  0.0695
  H  H60  1  0.840300  0.177200  0.732900  1.0  0.0962
  H  H61  1  0.566200  0.319400  0.657200  1.0  0.0965
  H  H62  1  0.976000  0.109900  0.802600  1.0  0.0712
  H  H63  1  0.059900  0.315500  0.815600  1.0  0.0912
  H  H64  1  0.694800  0.256600  0.738000  1.0  0.1064
  H  H65  1  0.979600  0.351600  0.691500  1.0  0.098
  H  H66  1  0.849700  0.414700  0.609700  1.0  0.0838
  H  H67  1  0.194600  0.247100  0.882200  1.0  0.1043
  H  H68  1  0.115900  0.081500  0.333500  1.0  0.3138
  H  H69  1  0.763100  0.093200  0.673600  1.0  0.3021
  H  H70  1  0.339800  0.999100  0.806500  1.0  0.0669
  H  H71  1  0.227200  0.098300  0.240900  1.0  0.1243
  H  H72  1  0.424500  0.986900  0.696700  1.0  0.1116
  H  H73  1  0.022900  0.974900  0.109900  1.0  0.1098
  H  H74  1  0.604200  0.104800  0.899100  1.0  0.0732
  H  H75  1  0.695400  0.096400  0.790200  1.0  0.116
  H  H76  1  0.147900  0.985000  0.018800  1.0  0.0659
  H  H77  1  0.101300  0.108400  0.448800  1.0  0.0736
  H  H78  1  0.787300  0.018900  0.435800  1.0  0.1004
  H  H79  1  0.343500  0.106300  0.143700  1.0  0.0763
  H  H80  1  0.934000  0.107800  0.627500  1.0  0.0678
  H  H81  1  0.159700  0.677200  0.767100  1.0  0.0968
  H  H82  1  0.433800  0.819400  0.842800  1.0  0.0946
  H  H83  1  0.024000  0.609900  0.697400  1.0  0.0708
  H  H84  1  0.940100  0.815500  0.684400  1.0  0.0906
  H  H85  1  0.305200  0.756600  0.762000  1.0  0.1062
  H  H86  1  0.020400  0.851600  0.808500  1.0  0.0976
  H  H87  1  0.150300  0.914700  0.890300  1.0  0.0838
  H  H88  1  0.805400  0.747100  0.617800  1.0  0.104
  C  C89  1  0.571100  0.460000  0.231300  1.0  -0.0078
  C  C90  1  0.412500  0.481300  0.303100  1.0  0.175
  C  C91  1  0.628100  0.468200  0.161700  1.0  0.3713
  C  C92  1  0.111400  0.464900  0.686800  1.0  0.0217
  C  C93  1  0.209000  0.425000  0.696100  1.0  -0.2031
  C  C94  1  0.035600  0.469800  0.747800  1.0  0.3068
  C  C95  1  0.462700  0.488900  0.237100  1.0  -0.1275
  C  C96  1  0.947100  0.439200  0.928300  1.0  -0.049
  C  C97  1  0.088200  0.498400  0.618500  1.0  -0.1778
  C  C98  1  0.960500  0.458300  0.849500  1.0  0.3919
  C  C99  1  0.567600  0.419000  0.357800  1.0  0.1725
  C  C100  1  0.623400  0.424100  0.292600  1.0  -0.1635
  C  C101  1  0.163200  0.491700  0.563800  1.0  0.1694
  C  C102  1  0.844000  0.439400  0.038500  1.0  -0.0515
  C  C103  1  0.035700  0.403700  0.971800  1.0  0.1636
  C  C104  1  0.848800  0.457300  0.963000  1.0  0.0073
  C  C105  1  0.900300  0.829500  0.152500  1.0  -0.1226
  C  C106  1  0.746400  0.458900  0.080600  1.0  0.3087
  C  C107  1  0.278500  0.420600  0.637400  1.0  0.1636
  C  C108  1  0.387900  0.586200  0.432700  1.0  0.6606
  C  C109  1  0.937500  0.404000  0.076700  1.0  0.1767
  C  C110  1  0.148800  0.704000  0.279200  1.0  0.0228
  C  C111  1  0.810900  0.871500  0.109800  1.0  0.6781
  C  C112  1  0.088800  0.808500  0.237000  1.0  -0.1552
  C  C113  1  0.064300  0.746500  0.233200  1.0  0.026
  C  C114  1  0.350300  0.674300  0.336700  1.0  -0.0481
  C  C115  1  0.006200  0.848900  0.195600  1.0  -0.0447
  C  C116  1  0.957100  0.725800  0.187800  1.0  -0.1581
  C  C117  1  0.273200  0.712200  0.288400  1.0  -0.1412
  C  C118  1  0.305100  0.627000  0.376400  1.0  -0.1756
  C  C119  1  0.103600  0.655600  0.316300  1.0  -0.1269
  C  C120  1  0.181800  0.617400  0.365200  1.0  -0.0164
  C  C121  1  0.876500  0.766800  0.148000  1.0  -0.0645
  C  C122  1  0.428900  0.960000  0.268700  1.0  -0.0059
  C  C123  1  0.587500  0.981300  0.196900  1.0  0.1746
  C  C124  1  0.371900  0.968200  0.338300  1.0  0.3712
  C  C125  1  0.888600  0.964900  0.813200  1.0  0.0227
  C  C126  1  0.791000  0.925000  0.803900  1.0  -0.2025
  C  C127  1  0.964400  0.969800  0.752200  1.0  0.3089
  C  C128  1  0.537300  0.988900  0.262900  1.0  -0.1283
  C  C129  1  0.052900  0.939200  0.571700  1.0  -0.0477
  C  C130  1  0.911800  0.998400  0.881500  1.0  -0.1785
  C  C131  1  0.039500  0.958300  0.650500  1.0  0.3907
  C  C132  1  0.432400  0.919000  0.142200  1.0  0.1727
  C  C133  1  0.376600  0.924100  0.207400  1.0  -0.1619
  C  C134  1  0.836800  0.991700  0.936200  1.0  0.1705
  C  C135  1  0.156000  0.939400  0.461500  1.0  -0.0497
  C  C136  1  0.964300  0.903700  0.528200  1.0  0.1655
  C  C137  1  0.151200  0.957300  0.537000  1.0  0.0072
  C  C138  1  0.099700  0.329500  0.347500  1.0  -0.1232
  C  C139  1  0.253600  0.958900  0.419400  1.0  0.3033
  C  C140  1  0.721500  0.920600  0.862600  1.0  0.1648
  C  C141  1  0.612100  0.086200  0.067300  1.0  0.6594
  C  C142  1  0.062500  0.904000  0.423300  1.0  0.1766
  C  C143  1  0.851200  0.204000  0.220800  1.0  0.0217
  C  C144  1  0.189100  0.371500  0.390200  1.0  0.6794
  C  C145  1  0.911200  0.308500  0.263000  1.0  -0.1545
  C  C146  1  0.935700  0.246500  0.266800  1.0  0.0255
  C  C147  1  0.649700  0.174300  0.163300  1.0  -0.0487
  C  C148  1  0.993800  0.348900  0.304400  1.0  -0.0439
  C  C149  1  0.042900  0.225800  0.312200  1.0  -0.1599
  C  C150  1  0.726800  0.212200  0.211600  1.0  -0.1418
  C  C151  1  0.694900  0.127000  0.123600  1.0  -0.174
  C  C152  1  0.896400  0.155600  0.183700  1.0  -0.127
  C  C153  1  0.818200  0.117400  0.134800  1.0  -0.0162
  C  C154  1  0.123500  0.266800  0.352000  1.0  -0.0621
  C  C155  1  0.428900  0.540000  0.768700  1.0  -0.0057
  C  C156  1  0.587500  0.518700  0.696900  1.0  0.1746
  C  C157  1  0.371900  0.531800  0.838300  1.0  0.3713
  C  C158  1  0.888600  0.535100  0.313200  1.0  0.0229
  C  C159  1  0.791000  0.575000  0.303900  1.0  -0.2028
  C  C160  1  0.964400  0.530200  0.252200  1.0  0.3088
  C  C161  1  0.537300  0.511100  0.762900  1.0  -0.1289
  C  C162  1  0.052900  0.560800  0.071700  1.0  -0.0471
  C  C163  1  0.911800  0.501600  0.381500  1.0  -0.1785
  C  C164  1  0.039500  0.541700  0.150500  1.0  0.3906
  C  C165  1  0.432400  0.581000  0.642200  1.0  0.1737
  C  C166  1  0.376600  0.575900  0.707400  1.0  -0.1646
  C  C167  1  0.836800  0.508300  0.436200  1.0  0.1703
  C  C168  1  0.156000  0.560600  0.961500  1.0  -0.0502
  C  C169  1  0.964300  0.596300  0.028200  1.0  0.1645
  C  C170  1  0.151200  0.542700  0.037000  1.0  0.0066
  C  C171  1  0.099700  0.170500  0.847500  1.0  -0.123
  C  C172  1  0.253600  0.541100  0.919400  1.0  0.3053
  C  C173  1  0.721500  0.579400  0.362600  1.0  0.1633
  C  C174  1  0.612100  0.413800  0.567300  1.0  0.66
  C  C175  1  0.062500  0.596000  0.923300  1.0  0.1765
  C  C176  1  0.851200  0.296000  0.720800  1.0  0.0221
  C  C177  1  0.189100  0.128500  0.890200  1.0  0.6797
  C  C178  1  0.911200  0.191500  0.763000  1.0  -0.1544
  C  C179  1  0.935700  0.253500  0.766800  1.0  0.0255
  C  C180  1  0.649700  0.325700  0.663300  1.0  -0.0482
  C  C181  1  0.993800  0.151100  0.804400  1.0  -0.0433
  C  C182  1  0.042900  0.274200  0.812200  1.0  -0.1596
  C  C183  1  0.726800  0.287800  0.711600  1.0  -0.1413
  C  C184  1  0.694900  0.373000  0.623600  1.0  -0.1736
  C  C185  1  0.896400  0.344400  0.683700  1.0  -0.1279
  C  C186  1  0.818200  0.382600  0.634800  1.0  -0.016
  C  C187  1  0.123500  0.233200  0.852000  1.0  -0.0622
  C  C188  1  0.571100  0.040000  0.731300  1.0  -0.0078
  C  C189  1  0.412500  0.018700  0.803100  1.0  0.1749
  C  C190  1  0.628100  0.031800  0.661700  1.0  0.3711
  C  C191  1  0.111400  0.035100  0.186800  1.0  0.0219
  C  C192  1  0.209000  0.075000  0.196100  1.0  -0.2027
  C  C193  1  0.035600  0.030200  0.247800  1.0  0.3065
  C  C194  1  0.462700  0.011100  0.737100  1.0  -0.1275
  C  C195  1  0.947100  0.060800  0.428300  1.0  -0.0484
  C  C196  1  0.088200  0.001600  0.118500  1.0  -0.1773
  C  C197  1  0.960500  0.041700  0.349500  1.0  0.3918
  C  C198  1  0.567600  0.081000  0.857800  1.0  0.1738
  C  C199  1  0.623400  0.075900  0.792600  1.0  -0.1654
  C  C200  1  0.163200  0.008300  0.063800  1.0  0.1696
  C  C201  1  0.844000  0.060600  0.538500  1.0  -0.0508
  C  C202  1  0.035700  0.096300  0.471800  1.0  0.1636
  C  C203  1  0.848800  0.042700  0.463000  1.0  0.0071
  C  C204  1  0.900300  0.670500  0.652500  1.0  -0.1226
  C  C205  1  0.746400  0.041100  0.580600  1.0  0.309
  C  C206  1  0.278500  0.079400  0.137400  1.0  0.1644
  C  C207  1  0.387900  0.913800  0.932700  1.0  0.6608
  C  C208  1  0.937500  0.096000  0.576700  1.0  0.1763
  C  C209  1  0.148800  0.796000  0.779200  1.0  0.0229
  C  C210  1  0.810900  0.628500  0.609800  1.0  0.6792
  C  C211  1  0.088800  0.691500  0.737000  1.0  -0.1546
  C  C212  1  0.064300  0.753500  0.733200  1.0  0.026
  C  C213  1  0.350300  0.825700  0.836700  1.0  -0.0485
  C  C214  1  0.006200  0.651100  0.695600  1.0  -0.0444
  C  C215  1  0.957100  0.774200  0.687800  1.0  -0.1593
  C  C216  1  0.273200  0.787800  0.788400  1.0  -0.1414
  C  C217  1  0.305100  0.873000  0.876400  1.0  -0.175
  C  C218  1  0.103600  0.844400  0.816300  1.0  -0.1268
  C  C219  1  0.181800  0.882600  0.865200  1.0  -0.0161
  C  C220  1  0.876500  0.733200  0.648000  1.0  -0.0644
  N  N221  1  0.932200  0.502500  0.741100  1.0  -0.2513
  N  N222  1  0.056100  0.441800  0.815400  1.0  -0.2873
  N  N223  1  0.463600  0.446900  0.363300  1.0  -0.3402
  N  N224  1  0.725100  0.435600  0.146600  1.0  -0.2861
  N  N225  1  0.589800  0.510000  0.108500  1.0  -0.3606
  N  N226  1  0.256200  0.453500  0.572100  1.0  -0.3476
  N  N227  1  0.882300  0.495400  0.806700  1.0  -0.3882
  N  N228  1  0.666667  0.503300  0.056000  1.0  -0.2218
  N  N229  1  0.032700  0.385800  0.045000  1.0  -0.4259
  N  N230  1  0.067800  0.002500  0.758900  1.0  -0.2525
  N  N231  1  0.943900  0.941800  0.684600  1.0  -0.2867
  N  N232  1  0.536400  0.946900  0.136700  1.0  -0.3392
  N  N233  1  0.274900  0.935600  0.353400  1.0  -0.2874
  N  N234  1  0.410200  0.010000  0.391500  1.0  -0.3613
  N  N235  1  0.743800  0.953500  0.927900  1.0  -0.3468
  N  N236  1  0.117700  0.995400  0.693300  1.0  -0.3903
  N  N237  1  0.333400  0.003300  0.444000  1.0  -0.2247
  N  N238  1  0.967300  0.885800  0.455000  1.0  -0.4245
  N  N239  1  0.067800  0.497500  0.258900  1.0  -0.2508
  N  N240  1  0.943900  0.558200  0.184600  1.0  -0.2868
  N  N241  1  0.536400  0.553100  0.636700  1.0  -0.3384
  N  N242  1  0.274900  0.564400  0.853400  1.0  -0.288
  N  N243  1  0.410200  0.490000  0.891500  1.0  -0.3614
  N  N244  1  0.743800  0.546500  0.427900  1.0  -0.3476
  N  N245  1  0.117700  0.504600  0.193300  1.0  -0.3945
  N  N246  1  0.333400  0.496700  0.944000  1.0  -0.2235
  N  N247  1  0.967300  0.614200  0.955000  1.0  -0.4254
  N  N248  1  0.932200  0.997500  0.241100  1.0  -0.2482
  N  N249  1  0.056100  0.058200  0.315400  1.0  -0.2874
  N  N250  1  0.463600  0.053100  0.863300  1.0  -0.3396
  N  N251  1  0.725100  0.064400  0.646600  1.0  -0.2876
  N  N252  1  0.589800  0.990000  0.608500  1.0  -0.3617
  N  N253  1  0.256200  0.046500  0.072100  1.0  -0.3471
  N  N254  1  0.882300  0.004600  0.306700  1.0  -0.3947
  N  N255  1  0.666667  0.996700  0.556000  1.0  -0.2218
  N  N256  1  0.032700  0.114200  0.545000  1.0  -0.4296
  O  O257  1  0.346000  0.543500  0.460200  1.0  -0.6117
  O  O258  1  0.823000  0.928340  0.120100  1.0  -0.6305
  O  O259  1  0.497000  0.603900  0.444600  1.0  -0.6062
  O  O260  1  0.721400  0.849970  0.063700  1.0  -0.5716
  O  O261  1  0.654000  0.043500  0.039800  1.0  -0.6126
  O  O262  1  0.177000  0.428340  0.379900  1.0  -0.6295
  O  O263  1  0.503000  0.103900  0.055400  1.0  -0.6063
  O  O264  1  0.278600  0.349970  0.436300  1.0  -0.5736
  O  O265  1  0.654000  0.456500  0.539800  1.0  -0.6128
  O  O266  1  0.177000  0.071660  0.879900  1.0  -0.6293
  O  O267  1  0.503000  0.396100  0.555400  1.0  -0.607
  O  O268  1  0.278600  0.150030  0.936300  1.0  -0.5716
  O  O269  1  0.346000  0.956500  0.960200  1.0  -0.6115
  O  O270  1  0.823000  0.571660  0.620100  1.0  -0.6298
  O  O271  1  0.497000  0.896100  0.944600  1.0  -0.6068
  O  O272  1  0.721400  0.650030  0.563700  1.0  -0.5723
