# generated using pymatgen
data_ErAgH8C14(NO4)2
_symmetry_space_group_name_H-M   'P 1'
_cell_length_a   9.49900000
_cell_length_b   9.58540000
_cell_length_c   11.49450000
_cell_angle_alpha   101.90600000
_cell_angle_beta   95.74800000
_cell_angle_gamma   119.38700000
_symmetry_Int_Tables_number   1
_chemical_formula_structural   ErAgH8C14(NO4)2
_chemical_formula_sum   'Er2 Ag2 H16 C28 N4 O16'
_cell_volume   867.05503698
_cell_formula_units_Z   2
loop_
 _symmetry_equiv_pos_site_id
 _symmetry_equiv_pos_as_xyz
  1  'x, y, z'
loop_
 _atom_site_type_symbol
 _atom_site_label
 _atom_site_symmetry_multiplicity
 _atom_site_fract_x
 _atom_site_fract_y
 _atom_site_fract_z
 _atom_site_occupancy
 _atom_site_charge
  Er  Er1  1  0.731410  0.361220  0.494970  1.0  1.4202
  Er  Er2  1  0.268590  0.638780  0.505030  1.0  1.4243
  Ag  Ag3  1  0.510320  0.808040  0.177620  1.0  0.4141
  Ag  Ag4  1  0.489680  0.191960  0.822380  1.0  0.4157
  H  H5  1  0.175400  0.771800  0.203300  1.0  0.094
  H  H6  1  0.925500  0.702200  0.090000  1.0  0.1308
  H  H7  1  0.873500  0.621200  0.878800  1.0  0.1375
  H  H8  1  0.339700  0.725500  0.907600  1.0  0.1187
  H  H9  1  0.705800  0.694000  0.328600  1.0  0.1174
  H  H10  1  0.193700  0.020100  0.393000  1.0  0.1234
  H  H11  1  0.136200  0.159800  0.271400  1.0  0.1399
  H  H12  1  0.866600  0.061700  0.182500  1.0  0.0896
  H  H13  1  0.824600  0.228200  0.796700  1.0  0.0941
  H  H14  1  0.074500  0.297800  0.910000  1.0  0.1306
  H  H15  1  0.126500  0.378800  0.121200  1.0  0.1376
  H  H16  1  0.660300  0.274500  0.092400  1.0  0.1188
  H  H17  1  0.294200  0.306000  0.671400  1.0  0.1174
  H  H18  1  0.806300  0.979900  0.607000  1.0  0.1237
  H  H19  1  0.863800  0.840200  0.728600  1.0  0.145
  H  H20  1  0.133400  0.938300  0.817500  1.0  0.0897
  C  C21  1  0.158400  0.746900  0.118600  1.0  0.1993
  C  C22  1  0.006700  0.701900  0.051200  1.0  -0.143
  C  C23  1  0.976800  0.656500  0.926200  1.0  0.012
  C  C24  1  0.102800  0.664200  0.871300  1.0  -0.1184
  C  C25  1  0.254000  0.716800  0.944400  1.0  0.2017
  C  C26  1  0.077700  0.613600  0.734300  1.0  0.7561
  C  C27  1  0.793800  0.788300  0.316900  1.0  0.1846
  C  C28  1  0.955200  0.840800  0.372500  1.0  -0.1511
  C  C29  1  0.084500  0.981500  0.356000  1.0  0.0562
  C  C30  1  0.050400  0.064700  0.284000  1.0  -0.1568
  C  C31  1  0.888500  0.005100  0.231200  1.0  0.1926
  C  C32  1  0.983500  0.741900  0.447400  1.0  0.7118
  C  C33  1  0.486800  0.966700  0.430300  1.0  0.6171
  C  C34  1  0.535700  0.543000  0.569100  1.0  0.5617
  C  C35  1  0.841600  0.253100  0.881400  1.0  0.2002
  C  C36  1  0.993300  0.298100  0.948800  1.0  -0.1374
  C  C37  1  0.023200  0.343500  0.073800  1.0  0.0092
  C  C38  1  0.897200  0.335800  0.128700  1.0  -0.1197
  C  C39  1  0.746000  0.283200  0.055600  1.0  0.2021
  C  C40  1  0.922300  0.386400  0.265700  1.0  0.7558
  C  C41  1  0.206200  0.211700  0.683100  1.0  0.1768
  C  C42  1  0.044800  0.159200  0.627500  1.0  -0.1518
  C  C43  1  0.915500  0.018500  0.644000  1.0  0.0586
  C  C44  1  0.949600  0.935300  0.716000  1.0  -0.1582
  C  C45  1  0.111500  0.994900  0.768800  1.0  0.1922
  C  C46  1  0.016500  0.258100  0.552600  1.0  0.7016
  C  C47  1  0.513200  0.033300  0.569700  1.0  0.6182
  C  C48  1  0.464300  0.457000  0.430900  1.0  0.5618
  N  N49  1  0.282600  0.756500  0.068200  1.0  -0.2779
  N  N50  1  0.760800  0.870300  0.246100  1.0  -0.2936
  N  N51  1  0.717400  0.243500  0.931800  1.0  -0.2803
  N  N52  1  0.239200  0.129700  0.753900  1.0  -0.2922
  O  O53  1  0.414700  0.810600  0.385280  1.0  -0.634
  O  O54  1  0.205700  0.669300  0.693100  1.0  -0.6513
  O  O55  1  0.930500  0.517500  0.673500  1.0  -0.6534
  O  O56  1  0.131700  0.781000  0.482300  1.0  -0.7013
  O  O57  1  0.857600  0.624400  0.466200  1.0  -0.6877
  O  O58  1  0.495200  0.644800  0.617600  1.0  -0.6115
  O  O59  1  0.628800  0.507100  0.622450  1.0  -0.5969
  O  O60  1  0.540200  0.072600  0.373660  1.0  -0.5991
  O  O61  1  0.585300  0.189400  0.614720  1.0  -0.6347
  O  O62  1  0.794300  0.330700  0.306900  1.0  -0.6524
  O  O63  1  0.069500  0.482500  0.326500  1.0  -0.653
  O  O64  1  0.868300  0.219000  0.517700  1.0  -0.7025
  O  O65  1  0.142400  0.375600  0.533800  1.0  -0.6873
  O  O66  1  0.504800  0.355200  0.382400  1.0  -0.609
  O  O67  1  0.371200  0.492900  0.377550  1.0  -0.5979
  O  O68  1  0.459800  0.927400  0.626340  1.0  -0.5997
