# generated using pymatgen
data_CoH30(C7N)6
_symmetry_space_group_name_H-M   'P 1'
_cell_length_a   19.31840000
_cell_length_b   19.31840000
_cell_length_c   19.31840000
_cell_angle_alpha   90.00000000
_cell_angle_beta   90.00000000
_cell_angle_gamma   90.00000000
_symmetry_Int_Tables_number   1
_chemical_formula_structural   CoH30(C7N)6
_chemical_formula_sum   'Co4 H120 C168 N24'
_cell_volume   7209.63805685
_cell_formula_units_Z   4
loop_
 _symmetry_equiv_pos_site_id
 _symmetry_equiv_pos_as_xyz
  1  'x, y, z'
loop_
 _atom_site_type_symbol
 _atom_site_label
 _atom_site_symmetry_multiplicity
 _atom_site_fract_x
 _atom_site_fract_y
 _atom_site_fract_z
 _atom_site_occupancy
 _atom_site_charge
  Co  Co1  1  0.500000  0.500000  0.000000  1.0  0.6578
  Co  Co2  1  0.000000  0.000000  0.000000  1.0  0.6578
  Co  Co3  1  0.000000  0.500000  0.500000  1.0  0.6578
  Co  Co4  1  0.500000  0.000000  0.500000  1.0  0.6578
  H  H5  1  0.252700  0.562300  0.130800  1.0  0.0942
  H  H6  1  0.144500  0.559900  0.190500  1.0  0.1084
  H  H7  1  0.353600  0.507300  0.085100  1.0  0.0797
  H  H8  1  0.533900  0.572200  0.152400  1.0  0.081
  H  H9  1  0.447500  0.600700  0.242600  1.0  0.1058
  H  H10  1  0.247300  0.937700  0.130800  1.0  0.0948
  H  H11  1  0.355500  0.940100  0.190500  1.0  0.1088
  H  H12  1  0.146400  0.992700  0.085100  1.0  0.0805
  H  H13  1  0.966100  0.927800  0.152400  1.0  0.0837
  H  H14  1  0.052500  0.899300  0.242600  1.0  0.1065
  H  H15  1  0.247300  0.562300  0.369200  1.0  0.094
  H  H16  1  0.355500  0.559900  0.309500  1.0  0.1086
  H  H17  1  0.146400  0.507300  0.414900  1.0  0.0805
  H  H18  1  0.966100  0.572200  0.347600  1.0  0.0838
  H  H19  1  0.052500  0.600700  0.257400  1.0  0.1064
  H  H20  1  0.252700  0.937700  0.369200  1.0  0.0945
  H  H21  1  0.144500  0.940100  0.309500  1.0  0.1089
  H  H22  1  0.353600  0.992700  0.414900  1.0  0.08
  H  H23  1  0.533900  0.927800  0.347600  1.0  0.0827
  H  H24  1  0.447500  0.899300  0.257400  1.0  0.1068
  H  H25  1  0.130800  0.252700  0.562300  1.0  0.0945
  H  H26  1  0.190500  0.144500  0.559900  1.0  0.1082
  H  H27  1  0.085100  0.353600  0.507300  1.0  0.0798
  H  H28  1  0.152400  0.533900  0.572200  1.0  0.0832
  H  H29  1  0.242600  0.447500  0.600700  1.0  0.1063
  H  H30  1  0.130800  0.247300  0.937700  1.0  0.0937
  H  H31  1  0.190500  0.355500  0.940100  1.0  0.1088
  H  H32  1  0.085100  0.146400  0.992700  1.0  0.0794
  H  H33  1  0.152400  0.966100  0.927800  1.0  0.0839
  H  H34  1  0.242600  0.052500  0.899300  1.0  0.107
  H  H35  1  0.369200  0.247300  0.562300  1.0  0.0932
  H  H36  1  0.309500  0.355500  0.559900  1.0  0.1091
  H  H37  1  0.414900  0.146400  0.507300  1.0  0.0796
  H  H38  1  0.347600  0.966100  0.572200  1.0  0.0835
  H  H39  1  0.257400  0.052500  0.600700  1.0  0.107
  H  H40  1  0.369200  0.252700  0.937700  1.0  0.093
  H  H41  1  0.309500  0.144500  0.940100  1.0  0.1087
  H  H42  1  0.414900  0.353600  0.992700  1.0  0.0795
  H  H43  1  0.347600  0.533900  0.927800  1.0  0.083
  H  H44  1  0.257400  0.447500  0.899300  1.0  0.107
  H  H45  1  0.562300  0.130800  0.252700  1.0  0.0955
  H  H46  1  0.559900  0.190500  0.144500  1.0  0.1098
  H  H47  1  0.507300  0.085100  0.353600  1.0  0.0815
  H  H48  1  0.572200  0.152400  0.533900  1.0  0.0827
  H  H49  1  0.600700  0.242600  0.447500  1.0  0.1072
  H  H50  1  0.937700  0.130800  0.247300  1.0  0.0953
  H  H51  1  0.940100  0.190500  0.355500  1.0  0.11
  H  H52  1  0.992700  0.085100  0.146400  1.0  0.082
  H  H53  1  0.927800  0.152400  0.966100  1.0  0.0843
  H  H54  1  0.899300  0.242600  0.052500  1.0  0.1077
  H  H55  1  0.562300  0.369200  0.247300  1.0  0.0954
  H  H56  1  0.559900  0.309500  0.355500  1.0  0.1101
  H  H57  1  0.507300  0.414900  0.146400  1.0  0.0813
  H  H58  1  0.572200  0.347600  0.966100  1.0  0.0841
  H  H59  1  0.600700  0.257400  0.052500  1.0  0.1076
  H  H60  1  0.937700  0.369200  0.252700  1.0  0.0953
  H  H61  1  0.940100  0.309500  0.144500  1.0  0.1099
  H  H62  1  0.992700  0.414900  0.353600  1.0  0.0814
  H  H63  1  0.927800  0.347600  0.533900  1.0  0.0851
  H  H64  1  0.899300  0.257400  0.447500  1.0  0.1077
  H  H65  1  0.747300  0.437700  0.869200  1.0  0.0941
  H  H66  1  0.855500  0.440100  0.809500  1.0  0.1086
  H  H67  1  0.646400  0.492700  0.914900  1.0  0.0805
  H  H68  1  0.466100  0.427800  0.847600  1.0  0.0843
  H  H69  1  0.552500  0.399300  0.757400  1.0  0.1069
  H  H70  1  0.752700  0.062300  0.869200  1.0  0.094
  H  H71  1  0.644500  0.059900  0.809500  1.0  0.1086
  H  H72  1  0.853600  0.007300  0.914900  1.0  0.0799
  H  H73  1  0.033900  0.072200  0.847600  1.0  0.0825
  H  H74  1  0.947500  0.100700  0.757400  1.0  0.1065
  H  H75  1  0.752700  0.437700  0.630800  1.0  0.0942
  H  H76  1  0.644500  0.440100  0.690500  1.0  0.1087
  H  H77  1  0.853600  0.492700  0.585100  1.0  0.0803
  H  H78  1  0.033900  0.427800  0.652400  1.0  0.0809
  H  H79  1  0.947500  0.399300  0.742600  1.0  0.106
  H  H80  1  0.747300  0.062300  0.630800  1.0  0.0948
  H  H81  1  0.855500  0.059900  0.690500  1.0  0.1088
  H  H82  1  0.646400  0.007300  0.585100  1.0  0.0801
  H  H83  1  0.466100  0.072200  0.652400  1.0  0.0837
  H  H84  1  0.552500  0.100700  0.742600  1.0  0.106
  H  H85  1  0.869200  0.747300  0.437700  1.0  0.0934
  H  H86  1  0.809500  0.855500  0.440100  1.0  0.109
  H  H87  1  0.914900  0.646400  0.492700  1.0  0.0792
  H  H88  1  0.847600  0.466100  0.427800  1.0  0.0832
  H  H89  1  0.757400  0.552500  0.399300  1.0  0.1072
  H  H90  1  0.869200  0.752700  0.062300  1.0  0.0932
  H  H91  1  0.809500  0.644500  0.059900  1.0  0.1088
  H  H92  1  0.914900  0.853600  0.007300  1.0  0.08
  H  H93  1  0.847600  0.033900  0.072200  1.0  0.0832
  H  H94  1  0.757400  0.947500  0.100700  1.0  0.1066
  H  H95  1  0.630800  0.752700  0.437700  1.0  0.0941
  H  H96  1  0.690500  0.644500  0.440100  1.0  0.1082
  H  H97  1  0.585100  0.853600  0.492700  1.0  0.0793
  H  H98  1  0.652400  0.033900  0.427800  1.0  0.0839
  H  H99  1  0.742600  0.947500  0.399300  1.0  0.1072
  H  H100  1  0.630800  0.747300  0.062300  1.0  0.0937
  H  H101  1  0.690500  0.855500  0.059900  1.0  0.1089
  H  H102  1  0.585100  0.646400  0.007300  1.0  0.0799
  H  H103  1  0.652400  0.466100  0.072200  1.0  0.0831
  H  H104  1  0.742600  0.552500  0.100700  1.0  0.1063
  H  H105  1  0.437700  0.869200  0.747300  1.0  0.0952
  H  H106  1  0.440100  0.809500  0.855500  1.0  0.1102
  H  H107  1  0.492700  0.914900  0.646400  1.0  0.0818
  H  H108  1  0.427800  0.847600  0.466100  1.0  0.0855
  H  H109  1  0.399300  0.757400  0.552500  1.0  0.1071
  H  H110  1  0.062300  0.869200  0.752700  1.0  0.0955
  H  H111  1  0.059900  0.809500  0.644500  1.0  0.1099
  H  H112  1  0.007300  0.914900  0.853600  1.0  0.0809
  H  H113  1  0.072200  0.847600  0.033900  1.0  0.0833
  H  H114  1  0.100700  0.757400  0.947500  1.0  0.1074
  H  H115  1  0.437700  0.630800  0.752700  1.0  0.0954
  H  H116  1  0.440100  0.690500  0.644500  1.0  0.1097
  H  H117  1  0.492700  0.585100  0.853600  1.0  0.082
  H  H118  1  0.427800  0.652400  0.033900  1.0  0.0842
  H  H119  1  0.399300  0.742600  0.947500  1.0  0.1079
  H  H120  1  0.062300  0.630800  0.747300  1.0  0.0955
  H  H121  1  0.059900  0.690500  0.855500  1.0  0.1101
  H  H122  1  0.007300  0.585100  0.646400  1.0  0.0816
  H  H123  1  0.072200  0.652400  0.466100  1.0  0.0832
  H  H124  1  0.100700  0.742600  0.552500  1.0  0.1075
  C  C125  1  0.312400  0.558600  0.214900  1.0  0.0347
  C  C126  1  0.252000  0.560400  0.179900  1.0  -0.1606
  C  C127  1  0.186900  0.559700  0.215400  1.0  -0.1402
  C  C128  1  0.388400  0.527500  0.113400  1.0  0.0049
  C  C129  1  0.485800  0.562500  0.149300  1.0  0.0538
  C  C130  1  0.438500  0.578200  0.199800  1.0  -0.1476
  C  C131  1  0.377800  0.555700  0.177000  1.0  0.1136
  C  C132  1  0.187600  0.941400  0.214900  1.0  0.0338
  C  C133  1  0.248000  0.939600  0.179900  1.0  -0.16
  C  C134  1  0.313100  0.940300  0.215400  1.0  -0.1401
  C  C135  1  0.111600  0.972500  0.113400  1.0  0.0048
  C  C136  1  0.014200  0.937500  0.149300  1.0  0.0549
  C  C137  1  0.061500  0.921800  0.199800  1.0  -0.1488
  C  C138  1  0.122200  0.944300  0.177000  1.0  0.1145
  C  C139  1  0.187600  0.558600  0.285100  1.0  0.0332
  C  C140  1  0.248000  0.560400  0.320100  1.0  -0.1584
  C  C141  1  0.313100  0.559700  0.284600  1.0  -0.139
  C  C142  1  0.111600  0.527500  0.386600  1.0  0.0059
  C  C143  1  0.014200  0.562500  0.350700  1.0  0.0577
  C  C144  1  0.061500  0.578200  0.300200  1.0  -0.1504
  C  C145  1  0.122200  0.555700  0.323000  1.0  0.1156
  C  C146  1  0.312400  0.941400  0.285100  1.0  0.034
  C  C147  1  0.252000  0.939600  0.320100  1.0  -0.1604
  C  C148  1  0.186900  0.940300  0.284600  1.0  -0.1411
  C  C149  1  0.388400  0.972500  0.386600  1.0  0.0048
  C  C150  1  0.485800  0.937500  0.350700  1.0  0.0553
  C  C151  1  0.438500  0.921800  0.300200  1.0  -0.1498
  C  C152  1  0.377800  0.944300  0.323000  1.0  0.114
  C  C153  1  0.214900  0.312400  0.558600  1.0  0.0324
  C  C154  1  0.179900  0.252000  0.560400  1.0  -0.163
  C  C155  1  0.215400  0.186900  0.559700  1.0  -0.1409
  C  C156  1  0.113400  0.388400  0.527500  1.0  0.0063
  C  C157  1  0.149300  0.485800  0.562500  1.0  0.0516
  C  C158  1  0.199800  0.438500  0.578200  1.0  -0.1478
  C  C159  1  0.177000  0.377800  0.555700  1.0  0.1138
  C  C160  1  0.214900  0.187600  0.941400  1.0  0.0325
  C  C161  1  0.179900  0.248000  0.939600  1.0  -0.1631
  C  C162  1  0.215400  0.313100  0.940300  1.0  -0.1415
  C  C163  1  0.113400  0.111600  0.972500  1.0  0.0048
  C  C164  1  0.149300  0.014200  0.937500  1.0  0.0541
  C  C165  1  0.199800  0.061500  0.921800  1.0  -0.1485
  C  C166  1  0.177000  0.122200  0.944300  1.0  0.1132
  C  C167  1  0.285100  0.187600  0.558600  1.0  0.0324
  C  C168  1  0.320100  0.248000  0.560400  1.0  -0.1617
  C  C169  1  0.284600  0.313100  0.559700  1.0  -0.1417
  C  C170  1  0.386600  0.111600  0.527500  1.0  0.0063
  C  C171  1  0.350700  0.014200  0.562500  1.0  0.0523
  C  C172  1  0.300200  0.061500  0.578200  1.0  -0.1563
  C  C173  1  0.323000  0.122200  0.555700  1.0  0.1133
  C  C174  1  0.285100  0.312400  0.941400  1.0  0.0321
  C  C175  1  0.320100  0.252000  0.939600  1.0  -0.1631
  C  C176  1  0.284600  0.186900  0.940300  1.0  -0.1413
  C  C177  1  0.386600  0.388400  0.972500  1.0  0.0066
  C  C178  1  0.350700  0.485800  0.937500  1.0  0.0529
  C  C179  1  0.300200  0.438500  0.921800  1.0  -0.1568
  C  C180  1  0.323000  0.377800  0.944300  1.0  0.1131
  C  C181  1  0.558600  0.214900  0.312400  1.0  0.0339
  C  C182  1  0.560400  0.179900  0.252000  1.0  -0.1626
  C  C183  1  0.559700  0.215400  0.186900  1.0  -0.1421
  C  C184  1  0.527500  0.113400  0.388400  1.0  0.0072
  C  C185  1  0.562500  0.149300  0.485800  1.0  0.0588
  C  C186  1  0.578200  0.199800  0.438500  1.0  -0.1475
  C  C187  1  0.555700  0.177000  0.377800  1.0  0.1112
  C  C188  1  0.941400  0.214900  0.187600  1.0  0.0347
  C  C189  1  0.939600  0.179900  0.248000  1.0  -0.1638
  C  C190  1  0.940300  0.215400  0.313100  1.0  -0.142
  C  C191  1  0.972500  0.113400  0.111600  1.0  0.008
  C  C192  1  0.937500  0.149300  0.014200  1.0  0.0588
  C  C193  1  0.921800  0.199800  0.061500  1.0  -0.1508
  C  C194  1  0.944300  0.177000  0.122200  1.0  0.1118
  C  C195  1  0.558600  0.285100  0.187600  1.0  0.0336
  C  C196  1  0.560400  0.320100  0.248000  1.0  -0.1643
  C  C197  1  0.559700  0.284600  0.313100  1.0  -0.1425
  C  C198  1  0.527500  0.386600  0.111600  1.0  0.0066
  C  C199  1  0.562500  0.350700  0.014200  1.0  0.0594
  C  C200  1  0.578200  0.300200  0.061500  1.0  -0.1479
  C  C201  1  0.555700  0.323000  0.122200  1.0  0.1108
  C  C202  1  0.941400  0.285100  0.312400  1.0  0.0344
  C  C203  1  0.939600  0.320100  0.252000  1.0  -0.1645
  C  C204  1  0.940300  0.284600  0.186900  1.0  -0.1436
  C  C205  1  0.972500  0.386600  0.388400  1.0  0.0073
  C  C206  1  0.937500  0.350700  0.485800  1.0  0.0611
  C  C207  1  0.921800  0.300200  0.438500  1.0  -0.1519
  C  C208  1  0.944300  0.323000  0.377800  1.0  0.1111
  C  C209  1  0.687600  0.441400  0.785100  1.0  0.0338
  C  C210  1  0.748000  0.439600  0.820100  1.0  -0.1578
  C  C211  1  0.813100  0.440300  0.784600  1.0  -0.1392
  C  C212  1  0.611600  0.472500  0.886600  1.0  0.0052
  C  C213  1  0.514200  0.437500  0.850700  1.0  0.0573
  C  C214  1  0.561500  0.421800  0.800200  1.0  -0.1466
  C  C215  1  0.622200  0.444300  0.823000  1.0  0.1154
  C  C216  1  0.812400  0.058600  0.785100  1.0  0.0347
  C  C217  1  0.752000  0.060400  0.820100  1.0  -0.1592
  C  C218  1  0.686900  0.059700  0.784600  1.0  -0.1408
  C  C219  1  0.888400  0.027500  0.886600  1.0  0.0054
  C  C220  1  0.985800  0.062500  0.850700  1.0  0.0564
  C  C221  1  0.938500  0.078200  0.800200  1.0  -0.1463
  C  C222  1  0.877800  0.055700  0.823000  1.0  0.1142
  C  C223  1  0.812400  0.441400  0.714900  1.0  0.034
  C  C224  1  0.752000  0.439600  0.679900  1.0  -0.162
  C  C225  1  0.686900  0.440300  0.715400  1.0  -0.1403
  C  C226  1  0.888400  0.472500  0.613400  1.0  0.0045
  C  C227  1  0.985800  0.437500  0.649300  1.0  0.0541
  C  C228  1  0.938500  0.421800  0.699800  1.0  -0.151
  C  C229  1  0.877800  0.444300  0.677000  1.0  0.1132
  C  C230  1  0.687600  0.058600  0.714900  1.0  0.0332
  C  C231  1  0.748000  0.060400  0.679900  1.0  -0.1606
  C  C232  1  0.813100  0.059700  0.715400  1.0  -0.1399
  C  C233  1  0.611600  0.027500  0.613400  1.0  0.0055
  C  C234  1  0.514200  0.062500  0.649300  1.0  0.0543
  C  C235  1  0.561500  0.078200  0.699800  1.0  -0.1531
  C  C236  1  0.622200  0.055700  0.677000  1.0  0.1147
  C  C237  1  0.785100  0.687600  0.441400  1.0  0.033
  C  C238  1  0.820100  0.748000  0.439600  1.0  -0.1606
  C  C239  1  0.784600  0.813100  0.440300  1.0  -0.142
  C  C240  1  0.886600  0.611600  0.472500  1.0  0.0052
  C  C241  1  0.850700  0.514200  0.437500  1.0  0.0532
  C  C242  1  0.800200  0.561500  0.421800  1.0  -0.1532
  C  C243  1  0.823000  0.622200  0.444300  1.0  0.1133
  C  C244  1  0.785100  0.812400  0.058600  1.0  0.0328
  C  C245  1  0.820100  0.752000  0.060400  1.0  -0.162
  C  C246  1  0.784600  0.686900  0.059700  1.0  -0.141
  C  C247  1  0.886600  0.888400  0.027500  1.0  0.0067
  C  C248  1  0.850700  0.985800  0.062500  1.0  0.0509
  C  C249  1  0.800200  0.938500  0.078200  1.0  -0.1544
  C  C250  1  0.823000  0.877800  0.055700  1.0  0.1133
  C  C251  1  0.714900  0.812400  0.441400  1.0  0.0318
  C  C252  1  0.679900  0.752000  0.439600  1.0  -0.1643
  C  C253  1  0.715400  0.686900  0.440300  1.0  -0.1411
  C  C254  1  0.613400  0.888400  0.472500  1.0  0.0064
  C  C255  1  0.649300  0.985800  0.437500  1.0  0.0537
  C  C256  1  0.699800  0.938500  0.421800  1.0  -0.1519
  C  C257  1  0.677000  0.877800  0.444300  1.0  0.1134
  C  C258  1  0.714900  0.687600  0.058600  1.0  0.0318
  C  C259  1  0.679900  0.748000  0.060400  1.0  -0.164
  C  C260  1  0.715400  0.813100  0.059700  1.0  -0.1415
  C  C261  1  0.613400  0.611600  0.027500  1.0  0.0059
  C  C262  1  0.649300  0.514200  0.062500  1.0  0.0535
  C  C263  1  0.699800  0.561500  0.078200  1.0  -0.1507
  C  C264  1  0.677000  0.622200  0.055700  1.0  0.1134
  C  C265  1  0.441400  0.785100  0.687600  1.0  0.035
  C  C266  1  0.439600  0.820100  0.748000  1.0  -0.1636
  C  C267  1  0.440300  0.784600  0.813100  1.0  -0.1424
  C  C268  1  0.472500  0.886600  0.611600  1.0  0.0079
  C  C269  1  0.437500  0.850700  0.514200  1.0  0.06
  C  C270  1  0.421800  0.800200  0.561500  1.0  -0.1487
  C  C271  1  0.444300  0.823000  0.622200  1.0  0.1116
  C  C272  1  0.058600  0.785100  0.812400  1.0  0.0344
  C  C273  1  0.060400  0.820100  0.752000  1.0  -0.1633
  C  C274  1  0.059700  0.784600  0.686900  1.0  -0.1436
  C  C275  1  0.027500  0.886600  0.888400  1.0  0.0069
  C  C276  1  0.062500  0.850700  0.985800  1.0  0.0611
  C  C277  1  0.078200  0.800200  0.938500  1.0  -0.1456
  C  C278  1  0.055700  0.823000  0.877800  1.0  0.1106
  C  C279  1  0.441400  0.714900  0.812400  1.0  0.0339
  C  C280  1  0.439600  0.679900  0.752000  1.0  -0.1638
  C  C281  1  0.440300  0.715400  0.686900  1.0  -0.142
  C  C282  1  0.472500  0.613400  0.888400  1.0  0.0074
  C  C283  1  0.437500  0.649300  0.985800  1.0  0.0587
  C  C284  1  0.421800  0.699800  0.938500  1.0  -0.1541
  C  C285  1  0.444300  0.677000  0.877800  1.0  0.1117
  C  C286  1  0.058600  0.714900  0.687600  1.0  0.0333
  C  C287  1  0.060400  0.679900  0.748000  1.0  -0.1648
  C  C288  1  0.059700  0.715400  0.813100  1.0  -0.1421
  C  C289  1  0.027500  0.613400  0.611600  1.0  0.0067
  C  C290  1  0.062500  0.649300  0.514200  1.0  0.0584
  C  C291  1  0.078200  0.699800  0.561500  1.0  -0.1503
  C  C292  1  0.055700  0.677000  0.622200  1.0  0.1112
  N  N293  1  0.456360  0.532800  0.096500  1.0  -0.3391
  N  N294  1  0.043640  0.967200  0.096500  1.0  -0.3392
  N  N295  1  0.043640  0.532800  0.403500  1.0  -0.3401
  N  N296  1  0.456360  0.967200  0.403500  1.0  -0.3383
  N  N297  1  0.096500  0.456360  0.532800  1.0  -0.3376
  N  N298  1  0.096500  0.043640  0.967200  1.0  -0.3392
  N  N299  1  0.403500  0.043640  0.532800  1.0  -0.338
  N  N300  1  0.403500  0.456360  0.967200  1.0  -0.3377
  N  N301  1  0.532800  0.096500  0.456360  1.0  -0.3385
  N  N302  1  0.967200  0.096500  0.043640  1.0  -0.3379
  N  N303  1  0.532800  0.403500  0.043640  1.0  -0.3384
  N  N304  1  0.967200  0.403500  0.456360  1.0  -0.3392
  N  N305  1  0.543640  0.467200  0.903500  1.0  -0.3389
  N  N306  1  0.956360  0.032800  0.903500  1.0  -0.3391
  N  N307  1  0.956360  0.467200  0.596500  1.0  -0.3387
  N  N308  1  0.543640  0.032800  0.596500  1.0  -0.3398
  N  N309  1  0.903500  0.543640  0.467200  1.0  -0.3384
  N  N310  1  0.903500  0.956360  0.032800  1.0  -0.3376
  N  N311  1  0.596500  0.956360  0.467200  1.0  -0.3379
  N  N312  1  0.596500  0.543640  0.032800  1.0  -0.3387
  N  N313  1  0.467200  0.903500  0.543640  1.0  -0.3388
  N  N314  1  0.032800  0.903500  0.956360  1.0  -0.3388
  N  N315  1  0.467200  0.596500  0.956360  1.0  -0.3381
  N  N316  1  0.032800  0.596500  0.543640  1.0  -0.3382
