# generated using pymatgen
data_MnPO4
_symmetry_space_group_name_H-M   'P 1'
_cell_length_a   14.95800000
_cell_length_b   14.95800000
_cell_length_c   9.05000000
_cell_angle_alpha   90.00000000
_cell_angle_beta   90.00000000
_cell_angle_gamma   90.00000000
_symmetry_Int_Tables_number   1
_chemical_formula_structural   MnPO4
_chemical_formula_sum   'Mn16 P16 O64'
_cell_volume   2024.86296420
_cell_formula_units_Z   16
loop_
 _symmetry_equiv_pos_site_id
 _symmetry_equiv_pos_as_xyz
  1  'x, y, z'
loop_
 _atom_site_type_symbol
 _atom_site_label
 _atom_site_symmetry_multiplicity
 _atom_site_fract_x
 _atom_site_fract_y
 _atom_site_fract_z
 _atom_site_occupancy
 _atom_site_charge
  Mn  Mn1  1  0.505890  0.368230  0.573690  1.0  1.102
  Mn  Mn2  1  0.628360  0.006180  0.377620  1.0  1.1132
  Mn  Mn3  1  0.985460  0.123890  0.555070  1.0  1.034
  Mn  Mn4  1  0.127510  0.513700  0.381960  1.0  1.0852
  Mn  Mn5  1  0.494110  0.631770  0.573690  1.0  1.1015
  Mn  Mn6  1  0.371640  0.993820  0.377620  1.0  1.1136
  Mn  Mn7  1  0.014540  0.876110  0.555070  1.0  1.035
  Mn  Mn8  1  0.872490  0.486300  0.381960  1.0  1.0852
  Mn  Mn9  1  0.631770  0.505890  0.073690  1.0  1.1015
  Mn  Mn10  1  0.993820  0.628360  0.877620  1.0  1.1135
  Mn  Mn11  1  0.876110  0.985460  0.055070  1.0  1.0323
  Mn  Mn12  1  0.486300  0.127510  0.881960  1.0  1.086
  Mn  Mn13  1  0.368230  0.494110  0.073690  1.0  1.1008
  Mn  Mn14  1  0.006180  0.371640  0.877620  1.0  1.1136
  Mn  Mn15  1  0.123890  0.014540  0.055070  1.0  1.0321
  Mn  Mn16  1  0.513700  0.872490  0.881960  1.0  1.0866
  P  P17  1  0.346180  0.485750  0.436520  1.0  1.8232
  P  P18  1  0.495040  0.150230  0.518180  1.0  1.7836
  P  P19  1  0.847890  0.997930  0.419570  1.0  1.8328
  P  P20  1  0.655140  0.011710  0.011610  1.0  1.781
  P  P21  1  0.653820  0.514250  0.436520  1.0  1.8394
  P  P22  1  0.504960  0.849770  0.518180  1.0  1.7845
  P  P23  1  0.152110  0.002070  0.419570  1.0  1.8195
  P  P24  1  0.344860  0.988290  0.011610  1.0  1.7918
  P  P25  1  0.514250  0.346180  0.936520  1.0  1.8127
  P  P26  1  0.849770  0.495040  0.018180  1.0  1.7828
  P  P27  1  0.002070  0.847890  0.919570  1.0  1.8359
  P  P28  1  0.988290  0.655140  0.511610  1.0  1.7967
  P  P29  1  0.485750  0.653820  0.936520  1.0  1.8232
  P  P30  1  0.150230  0.504960  0.018180  1.0  1.7832
  P  P31  1  0.997930  0.152110  0.919570  1.0  1.8338
  P  P32  1  0.011710  0.344860  0.511610  1.0  1.7855
  O  O33  1  0.380500  0.414100  0.544800  1.0  -0.6836
  O  O34  1  0.400700  0.570600  0.451200  1.0  -0.7438
  O  O35  1  0.352600  0.447100  0.282100  1.0  -0.7311
  O  O36  1  0.249400  0.506200  0.477500  1.0  -0.6941
  O  O37  1  0.509600  0.246900  0.466700  1.0  -0.6763
  O  O38  1  0.585800  0.103700  0.518800  1.0  -0.6917
  O  O39  1  0.451000  0.147400  0.669800  1.0  -0.7603
  O  O40  1  0.433800  0.110600  0.400700  1.0  -0.709
  O  O41  1  0.750700  0.990400  0.471400  1.0  -0.7032
  O  O42  1  0.874400  0.096800  0.419100  1.0  -0.6723
  O  O43  1  0.858800  0.952700  0.270000  1.0  -0.7593
  O  O44  1  0.904300  0.951700  0.537400  1.0  -0.7924
  O  O45  1  0.642400  0.048000  0.167300  1.0  -0.7809
  O  O46  1  0.605800  0.069800  0.901600  1.0  -0.7472
  O  O47  1  0.753700  0.018800  0.964400  1.0  -0.7116
  O  O48  1  0.624600  0.914800  0.997400  1.0  -0.7131
  O  O49  1  0.619500  0.585900  0.544800  1.0  -0.6824
  O  O50  1  0.599300  0.429400  0.451200  1.0  -0.7423
  O  O51  1  0.647400  0.552900  0.282100  1.0  -0.7304
  O  O52  1  0.750600  0.493800  0.477500  1.0  -0.6925
  O  O53  1  0.490400  0.753100  0.466700  1.0  -0.6763
  O  O54  1  0.414200  0.896300  0.518800  1.0  -0.6913
  O  O55  1  0.549000  0.852600  0.669800  1.0  -0.7591
  O  O56  1  0.566200  0.889400  0.400700  1.0  -0.7083
  O  O57  1  0.249300  0.009600  0.471400  1.0  -0.7018
  O  O58  1  0.125600  0.903200  0.419100  1.0  -0.6714
  O  O59  1  0.141200  0.047300  0.270000  1.0  -0.7582
  O  O60  1  0.095700  0.048300  0.537400  1.0  -0.7935
  O  O61  1  0.357600  0.952000  0.167300  1.0  -0.781
  O  O62  1  0.394200  0.930200  0.901600  1.0  -0.747
  O  O63  1  0.246300  0.981200  0.964400  1.0  -0.7134
  O  O64  1  0.375400  0.085200  0.997400  1.0  -0.7135
  O  O65  1  0.585900  0.380500  0.044800  1.0  -0.6819
  O  O66  1  0.429400  0.400700  0.951200  1.0  -0.7413
  O  O67  1  0.552900  0.352600  0.782100  1.0  -0.7281
  O  O68  1  0.493800  0.249400  0.977500  1.0  -0.6945
  O  O69  1  0.753100  0.509600  0.966700  1.0  -0.6738
  O  O70  1  0.896300  0.585800  0.018800  1.0  -0.6949
  O  O71  1  0.852600  0.451000  0.169800  1.0  -0.7631
  O  O72  1  0.889400  0.433800  0.900700  1.0  -0.7122
  O  O73  1  0.009600  0.750700  0.971400  1.0  -0.704
  O  O74  1  0.903200  0.874400  0.919100  1.0  -0.6693
  O  O75  1  0.047300  0.858800  0.770000  1.0  -0.7558
  O  O76  1  0.048300  0.904300  0.037400  1.0  -0.7897
  O  O77  1  0.952000  0.642400  0.667300  1.0  -0.7782
  O  O78  1  0.930200  0.605800  0.401600  1.0  -0.7454
  O  O79  1  0.981200  0.753700  0.464400  1.0  -0.713
  O  O80  1  0.085200  0.624600  0.497400  1.0  -0.7116
  O  O81  1  0.414100  0.619500  0.044800  1.0  -0.6815
  O  O82  1  0.570600  0.599300  0.951200  1.0  -0.7411
  O  O83  1  0.447100  0.647400  0.782100  1.0  -0.7282
  O  O84  1  0.506200  0.750600  0.977500  1.0  -0.6952
  O  O85  1  0.246900  0.490400  0.966700  1.0  -0.6734
  O  O86  1  0.103700  0.414200  0.018800  1.0  -0.6953
  O  O87  1  0.147400  0.549000  0.169800  1.0  -0.7624
  O  O88  1  0.110600  0.566200  0.900700  1.0  -0.7105
  O  O89  1  0.990400  0.249300  0.971400  1.0  -0.7037
  O  O90  1  0.096800  0.125600  0.919100  1.0  -0.6722
  O  O91  1  0.952700  0.141200  0.770000  1.0  -0.7572
  O  O92  1  0.951700  0.095700  0.037400  1.0  -0.791
  O  O93  1  0.048000  0.357600  0.667300  1.0  -0.7781
  O  O94  1  0.069800  0.394200  0.401600  1.0  -0.7431
  O  O95  1  0.018800  0.246300  0.464400  1.0  -0.7134
  O  O96  1  0.914800  0.375400  0.497400  1.0  -0.7099
