# generated using pymatgen
data_AgH4(C2N3)2
_symmetry_space_group_name_H-M   'P 1'
_cell_length_a   9.15300000
_cell_length_b   17.89500000
_cell_length_c   10.66800000
_cell_angle_alpha   90.00000000
_cell_angle_beta   96.39500000
_cell_angle_gamma   90.00000000
_symmetry_Int_Tables_number   1
_chemical_formula_structural   AgH4(C2N3)2
_chemical_formula_sum   'Ag8 H32 C32 N48'
_cell_volume   1736.47043823
_cell_formula_units_Z   8
loop_
 _symmetry_equiv_pos_site_id
 _symmetry_equiv_pos_as_xyz
  1  'x, y, z'
loop_
 _atom_site_type_symbol
 _atom_site_label
 _atom_site_symmetry_multiplicity
 _atom_site_fract_x
 _atom_site_fract_y
 _atom_site_fract_z
 _atom_site_occupancy
 _atom_site_charge
  Ag  Ag1  1  0.630750  0.409790  0.974810  1.0  0.38
  Ag  Ag2  1  0.952350  0.450990  0.826490  1.0  0.3306
  Ag  Ag3  1  0.869250  0.909790  0.525190  1.0  0.3785
  Ag  Ag4  1  0.547650  0.950990  0.673510  1.0  0.3312
  Ag  Ag5  1  0.369250  0.590210  0.025190  1.0  0.3795
  Ag  Ag6  1  0.047650  0.549010  0.173510  1.0  0.3308
  Ag  Ag7  1  0.130750  0.090210  0.474810  1.0  0.3796
  Ag  Ag8  1  0.452350  0.049010  0.326490  1.0  0.3301
  H  H9  1  0.811400  0.432100  0.267700  1.0  0.0627
  H  H10  1  0.557500  0.605800  0.319700  1.0  0.0585
  H  H11  1  0.882400  0.637700  0.453400  1.0  0.0578
  H  H12  1  0.755800  0.436100  0.546200  1.0  0.0624
  H  H13  1  0.916100  0.274300  0.647000  1.0  0.0476
  H  H14  1  0.544700  0.244100  0.796300  1.0  0.0632
  H  H15  1  0.542900  0.200700  0.479900  1.0  0.0628
  H  H16  1  0.822500  0.091300  0.722500  1.0  0.0581
  H  H17  1  0.688600  0.932100  0.232300  1.0  0.0625
  H  H18  1  0.942500  0.105800  0.180300  1.0  0.059
  H  H19  1  0.617600  0.137700  0.046600  1.0  0.0576
  H  H20  1  0.744200  0.936100  0.953800  1.0  0.0623
  H  H21  1  0.583900  0.774300  0.853000  1.0  0.0472
  H  H22  1  0.955300  0.744100  0.703700  1.0  0.0631
  H  H23  1  0.957100  0.700700  0.020100  1.0  0.0624
  H  H24  1  0.677500  0.591300  0.777500  1.0  0.0599
  H  H25  1  0.188600  0.567900  0.732300  1.0  0.0629
  H  H26  1  0.442500  0.394200  0.680300  1.0  0.0582
  H  H27  1  0.117600  0.362300  0.546600  1.0  0.0569
  H  H28  1  0.244200  0.563900  0.453800  1.0  0.0624
  H  H29  1  0.083900  0.725700  0.353000  1.0  0.0471
  H  H30  1  0.455300  0.755900  0.203700  1.0  0.0631
  H  H31  1  0.457100  0.799300  0.520100  1.0  0.0634
  H  H32  1  0.177500  0.908700  0.277500  1.0  0.0599
  H  H33  1  0.311400  0.067900  0.767700  1.0  0.0629
  H  H34  1  0.057500  0.894200  0.819700  1.0  0.0581
  H  H35  1  0.382400  0.862300  0.953400  1.0  0.0565
  H  H36  1  0.255800  0.063900  0.046200  1.0  0.0627
  H  H37  1  0.416100  0.225700  0.147000  1.0  0.048
  H  H38  1  0.044700  0.255900  0.296300  1.0  0.0635
  H  H39  1  0.042900  0.299300  0.979900  1.0  0.0633
  H  H40  1  0.322500  0.408700  0.222500  1.0  0.0577
  C  C41  1  0.739300  0.468800  0.254800  1.0  0.1117
  C  C42  1  0.599000  0.564900  0.283200  1.0  0.1365
  C  C43  1  0.871200  0.594000  0.498500  1.0  0.1324
  C  C44  1  0.801800  0.482500  0.548900  1.0  0.1158
  C  C45  1  0.837500  0.281500  0.693900  1.0  0.1102
  C  C46  1  0.632400  0.264700  0.776300  1.0  0.1118
  C  C47  1  0.599300  0.162700  0.520400  1.0  0.0821
  C  C48  1  0.753700  0.102200  0.654100  1.0  0.0996
  C  C49  1  0.760700  0.968800  0.245200  1.0  0.1124
  C  C50  1  0.901000  0.064900  0.216800  1.0  0.1367
  C  C51  1  0.628800  0.094000  0.001500  1.0  0.1322
  C  C52  1  0.698200  0.982500  0.951100  1.0  0.1142
  C  C53  1  0.662500  0.781500  0.806100  1.0  0.1102
  C  C54  1  0.867600  0.764700  0.723700  1.0  0.1133
  C  C55  1  0.900700  0.662700  0.979600  1.0  0.0823
  C  C56  1  0.746300  0.602200  0.845900  1.0  0.1
  C  C57  1  0.260700  0.531200  0.745200  1.0  0.1126
  C  C58  1  0.401000  0.435100  0.716800  1.0  0.1375
  C  C59  1  0.128800  0.406000  0.501500  1.0  0.1318
  C  C60  1  0.198200  0.517500  0.451100  1.0  0.1138
  C  C61  1  0.162500  0.718500  0.306100  1.0  0.1102
  C  C62  1  0.367600  0.735300  0.223700  1.0  0.1135
  C  C63  1  0.400700  0.837300  0.479600  1.0  0.0831
  C  C64  1  0.246300  0.897800  0.345900  1.0  0.0998
  C  C65  1  0.239300  0.031200  0.754800  1.0  0.1128
  C  C66  1  0.099000  0.935100  0.783200  1.0  0.1376
  C  C67  1  0.371200  0.906000  0.998500  1.0  0.1323
  C  C68  1  0.301800  0.017500  0.048900  1.0  0.1147
  C  C69  1  0.337500  0.218500  0.193900  1.0  0.11
  C  C70  1  0.132400  0.235300  0.276300  1.0  0.1118
  C  C71  1  0.099300  0.337300  0.020400  1.0  0.0827
  C  C72  1  0.253700  0.397800  0.154100  1.0  0.0995
  N  N73  1  0.644500  0.475600  0.155200  1.0  -0.2516
  N  N74  1  0.555300  0.537200  0.172300  1.0  -0.2942
  N  N75  1  0.714900  0.524300  0.336700  1.0  0.0145
  N  N76  1  0.789100  0.533800  0.455400  1.0  0.0324
  N  N77  1  0.931300  0.580900  0.612400  1.0  -0.3192
  N  N78  1  0.888800  0.508600  0.643100  1.0  -0.2866
  N  N79  1  0.821700  0.337800  0.768700  1.0  -0.2715
  N  N80  1  0.690800  0.326700  0.820900  1.0  -0.2503
  N  N81  1  0.721200  0.235400  0.695700  1.0  0.0249
  N  N82  1  0.695400  0.170600  0.625900  1.0  0.016
  N  N83  1  0.599300  0.093500  0.485800  1.0  -0.2256
  N  N84  1  0.698200  0.054200  0.570400  1.0  -0.2734
  N  N85  1  0.855500  0.975600  0.344800  1.0  -0.2522
  N  N86  1  0.944700  0.037200  0.327700  1.0  -0.2973
  N  N87  1  0.785100  0.024300  0.163300  1.0  0.0152
  N  N88  1  0.710900  0.033800  0.044600  1.0  0.0326
  N  N89  1  0.568700  0.080900  0.887600  1.0  -0.3167
  N  N90  1  0.611200  0.008600  0.856900  1.0  -0.2879
  N  N91  1  0.678300  0.837800  0.731300  1.0  -0.2713
  N  N92  1  0.809200  0.826700  0.679100  1.0  -0.2507
  N  N93  1  0.778800  0.735400  0.804300  1.0  0.0247
  N  N94  1  0.804600  0.670600  0.874100  1.0  0.0156
  N  N95  1  0.900700  0.593500  0.014200  1.0  -0.2244
  N  N96  1  0.801800  0.554200  0.929600  1.0  -0.2741
  N  N97  1  0.355500  0.524400  0.844800  1.0  -0.2544
  N  N98  1  0.444700  0.462800  0.827700  1.0  -0.2971
  N  N99  1  0.285100  0.475700  0.663300  1.0  0.0153
  N  N100  1  0.210900  0.466200  0.544600  1.0  0.0334
  N  N101  1  0.068700  0.419100  0.387600  1.0  -0.3173
  N  N102  1  0.111200  0.491400  0.356900  1.0  -0.2873
  N  N103  1  0.178300  0.662200  0.231300  1.0  -0.2714
  N  N104  1  0.309200  0.673300  0.179100  1.0  -0.2489
  N  N105  1  0.278800  0.764600  0.304300  1.0  0.0247
  N  N106  1  0.304600  0.829400  0.374100  1.0  0.0161
  N  N107  1  0.400700  0.906500  0.514200  1.0  -0.2236
  N  N108  1  0.301800  0.945800  0.429600  1.0  -0.275
  N  N109  1  0.144500  0.024400  0.655200  1.0  -0.2529
  N  N110  1  0.055300  0.962800  0.672300  1.0  -0.2948
  N  N111  1  0.214900  0.975700  0.836700  1.0  0.0145
  N  N112  1  0.289100  0.966200  0.955400  1.0  0.0329
  N  N113  1  0.431300  0.919100  0.112400  1.0  -0.3191
  N  N114  1  0.388800  0.991400  0.143100  1.0  -0.2869
  N  N115  1  0.321700  0.162200  0.268700  1.0  -0.2698
  N  N116  1  0.190800  0.173300  0.320900  1.0  -0.2483
  N  N117  1  0.221200  0.264600  0.195700  1.0  0.0248
  N  N118  1  0.195400  0.329400  0.125900  1.0  0.0162
  N  N119  1  0.099300  0.406500  0.985800  1.0  -0.2251
  N  N120  1  0.198200  0.445800  0.070400  1.0  -0.2739
