# generated using pymatgen
data_Zn2H12C17(NO2)4
_symmetry_space_group_name_H-M   'P 1'
_cell_length_a   12.12500000
_cell_length_b   13.83320000
_cell_length_c   21.64360000
_cell_angle_alpha   90.00000000
_cell_angle_beta   90.00000000
_cell_angle_gamma   90.00000000
_symmetry_Int_Tables_number   1
_chemical_formula_structural   Zn2H12C17(NO2)4
_chemical_formula_sum   'Zn8 H48 C68 N16 O32'
_cell_volume   3630.22800118
_cell_formula_units_Z   4
loop_
 _symmetry_equiv_pos_site_id
 _symmetry_equiv_pos_as_xyz
  1  'x, y, z'
loop_
 _atom_site_type_symbol
 _atom_site_label
 _atom_site_symmetry_multiplicity
 _atom_site_fract_x
 _atom_site_fract_y
 _atom_site_fract_z
 _atom_site_occupancy
 _atom_site_charge
  Zn  Zn1  1  0.248460  0.925140  0.244060  1.0  0.9685
  Zn  Zn2  1  0.233790  0.432340  0.125790  1.0  0.8793
  Zn  Zn3  1  0.248460  0.074860  0.755940  1.0  0.9692
  Zn  Zn4  1  0.233790  0.567660  0.874210  1.0  0.8794
  Zn  Zn5  1  0.751540  0.574860  0.744060  1.0  0.9695
  Zn  Zn6  1  0.766210  0.067660  0.625790  1.0  0.8797
  Zn  Zn7  1  0.751540  0.425140  0.255940  1.0  0.9695
  Zn  Zn8  1  0.766210  0.932340  0.374210  1.0  0.8798
  H  H9  1  0.231000  0.718900  0.210800  1.0  0.0702
  H  H10  1  0.943000  0.718200  0.344400  1.0  0.1239
  H  H11  1  0.041200  0.857200  0.323500  1.0  0.079
  H  H12  1  0.251500  0.129800  0.192000  1.0  0.0809
  H  H13  1  0.608300  0.113600  0.255000  1.0  0.1164
  H  H14  1  0.493500  0.985600  0.265200  1.0  0.0802
  H  H15  1  0.371500  0.604300  0.085500  1.0  0.0852
  H  H16  1  0.463300  0.530400  0.105100  1.0  0.088
  H  H17  1  0.600300  0.518500  0.965800  1.0  0.0785
  H  H18  1  0.372200  0.332100  0.018800  1.0  0.0853
  H  H19  1  0.463600  0.364200  0.066000  1.0  0.0907
  H  H20  1  0.230500  0.553300  0.012200  1.0  0.0792
  H  H21  1  0.231000  0.281100  0.789200  1.0  0.0701
  H  H22  1  0.943000  0.281800  0.655600  1.0  0.1239
  H  H23  1  0.041200  0.142800  0.676500  1.0  0.0789
  H  H24  1  0.251500  0.870200  0.808000  1.0  0.0815
  H  H25  1  0.608300  0.886400  0.745000  1.0  0.1158
  H  H26  1  0.493500  0.014400  0.734800  1.0  0.0802
  H  H27  1  0.371500  0.395700  0.914500  1.0  0.0845
  H  H28  1  0.463300  0.469600  0.894900  1.0  0.0881
  H  H29  1  0.600300  0.481500  0.034200  1.0  0.0794
  H  H30  1  0.372200  0.667900  0.981200  1.0  0.0861
  H  H31  1  0.463600  0.635800  0.934000  1.0  0.091
  H  H32  1  0.230500  0.446700  0.987800  1.0  0.0791
  H  H33  1  0.769000  0.781100  0.710800  1.0  0.07
  H  H34  1  0.057000  0.781800  0.844400  1.0  0.1239
  H  H35  1  0.958800  0.642800  0.823500  1.0  0.0792
  H  H36  1  0.748500  0.370200  0.692000  1.0  0.0811
  H  H37  1  0.391700  0.386400  0.755000  1.0  0.1163
  H  H38  1  0.506500  0.514400  0.765200  1.0  0.0799
  H  H39  1  0.628500  0.895700  0.585500  1.0  0.0844
  H  H40  1  0.536700  0.969600  0.605100  1.0  0.0883
  H  H41  1  0.399700  0.981500  0.465800  1.0  0.0798
  H  H42  1  0.627800  0.167900  0.518800  1.0  0.0865
  H  H43  1  0.536400  0.135800  0.566000  1.0  0.092
  H  H44  1  0.769500  0.946700  0.512200  1.0  0.0784
  H  H45  1  0.769000  0.218900  0.289200  1.0  0.07
  H  H46  1  0.057000  0.218200  0.155600  1.0  0.1235
  H  H47  1  0.958800  0.357200  0.176500  1.0  0.079
  H  H48  1  0.748500  0.629800  0.308000  1.0  0.0815
  H  H49  1  0.391700  0.613600  0.245000  1.0  0.1143
  H  H50  1  0.506500  0.485600  0.234800  1.0  0.0797
  H  H51  1  0.628500  0.104300  0.414500  1.0  0.0866
  H  H52  1  0.536700  0.030400  0.394900  1.0  0.0886
  H  H53  1  0.399700  0.018500  0.534200  1.0  0.0803
  H  H54  1  0.627800  0.832100  0.481200  1.0  0.0872
  H  H55  1  0.536400  0.864200  0.434000  1.0  0.0923
  H  H56  1  0.769500  0.053300  0.487800  1.0  0.0794
  C  C57  1  0.170700  0.718800  0.237400  1.0  0.2006
  C  C58  1  0.113700  0.632200  0.244400  1.0  -0.1917
  C  C59  1  0.150300  0.546200  0.209500  1.0  0.6829
  C  C60  1  0.027100  0.631700  0.286200  1.0  0.062
  C  C61  1  0.047600  0.043400  0.201600  1.0  0.6531
  C  C62  1  0.000800  0.716600  0.316200  1.0  -0.1718
  C  C63  1  0.061400  0.800100  0.303800  1.0  0.194
  C  C64  1  0.324800  0.126500  0.204600  1.0  0.222
  C  C65  1  0.390500  0.209200  0.197500  1.0  -0.1829
  C  C66  1  0.337200  0.298400  0.172000  1.0  0.6597
  C  C67  1  0.499100  0.204800  0.215600  1.0  0.058
  C  C68  1  0.421500  0.789300  0.294700  1.0  0.6497
  C  C69  1  0.535700  0.118700  0.241400  1.0  -0.1653
  C  C70  1  0.466700  0.042000  0.247200  1.0  0.1966
  C  C71  1  0.416300  0.550700  0.071200  1.0  0.1256
  C  C72  1  0.417900  0.385900  0.031900  1.0  0.1309
  C  C73  1  0.170700  0.281200  0.762600  1.0  0.2005
  C  C74  1  0.113700  0.367800  0.755600  1.0  -0.1905
  C  C75  1  0.150300  0.453800  0.790500  1.0  0.6834
  C  C76  1  0.027100  0.368300  0.713800  1.0  0.0604
  C  C77  1  0.047600  0.956600  0.798400  1.0  0.652
  C  C78  1  0.000800  0.283400  0.683800  1.0  -0.1706
  C  C79  1  0.061400  0.199900  0.696200  1.0  0.1982
  C  C80  1  0.324800  0.873500  0.795400  1.0  0.2221
  C  C81  1  0.390500  0.790800  0.802500  1.0  -0.1816
  C  C82  1  0.337200  0.701600  0.828000  1.0  0.6598
  C  C83  1  0.499100  0.795200  0.784400  1.0  0.0567
  C  C84  1  0.421500  0.210700  0.705300  1.0  0.6502
  C  C85  1  0.535700  0.881300  0.758600  1.0  -0.1657
  C  C86  1  0.466700  0.958000  0.752800  1.0  0.1953
  C  C87  1  0.416300  0.449300  0.928800  1.0  0.1259
  C  C88  1  0.417900  0.614100  0.968100  1.0  0.1291
  C  C89  1  0.829300  0.781200  0.737400  1.0  0.2001
  C  C90  1  0.886300  0.867800  0.744400  1.0  -0.1915
  C  C91  1  0.849700  0.953800  0.709500  1.0  0.6832
  C  C92  1  0.972900  0.868300  0.786200  1.0  0.0631
  C  C93  1  0.952400  0.456600  0.701600  1.0  0.6541
  C  C94  1  0.999200  0.783400  0.816200  1.0  -0.1735
  C  C95  1  0.938600  0.699900  0.803800  1.0  0.1973
  C  C96  1  0.675200  0.373500  0.704600  1.0  0.2222
  C  C97  1  0.609500  0.290800  0.697500  1.0  -0.1811
  C  C98  1  0.662800  0.201600  0.672000  1.0  0.6601
  C  C99  1  0.500900  0.295200  0.715600  1.0  0.0564
  C  C100  1  0.578500  0.710700  0.794700  1.0  0.6497
  C  C101  1  0.464300  0.381300  0.741400  1.0  -0.1674
  C  C102  1  0.533300  0.458000  0.747200  1.0  0.196
  C  C103  1  0.583700  0.949300  0.571200  1.0  0.1267
  C  C104  1  0.582100  0.114100  0.531900  1.0  0.13
  C  C105  1  0.829300  0.218800  0.262600  1.0  0.1994
  C  C106  1  0.886300  0.132200  0.255600  1.0  -0.1915
  C  C107  1  0.849700  0.046200  0.290500  1.0  0.6836
  C  C108  1  0.972900  0.131700  0.213800  1.0  0.0606
  C  C109  1  0.952400  0.543400  0.298400  1.0  0.6538
  C  C110  1  0.999200  0.216600  0.183800  1.0  -0.1733
  C  C111  1  0.938600  0.300100  0.196200  1.0  0.1968
  C  C112  1  0.675200  0.626500  0.295400  1.0  0.2226
  C  C113  1  0.609500  0.709200  0.302500  1.0  -0.1826
  C  C114  1  0.662800  0.798400  0.328000  1.0  0.66
  C  C115  1  0.500900  0.704800  0.284400  1.0  0.0569
  C  C116  1  0.578500  0.289300  0.205300  1.0  0.6493
  C  C117  1  0.464300  0.618700  0.258600  1.0  -0.1688
  C  C118  1  0.533300  0.542000  0.252800  1.0  0.1956
  C  C119  1  0.583700  0.050700  0.428800  1.0  0.1264
  C  C120  1  0.582100  0.885900  0.468100  1.0  0.1315
  C  C121  1  0.553100  0.500000  0.000000  1.0  0.1497
  C  C122  1  0.277600  0.500000  0.000000  1.0  0.098
  C  C123  1  0.446900  0.000000  0.500000  1.0  0.1492
  C  C124  1  0.722400  0.000000  0.500000  1.0  0.0984
  N  N125  1  0.360800  0.044100  0.228000  1.0  -0.3822
  N  N126  1  0.146100  0.801600  0.265500  1.0  -0.3662
  N  N127  1  0.344300  0.470200  0.053200  1.0  -0.3328
  N  N128  1  0.486600  0.583400  0.018400  1.0  -0.3773
  N  N129  1  0.360800  0.955900  0.772000  1.0  -0.3829
  N  N130  1  0.146100  0.198400  0.734500  1.0  -0.3658
  N  N131  1  0.344300  0.529800  0.946800  1.0  -0.3315
  N  N132  1  0.486600  0.416600  0.981600  1.0  -0.3776
  N  N133  1  0.639200  0.455900  0.728000  1.0  -0.384
  N  N134  1  0.853900  0.698400  0.765500  1.0  -0.3654
  N  N135  1  0.655700  0.029800  0.553200  1.0  -0.334
  N  N136  1  0.513400  0.916600  0.518400  1.0  -0.3761
  N  N137  1  0.639200  0.544100  0.272000  1.0  -0.3826
  N  N138  1  0.853900  0.301600  0.234500  1.0  -0.3638
  N  N139  1  0.655700  0.970200  0.446800  1.0  -0.3337
  N  N140  1  0.513400  0.083400  0.481600  1.0  -0.3757
  O  O141  1  0.212100  0.563500  0.162400  1.0  -0.6294
  O  O142  1  0.121900  0.464200  0.224000  1.0  -0.545
  O  O143  1  0.112600  0.021800  0.244200  1.0  -0.6414
  O  O144  1  0.039100  0.006400  0.150000  1.0  -0.5489
  O  O145  1  0.254400  0.288400  0.136900  1.0  -0.5781
  O  O146  1  0.371900  0.379900  0.186900  1.0  -0.5556
  O  O147  1  0.383000  0.828000  0.246610  1.0  -0.6192
  O  O148  1  0.400100  0.809300  0.348900  1.0  -0.5897
  O  O149  1  0.212100  0.436500  0.837600  1.0  -0.6288
  O  O150  1  0.121900  0.535800  0.776000  1.0  -0.545
  O  O151  1  0.112600  0.978200  0.755800  1.0  -0.6384
  O  O152  1  0.039100  0.993600  0.850000  1.0  -0.544
  O  O153  1  0.254400  0.711600  0.863100  1.0  -0.5771
  O  O154  1  0.371900  0.620100  0.813100  1.0  -0.5538
  O  O155  1  0.383000  0.172000  0.753390  1.0  -0.6169
  O  O156  1  0.400100  0.190700  0.651100  1.0  -0.5895
  O  O157  1  0.787900  0.936500  0.662400  1.0  -0.6292
  O  O158  1  0.878100  0.035800  0.724000  1.0  -0.5441
  O  O159  1  0.887400  0.478200  0.744200  1.0  -0.6399
  O  O160  1  0.960900  0.493600  0.650000  1.0  -0.5497
  O  O161  1  0.745600  0.211600  0.636900  1.0  -0.5765
  O  O162  1  0.628100  0.120100  0.686900  1.0  -0.5549
  O  O163  1  0.617000  0.672000  0.746610  1.0  -0.6189
  O  O164  1  0.599900  0.690700  0.848900  1.0  -0.589
  O  O165  1  0.787900  0.063500  0.337600  1.0  -0.6291
  O  O166  1  0.878100  0.964200  0.276000  1.0  -0.5455
  O  O167  1  0.887400  0.521800  0.255800  1.0  -0.6376
  O  O168  1  0.960900  0.506400  0.350000  1.0  -0.5387
  O  O169  1  0.745600  0.788400  0.363100  1.0  -0.5769
  O  O170  1  0.628100  0.879900  0.313100  1.0  -0.5545
  O  O171  1  0.617000  0.328000  0.253390  1.0  -0.6167
  O  O172  1  0.599900  0.309300  0.151100  1.0  -0.5897
