# generated using pymatgen
data_AgH4(C2N3)2
_symmetry_space_group_name_H-M   'P 1'
_cell_length_a   12.86600000
_cell_length_b   12.77600000
_cell_length_c   16.80200000
_cell_angle_alpha   90.00000000
_cell_angle_beta   105.30300000
_cell_angle_gamma   90.00000000
_symmetry_Int_Tables_number   1
_chemical_formula_structural   AgH4(C2N3)2
_chemical_formula_sum   'Ag8 H32 C32 N48'
_cell_volume   2663.92071281
_cell_formula_units_Z   8
loop_
 _symmetry_equiv_pos_site_id
 _symmetry_equiv_pos_as_xyz
  1  'x, y, z'
loop_
 _atom_site_type_symbol
 _atom_site_label
 _atom_site_symmetry_multiplicity
 _atom_site_fract_x
 _atom_site_fract_y
 _atom_site_fract_z
 _atom_site_occupancy
 _atom_site_charge
  Ag  Ag1  1  0.085200  0.656920  0.905370  1.0  0.3295
  Ag  Ag2  1  0.144020  0.388660  0.024280  1.0  0.3202
  Ag  Ag3  1  0.414800  0.156920  0.594630  1.0  0.3295
  Ag  Ag4  1  0.355980  0.888660  0.475720  1.0  0.3191
  Ag  Ag5  1  0.914800  0.343080  0.094630  1.0  0.3296
  Ag  Ag6  1  0.855980  0.611340  0.975720  1.0  0.3191
  Ag  Ag7  1  0.585200  0.843080  0.405370  1.0  0.3296
  Ag  Ag8  1  0.644020  0.111340  0.524280  1.0  0.3199
  H  H9  1  0.160800  0.532400  0.748000  1.0  0.0578
  H  H10  1  0.158200  0.257100  0.853500  1.0  0.071
  H  H11  1  0.353600  0.311500  0.745700  1.0  0.058
  H  H12  1  0.046300  0.301900  0.625700  1.0  0.0745
  H  H13  1  0.429500  0.714300  0.223900  1.0  0.0516
  H  H14  1  0.179700  0.764800  0.311900  1.0  0.0673
  H  H15  1  0.181800  0.791600  0.087000  1.0  0.0654
  H  H16  1  0.203600  0.522000  0.202900  1.0  0.0517
  H  H17  1  0.339200  0.032400  0.752000  1.0  0.0577
  H  H18  1  0.341800  0.757100  0.646500  1.0  0.0714
  H  H19  1  0.146400  0.811500  0.754300  1.0  0.0583
  H  H20  1  0.453700  0.801900  0.874300  1.0  0.0721
  H  H21  1  0.070500  0.214300  0.276100  1.0  0.0523
  H  H22  1  0.320300  0.264800  0.188100  1.0  0.0651
  H  H23  1  0.318200  0.291600  0.413000  1.0  0.0663
  H  H24  1  0.296400  0.022000  0.297100  1.0  0.0514
  H  H25  1  0.839200  0.467600  0.252000  1.0  0.0576
  H  H26  1  0.841800  0.742900  0.146500  1.0  0.0717
  H  H27  1  0.646400  0.688500  0.254300  1.0  0.0581
  H  H28  1  0.953700  0.698100  0.374300  1.0  0.0721
  H  H29  1  0.570500  0.285700  0.776100  1.0  0.0522
  H  H30  1  0.820300  0.235200  0.688100  1.0  0.0655
  H  H31  1  0.818200  0.208400  0.913000  1.0  0.0671
  H  H32  1  0.796400  0.478000  0.797100  1.0  0.0515
  H  H33  1  0.660800  0.967600  0.248000  1.0  0.0574
  H  H34  1  0.658200  0.242900  0.353500  1.0  0.0717
  H  H35  1  0.853600  0.188500  0.245700  1.0  0.058
  H  H36  1  0.546300  0.198100  0.125700  1.0  0.0746
  H  H37  1  0.929500  0.785700  0.723900  1.0  0.0516
  H  H38  1  0.679700  0.735200  0.811900  1.0  0.0677
  H  H39  1  0.681800  0.708400  0.587000  1.0  0.0663
  H  H40  1  0.703600  0.978000  0.702900  1.0  0.0515
  C  C41  1  0.154300  0.480800  0.785400  1.0  0.1368
  C  C42  1  0.153100  0.328700  0.843500  1.0  0.113
  C  C43  1  0.289700  0.298000  0.705800  1.0  0.11
  C  C44  1  0.120600  0.292300  0.639500  1.0  0.1021
  C  C45  1  0.387500  0.734100  0.258700  1.0  0.1284
  C  C46  1  0.249900  0.762100  0.306900  1.0  0.0748
  C  C47  1  0.174600  0.721100  0.098300  1.0  0.0815
  C  C48  1  0.186600  0.572800  0.161900  1.0  0.0938
  C  C49  1  0.345700  0.980800  0.714600  1.0  0.1365
  C  C50  1  0.346900  0.828700  0.656500  1.0  0.1134
  C  C51  1  0.210300  0.798000  0.794200  1.0  0.109
  C  C52  1  0.379400  0.792300  0.860500  1.0  0.1045
  C  C53  1  0.112500  0.234100  0.241300  1.0  0.1272
  C  C54  1  0.250100  0.262100  0.193100  1.0  0.075
  C  C55  1  0.325400  0.221100  0.401700  1.0  0.081
  C  C56  1  0.313400  0.072800  0.338100  1.0  0.0938
  C  C57  1  0.845700  0.519200  0.214600  1.0  0.1366
  C  C58  1  0.846900  0.671300  0.156500  1.0  0.1149
  C  C59  1  0.710300  0.702000  0.294200  1.0  0.1094
  C  C60  1  0.879400  0.707700  0.360500  1.0  0.1046
  C  C61  1  0.612500  0.265900  0.741300  1.0  0.1269
  C  C62  1  0.750100  0.237900  0.693100  1.0  0.0747
  C  C63  1  0.825400  0.278900  0.901700  1.0  0.0799
  C  C64  1  0.813400  0.427200  0.838100  1.0  0.0956
  C  C65  1  0.654300  0.019200  0.285400  1.0  0.1361
  C  C66  1  0.653100  0.171300  0.343500  1.0  0.1146
  C  C67  1  0.789700  0.202000  0.205800  1.0  0.1104
  C  C68  1  0.620600  0.207700  0.139500  1.0  0.1021
  C  C69  1  0.887500  0.765900  0.758700  1.0  0.1282
  C  C70  1  0.749900  0.737900  0.806900  1.0  0.0747
  C  C71  1  0.674600  0.778900  0.598300  1.0  0.0796
  C  C72  1  0.686600  0.927200  0.661900  1.0  0.0946
  N  N73  1  0.281900  0.246700  0.636700  1.0  -0.3068
  N  N74  1  0.173600  0.243300  0.595300  1.0  -0.2446
  N  N75  1  0.191800  0.327500  0.709800  1.0  0.0156
  N  N76  1  0.167600  0.376900  0.776000  1.0  0.0218
  N  N77  1  0.130500  0.399400  0.892400  1.0  -0.2515
  N  N78  1  0.131000  0.496900  0.855300  1.0  -0.2634
  N  N79  1  0.423400  0.780200  0.330100  1.0  -0.2882
  N  N80  1  0.334000  0.798200  0.359600  1.0  -0.214
  N  N81  1  0.280800  0.719700  0.243100  1.0  0.0096
  N  N82  1  0.215000  0.674900  0.172500  1.0  0.0167
  N  N83  1  0.124800  0.652800  0.045700  1.0  -0.2488
  N  N84  1  0.132900  0.556400  0.087400  1.0  -0.2333
  N  N85  1  0.218100  0.746700  0.863300  1.0  -0.3033
  N  N86  1  0.326400  0.743300  0.904700  1.0  -0.2439
  N  N87  1  0.308200  0.827500  0.790200  1.0  0.0155
  N  N88  1  0.332400  0.876900  0.724000  1.0  0.0208
  N  N89  1  0.369500  0.899400  0.607600  1.0  -0.2508
  N  N90  1  0.369000  0.996900  0.644700  1.0  -0.2634
  N  N91  1  0.076600  0.280200  0.169900  1.0  -0.2887
  N  N92  1  0.166000  0.298200  0.140400  1.0  -0.2164
  N  N93  1  0.219200  0.219700  0.256900  1.0  0.0096
  N  N94  1  0.285000  0.174900  0.327500  1.0  0.0177
  N  N95  1  0.375200  0.152800  0.454300  1.0  -0.2509
  N  N96  1  0.367100  0.056400  0.412600  1.0  -0.233
  N  N97  1  0.718100  0.753300  0.363300  1.0  -0.3028
  N  N98  1  0.826400  0.756700  0.404700  1.0  -0.2432
  N  N99  1  0.808200  0.672500  0.290200  1.0  0.0159
  N  N100  1  0.832400  0.623100  0.224000  1.0  0.0208
  N  N101  1  0.869500  0.600600  0.107600  1.0  -0.2521
  N  N102  1  0.869000  0.503100  0.144700  1.0  -0.2627
  N  N103  1  0.576600  0.219800  0.669900  1.0  -0.2898
  N  N104  1  0.666000  0.201800  0.640400  1.0  -0.2169
  N  N105  1  0.719200  0.280300  0.756900  1.0  0.0098
  N  N106  1  0.785000  0.325100  0.827500  1.0  0.0176
  N  N107  1  0.875200  0.347200  0.954300  1.0  -0.2507
  N  N108  1  0.867100  0.443600  0.912600  1.0  -0.2336
  N  N109  1  0.781900  0.253300  0.136700  1.0  -0.3053
  N  N110  1  0.673600  0.256700  0.095300  1.0  -0.2449
  N  N111  1  0.691800  0.172500  0.209800  1.0  0.0159
  N  N112  1  0.667600  0.123100  0.276000  1.0  0.0219
  N  N113  1  0.630500  0.100600  0.392400  1.0  -0.2519
  N  N114  1  0.631000  0.003100  0.355300  1.0  -0.2636
  N  N115  1  0.923400  0.719800  0.830100  1.0  -0.2884
  N  N116  1  0.834000  0.701800  0.859600  1.0  -0.2143
  N  N117  1  0.780800  0.780300  0.743100  1.0  0.0096
  N  N118  1  0.715000  0.825100  0.672500  1.0  0.0169
  N  N119  1  0.624800  0.847200  0.545700  1.0  -0.2481
  N  N120  1  0.632900  0.943600  0.587400  1.0  -0.2332
