# generated using pymatgen
data_CdH9C10N3O4
_symmetry_space_group_name_H-M   'P 1'
_cell_length_a   13.19900000
_cell_length_b   13.64500000
_cell_length_c   20.03300000
_cell_angle_alpha   90.00000000
_cell_angle_beta   90.00000000
_cell_angle_gamma   90.00000000
_symmetry_Int_Tables_number   1
_chemical_formula_structural   CdH9C10N3O4
_chemical_formula_sum   'Cd8 H72 C80 N24 O32'
_cell_volume   3607.95041171
_cell_formula_units_Z   8
loop_
 _symmetry_equiv_pos_site_id
 _symmetry_equiv_pos_as_xyz
  1  'x, y, z'
loop_
 _atom_site_type_symbol
 _atom_site_label
 _atom_site_symmetry_multiplicity
 _atom_site_fract_x
 _atom_site_fract_y
 _atom_site_fract_z
 _atom_site_occupancy
 _atom_site_charge
  Cd  Cd1  1  0.133710  0.561580  0.648900  1.0  0.9277
  Cd  Cd2  1  0.366290  0.561580  0.351100  1.0  0.9283
  Cd  Cd3  1  0.366290  0.061580  0.148900  1.0  0.9272
  Cd  Cd4  1  0.133710  0.061580  0.851100  1.0  0.9284
  Cd  Cd5  1  0.633710  0.938420  0.851100  1.0  0.9277
  Cd  Cd6  1  0.866290  0.938420  0.148900  1.0  0.9274
  Cd  Cd7  1  0.866290  0.438420  0.351100  1.0  0.9275
  Cd  Cd8  1  0.633710  0.438420  0.648900  1.0  0.9275
  H  H9  1  0.793500  0.161700  0.733100  1.0  0.1314
  H  H10  1  0.909100  0.062200  0.784300  1.0  0.0756
  H  H11  1  0.124900  0.250700  0.753900  1.0  0.073
  H  H12  1  0.424900  0.953800  0.006400  1.0  0.0659
  H  H13  1  0.399000  0.872300  0.059000  1.0  0.077
  H  H14  1  0.302100  0.078400  0.981200  1.0  0.0909
  H  H15  1  0.340700  0.953900  0.900400  1.0  0.0825
  H  H16  1  0.260400  0.872300  0.884100  1.0  0.0741
  H  H17  1  0.221500  0.754800  0.965800  1.0  0.0737
  H  H18  1  0.706500  0.161700  0.266900  1.0  0.1278
  H  H19  1  0.590900  0.062200  0.215700  1.0  0.076
  H  H20  1  0.375100  0.250700  0.246100  1.0  0.0716
  H  H21  1  0.075100  0.953800  0.993600  1.0  0.0652
  H  H22  1  0.101000  0.872300  0.941000  1.0  0.0786
  H  H23  1  0.197900  0.078400  0.018800  1.0  0.0906
  H  H24  1  0.159300  0.953900  0.099600  1.0  0.0828
  H  H25  1  0.239600  0.872300  0.115900  1.0  0.0749
  H  H26  1  0.278500  0.754800  0.034200  1.0  0.0747
  H  H27  1  0.706500  0.661700  0.233100  1.0  0.1275
  H  H28  1  0.590900  0.562200  0.284300  1.0  0.0756
  H  H29  1  0.375100  0.750700  0.253900  1.0  0.072
  H  H30  1  0.075100  0.453800  0.506400  1.0  0.0653
  H  H31  1  0.101000  0.372300  0.559000  1.0  0.0783
  H  H32  1  0.197900  0.578400  0.481200  1.0  0.0909
  H  H33  1  0.159300  0.453900  0.400400  1.0  0.0832
  H  H34  1  0.239600  0.372300  0.384100  1.0  0.0741
  H  H35  1  0.278500  0.254800  0.465800  1.0  0.0737
  H  H36  1  0.793500  0.661700  0.766900  1.0  0.132
  H  H37  1  0.909100  0.562200  0.715700  1.0  0.0759
  H  H38  1  0.124900  0.750700  0.746100  1.0  0.0727
  H  H39  1  0.424900  0.453800  0.493600  1.0  0.066
  H  H40  1  0.399000  0.372300  0.441000  1.0  0.0776
  H  H41  1  0.302100  0.578400  0.518800  1.0  0.0904
  H  H42  1  0.340700  0.453900  0.599600  1.0  0.0819
  H  H43  1  0.260400  0.372300  0.615900  1.0  0.0749
  H  H44  1  0.221500  0.254800  0.534200  1.0  0.0745
  H  H45  1  0.293500  0.338300  0.766900  1.0  0.1324
  H  H46  1  0.409100  0.437800  0.715700  1.0  0.0762
  H  H47  1  0.624900  0.249300  0.746100  1.0  0.0726
  H  H48  1  0.924900  0.546200  0.493600  1.0  0.0667
  H  H49  1  0.899000  0.627700  0.441000  1.0  0.0777
  H  H50  1  0.802100  0.421600  0.518800  1.0  0.09
  H  H51  1  0.840700  0.546100  0.599600  1.0  0.0824
  H  H52  1  0.760400  0.627700  0.615900  1.0  0.074
  H  H53  1  0.721500  0.745200  0.534200  1.0  0.0749
  H  H54  1  0.206500  0.338300  0.233100  1.0  0.1281
  H  H55  1  0.090900  0.437800  0.284300  1.0  0.076
  H  H56  1  0.875100  0.249300  0.253900  1.0  0.0721
  H  H57  1  0.575100  0.546200  0.506400  1.0  0.066
  H  H58  1  0.601000  0.627700  0.559000  1.0  0.0774
  H  H59  1  0.697900  0.421600  0.481200  1.0  0.0894
  H  H60  1  0.659300  0.546100  0.400400  1.0  0.0825
  H  H61  1  0.739600  0.627700  0.384100  1.0  0.0747
  H  H62  1  0.778500  0.745200  0.465800  1.0  0.0755
  H  H63  1  0.206500  0.838300  0.266900  1.0  0.128
  H  H64  1  0.090900  0.937800  0.215700  1.0  0.0762
  H  H65  1  0.875100  0.749300  0.246100  1.0  0.0716
  H  H66  1  0.575100  0.046200  0.993600  1.0  0.0659
  H  H67  1  0.601000  0.127700  0.941000  1.0  0.0782
  H  H68  1  0.697900  0.921600  0.018800  1.0  0.09
  H  H69  1  0.659300  0.046100  0.099600  1.0  0.0828
  H  H70  1  0.739600  0.127700  0.115900  1.0  0.074
  H  H71  1  0.778500  0.245200  0.034200  1.0  0.0751
  H  H72  1  0.293500  0.838300  0.733100  1.0  0.1316
  H  H73  1  0.409100  0.937800  0.784300  1.0  0.0762
  H  H74  1  0.624900  0.749300  0.753900  1.0  0.073
  H  H75  1  0.924900  0.046200  0.006400  1.0  0.0669
  H  H76  1  0.899000  0.127700  0.059000  1.0  0.0769
  H  H77  1  0.802100  0.921600  0.981200  1.0  0.0894
  H  H78  1  0.840700  0.046100  0.900400  1.0  0.0825
  H  H79  1  0.760400  0.127700  0.884100  1.0  0.0747
  H  H80  1  0.721500  0.245200  0.965800  1.0  0.0753
  C  C81  1  0.037100  0.887900  0.813000  1.0  0.6659
  C  C82  1  0.994700  0.796600  0.783900  1.0  -0.1927
  C  C83  1  0.889800  0.771700  0.788300  1.0  0.0615
  C  C84  1  0.808800  0.339000  0.685900  1.0  0.6232
  C  C85  1  0.860600  0.681900  0.763100  1.0  -0.1706
  C  C86  1  0.930600  0.622400  0.732300  1.0  0.2021
  C  C87  1  0.057300  0.233200  0.749000  1.0  0.2064
  C  C88  1  0.129400  0.913800  0.975700  1.0  0.1409
  C  C89  1  0.212400  0.913300  0.080600  1.0  0.1375
  C  C90  1  0.462900  0.887900  0.187000  1.0  0.6658
  C  C91  1  0.505300  0.796600  0.216100  1.0  -0.1936
  C  C92  1  0.610200  0.771700  0.211700  1.0  0.0605
  C  C93  1  0.691200  0.339000  0.314100  1.0  0.6226
  C  C94  1  0.639400  0.681900  0.236900  1.0  -0.1694
  C  C95  1  0.569400  0.622400  0.267700  1.0  0.2034
  C  C96  1  0.442700  0.233200  0.251000  1.0  0.2053
  C  C97  1  0.370600  0.913800  0.024300  1.0  0.1406
  C  C98  1  0.287600  0.913300  0.919400  1.0  0.1356
  C  C99  1  0.462900  0.387900  0.313000  1.0  0.6654
  C  C100  1  0.505300  0.296600  0.283900  1.0  -0.1931
  C  C101  1  0.610200  0.271700  0.288300  1.0  0.0613
  C  C102  1  0.691200  0.839000  0.185900  1.0  0.6226
  C  C103  1  0.639400  0.181900  0.263100  1.0  -0.1707
  C  C104  1  0.569400  0.122400  0.232300  1.0  0.202
  C  C105  1  0.442700  0.733200  0.249000  1.0  0.2057
  C  C106  1  0.370600  0.413800  0.475700  1.0  0.1404
  C  C107  1  0.287600  0.413300  0.580600  1.0  0.1366
  C  C108  1  0.037100  0.387900  0.687000  1.0  0.6662
  C  C109  1  0.994700  0.296600  0.716100  1.0  -0.1932
  C  C110  1  0.889800  0.271700  0.711700  1.0  0.0607
  C  C111  1  0.808800  0.839000  0.814100  1.0  0.6232
  C  C112  1  0.860600  0.181900  0.736900  1.0  -0.1702
  C  C113  1  0.930600  0.122400  0.767700  1.0  0.2034
  C  C114  1  0.057300  0.733200  0.751000  1.0  0.2059
  C  C115  1  0.129400  0.413800  0.524300  1.0  0.1408
  C  C116  1  0.212400  0.413300  0.419400  1.0  0.1359
  C  C117  1  0.250000  0.036600  0.000000  1.0  0.1298
  C  C118  1  0.250000  0.796800  0.000000  1.0  0.1749
  C  C119  1  0.250000  0.536600  0.500000  1.0  0.1298
  C  C120  1  0.250000  0.296800  0.500000  1.0  0.1749
  C  C121  1  0.537100  0.612100  0.687000  1.0  0.6669
  C  C122  1  0.494700  0.703400  0.716100  1.0  -0.1931
  C  C123  1  0.389800  0.728300  0.711700  1.0  0.0604
  C  C124  1  0.308800  0.161000  0.814100  1.0  0.6234
  C  C125  1  0.360600  0.818100  0.736900  1.0  -0.1701
  C  C126  1  0.430600  0.877600  0.767700  1.0  0.2028
  C  C127  1  0.557300  0.266800  0.751000  1.0  0.2065
  C  C128  1  0.629400  0.586200  0.524300  1.0  0.1404
  C  C129  1  0.712400  0.586700  0.419400  1.0  0.1362
  C  C130  1  0.962900  0.612100  0.313000  1.0  0.6662
  C  C131  1  0.005300  0.703400  0.283900  1.0  -0.1926
  C  C132  1  0.110200  0.728300  0.288300  1.0  0.0608
  C  C133  1  0.191200  0.161000  0.185900  1.0  0.623
  C  C134  1  0.139400  0.818100  0.263100  1.0  -0.1705
  C  C135  1  0.069400  0.877600  0.232300  1.0  0.2018
  C  C136  1  0.942700  0.266800  0.249000  1.0  0.2057
  C  C137  1  0.870600  0.586200  0.475700  1.0  0.1401
  C  C138  1  0.787600  0.586700  0.580600  1.0  0.1362
  C  C139  1  0.962900  0.112100  0.187000  1.0  0.6665
  C  C140  1  0.005300  0.203400  0.216100  1.0  -0.1934
  C  C141  1  0.110200  0.228300  0.211700  1.0  0.0603
  C  C142  1  0.191200  0.661000  0.314100  1.0  0.6229
  C  C143  1  0.139400  0.318100  0.236900  1.0  -0.17
  C  C144  1  0.069400  0.377600  0.267700  1.0  0.2029
  C  C145  1  0.942700  0.766800  0.251000  1.0  0.2054
  C  C146  1  0.870600  0.086200  0.024300  1.0  0.1402
  C  C147  1  0.787600  0.086700  0.919400  1.0  0.1356
  C  C148  1  0.537100  0.112100  0.813000  1.0  0.6664
  C  C149  1  0.494700  0.203400  0.783900  1.0  -0.1923
  C  C150  1  0.389800  0.228300  0.788300  1.0  0.0609
  C  C151  1  0.308800  0.661000  0.685900  1.0  0.6234
  C  C152  1  0.360600  0.318100  0.763100  1.0  -0.1716
  C  C153  1  0.430600  0.377600  0.732300  1.0  0.2021
  C  C154  1  0.557300  0.766800  0.749000  1.0  0.2069
  C  C155  1  0.629400  0.086200  0.975700  1.0  0.1405
  C  C156  1  0.712400  0.086700  0.080600  1.0  0.1373
  C  C157  1  0.750000  0.463400  0.500000  1.0  0.1308
  C  C158  1  0.750000  0.703200  0.500000  1.0  0.1734
  C  C159  1  0.750000  0.963400  0.000000  1.0  0.1308
  C  C160  1  0.750000  0.203200  0.000000  1.0  0.1734
  N  N161  1  0.027000  0.646700  0.725300  1.0  -0.3811
  N  N162  1  0.205900  0.976600  0.946900  1.0  -0.3402
  N  N163  1  0.170600  0.852400  0.028700  1.0  -0.4023
  N  N164  1  0.473000  0.646700  0.274700  1.0  -0.3779
  N  N165  1  0.294100  0.976600  0.053100  1.0  -0.3446
  N  N166  1  0.329400  0.852400  0.971300  1.0  -0.4029
  N  N167  1  0.473000  0.146700  0.225300  1.0  -0.3793
  N  N168  1  0.294100  0.476600  0.446900  1.0  -0.3422
  N  N169  1  0.329400  0.352400  0.528700  1.0  -0.4021
  N  N170  1  0.027000  0.146700  0.774700  1.0  -0.3795
  N  N171  1  0.205900  0.476600  0.553100  1.0  -0.3436
  N  N172  1  0.170600  0.352400  0.471300  1.0  -0.4042
  N  N173  1  0.527000  0.853300  0.774700  1.0  -0.3804
  N  N174  1  0.705900  0.523400  0.553100  1.0  -0.3433
  N  N175  1  0.670600  0.647600  0.471300  1.0  -0.4028
  N  N176  1  0.973000  0.853300  0.225300  1.0  -0.3791
  N  N177  1  0.794100  0.523400  0.446900  1.0  -0.3453
  N  N178  1  0.829400  0.647600  0.528700  1.0  -0.4019
  N  N179  1  0.973000  0.353300  0.274700  1.0  -0.3779
  N  N180  1  0.794100  0.023400  0.053100  1.0  -0.3448
  N  N181  1  0.829400  0.147600  0.971300  1.0  -0.4025
  N  N182  1  0.527000  0.353300  0.725300  1.0  -0.3815
  N  N183  1  0.705900  0.023400  0.946900  1.0  -0.3437
  N  N184  1  0.670600  0.147600  0.028700  1.0  -0.402
  O  O185  1  0.125900  0.913100  0.796000  1.0  -0.5954
  O  O186  1  0.985600  0.438600  0.647900  1.0  -0.5972
  O  O187  1  0.768200  0.313900  0.630700  1.0  -0.6136
  O  O188  1  0.780100  0.408700  0.719700  1.0  -0.5626
  O  O189  1  0.374100  0.913100  0.204000  1.0  -0.5942
  O  O190  1  0.514400  0.438600  0.352100  1.0  -0.5976
  O  O191  1  0.731800  0.313900  0.369300  1.0  -0.6158
  O  O192  1  0.719900  0.408700  0.280300  1.0  -0.5623
  O  O193  1  0.374100  0.413100  0.296000  1.0  -0.5943
  O  O194  1  0.514400  0.938600  0.147900  1.0  -0.5982
  O  O195  1  0.731800  0.813900  0.130700  1.0  -0.6136
  O  O196  1  0.719900  0.908700  0.219700  1.0  -0.562
  O  O197  1  0.125900  0.413100  0.704000  1.0  -0.5947
  O  O198  1  0.985600  0.938600  0.852100  1.0  -0.5967
  O  O199  1  0.768200  0.813900  0.869300  1.0  -0.6157
  O  O200  1  0.780100  0.908700  0.780300  1.0  -0.5622
  O  O201  1  0.625900  0.586900  0.704000  1.0  -0.5947
  O  O202  1  0.485600  0.061400  0.852100  1.0  -0.5975
  O  O203  1  0.268200  0.186100  0.869300  1.0  -0.6151
  O  O204  1  0.280100  0.091300  0.780300  1.0  -0.5635
  O  O205  1  0.874100  0.586900  0.296000  1.0  -0.5942
  O  O206  1  0.014400  0.061400  0.147900  1.0  -0.5985
  O  O207  1  0.231800  0.186100  0.130700  1.0  -0.6151
  O  O208  1  0.219900  0.091300  0.219700  1.0  -0.5624
  O  O209  1  0.874100  0.086900  0.204000  1.0  -0.5944
  O  O210  1  0.014400  0.561400  0.352100  1.0  -0.5983
  O  O211  1  0.231800  0.686100  0.369300  1.0  -0.6155
  O  O212  1  0.219900  0.591300  0.280300  1.0  -0.5634
  O  O213  1  0.625900  0.086900  0.796000  1.0  -0.5959
  O  O214  1  0.485600  0.561400  0.647900  1.0  -0.5978
  O  O215  1  0.268200  0.686100  0.630700  1.0  -0.6152
  O  O216  1  0.280100  0.591300  0.719700  1.0  -0.5629
