# generated using pymatgen
data_CdH7C12(NO2)2
_symmetry_space_group_name_H-M   'P 1'
_cell_length_a   13.09130000
_cell_length_b   13.20870000
_cell_length_c   26.91600000
_cell_angle_alpha   90.00000000
_cell_angle_beta   90.00000000
_cell_angle_gamma   90.00000000
_symmetry_Int_Tables_number   1
_chemical_formula_structural   CdH7C12(NO2)2
_chemical_formula_sum   'Cd8 H56 C96 N16 O32'
_cell_volume   4654.28926581
_cell_formula_units_Z   8
loop_
 _symmetry_equiv_pos_site_id
 _symmetry_equiv_pos_as_xyz
  1  'x, y, z'
loop_
 _atom_site_type_symbol
 _atom_site_label
 _atom_site_symmetry_multiplicity
 _atom_site_fract_x
 _atom_site_fract_y
 _atom_site_fract_z
 _atom_site_occupancy
 _atom_site_charge
  Cd  Cd1  1  0.805190  0.803530  0.829130  1.0  0.917
  Cd  Cd2  1  0.194810  0.696470  0.329130  1.0  0.9168
  Cd  Cd3  1  0.305190  0.196470  0.670880  1.0  0.9167
  Cd  Cd4  1  0.694810  0.303530  0.170880  1.0  0.9178
  Cd  Cd5  1  0.194810  0.196470  0.170880  1.0  0.9176
  Cd  Cd6  1  0.805190  0.303530  0.670880  1.0  0.9173
  Cd  Cd7  1  0.694810  0.803530  0.329130  1.0  0.9173
  Cd  Cd8  1  0.305190  0.696470  0.829130  1.0  0.9161
  H  H9  1  0.822800  0.996700  0.756000  1.0  0.0703
  H  H10  1  0.041800  0.812100  0.792200  1.0  0.0738
  H  H11  1  0.658500  0.091700  0.751300  1.0  0.1219
  H  H12  1  0.801600  0.002700  0.894700  1.0  0.099
  H  H13  1  0.879200  0.084600  0.960400  1.0  0.1277
  H  H14  1  0.064600  0.854600  0.973600  1.0  0.1213
  H  H15  1  0.991800  0.786300  0.905800  1.0  0.0848
  H  H16  1  0.177200  0.503300  0.256000  1.0  0.0704
  H  H17  1  0.958200  0.687900  0.292200  1.0  0.0736
  H  H18  1  0.341500  0.408300  0.251300  1.0  0.1245
  H  H19  1  0.198400  0.497300  0.394700  1.0  0.0995
  H  H20  1  0.120800  0.415400  0.460400  1.0  0.1274
  H  H21  1  0.935400  0.645400  0.473600  1.0  0.1214
  H  H22  1  0.008200  0.713700  0.405800  1.0  0.0847
  H  H23  1  0.322800  0.003300  0.744000  1.0  0.0707
  H  H24  1  0.541800  0.187900  0.707800  1.0  0.0735
  H  H25  1  0.158500  0.908300  0.748700  1.0  0.1217
  H  H26  1  0.301600  0.997300  0.605300  1.0  0.0996
  H  H27  1  0.379200  0.915400  0.539600  1.0  0.1275
  H  H28  1  0.564600  0.145400  0.526400  1.0  0.1218
  H  H29  1  0.491800  0.213700  0.594200  1.0  0.0845
  H  H30  1  0.677200  0.496700  0.244000  1.0  0.0707
  H  H31  1  0.458200  0.312100  0.207800  1.0  0.0735
  H  H32  1  0.841500  0.591700  0.248700  1.0  0.1244
  H  H33  1  0.698400  0.502700  0.105300  1.0  0.0992
  H  H34  1  0.620800  0.584600  0.039600  1.0  0.1272
  H  H35  1  0.435400  0.354600  0.026400  1.0  0.1211
  H  H36  1  0.508200  0.286300  0.094200  1.0  0.0843
  H  H37  1  0.177200  0.003300  0.244000  1.0  0.0708
  H  H38  1  0.958200  0.187900  0.207800  1.0  0.0736
  H  H39  1  0.341500  0.908300  0.248700  1.0  0.1245
  H  H40  1  0.198400  0.997300  0.105300  1.0  0.0997
  H  H41  1  0.120800  0.915400  0.039600  1.0  0.1276
  H  H42  1  0.935400  0.145400  0.026400  1.0  0.1216
  H  H43  1  0.008200  0.213700  0.094200  1.0  0.0844
  H  H44  1  0.822800  0.496700  0.744000  1.0  0.0707
  H  H45  1  0.041800  0.312100  0.707800  1.0  0.0736
  H  H46  1  0.658500  0.591700  0.748700  1.0  0.1219
  H  H47  1  0.801600  0.502700  0.605300  1.0  0.0991
  H  H48  1  0.879200  0.584600  0.539600  1.0  0.1274
  H  H49  1  0.064600  0.354600  0.526400  1.0  0.121
  H  H50  1  0.991800  0.286300  0.594200  1.0  0.0847
  H  H51  1  0.677200  0.996700  0.256000  1.0  0.0704
  H  H52  1  0.458200  0.812100  0.292200  1.0  0.0739
  H  H53  1  0.841500  0.091700  0.251300  1.0  0.1244
  H  H54  1  0.698400  0.002700  0.394700  1.0  0.0992
  H  H55  1  0.620800  0.084600  0.460400  1.0  0.1273
  H  H56  1  0.435400  0.854600  0.473600  1.0  0.121
  H  H57  1  0.508200  0.786300  0.405800  1.0  0.0846
  H  H58  1  0.322800  0.503300  0.756000  1.0  0.0703
  H  H59  1  0.541800  0.687900  0.792200  1.0  0.0735
  H  H60  1  0.158500  0.408300  0.751300  1.0  0.1216
  H  H61  1  0.301600  0.497300  0.894700  1.0  0.0994
  H  H62  1  0.379200  0.415400  0.960400  1.0  0.1276
  H  H63  1  0.564600  0.645400  0.973600  1.0  0.122
  H  H64  1  0.491800  0.713700  0.905800  1.0  0.0846
  C  C65  1  0.640000  0.923000  0.800000  1.0  0.6504
  C  C66  1  0.558900  0.987000  0.776500  1.0  0.0517
  C  C67  1  0.455300  0.961000  0.774100  1.0  -0.1887
  C  C68  1  0.410900  0.870200  0.799900  1.0  0.6806
  C  C69  1  0.891300  0.978400  0.754000  1.0  0.1983
  C  C70  1  0.019400  0.870000  0.775900  1.0  0.18
  C  C71  1  0.590100  0.072600  0.750800  1.0  -0.1659
  C  C72  1  0.854700  0.970600  0.911300  1.0  0.1777
  C  C73  1  0.901000  0.019900  0.951800  1.0  -0.1826
  C  C74  1  0.976200  0.976000  0.978300  1.0  0.1021
  C  C75  1  0.009400  0.887400  0.959000  1.0  -0.1997
  C  C76  1  0.963500  0.845400  0.918500  1.0  0.1844
  C  C77  1  0.360000  0.577000  0.300000  1.0  0.6497
  C  C78  1  0.441100  0.513000  0.276500  1.0  0.0516
  C  C79  1  0.544700  0.539000  0.274100  1.0  -0.188
  C  C80  1  0.589100  0.629800  0.299900  1.0  0.6797
  C  C81  1  0.108700  0.521600  0.254000  1.0  0.1969
  C  C82  1  0.980600  0.630000  0.275900  1.0  0.1795
  C  C83  1  0.409900  0.427400  0.250800  1.0  -0.1683
  C  C84  1  0.145300  0.529400  0.411300  1.0  0.1792
  C  C85  1  0.099000  0.480100  0.451800  1.0  -0.1828
  C  C86  1  0.023800  0.524000  0.478300  1.0  0.1022
  C  C87  1  0.990600  0.612600  0.459000  1.0  -0.2003
  C  C88  1  0.036500  0.654600  0.418500  1.0  0.1849
  C  C89  1  0.140000  0.077000  0.700000  1.0  0.6508
  C  C90  1  0.058900  0.013000  0.723500  1.0  0.0501
  C  C91  1  0.955300  0.039000  0.725900  1.0  -0.1895
  C  C92  1  0.910900  0.129800  0.700100  1.0  0.6779
  C  C93  1  0.391300  0.021600  0.746000  1.0  0.1981
  C  C94  1  0.519400  0.130000  0.724100  1.0  0.1799
  C  C95  1  0.090100  0.927400  0.749200  1.0  -0.166
  C  C96  1  0.354700  0.029400  0.588700  1.0  0.1763
  C  C97  1  0.401000  0.980100  0.548200  1.0  -0.1836
  C  C98  1  0.476200  0.024000  0.521700  1.0  0.1018
  C  C99  1  0.509400  0.112600  0.541000  1.0  -0.1998
  C  C100  1  0.463500  0.154600  0.581500  1.0  0.1841
  C  C101  1  0.860000  0.423000  0.200000  1.0  0.6498
  C  C102  1  0.941100  0.487000  0.223500  1.0  0.0498
  C  C103  1  0.044700  0.461000  0.225900  1.0  -0.1887
  C  C104  1  0.089100  0.370200  0.200100  1.0  0.6803
  C  C105  1  0.608700  0.478400  0.246000  1.0  0.1965
  C  C106  1  0.480600  0.370000  0.224100  1.0  0.18
  C  C107  1  0.909900  0.572600  0.249200  1.0  -0.1681
  C  C108  1  0.645300  0.470600  0.088700  1.0  0.1774
  C  C109  1  0.599000  0.519900  0.048200  1.0  -0.1834
  C  C110  1  0.523800  0.476000  0.021700  1.0  0.1018
  C  C111  1  0.490600  0.387400  0.041000  1.0  -0.199
  C  C112  1  0.536500  0.345400  0.081500  1.0  0.1852
  C  C113  1  0.360000  0.077000  0.200000  1.0  0.6496
  C  C114  1  0.441100  0.013000  0.223500  1.0  0.05
  C  C115  1  0.544700  0.039000  0.225900  1.0  -0.1887
  C  C116  1  0.589100  0.129800  0.200100  1.0  0.6797
  C  C117  1  0.108700  0.021600  0.246000  1.0  0.1968
  C  C118  1  0.980600  0.130000  0.224100  1.0  0.18
  C  C119  1  0.409900  0.927400  0.249200  1.0  -0.1686
  C  C120  1  0.145300  0.029400  0.088700  1.0  0.1776
  C  C121  1  0.099000  0.980100  0.048200  1.0  -0.1823
  C  C122  1  0.023800  0.024000  0.021700  1.0  0.1018
  C  C123  1  0.990600  0.112600  0.041000  1.0  -0.2001
  C  C124  1  0.036500  0.154600  0.081500  1.0  0.1845
  C  C125  1  0.640000  0.423000  0.700000  1.0  0.6503
  C  C126  1  0.558900  0.487000  0.723500  1.0  0.0499
  C  C127  1  0.455300  0.461000  0.725900  1.0  -0.1895
  C  C128  1  0.410900  0.370200  0.700100  1.0  0.6811
  C  C129  1  0.891300  0.478400  0.746000  1.0  0.1982
  C  C130  1  0.019400  0.370000  0.724100  1.0  0.1799
  C  C131  1  0.590100  0.572600  0.749200  1.0  -0.1663
  C  C132  1  0.854700  0.470600  0.588700  1.0  0.1763
  C  C133  1  0.901000  0.519900  0.548200  1.0  -0.1817
  C  C134  1  0.976200  0.476000  0.521700  1.0  0.1019
  C  C135  1  0.009400  0.387400  0.541000  1.0  -0.1996
  C  C136  1  0.963500  0.345400  0.581500  1.0  0.1846
  C  C137  1  0.860000  0.923000  0.300000  1.0  0.6497
  C  C138  1  0.941100  0.987000  0.276500  1.0  0.0516
  C  C139  1  0.044700  0.961000  0.274100  1.0  -0.1877
  C  C140  1  0.089100  0.870200  0.299900  1.0  0.6831
  C  C141  1  0.608700  0.978400  0.254000  1.0  0.1967
  C  C142  1  0.480600  0.870000  0.275900  1.0  0.1801
  C  C143  1  0.909900  0.072600  0.250800  1.0  -0.1676
  C  C144  1  0.645300  0.970600  0.411300  1.0  0.1791
  C  C145  1  0.599000  0.019900  0.451800  1.0  -0.1828
  C  C146  1  0.523800  0.976000  0.478300  1.0  0.1021
  C  C147  1  0.490600  0.887400  0.459000  1.0  -0.199
  C  C148  1  0.536500  0.845400  0.418500  1.0  0.185
  C  C149  1  0.140000  0.577000  0.800000  1.0  0.6508
  C  C150  1  0.058900  0.513000  0.776500  1.0  0.0517
  C  C151  1  0.955300  0.539000  0.774100  1.0  -0.1889
  C  C152  1  0.910900  0.629800  0.799900  1.0  0.6791
  C  C153  1  0.391300  0.521600  0.754000  1.0  0.1981
  C  C154  1  0.519400  0.630000  0.775900  1.0  0.1796
  C  C155  1  0.090100  0.427400  0.750800  1.0  -0.1658
  C  C156  1  0.354700  0.529400  0.911300  1.0  0.1774
  C  C157  1  0.401000  0.480100  0.951800  1.0  -0.1829
  C  C158  1  0.476200  0.524000  0.978300  1.0  0.1022
  C  C159  1  0.509400  0.612600  0.959000  1.0  -0.2002
  C  C160  1  0.463500  0.654600  0.918500  1.0  0.1842
  N  N161  1  0.921100  0.894900  0.778820  1.0  -0.3661
  N  N162  1  0.884000  0.881100  0.896500  1.0  -0.3344
  N  N163  1  0.078900  0.605100  0.278820  1.0  -0.3651
  N  N164  1  0.116000  0.618900  0.396500  1.0  -0.3358
  N  N165  1  0.421100  0.105100  0.721180  1.0  -0.368
  N  N166  1  0.384000  0.118900  0.603500  1.0  -0.3326
  N  N167  1  0.578900  0.394900  0.221180  1.0  -0.3675
  N  N168  1  0.616000  0.381100  0.103500  1.0  -0.3325
  N  N169  1  0.078900  0.105100  0.221180  1.0  -0.3653
  N  N170  1  0.116000  0.118900  0.103500  1.0  -0.3329
  N  N171  1  0.921100  0.394900  0.721180  1.0  -0.3662
  N  N172  1  0.884000  0.381100  0.603500  1.0  -0.3334
  N  N173  1  0.578900  0.894900  0.278820  1.0  -0.3674
  N  N174  1  0.616000  0.881100  0.396500  1.0  -0.3341
  N  N175  1  0.421100  0.605100  0.778820  1.0  -0.3678
  N  N176  1  0.384000  0.618900  0.896500  1.0  -0.3343
  O  O177  1  0.684400  0.957500  0.836500  1.0  -0.6253
  O  O178  1  0.666200  0.843700  0.779200  1.0  -0.5735
  O  O179  1  0.456400  0.830900  0.835210  1.0  -0.6111
  O  O180  1  0.327200  0.837800  0.783400  1.0  -0.5899
  O  O181  1  0.315600  0.542500  0.336500  1.0  -0.6242
  O  O182  1  0.333800  0.656300  0.279200  1.0  -0.5734
  O  O183  1  0.543600  0.669100  0.335210  1.0  -0.6121
  O  O184  1  0.672800  0.662200  0.283400  1.0  -0.5906
  O  O185  1  0.184400  0.042500  0.663500  1.0  -0.6258
  O  O186  1  0.166200  0.156300  0.720800  1.0  -0.5732
  O  O187  1  0.956400  0.169100  0.664790  1.0  -0.6125
  O  O188  1  0.827200  0.162200  0.716600  1.0  -0.591
  O  O189  1  0.815600  0.457500  0.163500  1.0  -0.6258
  O  O190  1  0.833800  0.343700  0.220800  1.0  -0.5726
  O  O191  1  0.043600  0.330900  0.164790  1.0  -0.6122
  O  O192  1  0.172800  0.337800  0.216600  1.0  -0.5908
  O  O193  1  0.315600  0.042500  0.163500  1.0  -0.6259
  O  O194  1  0.333800  0.156300  0.220800  1.0  -0.573
  O  O195  1  0.543600  0.169100  0.164790  1.0  -0.6137
  O  O196  1  0.672800  0.162200  0.216600  1.0  -0.5911
  O  O197  1  0.684400  0.457500  0.663500  1.0  -0.6259
  O  O198  1  0.666200  0.343700  0.720800  1.0  -0.5726
  O  O199  1  0.456400  0.330900  0.664790  1.0  -0.6117
  O  O200  1  0.327200  0.337800  0.716600  1.0  -0.5901
  O  O201  1  0.815600  0.957500  0.336500  1.0  -0.6242
  O  O202  1  0.833800  0.843700  0.279200  1.0  -0.5735
  O  O203  1  0.043600  0.830900  0.335210  1.0  -0.6114
  O  O204  1  0.172800  0.837800  0.283400  1.0  -0.5902
  O  O205  1  0.184400  0.542500  0.836500  1.0  -0.6252
  O  O206  1  0.166200  0.656300  0.779200  1.0  -0.5737
  O  O207  1  0.956400  0.669100  0.835210  1.0  -0.6113
  O  O208  1  0.827200  0.662200  0.783400  1.0  -0.5903
