# generated using pymatgen
data_Zn4H24C43N7O16
_symmetry_space_group_name_H-M   'P 1'
_cell_length_a   14.08400000
_cell_length_b   21.63200000
_cell_length_c   25.79400000
_cell_angle_alpha   106.27000000
_cell_angle_beta   90.00000000
_cell_angle_gamma   90.00000000
_symmetry_Int_Tables_number   1
_chemical_formula_structural   Zn4H24C43N7O16
_chemical_formula_sum   'Zn16 H96 C172 N28 O64'
_cell_volume   7543.81373977
_cell_formula_units_Z   4
loop_
 _symmetry_equiv_pos_site_id
 _symmetry_equiv_pos_as_xyz
  1  'x, y, z'
loop_
 _atom_site_type_symbol
 _atom_site_label
 _atom_site_symmetry_multiplicity
 _atom_site_fract_x
 _atom_site_fract_y
 _atom_site_fract_z
 _atom_site_occupancy
 _atom_site_charge
  Zn  Zn1  1  0.871540  0.610100  0.711560  1.0  0.8445
  Zn  Zn2  1  0.377190  0.881390  0.773700  1.0  0.8007
  Zn  Zn3  1  0.371670  0.575500  0.600700  1.0  1.0068
  Zn  Zn4  1  0.857700  0.916210  0.876290  1.0  1.0055
  Zn  Zn5  1  0.371540  0.389900  0.788440  1.0  0.8452
  Zn  Zn6  1  0.877190  0.118610  0.726300  1.0  0.8026
  Zn  Zn7  1  0.871670  0.424500  0.899300  1.0  1.0052
  Zn  Zn8  1  0.357700  0.083790  0.623710  1.0  1.0078
  Zn  Zn9  1  0.128460  0.389900  0.288440  1.0  0.845
  Zn  Zn10  1  0.622810  0.118610  0.226300  1.0  0.803
  Zn  Zn11  1  0.628330  0.424500  0.399300  1.0  1.0049
  Zn  Zn12  1  0.142300  0.083790  0.123710  1.0  1.0075
  Zn  Zn13  1  0.628460  0.610100  0.211560  1.0  0.8453
  Zn  Zn14  1  0.122810  0.881390  0.273700  1.0  0.8006
  Zn  Zn15  1  0.128330  0.575500  0.100700  1.0  1.0057
  Zn  Zn16  1  0.642300  0.916210  0.376290  1.0  1.0059
  H  H17  1  0.669500  0.581900  0.662700  1.0  0.0628
  H  H18  1  0.665600  0.438500  0.761900  1.0  0.0921
  H  H19  1  0.799500  0.495700  0.756000  1.0  0.0846
  H  H20  1  0.075400  0.601600  0.668900  1.0  0.0647
  H  H21  1  0.083000  0.814000  0.762000  1.0  0.0999
  H  H22  1  0.945200  0.751800  0.758000  1.0  0.0768
  H  H23  1  0.194500  0.913300  0.833400  1.0  0.0867
  H  H24  1  0.155000  0.031000  0.713000  1.0  0.104
  H  H25  1  0.291300  0.976200  0.716800  1.0  0.0796
  H  H26  1  0.575500  0.880100  0.809000  1.0  0.0766
  H  H27  1  0.581300  0.690400  0.676700  1.0  0.1047
  H  H28  1  0.445200  0.749200  0.697800  1.0  0.0697
  H  H29  1  0.903000  0.479900  0.633600  1.0  0.0825
  H  H30  1  0.968000  0.433100  0.550800  1.0  0.1217
  H  H31  1  0.971200  0.606300  0.523900  1.0  0.1205
  H  H32  1  0.905400  0.647700  0.607300  1.0  0.0733
  H  H33  1  0.629300  0.770800  0.358200  1.0  0.0718
  H  H34  1  0.571300  0.699100  0.400100  1.0  0.1073
  H  H35  1  0.507500  0.633100  0.438600  1.0  0.1137
  H  H36  1  0.446600  0.567500  0.485900  1.0  0.076
  H  H37  1  0.380200  0.714600  0.605800  1.0  0.0728
  H  H38  1  0.443000  0.783900  0.563300  1.0  0.1206
  H  H39  1  0.492700  0.845700  0.524300  1.0  0.1166
  H  H40  1  0.551500  0.914500  0.479500  1.0  0.0828
  H  H41  1  0.169500  0.418100  0.837300  1.0  0.0629
  H  H42  1  0.165600  0.561500  0.738100  1.0  0.0921
  H  H43  1  0.299500  0.504300  0.744000  1.0  0.0843
  H  H44  1  0.575400  0.398400  0.831100  1.0  0.0652
  H  H45  1  0.583000  0.186000  0.738000  1.0  0.1004
  H  H46  1  0.445200  0.248200  0.742000  1.0  0.077
  H  H47  1  0.694500  0.086700  0.666667  1.0  0.0813
  H  H48  1  0.655000  0.969000  0.787000  1.0  0.1044
  H  H49  1  0.791300  0.023800  0.783200  1.0  0.08
  H  H50  1  0.075500  0.119900  0.691000  1.0  0.0753
  H  H51  1  0.081300  0.309600  0.823300  1.0  0.1048
  H  H52  1  0.945200  0.250800  0.802200  1.0  0.0696
  H  H53  1  0.403000  0.520100  0.866400  1.0  0.0831
  H  H54  1  0.468000  0.566900  0.949200  1.0  0.122
  H  H55  1  0.471200  0.393700  0.976100  1.0  0.1211
  H  H56  1  0.405400  0.352300  0.892700  1.0  0.0726
  H  H57  1  0.129300  0.229200  0.141800  1.0  0.0707
  H  H58  1  0.071300  0.300900  0.099900  1.0  0.1071
  H  H59  1  0.007500  0.366900  0.061400  1.0  0.1125
  H  H60  1  0.946600  0.432500  0.014100  1.0  0.0754
  H  H61  1  0.880200  0.285400  0.894200  1.0  0.0739
  H  H62  1  0.943000  0.216100  0.936700  1.0  0.1219
  H  H63  1  0.992700  0.154300  0.975700  1.0  0.1164
  H  H64  1  0.051500  0.085500  0.020500  1.0  0.083
  H  H65  1  0.330500  0.418100  0.337300  1.0  0.063
  H  H66  1  0.334400  0.561500  0.238100  1.0  0.0925
  H  H67  1  0.200500  0.504300  0.244000  1.0  0.0847
  H  H68  1  0.924600  0.398400  0.331100  1.0  0.0645
  H  H69  1  0.917000  0.186000  0.238000  1.0  0.1006
  H  H70  1  0.054800  0.248200  0.242000  1.0  0.0755
  H  H71  1  0.805500  0.086700  0.166600  1.0  0.0864
  H  H72  1  0.845000  0.969000  0.287000  1.0  0.1041
  H  H73  1  0.708700  0.023800  0.283200  1.0  0.0801
  H  H74  1  0.424500  0.119900  0.191000  1.0  0.0753
  H  H75  1  0.418700  0.309600  0.323300  1.0  0.1046
  H  H76  1  0.554800  0.250800  0.302200  1.0  0.0695
  H  H77  1  0.097000  0.520100  0.366400  1.0  0.083
  H  H78  1  0.032000  0.566900  0.449200  1.0  0.1218
  H  H79  1  0.028800  0.393700  0.476100  1.0  0.1212
  H  H80  1  0.094600  0.352300  0.392700  1.0  0.0723
  H  H81  1  0.370700  0.229200  0.641800  1.0  0.0705
  H  H82  1  0.428700  0.300900  0.599900  1.0  0.1069
  H  H83  1  0.492500  0.366900  0.561400  1.0  0.1127
  H  H84  1  0.553400  0.432500  0.514100  1.0  0.0756
  H  H85  1  0.619800  0.285400  0.394200  1.0  0.0736
  H  H86  1  0.557000  0.216100  0.436700  1.0  0.1218
  H  H87  1  0.507300  0.154300  0.475700  1.0  0.1166
  H  H88  1  0.448500  0.085500  0.520500  1.0  0.0831
  H  H89  1  0.830500  0.581900  0.162700  1.0  0.0628
  H  H90  1  0.834400  0.438500  0.261900  1.0  0.0922
  H  H91  1  0.700500  0.495700  0.256000  1.0  0.0851
  H  H92  1  0.424600  0.601600  0.168900  1.0  0.0641
  H  H93  1  0.417000  0.814000  0.262000  1.0  0.0998
  H  H94  1  0.554800  0.751800  0.258000  1.0  0.0754
  H  H95  1  0.305500  0.913300  0.333400  1.0  0.0873
  H  H96  1  0.345000  0.031000  0.213000  1.0  0.1041
  H  H97  1  0.208700  0.976200  0.216800  1.0  0.0799
  H  H98  1  0.924500  0.880100  0.309000  1.0  0.0761
  H  H99  1  0.918700  0.690400  0.176700  1.0  0.1045
  H  H100  1  0.054800  0.749200  0.197800  1.0  0.0696
  H  H101  1  0.597000  0.479900  0.133600  1.0  0.0828
  H  H102  1  0.532000  0.433100  0.050800  1.0  0.1214
  H  H103  1  0.528800  0.606300  0.023900  1.0  0.1211
  H  H104  1  0.594600  0.647700  0.107300  1.0  0.0733
  H  H105  1  0.870700  0.770800  0.858200  1.0  0.0719
  H  H106  1  0.928700  0.699100  0.900100  1.0  0.1071
  H  H107  1  0.992500  0.633100  0.938600  1.0  0.114
  H  H108  1  0.053400  0.567500  0.985900  1.0  0.0763
  H  H109  1  0.119800  0.714600  0.105800  1.0  0.0728
  H  H110  1  0.057000  0.783900  0.063300  1.0  0.1206
  H  H111  1  0.007300  0.845700  0.024300  1.0  0.1169
  H  H112  1  0.948500  0.914500  0.979500  1.0  0.0826
  C  C113  1  0.668300  0.552900  0.683400  1.0  0.2202
  C  C114  1  0.584100  0.520800  0.685800  1.0  -0.1339
  C  C115  1  0.495400  0.537900  0.659600  1.0  0.6789
  C  C116  1  0.581100  0.476000  0.715500  1.0  -0.0374
  C  C117  1  0.495400  0.435800  0.719100  1.0  0.6597
  C  C118  1  0.664300  0.467800  0.741500  1.0  -0.1414
  C  C119  1  0.745100  0.502300  0.737800  1.0  0.1662
  C  C120  1  0.076500  0.645000  0.688100  1.0  0.1734
  C  C121  1  0.160900  0.678200  0.688700  1.0  -0.1494
  C  C122  1  0.245900  0.643200  0.660200  1.0  0.6778
  C  C123  1  0.162700  0.743500  0.716700  1.0  -0.0393
  C  C124  1  0.248200  0.786400  0.719400  1.0  0.6651
  C  C125  1  0.080000  0.770500  0.742300  1.0  -0.1346
  C  C126  1  0.999600  0.732800  0.740000  1.0  0.1597
  C  C127  1  0.185800  0.937700  0.809300  1.0  0.2101
  C  C128  1  0.100300  0.969500  0.811000  1.0  -0.1026
  C  C129  1  0.024800  0.957200  0.848300  1.0  0.73
  C  C130  1  0.087200  0.006300  0.775200  1.0  -0.0165
  C  C131  1  0.999800  0.047600  0.775500  1.0  0.6568
  C  C132  1  0.160600  0.007800  0.739500  1.0  -0.1231
  C  C133  1  0.243000  0.974400  0.741000  1.0  0.1512
  C  C134  1  0.577500  0.841500  0.781600  1.0  0.224
  C  C135  1  0.663300  0.809900  0.771200  1.0  -0.1637
  C  C136  1  0.748500  0.841100  0.802500  1.0  0.6947
  C  C137  1  0.666500  0.751300  0.731000  1.0  -0.0326
  C  C138  1  0.753000  0.709100  0.715500  1.0  0.6911
  C  C139  1  0.582200  0.729300  0.703700  1.0  -0.1676
  C  C140  1  0.500500  0.764800  0.716700  1.0  0.1889
  C  C141  1  0.916800  0.505700  0.611200  1.0  0.1629
  C  C142  1  0.956000  0.477200  0.561400  1.0  -0.2154
  C  C143  1  0.977600  0.514400  0.527000  1.0  0.0969
  C  C144  1  0.957900  0.579300  0.545400  1.0  -0.2201
  C  C145  1  0.918400  0.603800  0.595800  1.0  0.1683
  C  C146  1  0.601500  0.786300  0.392100  1.0  0.1811
  C  C147  1  0.566700  0.743000  0.417300  1.0  -0.1608
  C  C148  1  0.525100  0.763000  0.467400  1.0  0.0495
  C  C149  1  0.485200  0.717700  0.495700  1.0  0.0924
  C  C150  1  0.483300  0.651000  0.473100  1.0  -0.1838
  C  C151  1  0.445800  0.611800  0.501700  1.0  0.1398
  C  C152  1  0.407500  0.697700  0.571900  1.0  0.1753
  C  C153  1  0.444900  0.739900  0.546300  1.0  -0.2002
  C  C154  1  0.520200  0.829200  0.490400  1.0  -0.1983
  C  C155  1  0.556000  0.870400  0.463300  1.0  0.1461
  C  C156  1  0.168300  0.447100  0.816600  1.0  0.2208
  C  C157  1  0.084100  0.479200  0.814200  1.0  -0.1333
  C  C158  1  0.995400  0.462100  0.840400  1.0  0.6793
  C  C159  1  0.081100  0.524000  0.784500  1.0  -0.0374
  C  C160  1  0.995400  0.564200  0.780900  1.0  0.6587
  C  C161  1  0.164300  0.532200  0.758500  1.0  -0.1409
  C  C162  1  0.245100  0.497700  0.762200  1.0  0.1655
  C  C163  1  0.576500  0.355000  0.811900  1.0  0.1741
  C  C164  1  0.660900  0.321800  0.811300  1.0  -0.1491
  C  C165  1  0.745900  0.356800  0.839800  1.0  0.678
  C  C166  1  0.662700  0.256500  0.783300  1.0  -0.0391
  C  C167  1  0.748200  0.213600  0.780600  1.0  0.6652
  C  C168  1  0.580000  0.229500  0.757700  1.0  -0.134
  C  C169  1  0.499600  0.267200  0.760000  1.0  0.1596
  C  C170  1  0.685800  0.062300  0.690700  1.0  0.2123
  C  C171  1  0.600300  0.030500  0.689000  1.0  -0.1056
  C  C172  1  0.524800  0.042800  0.651700  1.0  0.7307
  C  C173  1  0.587200  0.993700  0.724800  1.0  -0.0168
  C  C174  1  0.499800  0.952400  0.724500  1.0  0.657
  C  C175  1  0.660600  0.992200  0.760500  1.0  -0.1244
  C  C176  1  0.743000  0.025600  0.759000  1.0  0.1511
  C  C177  1  0.077500  0.158500  0.718400  1.0  0.2264
  C  C178  1  0.163300  0.190100  0.728800  1.0  -0.164
  C  C179  1  0.248500  0.158900  0.697500  1.0  0.6942
  C  C180  1  0.166500  0.248700  0.769000  1.0  -0.0327
  C  C181  1  0.253000  0.290900  0.784500  1.0  0.692
  C  C182  1  0.082200  0.270700  0.796300  1.0  -0.1689
  C  C183  1  0.000500  0.235200  0.783300  1.0  0.188
  C  C184  1  0.416800  0.494300  0.888800  1.0  0.1609
  C  C185  1  0.456000  0.522800  0.938600  1.0  -0.2144
  C  C186  1  0.477600  0.485600  0.973000  1.0  0.0965
  C  C187  1  0.457900  0.420700  0.954600  1.0  -0.2175
  C  C188  1  0.418400  0.396200  0.904200  1.0  0.1672
  C  C189  1  0.101500  0.213700  0.107900  1.0  0.1814
  C  C190  1  0.066700  0.257000  0.082700  1.0  -0.16
  C  C191  1  0.025100  0.237000  0.032600  1.0  0.0501
  C  C192  1  0.985200  0.282300  0.004300  1.0  0.0923
  C  C193  1  0.983300  0.349000  0.026900  1.0  -0.1844
  C  C194  1  0.945800  0.388200  0.998300  1.0  0.1402
  C  C195  1  0.907500  0.302300  0.928100  1.0  0.1746
  C  C196  1  0.944900  0.260100  0.953700  1.0  -0.1994
  C  C197  1  0.020200  0.170800  0.009600  1.0  -0.197
  C  C198  1  0.056000  0.129600  0.036700  1.0  0.1458
  C  C199  1  0.331700  0.447100  0.316600  1.0  0.2205
  C  C200  1  0.415900  0.479200  0.314200  1.0  -0.1345
  C  C201  1  0.504600  0.462100  0.340400  1.0  0.6791
  C  C202  1  0.418900  0.524000  0.284500  1.0  -0.0366
  C  C203  1  0.504600  0.564200  0.280900  1.0  0.659
  C  C204  1  0.335700  0.532200  0.258500  1.0  -0.1391
  C  C205  1  0.254900  0.497700  0.262200  1.0  0.1647
  C  C206  1  0.923500  0.355000  0.311900  1.0  0.1742
  C  C207  1  0.839100  0.321800  0.311300  1.0  -0.1486
  C  C208  1  0.754100  0.356800  0.339800  1.0  0.6777
  C  C209  1  0.837300  0.256500  0.283300  1.0  -0.0397
  C  C210  1  0.751800  0.213600  0.280600  1.0  0.665
  C  C211  1  0.920000  0.229500  0.257700  1.0  -0.1343
  C  C212  1  0.000400  0.267200  0.260000  1.0  0.1607
  C  C213  1  0.814200  0.062300  0.190700  1.0  0.21
  C  C214  1  0.899700  0.030500  0.189000  1.0  -0.1047
  C  C215  1  0.975200  0.042800  0.151700  1.0  0.7294
  C  C216  1  0.912800  0.993700  0.224800  1.0  -0.017
  C  C217  1  0.000200  0.952400  0.224500  1.0  0.6571
  C  C218  1  0.839400  0.992200  0.260500  1.0  -0.1241
  C  C219  1  0.757000  0.025600  0.259000  1.0  0.1512
  C  C220  1  0.422500  0.158500  0.218400  1.0  0.2252
  C  C221  1  0.336700  0.190100  0.228800  1.0  -0.1648
  C  C222  1  0.251500  0.158900  0.197500  1.0  0.6926
  C  C223  1  0.333500  0.248700  0.269000  1.0  -0.0336
  C  C224  1  0.247000  0.290900  0.284500  1.0  0.6901
  C  C225  1  0.417800  0.270700  0.296300  1.0  -0.1681
  C  C226  1  0.499500  0.235200  0.283300  1.0  0.1892
  C  C227  1  0.083200  0.494300  0.388800  1.0  0.1615
  C  C228  1  0.044000  0.522800  0.438600  1.0  -0.2159
  C  C229  1  0.022400  0.485600  0.473000  1.0  0.097
  C  C230  1  0.042100  0.420700  0.454600  1.0  -0.2135
  C  C231  1  0.081600  0.396200  0.404200  1.0  0.1691
  C  C232  1  0.398500  0.213700  0.607900  1.0  0.1824
  C  C233  1  0.433300  0.257000  0.582700  1.0  -0.1598
  C  C234  1  0.474900  0.237000  0.532600  1.0  0.0499
  C  C235  1  0.514800  0.282300  0.504300  1.0  0.0924
  C  C236  1  0.516700  0.349000  0.526900  1.0  -0.1847
  C  C237  1  0.554200  0.388200  0.498300  1.0  0.1397
  C  C238  1  0.592500  0.302300  0.428100  1.0  0.1746
  C  C239  1  0.555100  0.260100  0.453700  1.0  -0.2
  C  C240  1  0.479800  0.170800  0.509600  1.0  -0.1968
  C  C241  1  0.444000  0.129600  0.536700  1.0  0.1451
  C  C242  1  0.831700  0.552900  0.183400  1.0  0.2201
  C  C243  1  0.915900  0.520800  0.185800  1.0  -0.1347
  C  C244  1  0.004600  0.537900  0.159600  1.0  0.6788
  C  C245  1  0.918900  0.476000  0.215500  1.0  -0.0366
  C  C246  1  0.004600  0.435800  0.219100  1.0  0.6597
  C  C247  1  0.835700  0.467800  0.241500  1.0  -0.1399
  C  C248  1  0.754900  0.502300  0.237800  1.0  0.1652
  C  C249  1  0.423500  0.645000  0.188100  1.0  0.1736
  C  C250  1  0.339100  0.678200  0.188700  1.0  -0.1491
  C  C251  1  0.254100  0.643200  0.160200  1.0  0.6775
  C  C252  1  0.337300  0.743500  0.216700  1.0  -0.0389
  C  C253  1  0.251800  0.786400  0.219400  1.0  0.6649
  C  C254  1  0.420000  0.770500  0.242300  1.0  -0.135
  C  C255  1  0.500400  0.732800  0.240000  1.0  0.1612
  C  C256  1  0.314200  0.937700  0.309300  1.0  0.2092
  C  C257  1  0.399700  0.969500  0.311000  1.0  -0.1033
  C  C258  1  0.475200  0.957200  0.348300  1.0  0.7297
  C  C259  1  0.412800  0.006300  0.275200  1.0  -0.0169
  C  C260  1  0.500200  0.047600  0.275500  1.0  0.6576
  C  C261  1  0.339400  0.007800  0.239500  1.0  -0.1227
  C  C262  1  0.257000  0.974400  0.241000  1.0  0.1513
  C  C263  1  0.922500  0.841500  0.281600  1.0  0.2242
  C  C264  1  0.836700  0.809900  0.271200  1.0  -0.1641
  C  C265  1  0.751500  0.841100  0.302500  1.0  0.6927
  C  C266  1  0.833500  0.751300  0.231000  1.0  -0.0335
  C  C267  1  0.747000  0.709100  0.215500  1.0  0.6894
  C  C268  1  0.917800  0.729300  0.203700  1.0  -0.1676
  C  C269  1  0.999500  0.764800  0.216700  1.0  0.1899
  C  C270  1  0.583200  0.505700  0.111200  1.0  0.1628
  C  C271  1  0.544000  0.477200  0.061400  1.0  -0.2166
  C  C272  1  0.522400  0.514400  0.027000  1.0  0.0974
  C  C273  1  0.542100  0.579300  0.045400  1.0  -0.2158
  C  C274  1  0.581600  0.603800  0.095800  1.0  0.1688
  C  C275  1  0.898500  0.786300  0.892100  1.0  0.1818
  C  C276  1  0.933300  0.743000  0.917300  1.0  -0.1612
  C  C277  1  0.974900  0.763000  0.967400  1.0  0.0491
  C  C278  1  0.014800  0.717700  0.995700  1.0  0.0923
  C  C279  1  0.016700  0.651000  0.973100  1.0  -0.184
  C  C280  1  0.054200  0.611800  0.001700  1.0  0.1397
  C  C281  1  0.092500  0.697700  0.071900  1.0  0.1751
  C  C282  1  0.055100  0.739900  0.046300  1.0  -0.2012
  C  C283  1  0.979800  0.829200  0.990400  1.0  -0.1981
  C  C284  1  0.944000  0.870400  0.963300  1.0  0.146
  N  N285  1  0.747900  0.544900  0.708760  1.0  -0.3168
  N  N286  1  0.997100  0.670500  0.713120  1.0  -0.3204
  N  N287  1  0.257000  0.939700  0.775460  1.0  -0.3163
  N  N288  1  0.496700  0.820700  0.755080  1.0  -0.3476
  N  N289  1  0.897800  0.568200  0.628930  1.0  -0.3343
  N  N290  1  0.597000  0.850100  0.414600  1.0  -0.2925
  N  N291  1  0.408100  0.633900  0.551100  1.0  -0.3463
  N  N292  1  0.247900  0.455100  0.791240  1.0  -0.3173
  N  N293  1  0.497100  0.329500  0.786880  1.0  -0.3202
  N  N294  1  0.757000  0.060300  0.724540  1.0  -0.3168
  N  N295  1  0.996700  0.179300  0.744920  1.0  -0.3498
  N  N296  1  0.397800  0.431800  0.871070  1.0  -0.3346
  N  N297  1  0.097000  0.149900  0.085400  1.0  -0.292
  N  N298  1  0.908100  0.366100  0.948900  1.0  -0.3446
  N  N299  1  0.252100  0.455100  0.291240  1.0  -0.3189
  N  N300  1  0.002900  0.329500  0.286880  1.0  -0.3185
  N  N301  1  0.743000  0.060300  0.224540  1.0  -0.3189
  N  N302  1  0.503300  0.179300  0.244920  1.0  -0.3483
  N  N303  1  0.102200  0.431800  0.371070  1.0  -0.3332
  N  N304  1  0.403000  0.149900  0.585400  1.0  -0.2914
  N  N305  1  0.591900  0.366100  0.448900  1.0  -0.3459
  N  N306  1  0.752100  0.544900  0.208760  1.0  -0.3181
  N  N307  1  0.502900  0.670500  0.213120  1.0  -0.3183
  N  N308  1  0.243000  0.939700  0.275460  1.0  -0.3183
  N  N309  1  0.003300  0.820700  0.255080  1.0  -0.3465
  N  N310  1  0.602200  0.568200  0.128930  1.0  -0.3322
  N  N311  1  0.903000  0.850100  0.914600  1.0  -0.2908
  N  N312  1  0.091900  0.633900  0.051100  1.0  -0.3463
  O  O313  1  0.506300  0.565600  0.623170  1.0  -0.5991
  O  O314  1  0.417200  0.525900  0.674400  1.0  -0.6071
  O  O315  1  0.475500  0.390900  0.679730  1.0  -0.5851
  O  O316  1  0.454100  0.451410  0.764060  1.0  -0.5902
  O  O317  1  0.232900  0.591900  0.623240  1.0  -0.5787
  O  O318  1  0.326700  0.665200  0.672580  1.0  -0.6072
  O  O319  1  0.271500  0.802700  0.679100  1.0  -0.5354
  O  O320  1  0.286700  0.804830  0.765020  1.0  -0.595
  O  O321  1  0.048000  0.953700  0.893500  1.0  -0.5023
  O  O322  1  0.942100  0.949390  0.829870  1.0  -0.579
  O  O323  1  0.975900  0.083900  0.819300  1.0  -0.5227
  O  O324  1  0.962700  0.043830  0.730880  1.0  -0.5988
  O  O325  1  0.732700  0.888810  0.844020  1.0  -0.6334
  O  O326  1  0.828300  0.821570  0.787760  1.0  -0.5974
  O  O327  1  0.783900  0.700700  0.669400  1.0  -0.5643
  O  O328  1  0.783200  0.681440  0.749300  1.0  -0.5945
  O  O329  1  0.006300  0.434400  0.876830  1.0  -0.5985
  O  O330  1  0.917200  0.474100  0.825600  1.0  -0.6074
  O  O331  1  0.975500  0.609100  0.820270  1.0  -0.5862
  O  O332  1  0.954100  0.548590  0.735940  1.0  -0.591
  O  O333  1  0.732900  0.408100  0.876760  1.0  -0.5791
  O  O334  1  0.826700  0.334800  0.827420  1.0  -0.6064
  O  O335  1  0.771500  0.197300  0.820900  1.0  -0.5354
  O  O336  1  0.786700  0.195170  0.734980  1.0  -0.5933
  O  O337  1  0.548000  0.046300  0.606500  1.0  -0.5025
  O  O338  1  0.442100  0.050610  0.670130  1.0  -0.5782
  O  O339  1  0.475900  0.916100  0.680700  1.0  -0.5232
  O  O340  1  0.462700  0.956170  0.769120  1.0  -0.5991
  O  O341  1  0.232700  0.111190  0.655980  1.0  -0.633
  O  O342  1  0.328300  0.178430  0.712240  1.0  -0.5976
  O  O343  1  0.283900  0.299300  0.830600  1.0  -0.5611
  O  O344  1  0.283200  0.318560  0.750700  1.0  -0.5931
  O  O345  1  0.493700  0.434400  0.376830  1.0  -0.5985
  O  O346  1  0.582800  0.474100  0.325600  1.0  -0.6085
  O  O347  1  0.524500  0.609100  0.320270  1.0  -0.5858
  O  O348  1  0.545900  0.548590  0.235940  1.0  -0.5898
  O  O349  1  0.767100  0.408100  0.376760  1.0  -0.5787
  O  O350  1  0.673300  0.334800  0.327420  1.0  -0.6056
  O  O351  1  0.728500  0.197300  0.320900  1.0  -0.535
  O  O352  1  0.713300  0.195170  0.234980  1.0  -0.5933
  O  O353  1  0.952000  0.046300  0.106500  1.0  -0.5023
  O  O354  1  0.057900  0.050610  0.170130  1.0  -0.5783
  O  O355  1  0.024100  0.916100  0.180700  1.0  -0.5226
  O  O356  1  0.037300  0.956170  0.269120  1.0  -0.5999
  O  O357  1  0.267300  0.111190  0.155980  1.0  -0.6327
  O  O358  1  0.171700  0.178430  0.212240  1.0  -0.597
  O  O359  1  0.216100  0.299300  0.330600  1.0  -0.561
  O  O360  1  0.216800  0.318560  0.250700  1.0  -0.5931
  O  O361  1  0.993700  0.565600  0.123170  1.0  -0.5988
  O  O362  1  0.082800  0.525900  0.174400  1.0  -0.6082
  O  O363  1  0.024500  0.390900  0.179730  1.0  -0.5847
  O  O364  1  0.045900  0.451410  0.264060  1.0  -0.5895
  O  O365  1  0.267100  0.591900  0.123240  1.0  -0.5784
  O  O366  1  0.173300  0.665200  0.172580  1.0  -0.6068
  O  O367  1  0.228500  0.802700  0.179100  1.0  -0.5343
  O  O368  1  0.213300  0.804830  0.265020  1.0  -0.5949
  O  O369  1  0.452000  0.953700  0.393500  1.0  -0.5031
  O  O370  1  0.557900  0.949390  0.329870  1.0  -0.5795
  O  O371  1  0.524100  0.083900  0.319300  1.0  -0.5223
  O  O372  1  0.537300  0.043830  0.230880  1.0  -0.5995
  O  O373  1  0.767300  0.888810  0.344020  1.0  -0.6318
  O  O374  1  0.671700  0.821570  0.287760  1.0  -0.5971
  O  O375  1  0.716100  0.700700  0.169400  1.0  -0.5643
  O  O376  1  0.716800  0.681440  0.249300  1.0  -0.5937
