# generated using pymatgen
data_CdH7C12(NO2)2
_symmetry_space_group_name_H-M   'P 1'
_cell_length_a   7.57700000
_cell_length_b   15.07100000
_cell_length_c   27.32000000
_cell_angle_alpha   90.00000000
_cell_angle_beta   90.00000000
_cell_angle_gamma   90.00000000
_symmetry_Int_Tables_number   1
_chemical_formula_structural   CdH7C12(NO2)2
_chemical_formula_sum   'Cd8 H56 C96 N16 O32'
_cell_volume   3119.75185844
_cell_formula_units_Z   8
loop_
 _symmetry_equiv_pos_site_id
 _symmetry_equiv_pos_as_xyz
  1  'x, y, z'
loop_
 _atom_site_type_symbol
 _atom_site_label
 _atom_site_symmetry_multiplicity
 _atom_site_fract_x
 _atom_site_fract_y
 _atom_site_fract_z
 _atom_site_occupancy
 _atom_site_charge
  Cd  Cd1  1  0.616520  0.744710  0.661600  1.0  0.9484
  Cd  Cd2  1  0.763450  0.169950  0.594310  1.0  0.9368
  Cd  Cd3  1  0.383480  0.755290  0.161600  1.0  0.9485
  Cd  Cd4  1  0.236550  0.330050  0.094310  1.0  0.9379
  Cd  Cd5  1  0.383480  0.255290  0.338400  1.0  0.9479
  Cd  Cd6  1  0.236550  0.830050  0.405690  1.0  0.9371
  Cd  Cd7  1  0.616520  0.244710  0.838400  1.0  0.9474
  Cd  Cd8  1  0.763450  0.669950  0.905690  1.0  0.9376
  H  H9  1  0.060300  0.735000  0.732000  1.0  0.1143
  H  H10  1  0.834500  0.733000  0.786600  1.0  0.0859
  H  H11  1  0.166500  0.723700  0.895200  1.0  0.0684
  H  H12  1  0.213200  0.765400  0.644400  1.0  0.0773
  H  H13  1  0.559000  0.949500  0.617300  1.0  0.0851
  H  H14  1  0.342100  0.043800  0.591600  1.0  0.1156
  H  H15  1  0.463800  0.555900  0.636800  1.0  0.0985
  H  H16  1  0.433800  0.452900  0.575900  1.0  0.1329
  H  H17  1  0.556100  0.642000  0.479200  1.0  0.1301
  H  H18  1  0.573600  0.739700  0.542300  1.0  0.0897
  H  H19  1  0.923800  0.747500  0.011600  1.0  0.0834
  H  H20  1  0.022100  0.875000  0.046400  1.0  0.121
  H  H21  1  0.896300  0.003400  0.923100  1.0  0.1269
  H  H22  1  0.799800  0.871600  0.892700  1.0  0.0812
  H  H23  1  0.939700  0.765000  0.232000  1.0  0.1144
  H  H24  1  0.165500  0.767000  0.286600  1.0  0.0862
  H  H25  1  0.833500  0.776300  0.395200  1.0  0.0681
  H  H26  1  0.786800  0.734600  0.144400  1.0  0.0771
  H  H27  1  0.441000  0.550500  0.117300  1.0  0.0853
  H  H28  1  0.657900  0.456200  0.091600  1.0  0.1159
  H  H29  1  0.536200  0.944100  0.136800  1.0  0.0981
  H  H30  1  0.566200  0.047100  0.075900  1.0  0.133
  H  H31  1  0.443900  0.858000  0.979200  1.0  0.1297
  H  H32  1  0.426400  0.760300  0.042300  1.0  0.0908
  H  H33  1  0.076200  0.752500  0.511600  1.0  0.0831
  H  H34  1  0.977900  0.625000  0.546400  1.0  0.1208
  H  H35  1  0.103700  0.496600  0.423100  1.0  0.1264
  H  H36  1  0.200200  0.628400  0.392700  1.0  0.0813
  H  H37  1  0.939700  0.265000  0.268000  1.0  0.1137
  H  H38  1  0.165500  0.267000  0.213400  1.0  0.0861
  H  H39  1  0.833500  0.276300  0.104800  1.0  0.0682
  H  H40  1  0.786800  0.234600  0.355600  1.0  0.0771
  H  H41  1  0.441000  0.050500  0.382700  1.0  0.0855
  H  H42  1  0.657900  0.956200  0.408400  1.0  0.116
  H  H43  1  0.536200  0.444100  0.363200  1.0  0.0987
  H  H44  1  0.566200  0.547100  0.424100  1.0  0.1329
  H  H45  1  0.443900  0.358000  0.520800  1.0  0.1308
  H  H46  1  0.426400  0.260300  0.457700  1.0  0.0904
  H  H47  1  0.076200  0.252500  0.988400  1.0  0.0832
  H  H48  1  0.977900  0.125000  0.953600  1.0  0.1217
  H  H49  1  0.103700  0.996600  0.076900  1.0  0.1272
  H  H50  1  0.200200  0.128400  0.107300  1.0  0.0785
  H  H51  1  0.060300  0.235000  0.768000  1.0  0.1138
  H  H52  1  0.834500  0.233000  0.713400  1.0  0.0855
  H  H53  1  0.166500  0.223700  0.604800  1.0  0.068
  H  H54  1  0.213200  0.265400  0.855600  1.0  0.0773
  H  H55  1  0.559000  0.449500  0.882700  1.0  0.0852
  H  H56  1  0.342100  0.543800  0.908400  1.0  0.1158
  H  H57  1  0.463800  0.055900  0.863200  1.0  0.0989
  H  H58  1  0.433800  0.952900  0.924100  1.0  0.1326
  H  H59  1  0.556100  0.142000  0.020800  1.0  0.1307
  H  H60  1  0.573600  0.239700  0.957700  1.0  0.0891
  H  H61  1  0.923800  0.247500  0.488400  1.0  0.0835
  H  H62  1  0.022100  0.375000  0.453600  1.0  0.1213
  H  H63  1  0.896300  0.503400  0.576900  1.0  0.1273
  H  H64  1  0.799800  0.371600  0.607300  1.0  0.0784
  C  C65  1  0.404700  0.725800  0.742500  1.0  0.6541
  C  C66  1  0.259100  0.725800  0.780700  1.0  0.0142
  C  C67  1  0.085100  0.730700  0.765200  1.0  -0.1477
  C  C68  1  0.949900  0.729400  0.798100  1.0  0.1827
  C  C69  1  0.145400  0.723400  0.861700  1.0  0.1736
  C  C70  1  0.287600  0.723200  0.830800  1.0  -0.1574
  C  C71  1  0.467700  0.711100  0.854600  1.0  0.6771
  C  C72  1  0.914600  0.838000  0.624300  1.0  0.6726
  C  C73  1  0.099200  0.876400  0.620200  1.0  -0.122
  C  C74  1  0.238500  0.822800  0.634000  1.0  0.1614
  C  C75  1  0.442400  0.930300  0.617900  1.0  0.1669
  C  C76  1  0.312200  0.987400  0.602700  1.0  -0.1341
  C  C77  1  0.137500  0.961900  0.604000  1.0  -0.0097
  C  C78  1  0.996100  0.028800  0.592100  1.0  0.6411
  C  C79  1  0.485600  0.572800  0.604600  1.0  0.1647
  C  C80  1  0.468700  0.510400  0.568200  1.0  -0.1919
  C  C81  1  0.503600  0.533000  0.520000  1.0  0.0832
  C  C82  1  0.539800  0.622100  0.511100  1.0  -0.1985
  C  C83  1  0.551200  0.680300  0.549300  1.0  0.1839
  C  C84  1  0.919300  0.799700  0.993400  1.0  0.1826
  C  C85  1  0.977700  0.876500  0.014700  1.0  -0.1932
  C  C86  1  0.971600  0.958000  0.989200  1.0  0.0794
  C  C87  1  0.903800  0.952600  0.942300  1.0  -0.1978
  C  C88  1  0.847500  0.872500  0.924000  1.0  0.1807
  C  C89  1  0.595300  0.774200  0.242500  1.0  0.6555
  C  C90  1  0.740900  0.774200  0.280700  1.0  0.0114
  C  C91  1  0.914900  0.769300  0.265200  1.0  -0.1486
  C  C92  1  0.050100  0.770600  0.298100  1.0  0.1829
  C  C93  1  0.854600  0.776600  0.361700  1.0  0.1732
  C  C94  1  0.712400  0.776800  0.330800  1.0  -0.1573
  C  C95  1  0.532300  0.788900  0.354600  1.0  0.6764
  C  C96  1  0.085400  0.662000  0.124300  1.0  0.6745
  C  C97  1  0.900800  0.623600  0.120200  1.0  -0.1222
  C  C98  1  0.761500  0.677200  0.134000  1.0  0.163
  C  C99  1  0.557600  0.569700  0.117900  1.0  0.1668
  C  C100  1  0.687800  0.512600  0.102700  1.0  -0.136
  C  C101  1  0.862500  0.538100  0.104000  1.0  -0.0093
  C  C102  1  0.003900  0.471200  0.092100  1.0  0.6415
  C  C103  1  0.514400  0.927200  0.104600  1.0  0.1652
  C  C104  1  0.531300  0.989600  0.068200  1.0  -0.1911
  C  C105  1  0.496400  0.967000  0.020000  1.0  0.0832
  C  C106  1  0.460200  0.877900  0.011100  1.0  -0.1981
  C  C107  1  0.448800  0.819700  0.049300  1.0  0.1828
  C  C108  1  0.080700  0.700300  0.493400  1.0  0.1827
  C  C109  1  0.022300  0.623500  0.514700  1.0  -0.1932
  C  C110  1  0.028400  0.542000  0.489200  1.0  0.0788
  C  C111  1  0.096200  0.547400  0.442300  1.0  -0.198
  C  C112  1  0.152500  0.627500  0.424000  1.0  0.1811
  C  C113  1  0.595300  0.274200  0.257500  1.0  0.6545
  C  C114  1  0.740900  0.274200  0.219300  1.0  0.012
  C  C115  1  0.914900  0.269300  0.234800  1.0  -0.1498
  C  C116  1  0.050100  0.270600  0.201900  1.0  0.1817
  C  C117  1  0.854600  0.276600  0.138300  1.0  0.174
  C  C118  1  0.712400  0.276800  0.169200  1.0  -0.1553
  C  C119  1  0.532300  0.288900  0.145400  1.0  0.6768
  C  C120  1  0.085400  0.162000  0.375700  1.0  0.6742
  C  C121  1  0.900800  0.123600  0.379800  1.0  -0.1223
  C  C122  1  0.761500  0.177200  0.366000  1.0  0.1631
  C  C123  1  0.557600  0.069700  0.382100  1.0  0.1668
  C  C124  1  0.687800  0.012600  0.397300  1.0  -0.1374
  C  C125  1  0.862500  0.038100  0.396000  1.0  -0.0082
  C  C126  1  0.003900  0.971200  0.407900  1.0  0.6412
  C  C127  1  0.514400  0.427200  0.395400  1.0  0.1647
  C  C128  1  0.531300  0.489600  0.431800  1.0  -0.1934
  C  C129  1  0.496400  0.467000  0.480000  1.0  0.0826
  C  C130  1  0.460200  0.377900  0.488900  1.0  -0.1985
  C  C131  1  0.448800  0.319700  0.450700  1.0  0.183
  C  C132  1  0.080700  0.200300  0.006600  1.0  0.1828
  C  C133  1  0.022300  0.123500  0.985300  1.0  -0.1923
  C  C134  1  0.028400  0.042000  0.010800  1.0  0.0786
  C  C135  1  0.096200  0.047400  0.057700  1.0  -0.1975
  C  C136  1  0.152500  0.127500  0.076000  1.0  0.1807
  C  C137  1  0.404700  0.225800  0.757500  1.0  0.6535
  C  C138  1  0.259100  0.225800  0.719300  1.0  0.0148
  C  C139  1  0.085100  0.230700  0.734800  1.0  -0.1496
  C  C140  1  0.949900  0.229400  0.701900  1.0  0.1819
  C  C141  1  0.145400  0.223400  0.638300  1.0  0.1746
  C  C142  1  0.287600  0.223200  0.669200  1.0  -0.1562
  C  C143  1  0.467700  0.211100  0.645400  1.0  0.6772
  C  C144  1  0.914600  0.338000  0.875700  1.0  0.6725
  C  C145  1  0.099200  0.376400  0.879800  1.0  -0.1222
  C  C146  1  0.238500  0.322800  0.866000  1.0  0.1618
  C  C147  1  0.442400  0.430300  0.882100  1.0  0.1668
  C  C148  1  0.312200  0.487400  0.897300  1.0  -0.1362
  C  C149  1  0.137500  0.461900  0.896000  1.0  -0.0087
  C  C150  1  0.996100  0.528800  0.907900  1.0  0.6407
  C  C151  1  0.485600  0.072800  0.895400  1.0  0.1653
  C  C152  1  0.468700  0.010400  0.931800  1.0  -0.1922
  C  C153  1  0.503600  0.033000  0.980000  1.0  0.0827
  C  C154  1  0.539800  0.122100  0.988900  1.0  -0.1982
  C  C155  1  0.551200  0.180300  0.950700  1.0  0.1834
  C  C156  1  0.919300  0.299700  0.506600  1.0  0.1824
  C  C157  1  0.977700  0.376500  0.485300  1.0  -0.1925
  C  C158  1  0.971600  0.458000  0.510800  1.0  0.0791
  C  C159  1  0.903800  0.452600  0.557700  1.0  -0.1965
  C  C160  1  0.847500  0.372500  0.576000  1.0  0.1801
  N  N161  1  0.977900  0.723100  0.846400  1.0  -0.3801
  N  N162  1  0.407800  0.848400  0.633300  1.0  -0.3422
  N  N163  1  0.532300  0.657100  0.595600  1.0  -0.3584
  N  N164  1  0.856800  0.796300  0.948300  1.0  -0.3408
  N  N165  1  0.022100  0.776900  0.346400  1.0  -0.3798
  N  N166  1  0.592200  0.651600  0.133300  1.0  -0.3431
  N  N167  1  0.467700  0.842900  0.095600  1.0  -0.3586
  N  N168  1  0.143200  0.703700  0.448300  1.0  -0.34
  N  N169  1  0.022100  0.276900  0.153600  1.0  -0.3808
  N  N170  1  0.592200  0.151600  0.366700  1.0  -0.3431
  N  N171  1  0.467700  0.342900  0.404400  1.0  -0.3591
  N  N172  1  0.143200  0.203700  0.051700  1.0  -0.3396
  N  N173  1  0.977900  0.223100  0.653600  1.0  -0.3809
  N  N174  1  0.407800  0.348400  0.866700  1.0  -0.3424
  N  N175  1  0.532300  0.157100  0.904400  1.0  -0.3586
  N  N176  1  0.856800  0.296300  0.551700  1.0  -0.34
  O  O177  1  0.527000  0.780200  0.746500  1.0  -0.583
  O  O178  1  0.386600  0.676300  0.706800  1.0  -0.6089
  O  O179  1  0.569100  0.656900  0.837500  1.0  -0.5627
  O  O180  1  0.498700  0.753100  0.892900  1.0  -0.6251
  O  O181  1  0.868300  0.816600  0.667200  1.0  -0.58
  O  O182  1  0.826100  0.824700  0.587200  1.0  -0.6088
  O  O183  1  0.855800  0.026100  0.616400  1.0  -0.5768
  O  O184  1  0.027000  0.087700  0.561170  1.0  -0.5926
  O  O185  1  0.473000  0.719800  0.246500  1.0  -0.5829
  O  O186  1  0.613400  0.823700  0.206800  1.0  -0.6095
  O  O187  1  0.430900  0.843100  0.337500  1.0  -0.5626
  O  O188  1  0.501300  0.746900  0.392900  1.0  -0.6243
  O  O189  1  0.131700  0.683400  0.167200  1.0  -0.5802
  O  O190  1  0.173900  0.675300  0.087200  1.0  -0.6095
  O  O191  1  0.144200  0.473900  0.116400  1.0  -0.5775
  O  O192  1  0.973000  0.412300  0.061170  1.0  -0.5929
  O  O193  1  0.473000  0.219800  0.253500  1.0  -0.583
  O  O194  1  0.613400  0.323700  0.293200  1.0  -0.6095
  O  O195  1  0.430900  0.343100  0.162500  1.0  -0.5626
  O  O196  1  0.501300  0.246900  0.107100  1.0  -0.6246
  O  O197  1  0.131700  0.183400  0.332800  1.0  -0.5793
  O  O198  1  0.173900  0.175300  0.412800  1.0  -0.6083
  O  O199  1  0.144200  0.973900  0.383600  1.0  -0.5769
  O  O200  1  0.973000  0.912300  0.438830  1.0  -0.5938
  O  O201  1  0.527000  0.280200  0.753500  1.0  -0.5826
  O  O202  1  0.386600  0.176300  0.793200  1.0  -0.6084
  O  O203  1  0.569100  0.156900  0.662500  1.0  -0.5623
  O  O204  1  0.498700  0.253100  0.607100  1.0  -0.6234
  O  O205  1  0.868300  0.316600  0.832800  1.0  -0.5789
  O  O206  1  0.826100  0.324700  0.912800  1.0  -0.6083
  O  O207  1  0.855800  0.526100  0.883600  1.0  -0.5767
  O  O208  1  0.027000  0.587700  0.938830  1.0  -0.5944
