# generated using pymatgen
data_Ba2H8C16O9
_symmetry_space_group_name_H-M   'P 1'
_cell_length_a   19.47780000
_cell_length_b   13.95420000
_cell_length_c   23.76100000
_cell_angle_alpha   90.00000000
_cell_angle_beta   104.44400000
_cell_angle_gamma   90.00000000
_symmetry_Int_Tables_number   1
_chemical_formula_structural   Ba2H8C16O9
_chemical_formula_sum   'Ba24 H96 C192 O108'
_cell_volume   6254.04073775
_cell_formula_units_Z   12
loop_
 _symmetry_equiv_pos_site_id
 _symmetry_equiv_pos_as_xyz
  1  'x, y, z'
loop_
 _atom_site_type_symbol
 _atom_site_label
 _atom_site_symmetry_multiplicity
 _atom_site_fract_x
 _atom_site_fract_y
 _atom_site_fract_z
 _atom_site_occupancy
 _atom_site_charge
  Ba  Ba1  1  0.682370  0.751790  0.270330  1.0  1.6261
  Ba  Ba2  1  0.835900  0.928120  0.194080  1.0  1.5826
  Ba  Ba3  1  0.680110  0.438850  0.315130  1.0  1.6093
  Ba  Ba4  1  0.468470  0.447960  0.361890  1.0  1.5932
  Ba  Ba5  1  0.156230  0.671450  0.186580  1.0  1.6234
  Ba  Ba6  1  0.977900  0.443190  0.373400  1.0  1.6183
  Ba  Ba7  1  0.317630  0.251790  0.229670  1.0  1.627
  Ba  Ba8  1  0.164100  0.428120  0.305920  1.0  1.5848
  Ba  Ba9  1  0.319890  0.938850  0.184870  1.0  1.6094
  Ba  Ba10  1  0.531530  0.947960  0.138110  1.0  1.5945
  Ba  Ba11  1  0.843770  0.171450  0.313420  1.0  1.6238
  Ba  Ba12  1  0.022100  0.943190  0.126600  1.0  1.6171
  Ba  Ba13  1  0.317630  0.248210  0.729670  1.0  1.6264
  Ba  Ba14  1  0.164100  0.071880  0.805920  1.0  1.5819
  Ba  Ba15  1  0.319890  0.561150  0.684870  1.0  1.6095
  Ba  Ba16  1  0.531530  0.552040  0.638110  1.0  1.5949
  Ba  Ba17  1  0.843770  0.328550  0.813420  1.0  1.6236
  Ba  Ba18  1  0.022100  0.556810  0.626600  1.0  1.6172
  Ba  Ba19  1  0.682370  0.748210  0.770330  1.0  1.6263
  Ba  Ba20  1  0.835900  0.571880  0.694080  1.0  1.5846
  Ba  Ba21  1  0.680110  0.061150  0.815130  1.0  1.609
  Ba  Ba22  1  0.468470  0.052040  0.861890  1.0  1.594
  Ba  Ba23  1  0.156230  0.828550  0.686580  1.0  1.6231
  Ba  Ba24  1  0.977900  0.056810  0.873400  1.0  1.6184
  H  H25  1  0.648300  0.236200  0.500000  1.0  0.0959
  H  H26  1  0.753700  0.166700  0.550700  1.0  0.1054
  H  H27  1  0.855200  0.257700  0.574900  1.0  0.0992
  H  H28  1  0.826100  0.695300  0.445500  1.0  0.0954
  H  H29  1  0.768400  0.796300  0.495500  1.0  0.1044
  H  H30  1  0.698500  0.733800  0.551000  1.0  0.1037
  H  H31  1  0.540600  0.530600  0.147700  1.0  0.0962
  H  H32  1  0.453900  0.535000  0.061400  1.0  0.111
  H  H33  1  0.343900  0.598000  0.060400  1.0  0.0849
  H  H34  1  0.452300  0.834600  0.347900  1.0  0.1106
  H  H35  1  0.376300  0.758700  0.392500  1.0  0.0973
  H  H36  1  0.312000  0.628800  0.350400  1.0  0.0979
  H  H37  1  0.763700  0.562700  0.083300  1.0  0.0998
  H  H38  1  0.851500  0.476400  0.056100  1.0  0.103
  H  H39  1  0.963000  0.463300  0.119700  1.0  0.0946
  H  H40  1  0.030500  0.823800  0.311400  1.0  0.0872
  H  H41  1  0.990500  0.788000  0.392400  1.0  0.1054
  H  H42  1  0.898400  0.681200  0.385400  1.0  0.0932
  H  H43  1  0.387300  0.250600  0.378400  1.0  0.4348
  H  H44  1  0.444200  0.217600  0.358700  1.0  0.4441
  H  H45  1  0.174700  0.662900  0.326700  1.0  0.4318
  H  H46  1  0.106600  0.656300  0.310800  1.0  0.4161
  H  H47  1  0.146200  0.850400  0.103800  1.0  0.4696
  H  H48  1  0.119300  0.776500  0.065500  1.0  0.4226
  H  H49  1  0.351700  0.736200  0.000000  1.0  0.095
  H  H50  1  0.246300  0.666667  0.949300  1.0  0.1
  H  H51  1  0.144800  0.757700  0.925100  1.0  0.0991
  H  H52  1  0.173900  0.195300  0.054500  1.0  0.0955
  H  H53  1  0.231600  0.296300  0.004500  1.0  0.1043
  H  H54  1  0.301500  0.233800  0.949000  1.0  0.104
  H  H55  1  0.459400  0.030600  0.352300  1.0  0.0962
  H  H56  1  0.546100  0.035000  0.438600  1.0  0.113
  H  H57  1  0.656100  0.098000  0.439600  1.0  0.0856
  H  H58  1  0.547700  0.334600  0.152100  1.0  0.1109
  H  H59  1  0.623700  0.258700  0.107500  1.0  0.0973
  H  H60  1  0.688000  0.128800  0.149600  1.0  0.0983
  H  H61  1  0.236300  0.062700  0.416700  1.0  0.0993
  H  H62  1  0.148500  0.976400  0.443900  1.0  0.1037
  H  H63  1  0.037000  0.963300  0.380300  1.0  0.0953
  H  H64  1  0.969500  0.323800  0.188600  1.0  0.0874
  H  H65  1  0.009500  0.288000  0.107600  1.0  0.1053
  H  H66  1  0.101600  0.181200  0.114600  1.0  0.0927
  H  H67  1  0.612700  0.750600  0.121600  1.0  0.4344
  H  H68  1  0.555800  0.717600  0.141300  1.0  0.4465
  H  H69  1  0.825300  0.162900  0.173300  1.0  0.4335
  H  H70  1  0.893400  0.156300  0.189200  1.0  0.417
  H  H71  1  0.853800  0.350400  0.396200  1.0  0.4693
  H  H72  1  0.880700  0.276500  0.434500  1.0  0.4224
  H  H73  1  0.351700  0.763800  0.500000  1.0  0.0951
  H  H74  1  0.246300  0.833300  0.449300  1.0  0.1072
  H  H75  1  0.144800  0.742300  0.425100  1.0  0.0992
  H  H76  1  0.173900  0.304700  0.554500  1.0  0.0952
  H  H77  1  0.231600  0.203700  0.504500  1.0  0.1043
  H  H78  1  0.301500  0.266200  0.449000  1.0  0.1043
  H  H79  1  0.459400  0.469400  0.852300  1.0  0.0955
  H  H80  1  0.546100  0.465000  0.938600  1.0  0.1128
  H  H81  1  0.656100  0.402000  0.939600  1.0  0.0848
  H  H82  1  0.547700  0.165400  0.652100  1.0  0.1105
  H  H83  1  0.623700  0.241300  0.607500  1.0  0.0972
  H  H84  1  0.688000  0.371200  0.649600  1.0  0.098
  H  H85  1  0.236300  0.437300  0.916700  1.0  0.0988
  H  H86  1  0.148500  0.523600  0.943900  1.0  0.1032
  H  H87  1  0.037000  0.536700  0.880300  1.0  0.0952
  H  H88  1  0.969500  0.176200  0.688600  1.0  0.0872
  H  H89  1  0.009500  0.212000  0.607600  1.0  0.1053
  H  H90  1  0.101600  0.318800  0.614600  1.0  0.0927
  H  H91  1  0.612700  0.749400  0.621600  1.0  0.434
  H  H92  1  0.555800  0.782400  0.641300  1.0  0.4461
  H  H93  1  0.825300  0.337100  0.673300  1.0  0.433
  H  H94  1  0.893400  0.343700  0.689200  1.0  0.4168
  H  H95  1  0.853800  0.149600  0.896200  1.0  0.4684
  H  H96  1  0.880700  0.223500  0.934500  1.0  0.422
  H  H97  1  0.648300  0.263800  0.000000  1.0  0.0954
  H  H98  1  0.753700  0.333333  0.050700  1.0  0.102
  H  H99  1  0.855200  0.242300  0.074900  1.0  0.099
  H  H100  1  0.826100  0.804700  0.945500  1.0  0.0955
  H  H101  1  0.768400  0.703700  0.995500  1.0  0.1046
  H  H102  1  0.698500  0.766200  0.051000  1.0  0.1038
  H  H103  1  0.540600  0.969400  0.647700  1.0  0.0963
  H  H104  1  0.453900  0.965000  0.561400  1.0  0.1118
  H  H105  1  0.343900  0.902000  0.560400  1.0  0.0847
  H  H106  1  0.452300  0.665400  0.847900  1.0  0.1106
  H  H107  1  0.376300  0.741300  0.892500  1.0  0.0969
  H  H108  1  0.312000  0.871200  0.850400  1.0  0.0978
  H  H109  1  0.763700  0.937300  0.583300  1.0  0.0999
  H  H110  1  0.851500  0.023600  0.556100  1.0  0.1029
  H  H111  1  0.963000  0.036700  0.619700  1.0  0.0947
  H  H112  1  0.030500  0.676200  0.811400  1.0  0.0873
  H  H113  1  0.990500  0.712000  0.892400  1.0  0.1056
  H  H114  1  0.898400  0.818800  0.885400  1.0  0.0933
  H  H115  1  0.387300  0.249400  0.878400  1.0  0.4342
  H  H116  1  0.444200  0.282400  0.858700  1.0  0.4437
  H  H117  1  0.174700  0.837100  0.826700  1.0  0.4317
  H  H118  1  0.106600  0.843700  0.810800  1.0  0.416
  H  H119  1  0.146200  0.649600  0.603800  1.0  0.4694
  H  H120  1  0.119300  0.723500  0.565500  1.0  0.4231
  C  C121  1  0.747100  0.425900  0.514500  1.0  0.0163
  C  C122  1  0.687200  0.368200  0.495500  1.0  -0.0881
  C  C123  1  0.689400  0.273000  0.510400  1.0  -0.0901
  C  C124  1  0.752200  0.231300  0.541000  1.0  -0.1029
  C  C125  1  0.812300  0.286500  0.556800  1.0  -0.0861
  C  C126  1  0.810200  0.382800  0.546300  1.0  -0.1102
  C  C127  1  0.748000  0.531700  0.504200  1.0  0.0175
  C  C128  1  0.789100  0.571700  0.469600  1.0  -0.1082
  C  C129  1  0.797200  0.669600  0.467600  1.0  -0.0728
  C  C130  1  0.763100  0.730300  0.497800  1.0  -0.1251
  C  C131  1  0.721800  0.693100  0.530900  1.0  -0.0965
  C  C132  1  0.714300  0.594900  0.534700  1.0  -0.082
  C  C133  1  0.619500  0.400000  0.452800  1.0  0.6544
  C  C134  1  0.877500  0.440000  0.570400  1.0  0.6967
  C  C135  1  0.825000  0.508900  0.435200  1.0  0.6596
  C  C136  1  0.670700  0.558700  0.574500  1.0  0.7055
  C  C137  1  0.415400  0.626200  0.198600  1.0  0.0037
  C  C138  1  0.481900  0.587500  0.198600  1.0  -0.1535
  C  C139  1  0.495900  0.554900  0.147100  1.0  -0.0739
  C  C140  1  0.444600  0.558100  0.095500  1.0  -0.1405
  C  C141  1  0.378800  0.596300  0.095100  1.0  -0.0733
  C  C142  1  0.363600  0.631900  0.144900  1.0  -0.1147
  C  C143  1  0.401600  0.663900  0.253500  1.0  -0.0172
  C  C144  1  0.436000  0.747400  0.277400  1.0  -0.0867
  C  C145  1  0.427200  0.781100  0.330600  1.0  -0.0821
  C  C146  1  0.381900  0.735700  0.357200  1.0  -0.108
  C  C147  1  0.344600  0.656800  0.332800  1.0  -0.096
  C  C148  1  0.355300  0.617600  0.281000  1.0  -0.0926
  C  C149  1  0.541600  0.579600  0.253000  1.0  0.6972
  C  C150  1  0.291800  0.674700  0.141300  1.0  0.7094
  C  C151  1  0.481900  0.802200  0.246300  1.0  0.7213
  C  C152  1  0.316700  0.526800  0.257900  1.0  0.6866
  C  C153  1  0.892000  0.605700  0.198100  1.0  -0.0495
  C  C154  1  0.823500  0.612000  0.159800  1.0  -0.0951
  C  C155  1  0.809100  0.560900  0.107800  1.0  -0.0575
  C  C156  1  0.861100  0.507200  0.091900  1.0  -0.1195
  C  C157  1  0.928200  0.499800  0.130100  1.0  -0.0653
  C  C158  1  0.943300  0.545700  0.182800  1.0  -0.1205
  C  C159  1  0.913500  0.662000  0.252600  1.0  -0.0643
  C  C160  1  0.964700  0.734600  0.256000  1.0  -0.1282
  C  C161  1  0.994300  0.779300  0.308800  1.0  -0.0523
  C  C162  1  0.970300  0.758200  0.357200  1.0  -0.1158
  C  C163  1  0.916300  0.692800  0.353200  1.0  -0.1023
  C  C164  1  0.887900  0.643500  0.300900  1.0  -0.0881
  C  C165  1  0.765700  0.673600  0.172700  1.0  0.6927
  C  C166  1  0.014800  0.524700  0.224700  1.0  0.6839
  C  C167  1  0.984200  0.771900  0.202400  1.0  0.7201
  C  C168  1  0.831300  0.567300  0.298800  1.0  0.7185
  C  C169  1  0.252900  0.925900  0.985500  1.0  0.0172
  C  C170  1  0.312800  0.868200  0.004500  1.0  -0.0903
  C  C171  1  0.310600  0.773000  0.989600  1.0  -0.0901
  C  C172  1  0.247800  0.731300  0.959000  1.0  -0.1047
  C  C173  1  0.187700  0.786500  0.943200  1.0  -0.085
  C  C174  1  0.189800  0.882800  0.953700  1.0  -0.1112
  C  C175  1  0.252000  0.031700  0.995800  1.0  0.0186
  C  C176  1  0.210900  0.071700  0.030400  1.0  -0.1079
  C  C177  1  0.202800  0.169600  0.032400  1.0  -0.072
  C  C178  1  0.236900  0.230300  0.002200  1.0  -0.124
  C  C179  1  0.278200  0.193100  0.969100  1.0  -0.0954
  C  C180  1  0.285700  0.094900  0.965300  1.0  -0.0813
  C  C181  1  0.380500  0.900000  0.047200  1.0  0.6541
  C  C182  1  0.122500  0.940000  0.929600  1.0  0.6968
  C  C183  1  0.175000  0.008900  0.064800  1.0  0.6602
  C  C184  1  0.329300  0.058700  0.925500  1.0  0.7045
  C  C185  1  0.584600  0.126200  0.301400  1.0  0.0034
  C  C186  1  0.518100  0.087500  0.301400  1.0  -0.1539
  C  C187  1  0.504100  0.054900  0.352900  1.0  -0.0713
  C  C188  1  0.555400  0.058100  0.404500  1.0  -0.1407
  C  C189  1  0.621200  0.096300  0.404900  1.0  -0.0725
  C  C190  1  0.636400  0.131900  0.355100  1.0  -0.1146
  C  C191  1  0.598400  0.163900  0.246500  1.0  -0.0182
  C  C192  1  0.564000  0.247400  0.222600  1.0  -0.0878
  C  C193  1  0.572800  0.281100  0.169400  1.0  -0.0809
  C  C194  1  0.618100  0.235700  0.142800  1.0  -0.1089
  C  C195  1  0.655400  0.156800  0.167200  1.0  -0.098
  C  C196  1  0.644700  0.117600  0.219000  1.0  -0.092
  C  C197  1  0.458400  0.079600  0.247000  1.0  0.6972
  C  C198  1  0.708200  0.174700  0.358700  1.0  0.7098
  C  C199  1  0.518100  0.302200  0.253700  1.0  0.7216
  C  C200  1  0.683300  0.026800  0.242100  1.0  0.6872
  C  C201  1  0.108000  0.105700  0.301900  1.0  -0.0485
  C  C202  1  0.176500  0.112000  0.340200  1.0  -0.0948
  C  C203  1  0.190900  0.060900  0.392200  1.0  -0.0604
  C  C204  1  0.138900  0.007200  0.408100  1.0  -0.1206
  C  C205  1  0.071800  0.999800  0.369900  1.0  -0.0647
  C  C206  1  0.056700  0.045700  0.317200  1.0  -0.1222
  C  C207  1  0.086500  0.162000  0.247400  1.0  -0.0641
  C  C208  1  0.035300  0.234600  0.244000  1.0  -0.1281
  C  C209  1  0.005700  0.279300  0.191200  1.0  -0.0513
  C  C210  1  0.029700  0.258200  0.142800  1.0  -0.1148
  C  C211  1  0.083700  0.192800  0.146800  1.0  -0.1044
  C  C212  1  0.112100  0.143500  0.199100  1.0  -0.0862
  C  C213  1  0.234300  0.173600  0.327300  1.0  0.6933
  C  C214  1  0.985200  0.024700  0.275300  1.0  0.6823
  C  C215  1  0.015800  0.271900  0.297600  1.0  0.7194
  C  C216  1  0.168700  0.067300  0.201200  1.0  0.7144
  C  C217  1  0.252900  0.574100  0.485500  1.0  0.0169
  C  C218  1  0.312800  0.631800  0.504500  1.0  -0.091
  C  C219  1  0.310600  0.727000  0.489600  1.0  -0.09
  C  C220  1  0.247800  0.768700  0.459000  1.0  -0.0999
  C  C221  1  0.187700  0.713500  0.443200  1.0  -0.0848
  C  C222  1  0.189800  0.617200  0.453700  1.0  -0.1117
  C  C223  1  0.252000  0.468300  0.495800  1.0  0.0185
  C  C224  1  0.210900  0.428300  0.530400  1.0  -0.1074
  C  C225  1  0.202800  0.330400  0.532400  1.0  -0.0713
  C  C226  1  0.236900  0.269700  0.502200  1.0  -0.1215
  C  C227  1  0.278200  0.306900  0.469100  1.0  -0.0944
  C  C228  1  0.285700  0.405100  0.465300  1.0  -0.0816
  C  C229  1  0.380500  0.600000  0.547200  1.0  0.6549
  C  C230  1  0.122500  0.560000  0.429600  1.0  0.6966
  C  C231  1  0.175000  0.491100  0.564800  1.0  0.661
  C  C232  1  0.329300  0.441300  0.425500  1.0  0.7047
  C  C233  1  0.584600  0.373800  0.801400  1.0  0.0037
  C  C234  1  0.518100  0.412500  0.801400  1.0  -0.1535
  C  C235  1  0.504100  0.445100  0.852900  1.0  -0.073
  C  C236  1  0.555400  0.441900  0.904500  1.0  -0.1409
  C  C237  1  0.621200  0.403700  0.904900  1.0  -0.0728
  C  C238  1  0.636400  0.368100  0.855100  1.0  -0.1146
  C  C239  1  0.598400  0.336100  0.746500  1.0  -0.0182
  C  C240  1  0.564000  0.252600  0.722600  1.0  -0.0883
  C  C241  1  0.572800  0.218900  0.669400  1.0  -0.0801
  C  C242  1  0.618100  0.264300  0.642800  1.0  -0.1088
  C  C243  1  0.655400  0.343200  0.667200  1.0  -0.0973
  C  C244  1  0.644700  0.382400  0.719000  1.0  -0.092
  C  C245  1  0.458400  0.420400  0.747000  1.0  0.6973
  C  C246  1  0.708200  0.325300  0.858700  1.0  0.7093
  C  C247  1  0.518100  0.197800  0.753700  1.0  0.7222
  C  C248  1  0.683300  0.473200  0.742100  1.0  0.6872
  C  C249  1  0.108000  0.394300  0.801900  1.0  -0.0487
  C  C250  1  0.176500  0.388000  0.840200  1.0  -0.0952
  C  C251  1  0.190900  0.439100  0.892200  1.0  -0.0608
  C  C252  1  0.138900  0.492800  0.908100  1.0  -0.1207
  C  C253  1  0.071800  0.500200  0.869900  1.0  -0.0646
  C  C254  1  0.056700  0.454300  0.817200  1.0  -0.1215
  C  C255  1  0.086500  0.338000  0.747400  1.0  -0.0643
  C  C256  1  0.035300  0.265400  0.744000  1.0  -0.1289
  C  C257  1  0.005700  0.220700  0.691200  1.0  -0.0513
  C  C258  1  0.029700  0.241800  0.642800  1.0  -0.1149
  C  C259  1  0.083700  0.307200  0.646800  1.0  -0.1042
  C  C260  1  0.112100  0.356500  0.699100  1.0  -0.0863
  C  C261  1  0.234300  0.326400  0.827300  1.0  0.6931
  C  C262  1  0.985200  0.475300  0.775300  1.0  0.6823
  C  C263  1  0.015800  0.228100  0.797600  1.0  0.7196
  C  C264  1  0.168700  0.432700  0.701200  1.0  0.7127
  C  C265  1  0.747100  0.074100  0.014500  1.0  0.016
  C  C266  1  0.687200  0.131800  0.995500  1.0  -0.0883
  C  C267  1  0.689400  0.227000  0.010400  1.0  -0.0894
  C  C268  1  0.752200  0.268700  0.041000  1.0  -0.1002
  C  C269  1  0.812300  0.213500  0.056800  1.0  -0.0858
  C  C270  1  0.810200  0.117200  0.046300  1.0  -0.1106
  C  C271  1  0.748000  0.968300  0.004200  1.0  0.0172
  C  C272  1  0.789100  0.928300  0.969600  1.0  -0.1073
  C  C273  1  0.797200  0.830400  0.967600  1.0  -0.0736
  C  C274  1  0.763100  0.769700  0.997800  1.0  -0.1239
  C  C275  1  0.721800  0.806900  0.030900  1.0  -0.095
  C  C276  1  0.714300  0.905100  0.034700  1.0  -0.0823
  C  C277  1  0.619500  0.100000  0.952800  1.0  0.6545
  C  C278  1  0.877500  0.060000  0.070400  1.0  0.6969
  C  C279  1  0.825000  0.991100  0.935200  1.0  0.6598
  C  C280  1  0.670700  0.941300  0.074500  1.0  0.7055
  C  C281  1  0.415400  0.873800  0.698600  1.0  0.004
  C  C282  1  0.481900  0.912500  0.698600  1.0  -0.1536
  C  C283  1  0.495900  0.945100  0.647100  1.0  -0.0727
  C  C284  1  0.444600  0.941900  0.595500  1.0  -0.1395
  C  C285  1  0.378800  0.903700  0.595100  1.0  -0.0733
  C  C286  1  0.363600  0.868100  0.644900  1.0  -0.1146
  C  C287  1  0.401600  0.836100  0.753500  1.0  -0.0172
  C  C288  1  0.436000  0.752600  0.777400  1.0  -0.0881
  C  C289  1  0.427200  0.718900  0.830600  1.0  -0.0815
  C  C290  1  0.381900  0.764300  0.857200  1.0  -0.1069
  C  C291  1  0.344600  0.843200  0.832800  1.0  -0.0955
  C  C292  1  0.355300  0.882400  0.781000  1.0  -0.0925
  C  C293  1  0.541600  0.920400  0.753000  1.0  0.6965
  C  C294  1  0.291800  0.825300  0.641300  1.0  0.7092
  C  C295  1  0.481900  0.697800  0.746300  1.0  0.7203
  C  C296  1  0.316700  0.973200  0.757900  1.0  0.6876
  C  C297  1  0.892000  0.894300  0.698100  1.0  -0.0495
  C  C298  1  0.823500  0.888000  0.659800  1.0  -0.0959
  C  C299  1  0.809100  0.939100  0.607800  1.0  -0.0579
  C  C300  1  0.861100  0.992800  0.591900  1.0  -0.1195
  C  C301  1  0.928200  0.000200  0.630100  1.0  -0.0654
  C  C302  1  0.943300  0.954300  0.682800  1.0  -0.1199
  C  C303  1  0.913500  0.838000  0.752600  1.0  -0.0644
  C  C304  1  0.964700  0.765400  0.756000  1.0  -0.1288
  C  C305  1  0.994300  0.720700  0.808800  1.0  -0.0524
  C  C306  1  0.970300  0.741800  0.857200  1.0  -0.1154
  C  C307  1  0.916300  0.807200  0.853200  1.0  -0.1024
  C  C308  1  0.887900  0.856500  0.800900  1.0  -0.0883
  C  C309  1  0.765700  0.826400  0.672700  1.0  0.693
  C  C310  1  0.014800  0.975300  0.724700  1.0  0.6837
  C  C311  1  0.984200  0.728100  0.702400  1.0  0.7206
  C  C312  1  0.831300  0.932700  0.798800  1.0  0.7168
  O  O313  1  0.624100  0.456300  0.412380  1.0  -0.7341
  O  O314  1  0.562100  0.365700  0.458540  1.0  -0.6331
  O  O315  1  0.934700  0.408500  0.562810  1.0  -0.6477
  O  O316  1  0.874400  0.513800  0.599270  1.0  -0.738
  O  O317  1  0.888100  0.526600  0.434120  1.0  -0.6327
  O  O318  1  0.789900  0.438600  0.407970  1.0  -0.6492
  O  O319  1  0.606900  0.543600  0.554180  1.0  -0.6158
  O  O320  1  0.701500  0.549600  0.628200  1.0  -0.7328
  O  O321  1  0.528200  0.566700  0.301130  1.0  -0.7562
  O  O322  1  0.603700  0.585100  0.245690  1.0  -0.7308
  O  O323  1  0.239800  0.630400  0.111100  1.0  -0.6434
  O  O324  1  0.286400  0.749000  0.169300  1.0  -0.7571
  O  O325  1  0.451500  0.853800  0.204800  1.0  -0.6897
  O  O326  1  0.547000  0.794500  0.263600  1.0  -0.7075
  O  O327  1  0.350700  0.451900  0.258470  1.0  -0.6736
  O  O328  1  0.248900  0.533000  0.240160  1.0  -0.7808
  O  O329  1  0.780900  0.752300  0.197030  1.0  -0.735
  O  O330  1  0.703900  0.640300  0.157300  1.0  -0.5987
  O  O331  1  0.068700  0.523000  0.204090  1.0  -0.7371
  O  O332  1  0.017600  0.505400  0.276300  1.0  -0.6983
  O  O333  1  0.048300  0.776100  0.202420  1.0  -0.7653
  O  O334  1  0.935000  0.803400  0.162110  1.0  -0.7482
  O  O335  1  0.848600  0.482000  0.296600  1.0  -0.6415
  O  O336  1  0.770300  0.596300  0.300300  1.0  -0.7475
  O  O337  1  0.411500  0.259400  0.353600  1.0  -0.8966
  O  O338  1  0.146600  0.639600  0.305700  1.0  -0.8531
  O  O339  1  0.117600  0.803300  0.097320  1.0  -0.8391
  O  O340  1  0.375900  0.956300  0.087620  1.0  -0.7342
  O  O341  1  0.437900  0.865700  0.041460  1.0  -0.6342
  O  O342  1  0.065300  0.908500  0.937190  1.0  -0.6476
  O  O343  1  0.125600  0.013800  0.900730  1.0  -0.7384
  O  O344  1  0.111900  0.026600  0.065880  1.0  -0.6332
  O  O345  1  0.210100  0.938600  0.092030  1.0  -0.6488
  O  O346  1  0.393100  0.043600  0.945820  1.0  -0.6167
  O  O347  1  0.298500  0.049600  0.871800  1.0  -0.7297
  O  O348  1  0.471800  0.066700  0.198870  1.0  -0.7538
  O  O349  1  0.396300  0.085100  0.254310  1.0  -0.7321
  O  O350  1  0.760200  0.130400  0.388900  1.0  -0.6411
  O  O351  1  0.713600  0.249000  0.330700  1.0  -0.7542
  O  O352  1  0.548500  0.353800  0.295200  1.0  -0.6926
  O  O353  1  0.453000  0.294500  0.236400  1.0  -0.7086
  O  O354  1  0.649300  0.951900  0.241530  1.0  -0.6717
  O  O355  1  0.751100  0.033000  0.259840  1.0  -0.781
  O  O356  1  0.219100  0.252300  0.302970  1.0  -0.7349
  O  O357  1  0.296100  0.140300  0.342700  1.0  -0.5972
  O  O358  1  0.931300  0.023000  0.295910  1.0  -0.7364
  O  O359  1  0.982400  0.005400  0.223700  1.0  -0.6994
  O  O360  1  0.951700  0.276100  0.297580  1.0  -0.7641
  O  O361  1  0.065000  0.303400  0.337890  1.0  -0.75
  O  O362  1  0.151400  0.982000  0.203400  1.0  -0.6401
  O  O363  1  0.229700  0.096300  0.199700  1.0  -0.747
  O  O364  1  0.588500  0.759400  0.146400  1.0  -0.8932
  O  O365  1  0.853400  0.139600  0.194300  1.0  -0.849
  O  O366  1  0.882400  0.303300  0.402680  1.0  -0.8438
  O  O367  1  0.375900  0.543700  0.587620  1.0  -0.7336
  O  O368  1  0.437900  0.634300  0.541460  1.0  -0.634
  O  O369  1  0.065300  0.591500  0.437190  1.0  -0.6479
  O  O370  1  0.125600  0.486200  0.400730  1.0  -0.7394
  O  O371  1  0.111900  0.473400  0.565880  1.0  -0.6333
  O  O372  1  0.210100  0.561400  0.592030  1.0  -0.6488
  O  O373  1  0.393100  0.456400  0.445820  1.0  -0.6166
  O  O374  1  0.298500  0.450400  0.371800  1.0  -0.7301
  O  O375  1  0.471800  0.433300  0.698870  1.0  -0.7527
  O  O376  1  0.396300  0.414900  0.754310  1.0  -0.7314
  O  O377  1  0.760200  0.369600  0.888900  1.0  -0.6427
  O  O378  1  0.713600  0.251000  0.830700  1.0  -0.7585
  O  O379  1  0.548500  0.146200  0.795200  1.0  -0.6914
  O  O380  1  0.453000  0.205500  0.736400  1.0  -0.7082
  O  O381  1  0.649300  0.548100  0.741530  1.0  -0.674
  O  O382  1  0.751100  0.467000  0.759840  1.0  -0.7812
  O  O383  1  0.219100  0.247700  0.802970  1.0  -0.7381
  O  O384  1  0.296100  0.359700  0.842700  1.0  -0.5981
  O  O385  1  0.931300  0.477000  0.795910  1.0  -0.7364
  O  O386  1  0.982400  0.494600  0.723700  1.0  -0.6981
  O  O387  1  0.951700  0.223900  0.797580  1.0  -0.7648
  O  O388  1  0.065000  0.196600  0.837890  1.0  -0.7493
  O  O389  1  0.151400  0.518000  0.703400  1.0  -0.6417
  O  O390  1  0.229700  0.403700  0.699700  1.0  -0.7467
  O  O391  1  0.588500  0.740600  0.646400  1.0  -0.8945
  O  O392  1  0.853400  0.360400  0.694300  1.0  -0.8506
  O  O393  1  0.882400  0.196700  0.902680  1.0  -0.8439
  O  O394  1  0.624100  0.043700  0.912380  1.0  -0.735
  O  O395  1  0.562100  0.134300  0.958540  1.0  -0.6336
  O  O396  1  0.934700  0.091500  0.062810  1.0  -0.648
  O  O397  1  0.874400  0.986200  0.099270  1.0  -0.7385
  O  O398  1  0.888100  0.973400  0.934120  1.0  -0.6332
  O  O399  1  0.789900  0.061400  0.907970  1.0  -0.6485
  O  O400  1  0.606900  0.956400  0.054180  1.0  -0.6156
  O  O401  1  0.701500  0.950400  0.128200  1.0  -0.733
  O  O402  1  0.528200  0.933300  0.801130  1.0  -0.7559
  O  O403  1  0.603700  0.914900  0.745690  1.0  -0.7307
  O  O404  1  0.239800  0.869600  0.611100  1.0  -0.6448
  O  O405  1  0.286400  0.751000  0.669300  1.0  -0.7576
  O  O406  1  0.451500  0.646200  0.704800  1.0  -0.6923
  O  O407  1  0.547000  0.705500  0.763600  1.0  -0.7077
  O  O408  1  0.350700  0.048100  0.758470  1.0  -0.6739
  O  O409  1  0.248900  0.967000  0.740160  1.0  -0.7806
  O  O410  1  0.780900  0.747700  0.697030  1.0  -0.7359
  O  O411  1  0.703900  0.859700  0.657300  1.0  -0.599
  O  O412  1  0.068700  0.977000  0.704090  1.0  -0.7373
  O  O413  1  0.017600  0.994600  0.776300  1.0  -0.6988
  O  O414  1  0.048300  0.723900  0.702420  1.0  -0.7659
  O  O415  1  0.935000  0.696600  0.662110  1.0  -0.7487
  O  O416  1  0.848600  0.018000  0.796600  1.0  -0.6426
  O  O417  1  0.770300  0.903700  0.800300  1.0  -0.7472
  O  O418  1  0.411500  0.240600  0.853600  1.0  -0.8978
  O  O419  1  0.146600  0.860400  0.805700  1.0  -0.8532
  O  O420  1  0.117600  0.696700  0.597320  1.0  -0.8371
