# generated using pymatgen
data_Cu8H40C71(NO9)4
_symmetry_space_group_name_H-M   'P 1'
_cell_length_a   12.47360000
_cell_length_b   12.47360000
_cell_length_c   70.28840000
_cell_angle_alpha   90.00000000
_cell_angle_beta   90.00000000
_cell_angle_gamma   90.00000000
_symmetry_Int_Tables_number   1
_chemical_formula_structural   Cu8H40C71(NO9)4
_chemical_formula_sum   'Cu32 H160 C284 N16 O144'
_cell_volume   10936.22114420
_cell_formula_units_Z   4
loop_
 _symmetry_equiv_pos_site_id
 _symmetry_equiv_pos_as_xyz
  1  'x, y, z'
loop_
 _atom_site_type_symbol
 _atom_site_label
 _atom_site_symmetry_multiplicity
 _atom_site_fract_x
 _atom_site_fract_y
 _atom_site_fract_z
 _atom_site_occupancy
 _atom_site_charge
  Cu  Cu1  1  0.311900  0.422380  0.116760  1.0  0.8953
  Cu  Cu2  1  0.382520  0.361550  0.082710  1.0  0.9153
  Cu  Cu3  1  0.964800  0.336020  0.999280  1.0  0.9206
  Cu  Cu4  1  0.767360  0.382500  0.004710  1.0  0.9698
  Cu  Cu5  1  0.688100  0.577620  0.616760  1.0  0.8948
  Cu  Cu6  1  0.617480  0.638450  0.582710  1.0  0.9187
  Cu  Cu7  1  0.035200  0.663980  0.499280  1.0  0.9221
  Cu  Cu8  1  0.232640  0.617500  0.504710  1.0  0.9683
  Cu  Cu9  1  0.077620  0.811900  0.366760  1.0  0.8975
  Cu  Cu10  1  0.138450  0.882520  0.332710  1.0  0.9161
  Cu  Cu11  1  0.163980  0.464800  0.249280  1.0  0.9295
  Cu  Cu12  1  0.117500  0.267360  0.254710  1.0  0.972
  Cu  Cu13  1  0.922380  0.188100  0.866760  1.0  0.8971
  Cu  Cu14  1  0.861550  0.117480  0.832710  1.0  0.9168
  Cu  Cu15  1  0.836020  0.535200  0.749280  1.0  0.9339
  Cu  Cu16  1  0.882500  0.732640  0.754710  1.0  0.9695
  Cu  Cu17  1  0.188100  0.922380  0.133240  1.0  0.895
  Cu  Cu18  1  0.117480  0.861550  0.167290  1.0  0.9159
  Cu  Cu19  1  0.535200  0.836020  0.250720  1.0  0.9288
  Cu  Cu20  1  0.732640  0.882500  0.245290  1.0  0.9672
  Cu  Cu21  1  0.811900  0.077620  0.633240  1.0  0.8957
  Cu  Cu22  1  0.882520  0.138450  0.667290  1.0  0.9147
  Cu  Cu23  1  0.464800  0.163980  0.750720  1.0  0.9281
  Cu  Cu24  1  0.267360  0.117500  0.745290  1.0  0.9698
  Cu  Cu25  1  0.422380  0.311900  0.883240  1.0  0.8972
  Cu  Cu26  1  0.361550  0.382520  0.917290  1.0  0.9133
  Cu  Cu27  1  0.336020  0.964800  0.000720  1.0  0.9251
  Cu  Cu28  1  0.382500  0.767360  0.995290  1.0  0.9711
  Cu  Cu29  1  0.577620  0.688100  0.383240  1.0  0.8973
  Cu  Cu30  1  0.638450  0.617480  0.417290  1.0  0.9153
  Cu  Cu31  1  0.663980  0.035200  0.500720  1.0  0.9266
  Cu  Cu32  1  0.617500  0.232640  0.495290  1.0  0.9685
  H  H33  1  0.327800  0.757800  0.105300  1.0  0.1076
  H  H34  1  0.974100  0.374000  0.109900  1.0  0.1008
  H  H35  1  0.363700  0.975500  0.063100  1.0  0.1147
  H  H36  1  0.076000  0.328800  0.056000  1.0  0.1157
  H  H37  1  0.351800  0.660400  0.051200  1.0  0.1079
  H  H38  1  0.761700  0.375800  0.067000  1.0  0.1
  H  H39  1  0.648100  0.510200  0.129100  1.0  0.0856
  H  H40  1  0.566600  0.197200  0.127800  1.0  0.0852
  H  H41  1  0.577000  0.077500  0.135000  1.0  0.0683
  H  H42  1  0.393200  0.082500  0.131600  1.0  0.0886
  H  H43  1  0.541000  0.996200  0.084700  1.0  0.0707
  H  H44  1  0.570800  0.930900  0.103200  1.0  0.0849
  H  H45  1  0.725600  0.551900  0.075400  1.0  0.0863
  H  H46  1  0.801300  0.613500  0.089900  1.0  0.1011
  H  H47  1  0.681900  0.070200  0.107600  1.0  0.0493
  H  H48  1  0.606200  0.150300  0.096600  1.0  0.0812
  H  H49  1  0.534000  0.659700  0.113800  1.0  0.0875
  H  H50  1  0.652800  0.684000  0.120000  1.0  0.0809
  H  H51  1  0.655800  0.730000  0.092200  1.0  0.0925
  H  H52  1  0.573800  0.641200  0.085900  1.0  0.0772
  H  H53  1  0.672200  0.242200  0.605300  1.0  0.1076
  H  H54  1  0.025900  0.626000  0.609900  1.0  0.0996
  H  H55  1  0.636300  0.024500  0.563100  1.0  0.115
  H  H56  1  0.924000  0.671200  0.556000  1.0  0.1161
  H  H57  1  0.648200  0.339600  0.551200  1.0  0.1084
  H  H58  1  0.238300  0.624200  0.567000  1.0  0.0992
  H  H59  1  0.351900  0.489800  0.629100  1.0  0.0841
  H  H60  1  0.433400  0.802800  0.627800  1.0  0.085
  H  H61  1  0.423000  0.922500  0.635000  1.0  0.0689
  H  H62  1  0.606800  0.917500  0.631600  1.0  0.0849
  H  H63  1  0.459000  0.003800  0.584700  1.0  0.0704
  H  H64  1  0.429200  0.069100  0.603200  1.0  0.0841
  H  H65  1  0.274400  0.448100  0.575400  1.0  0.0864
  H  H66  1  0.198700  0.386500  0.589900  1.0  0.0982
  H  H67  1  0.318100  0.929800  0.607600  1.0  0.0479
  H  H68  1  0.393800  0.849700  0.596600  1.0  0.0805
  H  H69  1  0.466000  0.340300  0.613800  1.0  0.0887
  H  H70  1  0.347200  0.316000  0.620000  1.0  0.0811
  H  H71  1  0.344200  0.270000  0.592200  1.0  0.0893
  H  H72  1  0.426200  0.358800  0.585900  1.0  0.0768
  H  H73  1  0.742200  0.827800  0.355300  1.0  0.1068
  H  H74  1  0.126000  0.474100  0.359900  1.0  0.0998
  H  H75  1  0.524500  0.863700  0.313100  1.0  0.1169
  H  H76  1  0.171200  0.576000  0.306000  1.0  0.1164
  H  H77  1  0.839600  0.851800  0.301200  1.0  0.1082
  H  H78  1  0.124200  0.261700  0.317000  1.0  0.0983
  H  H79  1  0.989800  0.148100  0.379100  1.0  0.0847
  H  H80  1  0.302800  0.066600  0.377800  1.0  0.0821
  H  H81  1  0.422500  0.077000  0.385000  1.0  0.0693
  H  H82  1  0.417500  0.893200  0.381600  1.0  0.0857
  H  H83  1  0.503800  0.041000  0.334700  1.0  0.0694
  H  H84  1  0.569100  0.070800  0.353200  1.0  0.0788
  H  H85  1  0.948100  0.225600  0.325400  1.0  0.0871
  H  H86  1  0.886500  0.301300  0.339900  1.0  0.1009
  H  H87  1  0.429800  0.181900  0.357600  1.0  0.0533
  H  H88  1  0.349700  0.106200  0.346600  1.0  0.0784
  H  H89  1  0.840300  0.034000  0.363800  1.0  0.0891
  H  H90  1  0.816000  0.152800  0.370000  1.0  0.0803
  H  H91  1  0.770000  0.155800  0.342200  1.0  0.0945
  H  H92  1  0.858800  0.073800  0.335900  1.0  0.0763
  H  H93  1  0.257800  0.172200  0.855300  1.0  0.1066
  H  H94  1  0.874000  0.525900  0.859900  1.0  0.1005
  H  H95  1  0.475500  0.136300  0.813100  1.0  0.115
  H  H96  1  0.828800  0.424000  0.806000  1.0  0.1158
  H  H97  1  0.160400  0.148200  0.801200  1.0  0.1084
  H  H98  1  0.875800  0.738300  0.817000  1.0  0.0992
  H  H99  1  0.010200  0.851900  0.879100  1.0  0.0845
  H  H100  1  0.697200  0.933400  0.877800  1.0  0.081
  H  H101  1  0.577500  0.923000  0.885000  1.0  0.0693
  H  H102  1  0.582500  0.106800  0.881600  1.0  0.0856
  H  H103  1  0.496200  0.959000  0.834700  1.0  0.0695
  H  H104  1  0.430900  0.929200  0.853200  1.0  0.0787
  H  H105  1  0.051900  0.774400  0.825400  1.0  0.0871
  H  H106  1  0.113500  0.698700  0.839900  1.0  0.1011
  H  H107  1  0.570200  0.818100  0.857600  1.0  0.0515
  H  H108  1  0.650300  0.893800  0.846600  1.0  0.0796
  H  H109  1  0.159700  0.966000  0.863800  1.0  0.091
  H  H110  1  0.184000  0.847200  0.870000  1.0  0.0805
  H  H111  1  0.230000  0.844200  0.842200  1.0  0.0948
  H  H112  1  0.141200  0.926200  0.835900  1.0  0.0755
  H  H113  1  0.172200  0.257800  0.144700  1.0  0.1075
  H  H114  1  0.525900  0.874000  0.140100  1.0  0.1001
  H  H115  1  0.136300  0.475500  0.186900  1.0  0.1146
  H  H116  1  0.424000  0.828800  0.194000  1.0  0.1163
  H  H117  1  0.148200  0.160400  0.198800  1.0  0.1084
  H  H118  1  0.738300  0.875800  0.183000  1.0  0.0996
  H  H119  1  0.851900  0.010200  0.120900  1.0  0.0853
  H  H120  1  0.933400  0.697200  0.122200  1.0  0.086
  H  H121  1  0.923000  0.577500  0.115000  1.0  0.0684
  H  H122  1  0.106800  0.582500  0.118400  1.0  0.0841
  H  H123  1  0.959000  0.496200  0.165300  1.0  0.0702
  H  H124  1  0.929200  0.430900  0.146800  1.0  0.0838
  H  H125  1  0.774400  0.051900  0.174600  1.0  0.0855
  H  H126  1  0.698700  0.113500  0.160100  1.0  0.0999
  H  H127  1  0.818100  0.570200  0.142400  1.0  0.0489
  H  H128  1  0.893800  0.650300  0.153400  1.0  0.0802
  H  H129  1  0.966000  0.159700  0.136200  1.0  0.0883
  H  H130  1  0.847200  0.184000  0.130000  1.0  0.0808
  H  H131  1  0.844200  0.230000  0.157800  1.0  0.0923
  H  H132  1  0.926200  0.141200  0.164100  1.0  0.0789
  H  H133  1  0.827800  0.742200  0.644700  1.0  0.1084
  H  H134  1  0.474100  0.126000  0.640100  1.0  0.099
  H  H135  1  0.863700  0.524500  0.686900  1.0  0.1153
  H  H136  1  0.576000  0.171200  0.694000  1.0  0.1158
  H  H137  1  0.851800  0.839600  0.698800  1.0  0.1085
  H  H138  1  0.261700  0.124200  0.683000  1.0  0.0996
  H  H139  1  0.148100  0.989800  0.620900  1.0  0.0856
  H  H140  1  0.066600  0.302800  0.622200  1.0  0.0852
  H  H141  1  0.077000  0.422500  0.615000  1.0  0.0685
  H  H142  1  0.893200  0.417500  0.618400  1.0  0.088
  H  H143  1  0.041000  0.503800  0.665300  1.0  0.0697
  H  H144  1  0.070800  0.569100  0.646800  1.0  0.0837
  H  H145  1  0.225600  0.948100  0.674600  1.0  0.0856
  H  H146  1  0.301300  0.886500  0.660100  1.0  0.0997
  H  H147  1  0.181900  0.429800  0.642400  1.0  0.0474
  H  H148  1  0.106200  0.349700  0.653400  1.0  0.0816
  H  H149  1  0.034000  0.840300  0.636200  1.0  0.0886
  H  H150  1  0.152800  0.816000  0.630000  1.0  0.0807
  H  H151  1  0.155800  0.770000  0.657800  1.0  0.0912
  H  H152  1  0.073800  0.858800  0.664100  1.0  0.0781
  H  H153  1  0.757800  0.327800  0.894700  1.0  0.1073
  H  H154  1  0.374000  0.974100  0.890100  1.0  0.1006
  H  H155  1  0.975500  0.363700  0.936900  1.0  0.1147
  H  H156  1  0.328800  0.076000  0.944000  1.0  0.1165
  H  H157  1  0.660400  0.351800  0.948800  1.0  0.1082
  H  H158  1  0.375800  0.761700  0.933000  1.0  0.098
  H  H159  1  0.510200  0.648100  0.870900  1.0  0.085
  H  H160  1  0.197200  0.566600  0.872200  1.0  0.082
  H  H161  1  0.077500  0.577000  0.865000  1.0  0.069
  H  H162  1  0.082500  0.393200  0.868400  1.0  0.0845
  H  H163  1  0.996200  0.541000  0.915300  1.0  0.0693
  H  H164  1  0.930900  0.570800  0.896800  1.0  0.0797
  H  H165  1  0.551900  0.725600  0.924600  1.0  0.0861
  H  H166  1  0.613500  0.801300  0.910100  1.0  0.0997
  H  H167  1  0.070200  0.681900  0.892400  1.0  0.0516
  H  H168  1  0.150300  0.606200  0.903400  1.0  0.0791
  H  H169  1  0.659700  0.534000  0.886200  1.0  0.0895
  H  H170  1  0.684000  0.652800  0.880000  1.0  0.0807
  H  H171  1  0.730000  0.655800  0.907800  1.0  0.0927
  H  H172  1  0.641200  0.573800  0.914100  1.0  0.0777
  H  H173  1  0.242200  0.672200  0.394700  1.0  0.1072
  H  H174  1  0.626000  0.025900  0.390100  1.0  0.0996
  H  H175  1  0.024500  0.636300  0.436900  1.0  0.1159
  H  H176  1  0.671200  0.924000  0.444000  1.0  0.1164
  H  H177  1  0.339600  0.648200  0.448800  1.0  0.1083
  H  H178  1  0.624200  0.238300  0.433000  1.0  0.099
  H  H179  1  0.489800  0.351900  0.370900  1.0  0.0852
  H  H180  1  0.802800  0.433400  0.372200  1.0  0.0827
  H  H181  1  0.922500  0.423000  0.365000  1.0  0.0687
  H  H182  1  0.917500  0.606800  0.368400  1.0  0.0857
  H  H183  1  0.003800  0.459000  0.415300  1.0  0.0699
  H  H184  1  0.069100  0.429200  0.396800  1.0  0.0784
  H  H185  1  0.448100  0.274400  0.424600  1.0  0.0865
  H  H186  1  0.386500  0.198700  0.410100  1.0  0.1021
  H  H187  1  0.929800  0.318100  0.392400  1.0  0.052
  H  H188  1  0.849700  0.393800  0.403400  1.0  0.0783
  H  H189  1  0.340300  0.466000  0.386200  1.0  0.092
  H  H190  1  0.316000  0.347200  0.380000  1.0  0.0803
  H  H191  1  0.270000  0.344200  0.407800  1.0  0.0951
  H  H192  1  0.358800  0.426200  0.414100  1.0  0.0772
  C  C193  1  0.334100  0.578600  0.085770  1.0  0.6728
  C  C194  1  0.155300  0.354800  0.090820  1.0  0.6611
  C  C195  1  0.338000  0.773600  0.092480  1.0  -0.044
  C  C196  1  0.959000  0.368700  0.097020  1.0  -0.0358
  C  C197  1  0.892900  0.349100  0.037590  1.0  0.7138
  C  C198  1  0.350700  0.880500  0.086610  1.0  -0.0292
  C  C199  1  0.361800  0.844900  0.032960  1.0  0.6868
  C  C200  1  0.344200  0.967800  0.101210  1.0  0.608
  C  C201  1  0.357800  0.904900  0.067190  1.0  -0.038
  C  C202  1  0.340600  0.692100  0.079250  1.0  -0.1486
  C  C203  1  0.525700  0.458400  0.111580  1.0  0.651
  C  C204  1  0.853000  0.378200  0.090550  1.0  -0.0341
  C  C205  1  0.040800  0.351500  0.084150  1.0  -0.1396
  C  C206  1  0.020500  0.341000  0.064560  1.0  -0.0013
  C  C207  1  0.388300  0.208600  0.111910  1.0  0.6392
  C  C208  1  0.764900  0.404400  0.105010  1.0  0.6195
  C  C209  1  0.349800  0.715400  0.060060  1.0  0.0116
  C  C210  1  0.915800  0.349400  0.058480  1.0  -0.1589
  C  C211  1  0.831700  0.369000  0.071380  1.0  -0.0885
  C  C212  1  0.625900  0.521000  0.115890  1.0  0.0108
  C  C213  1  0.355800  0.820900  0.054230  1.0  -0.153
  C  C214  1  0.552900  0.122800  0.124630  1.0  -0.1849
  C  C215  1  0.432700  0.103900  0.120170  1.0  0.0142
  C  C216  1  0.542000  0.998100  0.098510  1.0  -0.0226
  C  C217  1  0.732300  0.578700  0.088310  1.0  -0.0908
  C  C218  1  0.608000  0.091300  0.105540  1.0  -0.1603
  C  C219  1  0.704800  0.006700  0.999000  1.0  0.1722
  C  C220  1  0.608400  0.640500  0.111700  1.0  -0.0964
  C  C221  1  0.682900  0.915600  0.998500  1.0  0.2977
  C  C222  1  0.634900  0.655800  0.094010  1.0  -0.1066
  C  C223  1  0.544300  0.891500  0.996300  1.0  0.5055
  C  C224  1  0.817900  0.043100  0.999600  1.0  -0.1087
  C  C225  1  0.842000  0.164100  0.001490  1.0  0.5713
  C  C226  1  0.887100  0.957600  0.998820  1.0  0.1198
  C  C227  1  0.761800  0.834400  0.996260  1.0  0.0488
  C  C228  1  0.665900  0.421400  0.585770  1.0  0.673
  C  C229  1  0.844700  0.645200  0.590820  1.0  0.6607
  C  C230  1  0.662000  0.226400  0.592480  1.0  -0.0451
  C  C231  1  0.041000  0.631300  0.597020  1.0  -0.0349
  C  C232  1  0.107100  0.650900  0.537590  1.0  0.7139
  C  C233  1  0.649300  0.119500  0.586610  1.0  -0.0296
  C  C234  1  0.638200  0.155100  0.532960  1.0  0.687
  C  C235  1  0.655800  0.032200  0.601210  1.0  0.6086
  C  C236  1  0.642200  0.095100  0.567190  1.0  -0.0372
  C  C237  1  0.659400  0.307900  0.579250  1.0  -0.1472
  C  C238  1  0.474300  0.541600  0.611580  1.0  0.6504
  C  C239  1  0.147000  0.621800  0.590550  1.0  -0.0331
  C  C240  1  0.959200  0.648500  0.584150  1.0  -0.1396
  C  C241  1  0.979500  0.659000  0.564560  1.0  -0.0016
  C  C242  1  0.611700  0.791400  0.611910  1.0  0.6396
  C  C243  1  0.235100  0.595600  0.605010  1.0  0.6169
  C  C244  1  0.650200  0.284600  0.560060  1.0  0.0114
  C  C245  1  0.084200  0.650600  0.558480  1.0  -0.1582
  C  C246  1  0.168300  0.631000  0.571380  1.0  -0.0863
  C  C247  1  0.374100  0.479000  0.615890  1.0  0.0099
  C  C248  1  0.644200  0.179100  0.554230  1.0  -0.1532
  C  C249  1  0.447100  0.877200  0.624630  1.0  -0.1839
  C  C250  1  0.567300  0.896100  0.620170  1.0  0.0172
  C  C251  1  0.458000  0.001900  0.598510  1.0  -0.0221
  C  C252  1  0.267700  0.421300  0.588310  1.0  -0.0912
  C  C253  1  0.392000  0.908700  0.605540  1.0  -0.1591
  C  C254  1  0.295200  0.993300  0.499000  1.0  0.1743
  C  C255  1  0.391600  0.359500  0.611700  1.0  -0.0961
  C  C256  1  0.317100  0.084400  0.498500  1.0  0.301
  C  C257  1  0.365100  0.344200  0.594010  1.0  -0.108
  C  C258  1  0.455700  0.108500  0.496300  1.0  0.5057
  C  C259  1  0.182100  0.956900  0.499600  1.0  -0.1108
  C  C260  1  0.158000  0.835900  0.501490  1.0  0.5721
  C  C261  1  0.112900  0.042400  0.498820  1.0  0.1178
  C  C262  1  0.238200  0.165600  0.496260  1.0  0.0521
  C  C263  1  0.921400  0.834100  0.335770  1.0  0.6709
  C  C264  1  0.145200  0.655300  0.340820  1.0  0.6619
  C  C265  1  0.726400  0.838000  0.342480  1.0  -0.0452
  C  C266  1  0.131300  0.459000  0.347020  1.0  -0.0342
  C  C267  1  0.150900  0.392900  0.287590  1.0  0.7128
  C  C268  1  0.619500  0.850700  0.336610  1.0  -0.031
  C  C269  1  0.655100  0.861800  0.282960  1.0  0.6878
  C  C270  1  0.532200  0.844200  0.351210  1.0  0.6066
  C  C271  1  0.595100  0.857800  0.317190  1.0  -0.037
  C  C272  1  0.807900  0.840600  0.329250  1.0  -0.1472
  C  C273  1  0.041600  0.025700  0.361580  1.0  0.6519
  C  C274  1  0.121800  0.353000  0.340550  1.0  -0.0352
  C  C275  1  0.148500  0.540800  0.334150  1.0  -0.14
  C  C276  1  0.159000  0.520500  0.314560  1.0  -0.0019
  C  C277  1  0.291400  0.888300  0.361910  1.0  0.6382
  C  C278  1  0.095600  0.264900  0.355010  1.0  0.6225
  C  C279  1  0.784600  0.849800  0.310060  1.0  0.0099
  C  C280  1  0.150600  0.415800  0.308480  1.0  -0.1577
  C  C281  1  0.131000  0.331700  0.321380  1.0  -0.085
  C  C282  1  0.979000  0.125900  0.365890  1.0  0.011
  C  C283  1  0.679100  0.855800  0.304230  1.0  -0.151
  C  C284  1  0.377200  0.052900  0.374630  1.0  -0.1829
  C  C285  1  0.396100  0.932700  0.370170  1.0  0.0189
  C  C286  1  0.501900  0.042000  0.348510  1.0  -0.0222
  C  C287  1  0.921300  0.232300  0.338310  1.0  -0.09
  C  C288  1  0.408700  0.108000  0.355540  1.0  -0.1606
  C  C289  1  0.493300  0.204800  0.249000  1.0  0.1745
  C  C290  1  0.859500  0.108400  0.361700  1.0  -0.0945
  C  C291  1  0.584400  0.182900  0.248500  1.0  0.2995
  C  C292  1  0.844200  0.134900  0.344010  1.0  -0.1078
  C  C293  1  0.608500  0.044300  0.246300  1.0  0.5047
  C  C294  1  0.456900  0.317900  0.249600  1.0  -0.1092
  C  C295  1  0.335900  0.342000  0.251490  1.0  0.572
  C  C296  1  0.542400  0.387100  0.248820  1.0  0.1216
  C  C297  1  0.665600  0.261800  0.246260  1.0  0.0577
  C  C298  1  0.078600  0.165900  0.835770  1.0  0.671
  C  C299  1  0.854800  0.344700  0.840820  1.0  0.6621
  C  C300  1  0.273600  0.162000  0.842480  1.0  -0.046
  C  C301  1  0.868700  0.541000  0.847020  1.0  -0.0343
  C  C302  1  0.849100  0.607100  0.787590  1.0  0.7123
  C  C303  1  0.380500  0.149300  0.836610  1.0  -0.0307
  C  C304  1  0.344900  0.138200  0.782960  1.0  0.687
  C  C305  1  0.467800  0.155800  0.851210  1.0  0.6076
  C  C306  1  0.404900  0.142200  0.817190  1.0  -0.0356
  C  C307  1  0.192100  0.159400  0.829250  1.0  -0.147
  C  C308  1  0.958400  0.974300  0.861580  1.0  0.6522
  C  C309  1  0.878200  0.647000  0.840550  1.0  -0.0356
  C  C310  1  0.851500  0.459200  0.834150  1.0  -0.1405
  C  C311  1  0.841000  0.479500  0.814560  1.0  -0.0006
  C  C312  1  0.708600  0.111700  0.861910  1.0  0.6395
  C  C313  1  0.904400  0.735100  0.855010  1.0  0.6224
  C  C314  1  0.215400  0.150200  0.810060  1.0  0.0105
  C  C315  1  0.849400  0.584200  0.808480  1.0  -0.1583
  C  C316  1  0.869000  0.668300  0.821380  1.0  -0.0844
  C  C317  1  0.021000  0.874100  0.865890  1.0  0.0085
  C  C318  1  0.320900  0.144200  0.804230  1.0  -0.1506
  C  C319  1  0.622800  0.947100  0.874630  1.0  -0.1851
  C  C320  1  0.603900  0.067300  0.870170  1.0  0.0194
  C  C321  1  0.498100  0.958000  0.848510  1.0  -0.0216
  C  C322  1  0.078700  0.767700  0.838310  1.0  -0.0908
  C  C323  1  0.591300  0.892000  0.855540  1.0  -0.1617
  C  C324  1  0.506700  0.795200  0.749000  1.0  0.1756
  C  C325  1  0.140500  0.891600  0.861700  1.0  -0.0944
  C  C326  1  0.415600  0.817100  0.748500  1.0  0.2969
  C  C327  1  0.155800  0.865100  0.844010  1.0  -0.1067
  C  C328  1  0.391500  0.955700  0.746300  1.0  0.5038
  C  C329  1  0.543100  0.682100  0.749600  1.0  -0.1115
  C  C330  1  0.664100  0.658000  0.751490  1.0  0.5714
  C  C331  1  0.457600  0.612900  0.748820  1.0  0.1237
  C  C332  1  0.334400  0.738200  0.746260  1.0  0.0564
  C  C333  1  0.165900  0.078600  0.164230  1.0  0.6735
  C  C334  1  0.344700  0.854800  0.159180  1.0  0.6603
  C  C335  1  0.162000  0.273600  0.157520  1.0  -0.0433
  C  C336  1  0.541000  0.868700  0.152980  1.0  -0.0368
  C  C337  1  0.607100  0.849100  0.212410  1.0  0.7139
  C  C338  1  0.149300  0.380500  0.163390  1.0  -0.0301
  C  C339  1  0.138200  0.344900  0.217040  1.0  0.6872
  C  C340  1  0.155800  0.467800  0.148790  1.0  0.6077
  C  C341  1  0.142200  0.404900  0.182810  1.0  -0.0374
  C  C342  1  0.159400  0.192100  0.170750  1.0  -0.1468
  C  C343  1  0.974300  0.958400  0.138420  1.0  0.6518
  C  C344  1  0.647000  0.878200  0.159450  1.0  -0.0338
  C  C345  1  0.459200  0.851500  0.165850  1.0  -0.1414
  C  C346  1  0.479500  0.841000  0.185440  1.0  -0.0008
  C  C347  1  0.111700  0.708600  0.138090  1.0  0.6394
  C  C348  1  0.735100  0.904400  0.144990  1.0  0.6183
  C  C349  1  0.150200  0.215400  0.189940  1.0  0.0122
  C  C350  1  0.584200  0.849400  0.191520  1.0  -0.1579
  C  C351  1  0.668300  0.869000  0.178620  1.0  -0.0871
  C  C352  1  0.874100  0.021000  0.134110  1.0  0.0086
  C  C353  1  0.144200  0.320900  0.195770  1.0  -0.1529
  C  C354  1  0.947100  0.622800  0.125370  1.0  -0.1841
  C  C355  1  0.067300  0.603900  0.129830  1.0  0.0162
  C  C356  1  0.958000  0.498100  0.151490  1.0  -0.0247
  C  C357  1  0.767700  0.078700  0.161690  1.0  -0.0956
  C  C358  1  0.892000  0.591300  0.144460  1.0  -0.1614
  C  C359  1  0.795200  0.506700  0.251000  1.0  0.1737
  C  C360  1  0.891600  0.140500  0.138300  1.0  -0.0964
  C  C361  1  0.817100  0.415600  0.251500  1.0  0.2992
  C  C362  1  0.865100  0.155800  0.155990  1.0  -0.1105
  C  C363  1  0.955700  0.391500  0.253700  1.0  0.5057
  C  C364  1  0.682100  0.543100  0.250400  1.0  -0.1109
  C  C365  1  0.658000  0.664100  0.248510  1.0  0.5718
  C  C366  1  0.612900  0.457600  0.251180  1.0  0.1152
  C  C367  1  0.738200  0.334400  0.253740  1.0  0.0556
  C  C368  1  0.834100  0.921400  0.664230  1.0  0.6705
  C  C369  1  0.655300  0.145200  0.659180  1.0  0.6612
  C  C370  1  0.838000  0.726400  0.657520  1.0  -0.0431
  C  C371  1  0.459000  0.131300  0.652980  1.0  -0.036
  C  C372  1  0.392900  0.150900  0.712410  1.0  0.714
  C  C373  1  0.850700  0.619500  0.663390  1.0  -0.0298
  C  C374  1  0.861800  0.655100  0.717040  1.0  0.687
  C  C375  1  0.844200  0.532200  0.648790  1.0  0.6093
  C  C376  1  0.857800  0.595100  0.682810  1.0  -0.0378
  C  C377  1  0.840600  0.807900  0.670750  1.0  -0.1473
  C  C378  1  0.025700  0.041600  0.638420  1.0  0.6515
  C  C379  1  0.353000  0.121800  0.659450  1.0  -0.0337
  C  C380  1  0.540800  0.148500  0.665850  1.0  -0.1406
  C  C381  1  0.520500  0.159000  0.685440  1.0  -0.0003
  C  C382  1  0.888300  0.291400  0.638090  1.0  0.6406
  C  C383  1  0.264900  0.095600  0.644990  1.0  0.619
  C  C384  1  0.849800  0.784600  0.689940  1.0  0.01
  C  C385  1  0.415800  0.150600  0.691520  1.0  -0.1586
  C  C386  1  0.331700  0.131000  0.678620  1.0  -0.0894
  C  C387  1  0.125900  0.979000  0.634110  1.0  0.0113
  C  C388  1  0.855800  0.679100  0.695770  1.0  -0.1528
  C  C389  1  0.052900  0.377200  0.625370  1.0  -0.1838
  C  C390  1  0.932700  0.396100  0.629830  1.0  0.0133
  C  C391  1  0.042000  0.501900  0.651490  1.0  -0.0246
  C  C392  1  0.232300  0.921300  0.661690  1.0  -0.0919
  C  C393  1  0.108000  0.408700  0.644460  1.0  -0.1618
  C  C394  1  0.204800  0.493300  0.751000  1.0  0.175
  C  C395  1  0.108400  0.859500  0.638300  1.0  -0.0944
  C  C396  1  0.182900  0.584400  0.751500  1.0  0.2997
  C  C397  1  0.134900  0.844200  0.655990  1.0  -0.1092
  C  C398  1  0.044300  0.608500  0.753700  1.0  0.5048
  C  C399  1  0.317900  0.456900  0.750400  1.0  -0.1113
  C  C400  1  0.342000  0.335900  0.748510  1.0  0.5728
  C  C401  1  0.387100  0.542400  0.751180  1.0  0.1182
  C  C402  1  0.261800  0.665600  0.753740  1.0  0.0548
  C  C403  1  0.578600  0.334100  0.914230  1.0  0.6691
  C  C404  1  0.354800  0.155300  0.909180  1.0  0.6613
  C  C405  1  0.773600  0.338000  0.907520  1.0  -0.0441
  C  C406  1  0.368700  0.959000  0.902980  1.0  -0.0349
  C  C407  1  0.349100  0.892900  0.962410  1.0  0.7121
  C  C408  1  0.880500  0.350700  0.913390  1.0  -0.0315
  C  C409  1  0.844900  0.361800  0.967040  1.0  0.6875
  C  C410  1  0.967800  0.344200  0.898790  1.0  0.6068
  C  C411  1  0.904900  0.357800  0.932810  1.0  -0.037
  C  C412  1  0.692100  0.340600  0.920750  1.0  -0.1465
  C  C413  1  0.458400  0.525700  0.888420  1.0  0.6536
  C  C414  1  0.378200  0.853000  0.909450  1.0  -0.0359
  C  C415  1  0.351500  0.040800  0.915850  1.0  -0.1412
  C  C416  1  0.341000  0.020500  0.935440  1.0  -0.0023
  C  C417  1  0.208600  0.388300  0.888090  1.0  0.6412
  C  C418  1  0.404400  0.764900  0.894990  1.0  0.6225
  C  C419  1  0.715400  0.349800  0.939940  1.0  0.0101
  C  C420  1  0.349400  0.915800  0.941520  1.0  -0.158
  C  C421  1  0.369000  0.831700  0.928620  1.0  -0.0872
  C  C422  1  0.521000  0.625900  0.884110  1.0  0.0082
  C  C423  1  0.820900  0.355800  0.945770  1.0  -0.1501
  C  C424  1  0.122800  0.552900  0.875370  1.0  -0.1848
  C  C425  1  0.103900  0.432700  0.879830  1.0  0.0181
  C  C426  1  0.998100  0.542000  0.901490  1.0  -0.0251
  C  C427  1  0.578700  0.732300  0.911690  1.0  -0.093
  C  C428  1  0.091300  0.608000  0.894460  1.0  -0.164
  C  C429  1  0.006700  0.704800  0.001000  1.0  0.1765
  C  C430  1  0.640500  0.608400  0.888300  1.0  -0.0938
  C  C431  1  0.915600  0.682900  0.001500  1.0  0.2978
  C  C432  1  0.655800  0.634900  0.905990  1.0  -0.1085
  C  C433  1  0.891500  0.544300  0.003700  1.0  0.5032
  C  C434  1  0.043100  0.817900  0.000400  1.0  -0.1128
  C  C435  1  0.164100  0.842000  0.998510  1.0  0.5722
  C  C436  1  0.957600  0.887100  0.001180  1.0  0.1214
  C  C437  1  0.834400  0.761800  0.003740  1.0  0.0575
  C  C438  1  0.421400  0.665900  0.414230  1.0  0.6702
  C  C439  1  0.645200  0.844700  0.409180  1.0  0.6623
  C  C440  1  0.226400  0.662000  0.407520  1.0  -0.044
  C  C441  1  0.631300  0.041000  0.402980  1.0  -0.0342
  C  C442  1  0.650900  0.107100  0.462410  1.0  0.7132
  C  C443  1  0.119500  0.649300  0.413390  1.0  -0.0317
  C  C444  1  0.155100  0.638200  0.467040  1.0  0.6877
  C  C445  1  0.032200  0.655800  0.398790  1.0  0.607
  C  C446  1  0.095100  0.642200  0.432810  1.0  -0.037
  C  C447  1  0.307900  0.659400  0.420750  1.0  -0.1477
  C  C448  1  0.541600  0.474300  0.388420  1.0  0.6528
  C  C449  1  0.621800  0.147000  0.409450  1.0  -0.0349
  C  C450  1  0.648500  0.959200  0.415850  1.0  -0.1403
  C  C451  1  0.659000  0.979500  0.435440  1.0  0.0007
  C  C452  1  0.791400  0.611700  0.388090  1.0  0.6378
  C  C453  1  0.595600  0.235100  0.394990  1.0  0.6228
  C  C454  1  0.284600  0.650200  0.439940  1.0  0.0108
  C  C455  1  0.650600  0.084200  0.441520  1.0  -0.1585
  C  C456  1  0.631000  0.168300  0.428620  1.0  -0.0852
  C  C457  1  0.479000  0.374100  0.384110  1.0  0.0105
  C  C458  1  0.179100  0.644200  0.445770  1.0  -0.1509
  C  C459  1  0.877200  0.447100  0.375370  1.0  -0.1821
  C  C460  1  0.896100  0.567300  0.379830  1.0  0.0183
  C  C461  1  0.001900  0.458000  0.401490  1.0  -0.0239
  C  C462  1  0.421300  0.267700  0.411690  1.0  -0.0932
  C  C463  1  0.908700  0.392000  0.394460  1.0  -0.1611
  C  C464  1  0.993300  0.295200  0.501000  1.0  0.1743
  C  C465  1  0.359500  0.391600  0.388300  1.0  -0.0934
  C  C466  1  0.084400  0.317100  0.501500  1.0  0.2984
  C  C467  1  0.344200  0.365100  0.405990  1.0  -0.109
  C  C468  1  0.108500  0.455700  0.503700  1.0  0.5046
  C  C469  1  0.956900  0.182100  0.500400  1.0  -0.1104
  C  C470  1  0.835900  0.158000  0.498510  1.0  0.5724
  C  C471  1  0.042400  0.112900  0.501180  1.0  0.1204
  C  C472  1  0.165600  0.238200  0.503740  1.0  0.0592
  C  C473  1  0.865400  0.865400  0.000000  1.0  -0.0196
  C  C474  1  0.134600  0.134600  0.500000  1.0  -0.0143
  C  C475  1  0.634600  0.365400  0.250000  1.0  -0.0145
  C  C476  1  0.365400  0.634600  0.750000  1.0  -0.0195
  N  N477  1  0.434700  0.016800  0.106030  1.0  -0.1343
  N  N478  1  0.714900  0.493600  0.102590  1.0  -0.1498
  N  N479  1  0.565300  0.983200  0.606030  1.0  -0.1337
  N  N480  1  0.285100  0.506400  0.602590  1.0  -0.151
  N  N481  1  0.483200  0.934700  0.356030  1.0  -0.1344
  N  N482  1  0.006400  0.214900  0.352590  1.0  -0.1514
  N  N483  1  0.516800  0.065300  0.856030  1.0  -0.1334
  N  N484  1  0.993600  0.785100  0.852590  1.0  -0.152
  N  N485  1  0.065300  0.516800  0.143970  1.0  -0.1342
  N  N486  1  0.785100  0.993600  0.147410  1.0  -0.1495
  N  N487  1  0.934700  0.483200  0.643970  1.0  -0.1352
  N  N488  1  0.214900  0.006400  0.647410  1.0  -0.1511
  N  N489  1  0.016800  0.434700  0.893970  1.0  -0.1351
  N  N490  1  0.493600  0.714900  0.897410  1.0  -0.1517
  N  N491  1  0.983200  0.565300  0.393970  1.0  -0.134
  N  N492  1  0.506400  0.285100  0.397410  1.0  -0.1512
  O  O493  1  0.227900  0.337100  0.078280  1.0  -0.6275
  O  O494  1  0.398000  0.221800  0.094530  1.0  -0.5829
  O  O495  1  0.301400  0.560700  0.102220  1.0  -0.579
  O  O496  1  0.453900  0.464900  0.124040  1.0  -0.5767
  O  O497  1  0.170900  0.379800  0.107620  1.0  -0.5747
  O  O498  1  0.349500  0.274000  0.123810  1.0  -0.5875
  O  O499  1  0.363600  0.506900  0.073660  1.0  -0.6049
  O  O500  1  0.255300  0.993000  0.108180  1.0  -0.6147
  O  O501  1  0.517700  0.411600  0.095420  1.0  -0.6134
  O  O502  1  0.799300  0.366000  0.032100  1.0  -0.5872
  O  O503  1  0.968300  0.330000  0.026820  1.0  -0.586
  O  O504  1  0.750000  0.342600  0.118380  1.0  -0.5458
  O  O505  1  0.755200  0.217300  0.005020  1.0  -0.6021
  O  O506  1  0.377900  0.766400  0.022590  1.0  -0.5891
  O  O507  1  0.353900  0.939200  0.028130  1.0  -0.5542
  O  O508  1  0.939900  0.185400  0.998020  1.0  -0.5872
  O  O509  1  0.499300  0.964200  0.998770  1.0  -0.5729
  O  O510  1  0.531600  0.787200  0.994870  1.0  -0.5761
  O  O511  1  0.772100  0.662900  0.578280  1.0  -0.6287
  O  O512  1  0.602000  0.778200  0.594530  1.0  -0.5834
  O  O513  1  0.698600  0.439300  0.602220  1.0  -0.5798
  O  O514  1  0.546100  0.535100  0.624040  1.0  -0.5768
  O  O515  1  0.829100  0.620200  0.607620  1.0  -0.5753
  O  O516  1  0.650500  0.726000  0.623810  1.0  -0.588
  O  O517  1  0.636400  0.493100  0.573660  1.0  -0.6057
  O  O518  1  0.744700  0.007000  0.608180  1.0  -0.6159
  O  O519  1  0.482300  0.588400  0.595420  1.0  -0.6141
  O  O520  1  0.200700  0.634000  0.532100  1.0  -0.5871
  O  O521  1  0.031700  0.670000  0.526820  1.0  -0.5852
  O  O522  1  0.250000  0.657400  0.618380  1.0  -0.5466
  O  O523  1  0.244800  0.782700  0.505020  1.0  -0.6049
  O  O524  1  0.622100  0.233600  0.522590  1.0  -0.5896
  O  O525  1  0.646100  0.060800  0.528130  1.0  -0.5569
  O  O526  1  0.060100  0.814600  0.498020  1.0  -0.586
  O  O527  1  0.500700  0.035800  0.498770  1.0  -0.5731
  O  O528  1  0.468400  0.212800  0.494870  1.0  -0.5788
  O  O529  1  0.162900  0.727900  0.328280  1.0  -0.6275
  O  O530  1  0.278200  0.898000  0.344530  1.0  -0.5811
  O  O531  1  0.939300  0.801400  0.352220  1.0  -0.5787
  O  O532  1  0.035100  0.953900  0.374040  1.0  -0.5769
  O  O533  1  0.120200  0.670900  0.357620  1.0  -0.5756
  O  O534  1  0.226000  0.849500  0.373810  1.0  -0.5887
  O  O535  1  0.993100  0.863600  0.323660  1.0  -0.6038
  O  O536  1  0.507000  0.755300  0.358180  1.0  -0.6145
  O  O537  1  0.088400  0.017700  0.345420  1.0  -0.6112
  O  O538  1  0.134000  0.299300  0.282100  1.0  -0.5867
  O  O539  1  0.170000  0.468300  0.276820  1.0  -0.5856
  O  O540  1  0.157400  0.250000  0.368380  1.0  -0.546
  O  O541  1  0.282700  0.255200  0.255020  1.0  -0.6043
  O  O542  1  0.733600  0.877900  0.272590  1.0  -0.5896
  O  O543  1  0.560800  0.853900  0.278130  1.0  -0.5547
  O  O544  1  0.314600  0.439900  0.248020  1.0  -0.5862
  O  O545  1  0.535800  0.999300  0.248770  1.0  -0.5776
  O  O546  1  0.712800  0.031600  0.244870  1.0  -0.5785
  O  O547  1  0.837100  0.272100  0.828280  1.0  -0.6271
  O  O548  1  0.721800  0.102000  0.844530  1.0  -0.5817
  O  O549  1  0.060700  0.198600  0.852220  1.0  -0.5794
  O  O550  1  0.964900  0.046100  0.874040  1.0  -0.576
  O  O551  1  0.879800  0.329100  0.857620  1.0  -0.5746
  O  O552  1  0.774000  0.150500  0.873810  1.0  -0.5888
  O  O553  1  0.006900  0.136400  0.823660  1.0  -0.6035
  O  O554  1  0.493000  0.244700  0.858180  1.0  -0.6153
  O  O555  1  0.911600  0.982300  0.845420  1.0  -0.6111
  O  O556  1  0.866000  0.700700  0.782100  1.0  -0.5864
  O  O557  1  0.830000  0.531700  0.776820  1.0  -0.5863
  O  O558  1  0.842600  0.750000  0.868380  1.0  -0.5456
  O  O559  1  0.717300  0.744800  0.755020  1.0  -0.6053
  O  O560  1  0.266400  0.122100  0.772590  1.0  -0.5889
  O  O561  1  0.439200  0.146100  0.778130  1.0  -0.5571
  O  O562  1  0.685400  0.560100  0.748020  1.0  -0.5844
  O  O563  1  0.464200  0.000700  0.748770  1.0  -0.5774
  O  O564  1  0.287200  0.968400  0.744870  1.0  -0.5811
  O  O565  1  0.272100  0.837100  0.171720  1.0  -0.6248
  O  O566  1  0.102000  0.721800  0.155470  1.0  -0.5827
  O  O567  1  0.198600  0.060700  0.147780  1.0  -0.5796
  O  O568  1  0.046100  0.964900  0.125960  1.0  -0.5761
  O  O569  1  0.329100  0.879800  0.142380  1.0  -0.5752
  O  O570  1  0.150500  0.774000  0.126190  1.0  -0.5878
  O  O571  1  0.136400  0.006900  0.176340  1.0  -0.6055
  O  O572  1  0.244700  0.493000  0.141820  1.0  -0.6163
  O  O573  1  0.982300  0.911600  0.154580  1.0  -0.6132
  O  O574  1  0.700700  0.866000  0.217900  1.0  -0.5875
  O  O575  1  0.531700  0.830000  0.223180  1.0  -0.5854
  O  O576  1  0.750000  0.842600  0.131620  1.0  -0.5454
  O  O577  1  0.744800  0.717300  0.244980  1.0  -0.6063
  O  O578  1  0.122100  0.266400  0.227410  1.0  -0.5895
  O  O579  1  0.146100  0.439200  0.221870  1.0  -0.5545
  O  O580  1  0.560100  0.685400  0.251980  1.0  -0.5847
  O  O581  1  0.000700  0.464200  0.251230  1.0  -0.5728
  O  O582  1  0.968400  0.287200  0.255130  1.0  -0.5753
  O  O583  1  0.727900  0.162900  0.671720  1.0  -0.6247
  O  O584  1  0.898000  0.278200  0.655470  1.0  -0.5829
  O  O585  1  0.801400  0.939300  0.647780  1.0  -0.5796
  O  O586  1  0.953900  0.035100  0.625960  1.0  -0.5759
  O  O587  1  0.670900  0.120200  0.642380  1.0  -0.575
  O  O588  1  0.849500  0.226000  0.626190  1.0  -0.5879
  O  O589  1  0.863600  0.993100  0.676340  1.0  -0.6036
  O  O590  1  0.755300  0.507000  0.641820  1.0  -0.6143
  O  O591  1  0.017700  0.088400  0.654580  1.0  -0.6138
  O  O592  1  0.299300  0.134000  0.717900  1.0  -0.5872
  O  O593  1  0.468300  0.170000  0.723180  1.0  -0.5857
  O  O594  1  0.250000  0.157400  0.631620  1.0  -0.5457
  O  O595  1  0.255200  0.282700  0.744980  1.0  -0.6024
  O  O596  1  0.877900  0.733600  0.727410  1.0  -0.5897
  O  O597  1  0.853900  0.560800  0.721870  1.0  -0.5561
  O  O598  1  0.439900  0.314600  0.751980  1.0  -0.5861
  O  O599  1  0.999300  0.535800  0.751230  1.0  -0.573
  O  O600  1  0.031600  0.712800  0.755130  1.0  -0.5789
  O  O601  1  0.337100  0.227900  0.921720  1.0  -0.6254
  O  O602  1  0.221800  0.398000  0.905470  1.0  -0.58
  O  O603  1  0.560700  0.301400  0.897780  1.0  -0.5789
  O  O604  1  0.464900  0.453900  0.875960  1.0  -0.5767
  O  O605  1  0.379800  0.170900  0.892380  1.0  -0.5752
  O  O606  1  0.274000  0.349500  0.876190  1.0  -0.5891
  O  O607  1  0.506900  0.363600  0.926340  1.0  -0.6037
  O  O608  1  0.993000  0.255300  0.891820  1.0  -0.6168
  O  O609  1  0.411600  0.517700  0.904580  1.0  -0.6113
  O  O610  1  0.366000  0.799300  0.967900  1.0  -0.5865
  O  O611  1  0.330000  0.968300  0.973180  1.0  -0.5857
  O  O612  1  0.342600  0.750000  0.881620  1.0  -0.5452
  O  O613  1  0.217300  0.755200  0.994980  1.0  -0.605
  O  O614  1  0.766400  0.377900  0.977410  1.0  -0.5896
  O  O615  1  0.939200  0.353900  0.971870  1.0  -0.5573
  O  O616  1  0.185400  0.939900  0.001980  1.0  -0.584
  O  O617  1  0.964200  0.499300  0.001230  1.0  -0.5772
  O  O618  1  0.787200  0.531600  0.005130  1.0  -0.5806
  O  O619  1  0.662900  0.772100  0.421720  1.0  -0.6243
  O  O620  1  0.778200  0.602000  0.405470  1.0  -0.5811
  O  O621  1  0.439300  0.698600  0.397780  1.0  -0.5792
  O  O622  1  0.535100  0.546100  0.375960  1.0  -0.5761
  O  O623  1  0.620200  0.829100  0.392380  1.0  -0.5748
  O  O624  1  0.726000  0.650500  0.376190  1.0  -0.5888
  O  O625  1  0.493100  0.636400  0.426340  1.0  -0.6022
  O  O626  1  0.007000  0.744700  0.391820  1.0  -0.6144
  O  O627  1  0.588400  0.482300  0.404580  1.0  -0.6104
  O  O628  1  0.634000  0.200700  0.467900  1.0  -0.5867
  O  O629  1  0.670000  0.031700  0.473180  1.0  -0.5864
  O  O630  1  0.657400  0.250000  0.381620  1.0  -0.5456
  O  O631  1  0.782700  0.244800  0.494980  1.0  -0.6061
  O  O632  1  0.233600  0.622100  0.477410  1.0  -0.5898
  O  O633  1  0.060800  0.646100  0.471870  1.0  -0.5545
  O  O634  1  0.814600  0.060100  0.501980  1.0  -0.5844
  O  O635  1  0.035800  0.500700  0.501230  1.0  -0.5778
  O  O636  1  0.212800  0.468400  0.505130  1.0  -0.5792
