# generated using pymatgen
data_Cu3H20C28(NO7)2
_symmetry_space_group_name_H-M   'P 1'
_cell_length_a   21.78000000
_cell_length_b   10.85510000
_cell_length_c   19.44050000
_cell_angle_alpha   90.00000000
_cell_angle_beta   92.08800000
_cell_angle_gamma   90.00000000
_symmetry_Int_Tables_number   1
_chemical_formula_structural   Cu3H20C28(NO7)2
_chemical_formula_sum   'Cu12 H80 C112 N8 O56'
_cell_volume   4593.15062377
_cell_formula_units_Z   4
loop_
 _symmetry_equiv_pos_site_id
 _symmetry_equiv_pos_as_xyz
  1  'x, y, z'
loop_
 _atom_site_type_symbol
 _atom_site_label
 _atom_site_symmetry_multiplicity
 _atom_site_fract_x
 _atom_site_fract_y
 _atom_site_fract_z
 _atom_site_occupancy
 _atom_site_charge
  Cu  Cu1  1  0.301760  0.145240  0.196030  1.0  0.9166
  Cu  Cu2  1  0.019410  0.008570  0.437720  1.0  0.9058
  Cu  Cu3  1  0.377520  0.975400  0.150220  1.0  0.9041
  Cu  Cu4  1  0.801760  0.645240  0.196030  1.0  0.9166
  Cu  Cu5  1  0.519410  0.508570  0.437720  1.0  0.9058
  Cu  Cu6  1  0.877520  0.475400  0.150220  1.0  0.9042
  Cu  Cu7  1  0.698240  0.145240  0.803970  1.0  0.9171
  Cu  Cu8  1  0.980590  0.008570  0.562280  1.0  0.9061
  Cu  Cu9  1  0.622480  0.975400  0.849780  1.0  0.9071
  Cu  Cu10  1  0.198240  0.645240  0.803970  1.0  0.9171
  Cu  Cu11  1  0.480590  0.508570  0.562280  1.0  0.9061
  Cu  Cu12  1  0.122480  0.475400  0.849780  1.0  0.9072
  H  H13  1  0.638500  0.410100  0.171400  1.0  0.1135
  H  H14  1  0.404400  0.796700  0.347700  1.0  0.1097
  H  H15  1  0.241900  0.957100  0.383700  1.0  0.1158
  H  H16  1  0.474100  0.327000  0.266800  1.0  0.0985
  H  H17  1  0.734800  0.308700  0.007200  1.0  0.1129
  H  H18  1  0.560600  0.192100  0.025800  1.0  0.1046
  H  H19  1  0.140600  0.764600  0.601400  1.0  0.1
  H  H20  1  0.312300  0.707100  0.516900  1.0  0.1076
  H  H21  1  0.527300  0.228200  0.352600  1.0  0.0851
  H  H22  1  0.480000  0.121000  0.336000  1.0  0.063
  H  H23  1  0.622500  0.234600  0.262000  1.0  0.0942
  H  H24  1  0.613800  0.134500  0.203400  1.0  0.0853
  H  H25  1  0.209600  0.579000  0.478800  1.0  0.0871
  H  H26  1  0.183700  0.657800  0.415800  1.0  0.0845
  H  H27  1  0.084400  0.615500  0.439200  1.0  0.0773
  H  H28  1  0.114300  0.493300  0.468900  1.0  0.0711
  H  H29  1  0.115300  0.564800  0.579300  1.0  0.074
  H  H30  1  0.053500  0.623900  0.549900  1.0  0.0784
  H  H31  1  0.592800  0.069200  0.326300  1.0  0.075
  H  H32  1  0.547800  0.019700  0.266800  1.0  0.0788
  H  H33  1  0.138500  0.910100  0.171400  1.0  0.1135
  H  H34  1  0.904400  0.296700  0.347700  1.0  0.1097
  H  H35  1  0.741900  0.457100  0.383700  1.0  0.1158
  H  H36  1  0.974100  0.827000  0.266800  1.0  0.0985
  H  H37  1  0.234800  0.808700  0.007200  1.0  0.1129
  H  H38  1  0.060600  0.692100  0.025800  1.0  0.1046
  H  H39  1  0.640600  0.264600  0.601400  1.0  0.1
  H  H40  1  0.812300  0.207100  0.516900  1.0  0.1076
  H  H41  1  0.027300  0.728200  0.352600  1.0  0.0838
  H  H42  1  0.980000  0.621000  0.336000  1.0  0.063
  H  H43  1  0.122500  0.734600  0.262000  1.0  0.0942
  H  H44  1  0.113800  0.634500  0.203400  1.0  0.0853
  H  H45  1  0.709600  0.079000  0.478800  1.0  0.0871
  H  H46  1  0.683700  0.157800  0.415800  1.0  0.0845
  H  H47  1  0.584400  0.115500  0.439200  1.0  0.076
  H  H48  1  0.614300  0.993300  0.468900  1.0  0.0711
  H  H49  1  0.615300  0.064800  0.579300  1.0  0.074
  H  H50  1  0.553500  0.123900  0.549900  1.0  0.0784
  H  H51  1  0.092800  0.569200  0.326300  1.0  0.075
  H  H52  1  0.047800  0.519700  0.266800  1.0  0.0788
  H  H53  1  0.361500  0.410100  0.828600  1.0  0.1136
  H  H54  1  0.595600  0.796700  0.652300  1.0  0.1101
  H  H55  1  0.758100  0.957100  0.616300  1.0  0.116
  H  H56  1  0.525900  0.327000  0.733200  1.0  0.099
  H  H57  1  0.265200  0.308700  0.992800  1.0  0.1128
  H  H58  1  0.439400  0.192100  0.974200  1.0  0.1046
  H  H59  1  0.859400  0.764600  0.398600  1.0  0.1001
  H  H60  1  0.687700  0.707100  0.483100  1.0  0.1087
  H  H61  1  0.472700  0.228200  0.647400  1.0  0.0851
  H  H62  1  0.520000  0.121000  0.664000  1.0  0.0625
  H  H63  1  0.377500  0.234600  0.738000  1.0  0.0936
  H  H64  1  0.386200  0.134500  0.796600  1.0  0.086
  H  H65  1  0.790400  0.579000  0.521200  1.0  0.0863
  H  H66  1  0.816300  0.657800  0.584200  1.0  0.0844
  H  H67  1  0.915600  0.615500  0.560800  1.0  0.0774
  H  H68  1  0.885700  0.493300  0.531100  1.0  0.0722
  H  H69  1  0.884700  0.564800  0.420700  1.0  0.0734
  H  H70  1  0.946500  0.623900  0.450100  1.0  0.0798
  H  H71  1  0.407200  0.069200  0.673700  1.0  0.0756
  H  H72  1  0.452200  0.019700  0.733200  1.0  0.0793
  H  H73  1  0.861500  0.910100  0.828600  1.0  0.1136
  H  H74  1  0.095600  0.296700  0.652300  1.0  0.1101
  H  H75  1  0.258100  0.457100  0.616300  1.0  0.116
  H  H76  1  0.025900  0.827000  0.733200  1.0  0.099
  H  H77  1  0.765200  0.808700  0.992800  1.0  0.1128
  H  H78  1  0.939400  0.692100  0.974200  1.0  0.1046
  H  H79  1  0.359400  0.264600  0.398600  1.0  0.1001
  H  H80  1  0.187700  0.207100  0.483100  1.0  0.1087
  H  H81  1  0.972700  0.728200  0.647400  1.0  0.0837
  H  H82  1  0.020000  0.621000  0.664000  1.0  0.0625
  H  H83  1  0.877500  0.734600  0.738000  1.0  0.0936
  H  H84  1  0.886200  0.634500  0.796600  1.0  0.086
  H  H85  1  0.290400  0.079000  0.521200  1.0  0.0863
  H  H86  1  0.316300  0.157800  0.584200  1.0  0.0844
  H  H87  1  0.415600  0.115500  0.560800  1.0  0.0761
  H  H88  1  0.385700  0.993300  0.531100  1.0  0.0722
  H  H89  1  0.384700  0.064800  0.420700  1.0  0.0734
  H  H90  1  0.446500  0.123900  0.450100  1.0  0.0798
  H  H91  1  0.907200  0.569200  0.673700  1.0  0.0756
  H  H92  1  0.952200  0.519700  0.733200  1.0  0.0793
  C  C93  1  0.327070  0.955700  0.288200  1.0  0.6886
  C  C94  1  0.641140  0.367100  0.130190  1.0  -0.0471
  C  C95  1  0.650950  0.172700  0.939000  1.0  0.676
  C  C96  1  0.695090  0.371900  0.093140  1.0  -0.1252
  C  C97  1  0.533900  0.292700  0.145200  1.0  0.601
  C  C98  1  0.419650  0.663100  0.461620  1.0  0.6675
  C  C99  1  0.078980  0.848500  0.531540  1.0  0.6471
  C  C100  1  0.591190  0.297300  0.104870  1.0  -0.0439
  C  C101  1  0.748800  0.441900  0.122670  1.0  0.6903
  C  C102  1  0.370770  0.807100  0.375250  1.0  -0.0132
  C  C103  1  0.322940  0.885800  0.354510  1.0  -0.0986
  C  C104  1  0.272640  0.901100  0.396220  1.0  -0.055
  C  C105  1  0.268270  0.832400  0.456710  1.0  -0.0095
  C  C106  1  0.647510  0.241000  0.005600  1.0  -0.1456
  C  C107  1  0.432710  0.173200  0.220350  1.0  0.6614
  C  C108  1  0.486740  0.243800  0.253770  1.0  0.0252
  C  C109  1  0.213830  0.845800  0.501840  1.0  0.6239
  C  C110  1  0.698690  0.307500  0.031300  1.0  -0.0182
  C  C111  1  0.594380  0.236500  0.042820  1.0  -0.0324
  C  C112  1  0.126070  0.750900  0.553680  1.0  0.0264
  C  C113  1  0.315360  0.753700  0.477090  1.0  -0.0447
  C  C114  1  0.511780  0.172200  0.317120  1.0  -0.1456
  C  C115  1  0.593210  0.179900  0.238820  1.0  -0.0155
  C  C116  1  0.367870  0.744300  0.437490  1.0  -0.145
  C  C117  1  0.177750  0.636400  0.463600  1.0  -0.0427
  C  C118  1  0.113730  0.582300  0.473000  1.0  -0.1859
  C  C119  1  0.097710  0.621200  0.545300  1.0  -0.1985
  C  C120  1  0.563760  0.093100  0.289630  1.0  -0.1659
  C  C121  1  0.827070  0.455700  0.288200  1.0  0.6886
  C  C122  1  0.141140  0.867100  0.130190  1.0  -0.0471
  C  C123  1  0.150950  0.672700  0.939000  1.0  0.676
  C  C124  1  0.195090  0.871900  0.093140  1.0  -0.1252
  C  C125  1  0.033900  0.792700  0.145200  1.0  0.601
  C  C126  1  0.919650  0.163100  0.461620  1.0  0.6675
  C  C127  1  0.578980  0.348500  0.531540  1.0  0.6471
  C  C128  1  0.091190  0.797300  0.104870  1.0  -0.0439
  C  C129  1  0.248800  0.941900  0.122670  1.0  0.6903
  C  C130  1  0.870770  0.307100  0.375250  1.0  -0.0132
  C  C131  1  0.822940  0.385800  0.354510  1.0  -0.0986
  C  C132  1  0.772640  0.401100  0.396220  1.0  -0.055
  C  C133  1  0.768270  0.332400  0.456710  1.0  -0.0095
  C  C134  1  0.147510  0.741000  0.005600  1.0  -0.1456
  C  C135  1  0.932710  0.673200  0.220350  1.0  0.6614
  C  C136  1  0.986740  0.743800  0.253770  1.0  0.0252
  C  C137  1  0.713830  0.345800  0.501840  1.0  0.6239
  C  C138  1  0.198690  0.807500  0.031300  1.0  -0.0182
  C  C139  1  0.094380  0.736500  0.042820  1.0  -0.0324
  C  C140  1  0.626070  0.250900  0.553680  1.0  0.0264
  C  C141  1  0.815360  0.253700  0.477090  1.0  -0.0447
  C  C142  1  0.011780  0.672200  0.317120  1.0  -0.1456
  C  C143  1  0.093210  0.679900  0.238820  1.0  -0.0155
  C  C144  1  0.867870  0.244300  0.437490  1.0  -0.145
  C  C145  1  0.677750  0.136400  0.463600  1.0  -0.0427
  C  C146  1  0.613730  0.082300  0.473000  1.0  -0.1859
  C  C147  1  0.597710  0.121200  0.545300  1.0  -0.1985
  C  C148  1  0.063760  0.593100  0.289630  1.0  -0.1659
  C  C149  1  0.672930  0.955700  0.711800  1.0  0.6895
  C  C150  1  0.358860  0.367100  0.869810  1.0  -0.0476
  C  C151  1  0.349050  0.172700  0.061000  1.0  0.6764
  C  C152  1  0.304910  0.371900  0.906860  1.0  -0.1257
  C  C153  1  0.466100  0.292700  0.854800  1.0  0.5989
  C  C154  1  0.580350  0.663100  0.538380  1.0  0.6666
  C  C155  1  0.921020  0.848500  0.468460  1.0  0.6478
  C  C156  1  0.408810  0.297300  0.895130  1.0  -0.0448
  C  C157  1  0.251200  0.441900  0.877330  1.0  0.6897
  C  C158  1  0.629230  0.807100  0.624750  1.0  -0.0124
  C  C159  1  0.677060  0.885800  0.645490  1.0  -0.0999
  C  C160  1  0.727360  0.901100  0.603780  1.0  -0.0558
  C  C161  1  0.731730  0.832400  0.543290  1.0  -0.0102
  C  C162  1  0.352490  0.241000  0.994400  1.0  -0.1455
  C  C163  1  0.567290  0.173200  0.779650  1.0  0.6591
  C  C164  1  0.513260  0.243800  0.746230  1.0  0.0267
  C  C165  1  0.786170  0.845800  0.498160  1.0  0.6252
  C  C166  1  0.301310  0.307500  0.968700  1.0  -0.0195
  C  C167  1  0.405620  0.236500  0.957180  1.0  -0.0325
  C  C168  1  0.873930  0.750900  0.446320  1.0  0.0268
  C  C169  1  0.684640  0.753700  0.522910  1.0  -0.0438
  C  C170  1  0.488220  0.172200  0.682880  1.0  -0.144
  C  C171  1  0.406790  0.179900  0.761180  1.0  -0.0151
  C  C172  1  0.632130  0.744300  0.562510  1.0  -0.1457
  C  C173  1  0.822250  0.636400  0.536400  1.0  -0.0419
  C  C174  1  0.886270  0.582300  0.527000  1.0  -0.1866
  C  C175  1  0.902290  0.621200  0.454700  1.0  -0.1988
  C  C176  1  0.436240  0.093100  0.710370  1.0  -0.1631
  C  C177  1  0.172930  0.455700  0.711800  1.0  0.6895
  C  C178  1  0.858860  0.867100  0.869810  1.0  -0.0476
  C  C179  1  0.849050  0.672700  0.061000  1.0  0.6764
  C  C180  1  0.804910  0.871900  0.906860  1.0  -0.1257
  C  C181  1  0.966100  0.792700  0.854800  1.0  0.5989
  C  C182  1  0.080350  0.163100  0.538380  1.0  0.6666
  C  C183  1  0.421020  0.348500  0.468460  1.0  0.6478
  C  C184  1  0.908810  0.797300  0.895130  1.0  -0.0448
  C  C185  1  0.751200  0.941900  0.877330  1.0  0.6897
  C  C186  1  0.129230  0.307100  0.624750  1.0  -0.0124
  C  C187  1  0.177060  0.385800  0.645490  1.0  -0.0999
  C  C188  1  0.227360  0.401100  0.603780  1.0  -0.0558
  C  C189  1  0.231730  0.332400  0.543290  1.0  -0.0102
  C  C190  1  0.852490  0.741000  0.994400  1.0  -0.1455
  C  C191  1  0.067290  0.673200  0.779650  1.0  0.6591
  C  C192  1  0.013260  0.743800  0.746230  1.0  0.0267
  C  C193  1  0.286170  0.345800  0.498160  1.0  0.6252
  C  C194  1  0.801310  0.807500  0.968700  1.0  -0.0195
  C  C195  1  0.905620  0.736500  0.957180  1.0  -0.0325
  C  C196  1  0.373930  0.250900  0.446320  1.0  0.0268
  C  C197  1  0.184640  0.253700  0.522910  1.0  -0.0438
  C  C198  1  0.988220  0.672200  0.682880  1.0  -0.144
  C  C199  1  0.906790  0.679900  0.761180  1.0  -0.0151
  C  C200  1  0.132130  0.244300  0.562510  1.0  -0.1457
  C  C201  1  0.322250  0.136400  0.536400  1.0  -0.0419
  C  C202  1  0.386270  0.082300  0.527000  1.0  -0.1866
  C  C203  1  0.402290  0.121200  0.454700  1.0  -0.1988
  C  C204  1  0.936240  0.593100  0.710370  1.0  -0.1631
  N  N205  1  0.539660  0.248900  0.209660  1.0  -0.131
  N  N206  1  0.177740  0.747700  0.507730  1.0  -0.1366
  N  N207  1  0.039660  0.748900  0.209660  1.0  -0.131
  N  N208  1  0.677740  0.247700  0.507730  1.0  -0.1366
  N  N209  1  0.460340  0.248900  0.790340  1.0  -0.1327
  N  N210  1  0.822260  0.747700  0.492270  1.0  -0.1378
  N  N211  1  0.960340  0.748900  0.790340  1.0  -0.1327
  N  N212  1  0.322260  0.247700  0.492270  1.0  -0.1378
  O  O213  1  0.736500  0.534200  0.159410  1.0  -0.5784
  O  O214  1  0.460770  0.641300  0.418480  1.0  -0.5784
  O  O215  1  0.379940  0.221300  0.227990  1.0  -0.6045
  O  O216  1  0.048390  0.892300  0.580080  1.0  -0.5702
  O  O217  1  0.616190  0.080400  0.931020  1.0  -0.5811
  O  O218  1  0.444120  0.072000  0.192310  1.0  -0.5765
  O  O219  1  0.419080  0.623500  0.522520  1.0  -0.5721
  O  O220  1  0.072770  0.873700  0.468630  1.0  -0.5679
  O  O221  1  0.298450  0.056600  0.283600  1.0  -0.5819
  O  O222  1  0.689100  0.212200  0.896340  1.0  -0.5773
  O  O223  1  0.358980  0.907200  0.242810  1.0  -0.6268
  O  O224  1  0.801520  0.404500  0.108900  1.0  -0.5764
  O  O225  1  0.484000  0.329500  0.120330  1.0  -0.5333
  O  O226  1  0.203990  0.942900  0.532530  1.0  -0.5238
  O  O227  1  0.236500  0.034200  0.159410  1.0  -0.5787
  O  O228  1  0.960770  0.141300  0.418480  1.0  -0.5784
  O  O229  1  0.879940  0.721300  0.227990  1.0  -0.6045
  O  O230  1  0.548390  0.392300  0.580080  1.0  -0.5702
  O  O231  1  0.116190  0.580400  0.931020  1.0  -0.5806
  O  O232  1  0.944120  0.572000  0.192310  1.0  -0.5765
  O  O233  1  0.919080  0.123500  0.522520  1.0  -0.5721
  O  O234  1  0.572770  0.373700  0.468630  1.0  -0.5679
  O  O235  1  0.798450  0.556600  0.283600  1.0  -0.5816
  O  O236  1  0.189100  0.712200  0.896340  1.0  -0.5769
  O  O237  1  0.858980  0.407200  0.242810  1.0  -0.6262
  O  O238  1  0.301520  0.904500  0.108900  1.0  -0.5765
  O  O239  1  0.984000  0.829500  0.120330  1.0  -0.5333
  O  O240  1  0.703990  0.442900  0.532530  1.0  -0.5238
  O  O241  1  0.263500  0.534200  0.840590  1.0  -0.5773
  O  O242  1  0.539230  0.641300  0.581520  1.0  -0.5775
  O  O243  1  0.620060  0.221300  0.772010  1.0  -0.6057
  O  O244  1  0.951610  0.892300  0.419920  1.0  -0.5704
  O  O245  1  0.383810  0.080400  0.068980  1.0  -0.5804
  O  O246  1  0.555880  0.072000  0.807690  1.0  -0.5778
  O  O247  1  0.580920  0.623500  0.477480  1.0  -0.5714
  O  O248  1  0.927230  0.873700  0.531370  1.0  -0.5704
  O  O249  1  0.701550  0.056600  0.716400  1.0  -0.5824
  O  O250  1  0.310900  0.212200  0.103660  1.0  -0.5773
  O  O251  1  0.641020  0.907200  0.757190  1.0  -0.6291
  O  O252  1  0.198480  0.404500  0.891100  1.0  -0.5775
  O  O253  1  0.516000  0.329500  0.879670  1.0  -0.5335
  O  O254  1  0.796010  0.942900  0.467470  1.0  -0.5243
  O  O255  1  0.763500  0.034200  0.840590  1.0  -0.5778
  O  O256  1  0.039230  0.141300  0.581520  1.0  -0.5775
  O  O257  1  0.120060  0.721300  0.772010  1.0  -0.6057
  O  O258  1  0.451610  0.392300  0.419920  1.0  -0.5704
  O  O259  1  0.883810  0.580400  0.068980  1.0  -0.5798
  O  O260  1  0.055880  0.572000  0.807690  1.0  -0.5778
  O  O261  1  0.080920  0.123500  0.477480  1.0  -0.5714
  O  O262  1  0.427230  0.373700  0.531370  1.0  -0.5704
  O  O263  1  0.201550  0.556600  0.716400  1.0  -0.5819
  O  O264  1  0.810900  0.712200  0.103660  1.0  -0.5769
  O  O265  1  0.141020  0.407200  0.757190  1.0  -0.6287
  O  O266  1  0.698480  0.904500  0.891100  1.0  -0.5774
  O  O267  1  0.016000  0.829500  0.879670  1.0  -0.5335
  O  O268  1  0.296010  0.442900  0.467470  1.0  -0.5243
