# generated using pymatgen
data_Cu8H40C71(NO9)4
_symmetry_space_group_name_H-M   'P 1'
_cell_length_a   12.50850000
_cell_length_b   12.50850000
_cell_length_c   70.22840000
_cell_angle_alpha   90.00000000
_cell_angle_beta   90.00000000
_cell_angle_gamma   90.00000000
_symmetry_Int_Tables_number   1
_chemical_formula_structural   Cu8H40C71(NO9)4
_chemical_formula_sum   'Cu32 H160 C284 N16 O144'
_cell_volume   10988.11610900
_cell_formula_units_Z   4
loop_
 _symmetry_equiv_pos_site_id
 _symmetry_equiv_pos_as_xyz
  1  'x, y, z'
loop_
 _atom_site_type_symbol
 _atom_site_label
 _atom_site_symmetry_multiplicity
 _atom_site_fract_x
 _atom_site_fract_y
 _atom_site_fract_z
 _atom_site_occupancy
 _atom_site_charge
  Cu  Cu1  1  0.618010  0.379770  0.833130  1.0  0.9336
  Cu  Cu2  1  0.686900  0.440810  0.867290  1.0  0.9409
  Cu  Cu3  1  0.603600  0.776760  0.745470  1.0  0.9163
  Cu  Cu4  1  0.654810  0.974780  0.750290  1.0  0.9525
  Cu  Cu5  1  0.381990  0.620230  0.333130  1.0  0.9319
  Cu  Cu6  1  0.313100  0.559190  0.367290  1.0  0.9426
  Cu  Cu7  1  0.396400  0.223240  0.245470  1.0  0.9131
  Cu  Cu8  1  0.345190  0.025220  0.250290  1.0  0.9539
  Cu  Cu9  1  0.120230  0.118010  0.583130  1.0  0.9324
  Cu  Cu10  1  0.059190  0.186900  0.617290  1.0  0.9449
  Cu  Cu11  1  0.723240  0.103600  0.495470  1.0  0.916
  Cu  Cu12  1  0.525220  0.154810  0.500290  1.0  0.9476
  Cu  Cu13  1  0.879770  0.881990  0.083130  1.0  0.9341
  Cu  Cu14  1  0.940810  0.813100  0.117290  1.0  0.9449
  Cu  Cu15  1  0.276760  0.896400  0.995470  1.0  0.9155
  Cu  Cu16  1  0.474780  0.845190  0.000290  1.0  0.9452
  Cu  Cu17  1  0.881990  0.879770  0.916870  1.0  0.9317
  Cu  Cu18  1  0.813100  0.940810  0.882710  1.0  0.9431
  Cu  Cu19  1  0.896400  0.276760  0.004530  1.0  0.9167
  Cu  Cu20  1  0.845190  0.474780  0.999710  1.0  0.9483
  Cu  Cu21  1  0.118010  0.120230  0.416870  1.0  0.9332
  Cu  Cu22  1  0.186900  0.059190  0.382710  1.0  0.9413
  Cu  Cu23  1  0.103600  0.723240  0.504530  1.0  0.9143
  Cu  Cu24  1  0.154810  0.525220  0.499710  1.0  0.9502
  Cu  Cu25  1  0.379770  0.618010  0.166870  1.0  0.9336
  Cu  Cu26  1  0.440810  0.686900  0.132710  1.0  0.9449
  Cu  Cu27  1  0.776760  0.603600  0.254530  1.0  0.9169
  Cu  Cu28  1  0.974780  0.654810  0.249710  1.0  0.9502
  Cu  Cu29  1  0.620230  0.381990  0.666870  1.0  0.933
  Cu  Cu30  1  0.559190  0.313100  0.632710  1.0  0.9455
  Cu  Cu31  1  0.223240  0.396400  0.754530  1.0  0.9148
  Cu  Cu32  1  0.025220  0.345190  0.749710  1.0  0.9524
  H  H33  1  0.027200  0.395200  0.860300  1.0  0.1065
  H  H34  1  0.633200  0.988900  0.813300  1.0  0.1077
  H  H35  1  0.669500  0.776600  0.855600  1.0  0.0996
  H  H36  1  0.638400  0.672400  0.801800  1.0  0.116
  H  H37  1  0.236600  0.393500  0.816800  1.0  0.11
  H  H38  1  0.609200  0.101700  0.881500  1.0  0.0886
  H  H39  1  0.349900  0.525000  0.878700  1.0  0.0763
  H  H40  1  0.924300  0.348900  0.806400  1.0  0.1084
  H  H41  1  0.321000  0.088600  0.859700  1.0  0.0565
  H  H42  1  0.391700  0.169400  0.847900  1.0  0.0696
  H  H43  1  0.431400  0.097500  0.885600  1.0  0.0566
  H  H44  1  0.441100  0.216000  0.878100  1.0  0.0727
  H  H45  1  0.202800  0.627700  0.839600  1.0  0.0795
  H  H46  1  0.282300  0.567200  0.825800  1.0  0.0818
  H  H47  1  0.428400  0.951400  0.853500  1.0  0.08
  H  H48  1  0.455800  0.019500  0.835200  1.0  0.0691
  H  H49  1  0.351600  0.693300  0.872200  1.0  0.0785
  H  H50  1  0.468900  0.667100  0.865300  1.0  0.0708
  H  H51  1  0.423400  0.662500  0.835800  1.0  0.0632
  H  H52  1  0.337900  0.745200  0.843000  1.0  0.0552
  H  H53  1  0.972800  0.604800  0.360300  1.0  0.1048
  H  H54  1  0.366800  0.011100  0.313300  1.0  0.1082
  H  H55  1  0.330500  0.223400  0.355600  1.0  0.1003
  H  H56  1  0.361600  0.327600  0.301800  1.0  0.1165
  H  H57  1  0.763400  0.606500  0.316800  1.0  0.111
  H  H58  1  0.390800  0.898300  0.381500  1.0  0.0931
  H  H59  1  0.650100  0.475000  0.378700  1.0  0.0767
  H  H60  1  0.075700  0.651100  0.306400  1.0  0.1084
  H  H61  1  0.679000  0.911400  0.359700  1.0  0.0563
  H  H62  1  0.608300  0.830600  0.347900  1.0  0.069
  H  H63  1  0.568600  0.902500  0.385600  1.0  0.057
  H  H64  1  0.558900  0.784000  0.378100  1.0  0.0743
  H  H65  1  0.797200  0.372300  0.339600  1.0  0.0778
  H  H66  1  0.717700  0.432800  0.325800  1.0  0.0819
  H  H67  1  0.571600  0.048600  0.353500  1.0  0.0795
  H  H68  1  0.544200  0.980500  0.335200  1.0  0.0693
  H  H69  1  0.648400  0.306700  0.372200  1.0  0.0792
  H  H70  1  0.531100  0.332900  0.365300  1.0  0.0698
  H  H71  1  0.576600  0.337500  0.335800  1.0  0.0615
  H  H72  1  0.662100  0.254800  0.343000  1.0  0.0529
  H  H73  1  0.104800  0.527200  0.610300  1.0  0.1054
  H  H74  1  0.511100  0.133200  0.563300  1.0  0.1096
  H  H75  1  0.723400  0.169500  0.605600  1.0  0.0988
  H  H76  1  0.827600  0.138400  0.551800  1.0  0.1172
  H  H77  1  0.106500  0.736600  0.566800  1.0  0.1099
  H  H78  1  0.398300  0.109200  0.631500  1.0  0.09
  H  H79  1  0.975000  0.849900  0.628700  1.0  0.076
  H  H80  1  0.151100  0.424300  0.556400  1.0  0.1076
  H  H81  1  0.411400  0.821000  0.609700  1.0  0.0578
  H  H82  1  0.330600  0.891700  0.597900  1.0  0.0649
  H  H83  1  0.402500  0.931400  0.635600  1.0  0.0579
  H  H84  1  0.284000  0.941100  0.628100  1.0  0.0677
  H  H85  1  0.872300  0.702800  0.589600  1.0  0.0789
  H  H86  1  0.932800  0.782300  0.575800  1.0  0.0818
  H  H87  1  0.548600  0.928400  0.603500  1.0  0.0706
  H  H88  1  0.480500  0.955800  0.585200  1.0  0.0681
  H  H89  1  0.806700  0.851600  0.622200  1.0  0.0785
  H  H90  1  0.832900  0.968900  0.615300  1.0  0.0709
  H  H91  1  0.837500  0.923400  0.585800  1.0  0.0624
  H  H92  1  0.754800  0.837900  0.593000  1.0  0.051
  H  H93  1  0.895200  0.472800  0.110300  1.0  0.1053
  H  H94  1  0.488900  0.866800  0.063300  1.0  0.1089
  H  H95  1  0.276600  0.830500  0.105600  1.0  0.099
  H  H96  1  0.172400  0.861600  0.051800  1.0  0.117
  H  H97  1  0.893500  0.263400  0.066800  1.0  0.1089
  H  H98  1  0.601700  0.890800  0.131500  1.0  0.0897
  H  H99  1  0.025000  0.150100  0.128700  1.0  0.0761
  H  H100  1  0.848900  0.575700  0.056400  1.0  0.1079
  H  H101  1  0.588600  0.179000  0.109700  1.0  0.0609
  H  H102  1  0.669400  0.108300  0.097900  1.0  0.068
  H  H103  1  0.597500  0.068600  0.135600  1.0  0.057
  H  H104  1  0.716000  0.058900  0.128100  1.0  0.0688
  H  H105  1  0.127700  0.297200  0.089600  1.0  0.0818
  H  H106  1  0.067200  0.217700  0.075800  1.0  0.0814
  H  H107  1  0.451400  0.071600  0.103500  1.0  0.0715
  H  H108  1  0.519500  0.044200  0.085200  1.0  0.0687
  H  H109  1  0.193300  0.148400  0.122200  1.0  0.0787
  H  H110  1  0.167100  0.031100  0.115300  1.0  0.0677
  H  H111  1  0.162500  0.076600  0.085800  1.0  0.0626
  H  H112  1  0.245200  0.162100  0.093000  1.0  0.054
  H  H113  1  0.472800  0.895200  0.889700  1.0  0.1048
  H  H114  1  0.866800  0.488900  0.936700  1.0  0.108
  H  H115  1  0.830500  0.276600  0.894400  1.0  0.1009
  H  H116  1  0.861600  0.172400  0.948200  1.0  0.1173
  H  H117  1  0.263400  0.893500  0.933200  1.0  0.1103
  H  H118  1  0.890800  0.601700  0.868500  1.0  0.0922
  H  H119  1  0.150100  0.025000  0.871300  1.0  0.0773
  H  H120  1  0.575700  0.848900  0.943600  1.0  0.1083
  H  H121  1  0.179000  0.588600  0.890300  1.0  0.0544
  H  H122  1  0.108300  0.669400  0.902100  1.0  0.0694
  H  H123  1  0.068600  0.597500  0.864400  1.0  0.0571
  H  H124  1  0.058900  0.716000  0.871900  1.0  0.0719
  H  H125  1  0.297200  0.127700  0.910400  1.0  0.0752
  H  H126  1  0.217700  0.067200  0.924200  1.0  0.0834
  H  H127  1  0.071600  0.451400  0.896500  1.0  0.08
  H  H128  1  0.044200  0.519500  0.914800  1.0  0.068
  H  H129  1  0.148400  0.193300  0.877800  1.0  0.0787
  H  H130  1  0.031100  0.167100  0.884700  1.0  0.0695
  H  H131  1  0.076600  0.162500  0.914200  1.0  0.0635
  H  H132  1  0.162100  0.245200  0.907000  1.0  0.053
  H  H133  1  0.527200  0.104800  0.389700  1.0  0.1047
  H  H134  1  0.133200  0.511100  0.436700  1.0  0.1085
  H  H135  1  0.169500  0.723400  0.394400  1.0  0.0998
  H  H136  1  0.138400  0.827600  0.448200  1.0  0.1172
  H  H137  1  0.736600  0.106500  0.433200  1.0  0.1092
  H  H138  1  0.109200  0.398300  0.368500  1.0  0.0882
  H  H139  1  0.849900  0.975000  0.371300  1.0  0.0779
  H  H140  1  0.424300  0.151100  0.443600  1.0  0.1084
  H  H141  1  0.821000  0.411400  0.390300  1.0  0.0562
  H  H142  1  0.891700  0.330600  0.402100  1.0  0.0705
  H  H143  1  0.931400  0.402500  0.364400  1.0  0.0561
  H  H144  1  0.941100  0.284000  0.371900  1.0  0.0732
  H  H145  1  0.702800  0.872300  0.410400  1.0  0.0822
  H  H146  1  0.782300  0.932800  0.424200  1.0  0.0836
  H  H147  1  0.928400  0.548600  0.396500  1.0  0.0791
  H  H148  1  0.955800  0.480500  0.414800  1.0  0.0693
  H  H149  1  0.851600  0.806700  0.377800  1.0  0.0783
  H  H150  1  0.968900  0.832900  0.384700  1.0  0.0711
  H  H151  1  0.923400  0.837500  0.414200  1.0  0.0647
  H  H152  1  0.837900  0.754800  0.407000  1.0  0.0523
  H  H153  1  0.395200  0.027200  0.139700  1.0  0.1053
  H  H154  1  0.988900  0.633200  0.186700  1.0  0.1087
  H  H155  1  0.776600  0.669500  0.144400  1.0  0.0998
  H  H156  1  0.672400  0.638400  0.198200  1.0  0.1178
  H  H157  1  0.393500  0.236600  0.183200  1.0  0.11
  H  H158  1  0.101700  0.609200  0.118500  1.0  0.0905
  H  H159  1  0.525000  0.349900  0.121300  1.0  0.0773
  H  H160  1  0.348900  0.924300  0.193600  1.0  0.1082
  H  H161  1  0.088600  0.321000  0.140300  1.0  0.057
  H  H162  1  0.169400  0.391700  0.152100  1.0  0.0672
  H  H163  1  0.097500  0.431400  0.114400  1.0  0.0575
  H  H164  1  0.216000  0.441100  0.121900  1.0  0.0683
  H  H165  1  0.627700  0.202800  0.160400  1.0  0.0788
  H  H166  1  0.567200  0.282300  0.174200  1.0  0.0828
  H  H167  1  0.951400  0.428400  0.146500  1.0  0.0724
  H  H168  1  0.019500  0.455800  0.164800  1.0  0.0679
  H  H169  1  0.693300  0.351600  0.127800  1.0  0.0776
  H  H170  1  0.667100  0.468900  0.134700  1.0  0.0706
  H  H171  1  0.662500  0.423400  0.164200  1.0  0.0637
  H  H172  1  0.745200  0.337900  0.157000  1.0  0.0507
  H  H173  1  0.604800  0.972800  0.639700  1.0  0.1048
  H  H174  1  0.011100  0.366800  0.686700  1.0  0.1096
  H  H175  1  0.223400  0.330500  0.644400  1.0  0.099
  H  H176  1  0.327600  0.361600  0.698200  1.0  0.1179
  H  H177  1  0.606500  0.763400  0.683200  1.0  0.109
  H  H178  1  0.898300  0.390800  0.618500  1.0  0.0889
  H  H179  1  0.475000  0.650100  0.621300  1.0  0.0772
  H  H180  1  0.651100  0.075700  0.693600  1.0  0.1078
  H  H181  1  0.911400  0.679000  0.640300  1.0  0.0576
  H  H182  1  0.830600  0.608300  0.652100  1.0  0.0666
  H  H183  1  0.902500  0.568600  0.614400  1.0  0.0563
  H  H184  1  0.784000  0.558900  0.621900  1.0  0.0664
  H  H185  1  0.372300  0.797200  0.660400  1.0  0.0806
  H  H186  1  0.432800  0.717700  0.674200  1.0  0.0837
  H  H187  1  0.048600  0.571600  0.646500  1.0  0.0695
  H  H188  1  0.980500  0.544200  0.664800  1.0  0.0684
  H  H189  1  0.306700  0.648400  0.627800  1.0  0.0788
  H  H190  1  0.332900  0.531100  0.634700  1.0  0.0678
  H  H191  1  0.337500  0.576600  0.664200  1.0  0.0639
  H  H192  1  0.254800  0.662100  0.657000  1.0  0.0524
  C  C193  1  0.041600  0.389300  0.847370  1.0  -0.0815
  C  C194  1  0.081300  0.373300  0.808410  1.0  -0.1476
  C  C195  1  0.637600  0.918800  0.817670  1.0  -0.0451
  C  C196  1  0.656300  0.708700  0.829850  1.0  -0.1609
  C  C197  1  0.658300  0.791300  0.842780  1.0  -0.074
  C  C198  1  0.845300  0.376100  0.841270  1.0  0.6654
  C  C199  1  0.655800  0.985800  0.851050  1.0  0.6018
  C  C200  1  0.472400  0.475000  0.861690  1.0  0.6633
  C  C201  1  0.613700  0.226300  0.861370  1.0  0.6214
  C  C202  1  0.108500  0.366400  0.787970  1.0  0.6468
  C  C203  1  0.643500  0.898900  0.836790  1.0  0.0218
  C  C204  1  0.643400  0.728200  0.810530  1.0  -0.0934
  C  C205  1  0.638300  0.834500  0.804660  1.0  -0.1562
  C  C206  1  0.662400  0.596600  0.836370  1.0  0.6534
  C  C207  1  0.959400  0.371500  0.834610  1.0  -0.1527
  C  C208  1  0.233700  0.420100  0.854710  1.0  0.6408
  C  C209  1  0.166700  0.389100  0.821240  1.0  -0.1371
  C  C210  1  0.145000  0.398200  0.840790  1.0  -0.051
  C  C211  1  0.627700  0.857600  0.783430  1.0  0.6833
  C  C212  1  0.568500  0.122600  0.870190  1.0  -0.0047
  C  C213  1  0.372600  0.538400  0.865540  1.0  -0.0175
  C  C214  1  0.979900  0.362300  0.814850  1.0  -0.0128
  C  C215  1  0.393700  0.110400  0.856840  1.0  -0.1246
  C  C216  1  0.453500  0.141600  0.874960  1.0  -0.1487
  C  C217  1  0.272600  0.594300  0.838580  1.0  -0.062
  C  C218  1  0.812500  0.855800  0.747430  1.0  0.5591
  C  C219  1  0.106100  0.556800  0.753730  1.0  0.6003
  C  C220  1  0.457000  0.019000  0.849040  1.0  -0.0133
  C  C221  1  0.945900  0.841000  0.750900  1.0  0.0125
  C  C222  1  0.393700  0.651300  0.863300  1.0  -0.1359
  C  C223  1  0.362700  0.672000  0.844200  1.0  -0.1687
  C  C224  1  0.982600  0.722300  0.753200  1.0  0.0965
  C  C225  1  0.015000  0.913000  0.753200  1.0  0.3062
  C  C226  1  0.080800  0.681700  0.751600  1.0  0.232
  C  C227  1  0.145000  0.758000  0.754100  1.0  0.1453
  C  C228  1  0.958400  0.610700  0.347370  1.0  -0.0825
  C  C229  1  0.918700  0.626700  0.308410  1.0  -0.1471
  C  C230  1  0.362400  0.081200  0.317670  1.0  -0.0452
  C  C231  1  0.343700  0.291300  0.329850  1.0  -0.1598
  C  C232  1  0.341700  0.208700  0.342780  1.0  -0.0735
  C  C233  1  0.154700  0.623900  0.341270  1.0  0.6658
  C  C234  1  0.344200  0.014200  0.351050  1.0  0.5996
  C  C235  1  0.527600  0.525000  0.361690  1.0  0.6622
  C  C236  1  0.386300  0.773700  0.361370  1.0  0.622
  C  C237  1  0.891500  0.633600  0.287970  1.0  0.6445
  C  C238  1  0.356500  0.101100  0.336790  1.0  0.0209
  C  C239  1  0.356600  0.271800  0.310530  1.0  -0.0941
  C  C240  1  0.361700  0.165500  0.304660  1.0  -0.1573
  C  C241  1  0.337600  0.403400  0.336370  1.0  0.6535
  C  C242  1  0.040600  0.628500  0.334610  1.0  -0.1525
  C  C243  1  0.766300  0.579900  0.354710  1.0  0.6398
  C  C244  1  0.833300  0.610900  0.321240  1.0  -0.138
  C  C245  1  0.855000  0.601800  0.340790  1.0  -0.05
  C  C246  1  0.372300  0.142400  0.283430  1.0  0.683
  C  C247  1  0.431500  0.877400  0.370190  1.0  -0.0077
  C  C248  1  0.627400  0.461600  0.365540  1.0  -0.0179
  C  C249  1  0.020100  0.637700  0.314850  1.0  -0.0134
  C  C250  1  0.606300  0.889600  0.356840  1.0  -0.1268
  C  C251  1  0.546500  0.858400  0.374960  1.0  -0.1477
  C  C252  1  0.727400  0.405700  0.338580  1.0  -0.0617
  C  C253  1  0.187500  0.144200  0.247430  1.0  0.5592
  C  C254  1  0.893900  0.443200  0.253730  1.0  0.6003
  C  C255  1  0.543000  0.981000  0.349040  1.0  -0.0123
  C  C256  1  0.054100  0.159000  0.250900  1.0  0.0145
  C  C257  1  0.606300  0.348700  0.363300  1.0  -0.1343
  C  C258  1  0.637300  0.328000  0.344200  1.0  -0.1697
  C  C259  1  0.017400  0.277700  0.253200  1.0  0.0953
  C  C260  1  0.985000  0.087000  0.253200  1.0  0.304
  C  C261  1  0.919200  0.318300  0.251600  1.0  0.2318
  C  C262  1  0.855000  0.242000  0.254100  1.0  0.1462
  C  C263  1  0.110700  0.541600  0.597370  1.0  -0.0825
  C  C264  1  0.126700  0.581300  0.558410  1.0  -0.1477
  C  C265  1  0.581200  0.137600  0.567670  1.0  -0.0449
  C  C266  1  0.791300  0.156300  0.579850  1.0  -0.1594
  C  C267  1  0.708700  0.158300  0.592780  1.0  -0.0727
  C  C268  1  0.123900  0.345300  0.591270  1.0  0.667
  C  C269  1  0.514200  0.155800  0.601050  1.0  0.5961
  C  C270  1  0.025000  0.972400  0.611690  1.0  0.6622
  C  C271  1  0.273700  0.113700  0.611370  1.0  0.6212
  C  C272  1  0.133600  0.608500  0.537970  1.0  0.6458
  C  C273  1  0.601100  0.143500  0.586790  1.0  0.0223
  C  C274  1  0.771800  0.143400  0.560530  1.0  -0.0956
  C  C275  1  0.665500  0.138300  0.554660  1.0  -0.1543
  C  C276  1  0.903400  0.162400  0.586370  1.0  0.6529
  C  C277  1  0.128500  0.459400  0.584610  1.0  -0.1531
  C  C278  1  0.079900  0.733700  0.604710  1.0  0.6409
  C  C279  1  0.110900  0.666667  0.571240  1.0  -0.1376
  C  C280  1  0.101800  0.645000  0.590790  1.0  -0.055
  C  C281  1  0.642400  0.127700  0.533430  1.0  0.683
  C  C282  1  0.377400  0.068500  0.620190  1.0  -0.0016
  C  C283  1  0.961600  0.872600  0.615540  1.0  -0.0175
  C  C284  1  0.137700  0.479900  0.564850  1.0  -0.0127
  C  C285  1  0.389600  0.893700  0.606840  1.0  -0.1256
  C  C286  1  0.358400  0.953500  0.624960  1.0  -0.1483
  C  C287  1  0.905700  0.772600  0.588580  1.0  -0.0624
  C  C288  1  0.644200  0.312500  0.497430  1.0  0.5588
  C  C289  1  0.943200  0.606100  0.503730  1.0  0.5963
  C  C290  1  0.481000  0.957000  0.599040  1.0  -0.0128
  C  C291  1  0.659000  0.445900  0.500900  1.0  0.0129
  C  C292  1  0.848700  0.893700  0.613300  1.0  -0.1348
  C  C293  1  0.828000  0.862700  0.594200  1.0  -0.1686
  C  C294  1  0.777700  0.482600  0.503200  1.0  0.0969
  C  C295  1  0.587000  0.515000  0.503200  1.0  0.3049
  C  C296  1  0.818300  0.580800  0.501600  1.0  0.2335
  C  C297  1  0.742000  0.645000  0.504100  1.0  0.1464
  C  C298  1  0.889300  0.458400  0.097370  1.0  -0.0801
  C  C299  1  0.873300  0.418700  0.058410  1.0  -0.1483
  C  C300  1  0.418800  0.862400  0.067670  1.0  -0.0454
  C  C301  1  0.208700  0.843700  0.079850  1.0  -0.1595
  C  C302  1  0.291300  0.841700  0.092780  1.0  -0.0749
  C  C303  1  0.876100  0.654700  0.091270  1.0  0.6674
  C  C304  1  0.485800  0.844200  0.101050  1.0  0.5955
  C  C305  1  0.975000  0.027600  0.111690  1.0  0.6637
  C  C306  1  0.726300  0.886300  0.111370  1.0  0.6218
  C  C307  1  0.866400  0.391500  0.037970  1.0  0.6456
  C  C308  1  0.398900  0.856500  0.086790  1.0  0.0221
  C  C309  1  0.228200  0.856600  0.060530  1.0  -0.095
  C  C310  1  0.334500  0.861700  0.054660  1.0  -0.1557
  C  C311  1  0.096600  0.837600  0.086370  1.0  0.6502
  C  C312  1  0.871500  0.540600  0.084610  1.0  -0.1521
  C  C313  1  0.920100  0.266300  0.104710  1.0  0.6399
  C  C314  1  0.889100  0.333333  0.071240  1.0  -0.1382
  C  C315  1  0.898200  0.355000  0.090790  1.0  -0.0557
  C  C316  1  0.357600  0.872300  0.033430  1.0  0.682
  C  C317  1  0.622600  0.931500  0.120190  1.0  -0.0031
  C  C318  1  0.038400  0.127400  0.115540  1.0  -0.0173
  C  C319  1  0.862300  0.520100  0.064850  1.0  -0.0143
  C  C320  1  0.610400  0.106300  0.106840  1.0  -0.1294
  C  C321  1  0.641600  0.046500  0.124960  1.0  -0.149
  C  C322  1  0.094300  0.227400  0.088580  1.0  -0.0612
  C  C323  1  0.355800  0.687500  0.997430  1.0  0.5604
  C  C324  1  0.056800  0.393900  0.003730  1.0  0.5974
  C  C325  1  0.519000  0.043000  0.099040  1.0  -0.0111
  C  C326  1  0.341000  0.554100  0.000900  1.0  0.0121
  C  C327  1  0.151300  0.106300  0.113300  1.0  -0.1339
  C  C328  1  0.172000  0.137300  0.094200  1.0  -0.17
  C  C329  1  0.222300  0.517400  0.003200  1.0  0.0954
  C  C330  1  0.413000  0.485000  0.003200  1.0  0.3061
  C  C331  1  0.181700  0.419200  0.001600  1.0  0.2304
  C  C332  1  0.258000  0.355000  0.004100  1.0  0.1465
  C  C333  1  0.458400  0.889300  0.902630  1.0  -0.0846
  C  C334  1  0.418700  0.873300  0.941590  1.0  -0.1474
  C  C335  1  0.862400  0.418800  0.932330  1.0  -0.0466
  C  C336  1  0.843700  0.208700  0.920150  1.0  -0.1594
  C  C337  1  0.841700  0.291300  0.907220  1.0  -0.073
  C  C338  1  0.654700  0.876100  0.908730  1.0  0.6666
  C  C339  1  0.844200  0.485800  0.898950  1.0  0.5975
  C  C340  1  0.027600  0.975000  0.888310  1.0  0.6627
  C  C341  1  0.886300  0.726300  0.888630  1.0  0.6226
  C  C342  1  0.391500  0.866400  0.962030  1.0  0.6447
  C  C343  1  0.856500  0.398900  0.913210  1.0  0.0205
  C  C344  1  0.856600  0.228200  0.939470  1.0  -0.0934
  C  C345  1  0.861700  0.334500  0.945340  1.0  -0.1579
  C  C346  1  0.837600  0.096600  0.913630  1.0  0.6516
  C  C347  1  0.540600  0.871500  0.915390  1.0  -0.1522
  C  C348  1  0.266300  0.920100  0.895290  1.0  0.6417
  C  C349  1  0.333333  0.889100  0.928760  1.0  -0.1392
  C  C350  1  0.355000  0.898200  0.909210  1.0  -0.0513
  C  C351  1  0.872300  0.357600  0.966570  1.0  0.6832
  C  C352  1  0.931500  0.622600  0.879810  1.0  -0.0085
  C  C353  1  0.127400  0.038400  0.884460  1.0  -0.0189
  C  C354  1  0.520100  0.862300  0.935150  1.0  -0.0143
  C  C355  1  0.106300  0.610400  0.893160  1.0  -0.1289
  C  C356  1  0.046500  0.641600  0.875040  1.0  -0.1475
  C  C357  1  0.227400  0.094300  0.911420  1.0  -0.0658
  C  C358  1  0.687500  0.355800  0.002570  1.0  0.5581
  C  C359  1  0.393900  0.056800  0.996270  1.0  0.6006
  C  C360  1  0.043000  0.519000  0.900960  1.0  -0.0136
  C  C361  1  0.554100  0.341000  0.999100  1.0  0.0152
  C  C362  1  0.106300  0.151300  0.886700  1.0  -0.1344
  C  C363  1  0.137300  0.172000  0.905800  1.0  -0.1699
  C  C364  1  0.517400  0.222300  0.996800  1.0  0.0964
  C  C365  1  0.485000  0.413000  0.996800  1.0  0.3077
  C  C366  1  0.419200  0.181700  0.998400  1.0  0.2319
  C  C367  1  0.355000  0.258000  0.995900  1.0  0.1491
  C  C368  1  0.541600  0.110700  0.402630  1.0  -0.0829
  C  C369  1  0.581300  0.126700  0.441590  1.0  -0.1477
  C  C370  1  0.137600  0.581200  0.432330  1.0  -0.0446
  C  C371  1  0.156300  0.791300  0.420150  1.0  -0.1598
  C  C372  1  0.158300  0.708700  0.407220  1.0  -0.072
  C  C373  1  0.345300  0.123900  0.408730  1.0  0.6639
  C  C374  1  0.155800  0.514200  0.398950  1.0  0.6002
  C  C375  1  0.972400  0.025000  0.388310  1.0  0.6639
  C  C376  1  0.113700  0.273700  0.388630  1.0  0.6213
  C  C377  1  0.608500  0.133600  0.462030  1.0  0.6463
  C  C378  1  0.143500  0.601100  0.413210  1.0  0.0222
  C  C379  1  0.143400  0.771800  0.439470  1.0  -0.0932
  C  C380  1  0.138300  0.665500  0.445340  1.0  -0.1574
  C  C381  1  0.162400  0.903400  0.413630  1.0  0.6522
  C  C382  1  0.459400  0.128500  0.415390  1.0  -0.1537
  C  C383  1  0.733700  0.079900  0.395290  1.0  0.6419
  C  C384  1  0.666667  0.110900  0.428760  1.0  -0.1395
  C  C385  1  0.645000  0.101800  0.409210  1.0  -0.0504
  C  C386  1  0.127700  0.642400  0.466570  1.0  0.6834
  C  C387  1  0.068500  0.377400  0.379810  1.0  -0.0041
  C  C388  1  0.872600  0.961600  0.384460  1.0  -0.0163
  C  C389  1  0.479900  0.137700  0.435150  1.0  -0.015
  C  C390  1  0.893700  0.389600  0.393160  1.0  -0.1266
  C  C391  1  0.953500  0.358400  0.375040  1.0  -0.1468
  C  C392  1  0.772600  0.905700  0.411420  1.0  -0.0654
  C  C393  1  0.312500  0.644200  0.502570  1.0  0.5585
  C  C394  1  0.606100  0.943200  0.496270  1.0  0.6015
  C  C395  1  0.957000  0.481000  0.400960  1.0  -0.0156
  C  C396  1  0.445900  0.659000  0.499100  1.0  0.0121
  C  C397  1  0.893700  0.848700  0.386700  1.0  -0.1345
  C  C398  1  0.862700  0.828000  0.405800  1.0  -0.1689
  C  C399  1  0.482600  0.777700  0.496800  1.0  0.096
  C  C400  1  0.515000  0.587000  0.496800  1.0  0.306
  C  C401  1  0.580800  0.818300  0.498400  1.0  0.2316
  C  C402  1  0.645000  0.742000  0.495900  1.0  0.1482
  C  C403  1  0.389300  0.041600  0.152630  1.0  -0.0814
  C  C404  1  0.373300  0.081300  0.191590  1.0  -0.1469
  C  C405  1  0.918800  0.637600  0.182330  1.0  -0.0441
  C  C406  1  0.708700  0.656300  0.170150  1.0  -0.158
  C  C407  1  0.791300  0.658300  0.157220  1.0  -0.0722
  C  C408  1  0.376100  0.845300  0.158730  1.0  0.6658
  C  C409  1  0.985800  0.655800  0.148950  1.0  0.5952
  C  C410  1  0.475000  0.472400  0.138310  1.0  0.6643
  C  C411  1  0.226300  0.613700  0.138630  1.0  0.6216
  C  C412  1  0.366400  0.108500  0.212030  1.0  0.6453
  C  C413  1  0.898900  0.643500  0.163210  1.0  0.0236
  C  C414  1  0.728200  0.643400  0.189470  1.0  -0.0959
  C  C415  1  0.834500  0.638300  0.195340  1.0  -0.1565
  C  C416  1  0.596600  0.662400  0.163630  1.0  0.6482
  C  C417  1  0.371500  0.959400  0.165390  1.0  -0.1532
  C  C418  1  0.420100  0.233700  0.145290  1.0  0.6403
  C  C419  1  0.389100  0.166700  0.178760  1.0  -0.138
  C  C420  1  0.398200  0.145000  0.159210  1.0  -0.0559
  C  C421  1  0.857600  0.627700  0.216570  1.0  0.6821
  C  C422  1  0.122600  0.568500  0.129810  1.0  -0.0015
  C  C423  1  0.538400  0.372600  0.134460  1.0  -0.0161
  C  C424  1  0.362300  0.979900  0.185150  1.0  -0.0138
  C  C425  1  0.110400  0.393700  0.143160  1.0  -0.1286
  C  C426  1  0.141600  0.453500  0.125040  1.0  -0.1481
  C  C427  1  0.594300  0.272600  0.161420  1.0  -0.0643
  C  C428  1  0.855800  0.812500  0.252570  1.0  0.5579
  C  C429  1  0.556800  0.106100  0.246270  1.0  0.598
  C  C430  1  0.019000  0.457000  0.150960  1.0  -0.0138
  C  C431  1  0.841000  0.945900  0.249100  1.0  0.0127
  C  C432  1  0.651300  0.393700  0.136700  1.0  -0.1337
  C  C433  1  0.672000  0.362700  0.155800  1.0  -0.1684
  C  C434  1  0.722300  0.982600  0.246800  1.0  0.0966
  C  C435  1  0.913000  0.015000  0.246800  1.0  0.3058
  C  C436  1  0.681700  0.080800  0.248400  1.0  0.2303
  C  C437  1  0.758000  0.145000  0.245900  1.0  0.1497
  C  C438  1  0.610700  0.958400  0.652630  1.0  -0.0839
  C  C439  1  0.626700  0.918700  0.691590  1.0  -0.1465
  C  C440  1  0.081200  0.362400  0.682330  1.0  -0.0462
  C  C441  1  0.291300  0.343700  0.670150  1.0  -0.1587
  C  C442  1  0.208700  0.341700  0.657220  1.0  -0.0716
  C  C443  1  0.623900  0.154700  0.658730  1.0  0.6668
  C  C444  1  0.014200  0.344200  0.648950  1.0  0.5948
  C  C445  1  0.525000  0.527600  0.638310  1.0  0.6621
  C  C446  1  0.773700  0.386300  0.638630  1.0  0.6218
  C  C447  1  0.633600  0.891500  0.712030  1.0  0.6458
  C  C448  1  0.101100  0.356500  0.663210  1.0  0.0215
  C  C449  1  0.271800  0.356600  0.689470  1.0  -0.094
  C  C450  1  0.165500  0.361700  0.695340  1.0  -0.1549
  C  C451  1  0.403400  0.337600  0.663630  1.0  0.6511
  C  C452  1  0.628500  0.040600  0.665390  1.0  -0.1526
  C  C453  1  0.579900  0.766300  0.645290  1.0  0.6421
  C  C454  1  0.610900  0.833300  0.678760  1.0  -0.1365
  C  C455  1  0.601800  0.855000  0.659210  1.0  -0.0551
  C  C456  1  0.142400  0.372300  0.716570  1.0  0.6829
  C  C457  1  0.877400  0.431500  0.629810  1.0  -0.0035
  C  C458  1  0.461600  0.627400  0.634460  1.0  -0.0178
  C  C459  1  0.637700  0.020100  0.685150  1.0  -0.0156
  C  C460  1  0.889600  0.606300  0.643160  1.0  -0.1307
  C  C461  1  0.858400  0.546500  0.625040  1.0  -0.1478
  C  C462  1  0.405700  0.727400  0.661420  1.0  -0.0659
  C  C463  1  0.144200  0.187500  0.752570  1.0  0.5603
  C  C464  1  0.443200  0.893900  0.746270  1.0  0.5976
  C  C465  1  0.981000  0.543000  0.650960  1.0  -0.0146
  C  C466  1  0.159000  0.054100  0.749100  1.0  0.0122
  C  C467  1  0.348700  0.606300  0.636700  1.0  -0.133
  C  C468  1  0.328000  0.637300  0.655800  1.0  -0.1702
  C  C469  1  0.277700  0.017400  0.746800  1.0  0.0956
  C  C470  1  0.087000  0.985000  0.746800  1.0  0.3076
  C  C471  1  0.318300  0.919200  0.748400  1.0  0.2332
  C  C472  1  0.242000  0.855000  0.745900  1.0  0.1494
  C  C473  1  0.128700  0.871300  0.750000  1.0  -0.0454
  C  C474  1  0.871300  0.128700  0.250000  1.0  -0.0453
  C  C475  1  0.628700  0.628700  0.500000  1.0  -0.045
  C  C476  1  0.371300  0.371300  0.000000  1.0  -0.0458
  N  N477  1  0.286700  0.509500  0.852930  1.0  -0.0489
  N  N478  1  0.565600  0.035200  0.856120  1.0  -0.1163
  N  N479  1  0.713300  0.490500  0.352930  1.0  -0.0487
  N  N480  1  0.434400  0.964800  0.356120  1.0  -0.1188
  N  N481  1  0.990500  0.786700  0.602930  1.0  -0.0479
  N  N482  1  0.464800  0.065600  0.606120  1.0  -0.1158
  N  N483  1  0.009500  0.213300  0.102930  1.0  -0.0499
  N  N484  1  0.535200  0.934400  0.106120  1.0  -0.1173
  N  N485  1  0.213300  0.009500  0.897070  1.0  -0.0491
  N  N486  1  0.934400  0.535200  0.893880  1.0  -0.119
  N  N487  1  0.786700  0.990500  0.397070  1.0  -0.0487
  N  N488  1  0.065600  0.464800  0.393880  1.0  -0.1171
  N  N489  1  0.509500  0.286700  0.147070  1.0  -0.05
  N  N490  1  0.035200  0.565600  0.143880  1.0  -0.1157
  N  N491  1  0.490500  0.713300  0.647070  1.0  -0.0476
  N  N492  1  0.964800  0.434400  0.643880  1.0  -0.1179
  O  O493  1  0.543300  0.478600  0.874450  1.0  -0.5835
  O  O494  1  0.693800  0.579700  0.853100  1.0  -0.5813
  O  O495  1  0.654200  0.291000  0.873560  1.0  -0.5881
  O  O496  1  0.828700  0.401500  0.857980  1.0  -0.5669
  O  O497  1  0.742800  0.010200  0.857760  1.0  -0.6298
  O  O498  1  0.600600  0.241300  0.844300  1.0  -0.5649
  O  O499  1  0.769800  0.353600  0.829050  1.0  -0.6303
  O  O500  1  0.023200  0.344700  0.777090  1.0  -0.5772
  O  O501  1  0.601400  0.779900  0.773030  1.0  -0.6122
  O  O502  1  0.645600  0.944200  0.777830  1.0  -0.5581
  O  O503  1  0.197400  0.382600  0.781920  1.0  -0.5451
  O  O504  1  0.250000  0.359500  0.868380  1.0  -0.5648
  O  O505  1  0.636800  0.526000  0.824230  1.0  -0.5971
  O  O506  1  0.482900  0.429200  0.845670  1.0  -0.6073
  O  O507  1  0.025600  0.508600  0.750580  1.0  -0.578
  O  O508  1  0.804100  0.949400  0.750860  1.0  -0.6013
  O  O509  1  0.770800  0.775500  0.745960  1.0  -0.5412
  O  O510  1  0.206000  0.543300  0.754700  1.0  -0.6116
  O  O511  1  0.456700  0.521400  0.374450  1.0  -0.5829
  O  O512  1  0.306200  0.420300  0.353100  1.0  -0.581
  O  O513  1  0.345800  0.709000  0.373560  1.0  -0.5883
  O  O514  1  0.171300  0.598500  0.357980  1.0  -0.5668
  O  O515  1  0.257200  0.989800  0.357760  1.0  -0.6289
  O  O516  1  0.399400  0.758700  0.344300  1.0  -0.5651
  O  O517  1  0.230200  0.646400  0.329050  1.0  -0.6318
  O  O518  1  0.976800  0.655300  0.277090  1.0  -0.5757
  O  O519  1  0.398600  0.220100  0.273030  1.0  -0.6149
  O  O520  1  0.354400  0.055800  0.277830  1.0  -0.5564
  O  O521  1  0.802600  0.617400  0.281920  1.0  -0.5459
  O  O522  1  0.750000  0.640500  0.368380  1.0  -0.5662
  O  O523  1  0.363200  0.474000  0.324230  1.0  -0.5987
  O  O524  1  0.517100  0.570800  0.345670  1.0  -0.607
  O  O525  1  0.974400  0.491400  0.250580  1.0  -0.5773
  O  O526  1  0.195900  0.050600  0.250860  1.0  -0.6023
  O  O527  1  0.229200  0.224500  0.245960  1.0  -0.5414
  O  O528  1  0.794000  0.456700  0.254700  1.0  -0.6101
  O  O529  1  0.021400  0.043300  0.624450  1.0  -0.5826
  O  O530  1  0.920300  0.193800  0.603100  1.0  -0.5811
  O  O531  1  0.209000  0.154200  0.623560  1.0  -0.5899
  O  O532  1  0.098500  0.328700  0.607980  1.0  -0.5669
  O  O533  1  0.489800  0.242800  0.607760  1.0  -0.6297
  O  O534  1  0.258700  0.100600  0.594300  1.0  -0.5637
  O  O535  1  0.146400  0.269800  0.579050  1.0  -0.6327
  O  O536  1  0.155300  0.523200  0.527090  1.0  -0.5778
  O  O537  1  0.720100  0.101400  0.523030  1.0  -0.6129
  O  O538  1  0.555800  0.145600  0.527830  1.0  -0.5581
  O  O539  1  0.117400  0.697400  0.531920  1.0  -0.5448
  O  O540  1  0.140500  0.750000  0.618380  1.0  -0.5669
  O  O541  1  0.974000  0.136800  0.574230  1.0  -0.5962
  O  O542  1  0.070800  0.982900  0.595670  1.0  -0.6048
  O  O543  1  0.991400  0.525600  0.500580  1.0  -0.5778
  O  O544  1  0.550600  0.304100  0.500860  1.0  -0.6074
  O  O545  1  0.724500  0.270800  0.495960  1.0  -0.5441
  O  O546  1  0.956700  0.706000  0.504700  1.0  -0.6075
  O  O547  1  0.978600  0.956700  0.124450  1.0  -0.5828
  O  O548  1  0.079700  0.806200  0.103100  1.0  -0.581
  O  O549  1  0.791000  0.845800  0.123560  1.0  -0.5889
  O  O550  1  0.901500  0.671300  0.107980  1.0  -0.5672
  O  O551  1  0.510200  0.757200  0.107760  1.0  -0.6285
  O  O552  1  0.741300  0.899400  0.094300  1.0  -0.5625
  O  O553  1  0.853600  0.730200  0.079050  1.0  -0.6327
  O  O554  1  0.844700  0.476800  0.027090  1.0  -0.5784
  O  O555  1  0.279900  0.898600  0.023030  1.0  -0.613
  O  O556  1  0.444200  0.854400  0.027830  1.0  -0.558
  O  O557  1  0.882600  0.302600  0.031920  1.0  -0.546
  O  O558  1  0.859500  0.250000  0.118380  1.0  -0.5657
  O  O559  1  0.026000  0.863200  0.074230  1.0  -0.5955
  O  O560  1  0.929200  0.017100  0.095670  1.0  -0.6046
  O  O561  1  0.008600  0.474400  0.000580  1.0  -0.5767
  O  O562  1  0.449400  0.695900  0.000860  1.0  -0.6094
  O  O563  1  0.275500  0.729200  0.995960  1.0  -0.5424
  O  O564  1  0.043300  0.294000  0.004700  1.0  -0.6078
  O  O565  1  0.956700  0.978600  0.875550  1.0  -0.5848
  O  O566  1  0.806200  0.079700  0.896900  1.0  -0.5811
  O  O567  1  0.845800  0.791000  0.876440  1.0  -0.5878
  O  O568  1  0.671300  0.901500  0.892020  1.0  -0.567
  O  O569  1  0.757200  0.510200  0.892240  1.0  -0.6297
  O  O570  1  0.899400  0.741300  0.905700  1.0  -0.5659
  O  O571  1  0.730200  0.853600  0.920950  1.0  -0.6278
  O  O572  1  0.476800  0.844700  0.972910  1.0  -0.5779
  O  O573  1  0.898600  0.279900  0.976970  1.0  -0.6127
  O  O574  1  0.854400  0.444200  0.972170  1.0  -0.5573
  O  O575  1  0.302600  0.882600  0.968080  1.0  -0.5454
  O  O576  1  0.250000  0.859500  0.881620  1.0  -0.5654
  O  O577  1  0.863200  0.026000  0.925770  1.0  -0.5971
  O  O578  1  0.017100  0.929200  0.904330  1.0  -0.6062
  O  O579  1  0.474400  0.008600  0.999420  1.0  -0.5782
  O  O580  1  0.695900  0.449400  0.999140  1.0  -0.6028
  O  O581  1  0.729200  0.275500  0.004040  1.0  -0.5411
  O  O582  1  0.294000  0.043300  0.995300  1.0  -0.6101
  O  O583  1  0.043300  0.021400  0.375550  1.0  -0.585
  O  O584  1  0.193800  0.920300  0.396900  1.0  -0.5818
  O  O585  1  0.154200  0.209000  0.376440  1.0  -0.5883
  O  O586  1  0.328700  0.098500  0.392020  1.0  -0.5677
  O  O587  1  0.242800  0.489800  0.392240  1.0  -0.6301
  O  O588  1  0.100600  0.258700  0.405700  1.0  -0.5666
  O  O589  1  0.269800  0.146400  0.420950  1.0  -0.6276
  O  O590  1  0.523200  0.155300  0.472910  1.0  -0.5784
  O  O591  1  0.101400  0.720100  0.476970  1.0  -0.614
  O  O592  1  0.145600  0.555800  0.472170  1.0  -0.5571
  O  O593  1  0.697400  0.117400  0.468080  1.0  -0.5454
  O  O594  1  0.750000  0.140500  0.381620  1.0  -0.5645
  O  O595  1  0.136800  0.974000  0.425770  1.0  -0.5964
  O  O596  1  0.982900  0.070800  0.404330  1.0  -0.6069
  O  O597  1  0.525600  0.991400  0.499420  1.0  -0.5772
  O  O598  1  0.304100  0.550600  0.499140  1.0  -0.6019
  O  O599  1  0.270800  0.724500  0.504040  1.0  -0.5406
  O  O600  1  0.706000  0.956700  0.495300  1.0  -0.6119
  O  O601  1  0.478600  0.543300  0.125550  1.0  -0.5849
  O  O602  1  0.579700  0.693800  0.146900  1.0  -0.5814
  O  O603  1  0.291000  0.654200  0.126440  1.0  -0.5888
  O  O604  1  0.401500  0.828700  0.142020  1.0  -0.5674
  O  O605  1  0.010200  0.742800  0.142240  1.0  -0.6297
  O  O606  1  0.241300  0.600600  0.155700  1.0  -0.563
  O  O607  1  0.353600  0.769800  0.170950  1.0  -0.6295
  O  O608  1  0.344700  0.023200  0.222910  1.0  -0.5797
  O  O609  1  0.779900  0.601400  0.226970  1.0  -0.6124
  O  O610  1  0.944200  0.645600  0.222170  1.0  -0.5581
  O  O611  1  0.382600  0.197400  0.218080  1.0  -0.545
  O  O612  1  0.359500  0.250000  0.131620  1.0  -0.5652
  O  O613  1  0.526000  0.636800  0.175770  1.0  -0.5943
  O  O614  1  0.429200  0.482900  0.154330  1.0  -0.6047
  O  O615  1  0.508600  0.025600  0.249420  1.0  -0.578
  O  O616  1  0.949400  0.804100  0.249140  1.0  -0.6087
  O  O617  1  0.775500  0.770800  0.254040  1.0  -0.543
  O  O618  1  0.543300  0.206000  0.245300  1.0  -0.6084
  O  O619  1  0.521400  0.456700  0.625550  1.0  -0.5854
  O  O620  1  0.420300  0.306200  0.646900  1.0  -0.5813
  O  O621  1  0.709000  0.345800  0.626440  1.0  -0.59
  O  O622  1  0.598500  0.171300  0.642020  1.0  -0.5677
  O  O623  1  0.989800  0.257200  0.642240  1.0  -0.6301
  O  O624  1  0.758700  0.399400  0.655700  1.0  -0.5642
  O  O625  1  0.646400  0.230200  0.670950  1.0  -0.6289
  O  O626  1  0.655300  0.976800  0.722910  1.0  -0.5782
  O  O627  1  0.220100  0.398600  0.726970  1.0  -0.6137
  O  O628  1  0.055800  0.354400  0.722170  1.0  -0.5584
  O  O629  1  0.617400  0.802600  0.718080  1.0  -0.5454
  O  O630  1  0.640500  0.750000  0.631620  1.0  -0.5667
  O  O631  1  0.474000  0.363200  0.675770  1.0  -0.594
  O  O632  1  0.570800  0.517100  0.654330  1.0  -0.6031
  O  O633  1  0.491400  0.974400  0.749420  1.0  -0.5775
  O  O634  1  0.050600  0.195900  0.749140  1.0  -0.608
  O  O635  1  0.224500  0.229200  0.754040  1.0  -0.5438
  O  O636  1  0.456700  0.794000  0.745300  1.0  -0.6073
