# generated using pymatgen
data_Sn2H18C13O5
_symmetry_space_group_name_H-M   'P 1'
_cell_length_a   9.32340000
_cell_length_b   18.82300000
_cell_length_c   18.82300000
_cell_angle_alpha   62.67030000
_cell_angle_beta   80.49660000
_cell_angle_gamma   99.50340000
_symmetry_Int_Tables_number   1
_chemical_formula_structural   Sn2H18C13O5
_chemical_formula_sum   'Sn12 H108 C78 O30'
_cell_volume   2782.78299822
_cell_formula_units_Z   6
loop_
 _symmetry_equiv_pos_site_id
 _symmetry_equiv_pos_as_xyz
  1  'x, y, z'
loop_
 _atom_site_type_symbol
 _atom_site_label
 _atom_site_symmetry_multiplicity
 _atom_site_fract_x
 _atom_site_fract_y
 _atom_site_fract_z
 _atom_site_occupancy
 _atom_site_charge
  Sn  Sn1  1  0.885420  0.494370  0.443230  1.0  1.2884
  Sn  Sn2  1  0.571140  0.002090  0.665040  1.0  1.2731
  Sn  Sn3  1  0.328650  0.443230  0.062400  1.0  1.2879
  Sn  Sn4  1  0.236180  0.665040  0.332870  1.0  1.2732
  Sn  Sn5  1  0.391050  0.062400  0.494370  1.0  1.2878
  Sn  Sn6  1  0.569050  0.332870  0.002090  1.0  1.2726
  Sn  Sn7  1  0.114580  0.505630  0.556770  1.0  1.2885
  Sn  Sn8  1  0.428860  0.997910  0.334960  1.0  1.2729
  Sn  Sn9  1  0.671350  0.556770  0.937600  1.0  1.2883
  Sn  Sn10  1  0.763820  0.334960  0.667130  1.0  1.272
  Sn  Sn11  1  0.608950  0.937600  0.505630  1.0  1.2884
  Sn  Sn12  1  0.430950  0.667130  0.997910  1.0  1.2724
  H  H13  1  0.396400  0.219200  0.693300  1.0  0.1488
  H  H14  1  0.253100  0.146200  0.714500  1.0  0.1511
  H  H15  1  0.119300  0.159600  0.620500  1.0  0.1154
  H  H16  1  0.069100  0.233200  0.494000  1.0  0.1265
  H  H17  1  0.249700  0.353200  0.385400  1.0  0.1246
  H  H18  1  0.476500  0.399300  0.407500  1.0  0.1105
  H  H19  1  0.861000  0.055600  0.596600  1.0  0.1436
  H  H20  1  0.829800  0.060300  0.680200  1.0  0.1827
  H  H21  1  0.804400  0.130900  0.597800  1.0  0.1822
  H  H22  1  0.306500  0.949800  0.769500  1.0  0.1528
  H  H23  1  0.412000  0.896800  0.817000  1.0  0.1793
  H  H24  1  0.336400  0.874600  0.756700  1.0  0.1742
  H  H25  1  0.059000  0.449200  0.358100  1.0  0.1918
  H  H26  1  0.946500  0.366900  0.437500  1.0  0.1439
  H  H27  1  0.888700  0.417800  0.358200  1.0  0.1436
  H  H28  1  0.681700  0.575000  0.433200  1.0  0.1656
  H  H29  1  0.835300  0.631700  0.428400  1.0  0.145
  H  H30  1  0.814000  0.627500  0.347700  1.0  0.1552
  H  H31  1  0.089700  0.693300  0.087500  1.0  0.1499
  H  H32  1  0.967600  0.714500  0.139300  1.0  0.1509
  H  H33  1  0.739800  0.620500  0.219900  1.0  0.1147
  H  H34  1  0.563100  0.494000  0.272800  1.0  0.1276
  H  H35  1  0.635100  0.385400  0.261400  1.0  0.1257
  H  H36  1  0.884000  0.407500  0.193200  1.0  0.1099
  H  H37  1  0.457600  0.596600  0.347800  1.0  0.1449
  H  H38  1  0.510000  0.680200  0.259500  1.0  0.1827
  H  H39  1  0.402200  0.597800  0.271300  1.0  0.1785
  H  H40  1  0.076000  0.769500  0.280700  1.0  0.1522
  H  H41  1  0.229000  0.817000  0.286200  1.0  0.1794
  H  H42  1  0.093100  0.756700  0.368700  1.0  0.1758
  H  H43  1  0.417100  0.358100  0.192700  1.0  0.1927
  H  H44  1  0.384000  0.437500  0.195600  1.0  0.1422
  H  H45  1  0.246900  0.358200  0.224000  1.0  0.1432
  H  H46  1  0.114900  0.433200  0.991800  1.0  0.1653
  H  H47  1  0.263700  0.428400  0.939900  1.0  0.1439
  H  H48  1  0.161700  0.347700  0.024800  1.0  0.1572
  H  H49  1  0.177200  0.087500  0.219200  1.0  0.1481
  H  H50  1  0.106900  0.139300  0.146200  1.0  0.1463
  H  H51  1  0.959700  0.219900  0.159600  1.0  0.1145
  H  H52  1  0.835900  0.272800  0.233200  1.0  0.1273
  H  H53  1  0.896500  0.261400  0.353200  1.0  0.1255
  H  H54  1  0.077200  0.193200  0.399300  1.0  0.1122
  H  H55  1  0.805400  0.347800  0.055600  1.0  0.1452
  H  H56  1  0.769500  0.259500  0.060300  1.0  0.1831
  H  H57  1  0.673500  0.271300  0.130900  1.0  0.1798
  H  H58  1  0.356700  0.280700  0.949800  1.0  0.1523
  H  H59  1  0.515200  0.286200  0.896800  1.0  0.1792
  H  H60  1  0.461800  0.368700  0.874600  1.0  0.1747
  H  H61  1  0.609800  0.192700  0.449200  1.0  0.1894
  H  H62  1  0.579600  0.195600  0.366900  1.0  0.1444
  H  H63  1  0.470900  0.224000  0.417800  1.0  0.1438
  H  H64  1  0.106700  0.991800  0.575000  1.0  0.1625
  H  H65  1  0.203600  0.939900  0.631700  1.0  0.1468
  H  H66  1  0.186500  0.024800  0.627500  1.0  0.1538
  H  H67  1  0.603600  0.780800  0.306700  1.0  0.1503
  H  H68  1  0.746900  0.853800  0.285500  1.0  0.1511
  H  H69  1  0.880700  0.840400  0.379500  1.0  0.1163
  H  H70  1  0.930900  0.766800  0.506000  1.0  0.1265
  H  H71  1  0.750300  0.646800  0.614600  1.0  0.1256
  H  H72  1  0.523500  0.600700  0.592500  1.0  0.1104
  H  H73  1  0.139000  0.944400  0.403400  1.0  0.1442
  H  H74  1  0.170200  0.939700  0.319800  1.0  0.1812
  H  H75  1  0.195600  0.869100  0.402200  1.0  0.183
  H  H76  1  0.693500  0.050200  0.230500  1.0  0.1517
  H  H77  1  0.588000  0.103200  0.183000  1.0  0.1794
  H  H78  1  0.663600  0.125400  0.243300  1.0  0.1721
  H  H79  1  0.941000  0.550800  0.641900  1.0  0.1929
  H  H80  1  0.053500  0.633100  0.562500  1.0  0.1437
  H  H81  1  0.111300  0.582200  0.641800  1.0  0.1431
  H  H82  1  0.318300  0.425000  0.566800  1.0  0.1659
  H  H83  1  0.164700  0.368300  0.571600  1.0  0.1448
  H  H84  1  0.186000  0.372500  0.652300  1.0  0.1553
  H  H85  1  0.910300  0.306700  0.912500  1.0  0.1516
  H  H86  1  0.032400  0.285500  0.860700  1.0  0.1502
  H  H87  1  0.260200  0.379500  0.780100  1.0  0.1145
  H  H88  1  0.436900  0.506000  0.727200  1.0  0.1278
  H  H89  1  0.364900  0.614600  0.738600  1.0  0.1258
  H  H90  1  0.116000  0.592500  0.806800  1.0  0.1099
  H  H91  1  0.542400  0.403400  0.652200  1.0  0.1441
  H  H92  1  0.490000  0.319800  0.740500  1.0  0.183
  H  H93  1  0.597800  0.402200  0.728700  1.0  0.1779
  H  H94  1  0.924000  0.230500  0.719300  1.0  0.1529
  H  H95  1  0.771000  0.183000  0.713800  1.0  0.1809
  H  H96  1  0.906900  0.243300  0.631300  1.0  0.1753
  H  H97  1  0.582900  0.641900  0.807300  1.0  0.192
  H  H98  1  0.616000  0.562500  0.804400  1.0  0.1432
  H  H99  1  0.753100  0.641800  0.776000  1.0  0.1437
  H  H100  1  0.885100  0.566800  0.008200  1.0  0.1658
  H  H101  1  0.736300  0.571600  0.060100  1.0  0.1444
  H  H102  1  0.838300  0.652300  0.975200  1.0  0.1569
  H  H103  1  0.822800  0.912500  0.780800  1.0  0.1493
  H  H104  1  0.893100  0.860700  0.853800  1.0  0.1484
  H  H105  1  0.040300  0.780100  0.840400  1.0  0.1145
  H  H106  1  0.164100  0.727200  0.766800  1.0  0.1279
  H  H107  1  0.103500  0.738600  0.646800  1.0  0.1253
  H  H108  1  0.922800  0.806800  0.600700  1.0  0.1115
  H  H109  1  0.194600  0.652200  0.944400  1.0  0.1449
  H  H110  1  0.230500  0.740500  0.939700  1.0  0.1811
  H  H111  1  0.326500  0.728700  0.869100  1.0  0.1777
  H  H112  1  0.643300  0.719300  0.050200  1.0  0.1515
  H  H113  1  0.484800  0.713800  0.103200  1.0  0.1796
  H  H114  1  0.538200  0.631300  0.125400  1.0  0.1769
  H  H115  1  0.390200  0.807300  0.550800  1.0  0.1886
  H  H116  1  0.420400  0.804400  0.633100  1.0  0.1437
  H  H117  1  0.529100  0.776000  0.582200  1.0  0.1435
  H  H118  1  0.893300  0.008200  0.425000  1.0  0.1633
  H  H119  1  0.796400  0.060100  0.368300  1.0  0.1454
  H  H120  1  0.813500  0.975200  0.372500  1.0  0.1544
  C  C121  1  0.454540  0.125830  0.677810  1.0  0.7374
  C  C122  1  0.353170  0.181240  0.674630  1.0  -0.3332
  C  C123  1  0.330550  0.232560  0.590410  1.0  0.0987
  C  C124  1  0.193860  0.207970  0.576890  1.0  -0.1154
  C  C125  1  0.163280  0.251960  0.501720  1.0  -0.0646
  C  C126  1  0.269380  0.323170  0.437630  1.0  -0.1001
  C  C127  1  0.404330  0.349750  0.450860  1.0  -0.0337
  C  C128  1  0.437100  0.305870  0.525870  1.0  -0.1059
  C  C129  1  0.584820  0.341380  0.534920  1.0  0.7218
  C  C130  1  0.796660  0.071480  0.630300  1.0  -0.7474
  C  C131  1  0.381180  0.919890  0.765450  1.0  -0.7142
  C  C132  1  0.954040  0.422490  0.392470  1.0  -0.7642
  C  C133  1  0.791630  0.595680  0.408490  1.0  -0.7409
  C  C134  1  0.132350  0.677810  0.196360  1.0  0.738
  C  C135  1  0.027800  0.674630  0.144130  1.0  -0.3332
  C  C136  1  0.920960  0.590410  0.177030  1.0  0.0963
  C  C137  1  0.770750  0.576890  0.215140  1.0  -0.1141
  C  C138  1  0.665000  0.501720  0.246320  1.0  -0.0642
  C  C139  1  0.707010  0.437630  0.239200  1.0  -0.0984
  C  C140  1  0.855190  0.450860  0.199390  1.0  -0.0344
  C  C141  1  0.962970  0.525870  0.168260  1.0  -0.1056
  C  C142  1  0.119740  0.534920  0.123700  1.0  0.7208
  C  C143  1  0.426960  0.630300  0.298220  1.0  -0.7488
  C  C144  1  0.146630  0.765450  0.314660  1.0  -0.714
  C  C145  1  0.346510  0.392470  0.185040  1.0  -0.7649
  C  C146  1  0.200120  0.408490  0.995830  1.0  -0.7592
  C  C147  1  0.328710  0.196360  0.125830  1.0  0.7344
  C  C148  1  0.171930  0.144130  0.181240  1.0  -0.3348
  C  C149  1  0.097990  0.177030  0.232560  1.0  0.0982
  C  C150  1  0.985890  0.215140  0.207970  1.0  -0.1138
  C  C151  1  0.911320  0.246320  0.251960  1.0  -0.0652
  C  C152  1  0.946210  0.239200  0.323170  1.0  -0.1041
  C  C153  1  0.054580  0.199390  0.349750  1.0  -0.038
  C  C154  1  0.131230  0.168260  0.305870  1.0  -0.1051
  C  C155  1  0.243440  0.123700  0.341380  1.0  0.7228
  C  C156  1  0.725180  0.298220  0.071480  1.0  -0.749
  C  C157  1  0.461290  0.314660  0.919890  1.0  -0.7305
  C  C158  1  0.531550  0.185040  0.422490  1.0  -0.7537
  C  C159  1  0.195950  0.995830  0.595680  1.0  -0.7436
  C  C160  1  0.545460  0.874170  0.322190  1.0  0.7355
  C  C161  1  0.646830  0.818760  0.325370  1.0  -0.3311
  C  C162  1  0.669450  0.767440  0.409590  1.0  0.0979
  C  C163  1  0.806140  0.792030  0.423110  1.0  -0.1151
  C  C164  1  0.836720  0.748040  0.498280  1.0  -0.0667
  C  C165  1  0.730620  0.676830  0.562370  1.0  -0.0991
  C  C166  1  0.595670  0.650250  0.549140  1.0  -0.0354
  C  C167  1  0.562900  0.694130  0.474130  1.0  -0.1072
  C  C168  1  0.415180  0.658620  0.465080  1.0  0.7207
  C  C169  1  0.203340  0.928520  0.369700  1.0  -0.7466
  C  C170  1  0.618820  0.080110  0.234550  1.0  -0.7129
  C  C171  1  0.045960  0.577510  0.607530  1.0  -0.7639
  C  C172  1  0.208370  0.404320  0.591510  1.0  -0.7442
  C  C173  1  0.867650  0.322190  0.803640  1.0  0.7383
  C  C174  1  0.972200  0.325370  0.855870  1.0  -0.3316
  C  C175  1  0.079040  0.409590  0.822970  1.0  0.0967
  C  C176  1  0.229250  0.423110  0.784860  1.0  -0.1138
  C  C177  1  0.335000  0.498280  0.753680  1.0  -0.0677
  C  C178  1  0.292990  0.562370  0.760800  1.0  -0.0979
  C  C179  1  0.144810  0.549140  0.800610  1.0  -0.0344
  C  C180  1  0.037030  0.474130  0.831740  1.0  -0.1074
  C  C181  1  0.880260  0.465080  0.876300  1.0  0.7205
  C  C182  1  0.573040  0.369700  0.701780  1.0  -0.7473
  C  C183  1  0.853370  0.234550  0.685340  1.0  -0.7192
  C  C184  1  0.653490  0.607530  0.814960  1.0  -0.7665
  C  C185  1  0.799880  0.591510  0.004170  1.0  -0.756
  C  C186  1  0.671290  0.803640  0.874170  1.0  0.7344
  C  C187  1  0.828070  0.855870  0.818760  1.0  -0.3353
  C  C188  1  0.902010  0.822970  0.767440  1.0  0.0998
  C  C189  1  0.014110  0.784860  0.792030  1.0  -0.1137
  C  C190  1  0.088680  0.753680  0.748040  1.0  -0.0666
  C  C191  1  0.053790  0.760800  0.676830  1.0  -0.1037
  C  C192  1  0.945420  0.800610  0.650250  1.0  -0.0381
  C  C193  1  0.868770  0.831740  0.694130  1.0  -0.106
  C  C194  1  0.756560  0.876300  0.658620  1.0  0.7212
  C  C195  1  0.274820  0.701780  0.928520  1.0  -0.7494
  C  C196  1  0.538710  0.685340  0.080110  1.0  -0.7268
  C  C197  1  0.468450  0.814960  0.577510  1.0  -0.7596
  C  C198  1  0.804050  0.004170  0.404320  1.0  -0.7439
  O  O199  1  0.470340  0.105030  0.621310  1.0  -0.588
  O  O200  1  0.512930  0.097740  0.735850  1.0  -0.5616
  O  O201  1  0.639690  0.295150  0.589880  1.0  -0.6225
  O  O202  1  0.645380  0.418320  0.485680  1.0  -0.6094
  O  O203  1  0.895920  0.439790  0.563130  1.0  -0.7187
  O  O204  1  0.091650  0.621310  0.273660  1.0  -0.589
  O  O205  1  0.248780  0.735850  0.166410  1.0  -0.5623
  O  O206  1  0.229570  0.589880  0.114970  1.0  -0.6231
  O  O207  1  0.131060  0.485680  0.096000  1.0  -0.6128
  O  O208  1  0.459050  0.563130  0.997080  1.0  -0.7182
  O  O209  1  0.365310  0.273660  0.105030  1.0  -0.5888
  O  O210  1  0.415190  0.166410  0.097740  1.0  -0.5994
  O  O211  1  0.344540  0.114970  0.295150  1.0  -0.6221
  O  O212  1  0.227060  0.096000  0.418320  1.0  -0.6103
  O  O213  1  0.456130  0.997080  0.439790  1.0  -0.7191
  O  O214  1  0.529660  0.894970  0.378690  1.0  -0.5884
  O  O215  1  0.487070  0.902260  0.264150  1.0  -0.5639
  O  O216  1  0.360310  0.704850  0.410120  1.0  -0.6238
  O  O217  1  0.354620  0.581680  0.514320  1.0  -0.6093
  O  O218  1  0.104080  0.560210  0.436870  1.0  -0.7193
  O  O219  1  0.908350  0.378690  0.726340  1.0  -0.5889
  O  O220  1  0.751220  0.264150  0.833590  1.0  -0.5645
  O  O221  1  0.770430  0.410120  0.885030  1.0  -0.6246
  O  O222  1  0.868940  0.514320  0.904000  1.0  -0.6124
  O  O223  1  0.540950  0.436870  0.002920  1.0  -0.7186
  O  O224  1  0.634690  0.726340  0.894970  1.0  -0.5908
  O  O225  1  0.584810  0.833590  0.902260  1.0  -0.6005
  O  O226  1  0.655460  0.885030  0.704850  1.0  -0.624
  O  O227  1  0.772940  0.904000  0.581680  1.0  -0.6115
  O  O228  1  0.543870  0.002920  0.560210  1.0  -0.7188
