# generated using pymatgen
data_Ag3H50C62S8O7F6
_symmetry_space_group_name_H-M   'P 1'
_cell_length_a   13.04790000
_cell_length_b   19.14770000
_cell_length_c   19.93550000
_cell_angle_alpha   73.21600000
_cell_angle_beta   84.32000000
_cell_angle_gamma   73.01200000
_symmetry_Int_Tables_number   1
_chemical_formula_structural   Ag3H50C62S8O7F6
_chemical_formula_sum   'Ag6 H100 C124 S16 O14 F12'
_cell_volume   4559.80989368
_cell_formula_units_Z   2
loop_
 _symmetry_equiv_pos_site_id
 _symmetry_equiv_pos_as_xyz
  1  'x, y, z'
loop_
 _atom_site_type_symbol
 _atom_site_label
 _atom_site_symmetry_multiplicity
 _atom_site_fract_x
 _atom_site_fract_y
 _atom_site_fract_z
 _atom_site_occupancy
 _atom_site_charge
  Ag  Ag1  1  0.696370  0.514260  0.789540  1.0  0.3151
  Ag  Ag2  1  0.726610  0.172150  0.479530  1.0  0.447
  Ag  Ag3  1  0.980570  0.019420  0.523870  1.0  0.9068
  Ag  Ag4  1  0.303630  0.485740  0.210460  1.0  0.3149
  Ag  Ag5  1  0.273390  0.827850  0.520470  1.0  0.4467
  Ag  Ag6  1  0.019430  0.980580  0.476130  1.0  0.9067
  H  H7  1  0.548300  0.803100  0.123200  1.0  0.1061
  H  H8  1  0.561300  0.858400  0.195200  1.0  0.0968
  H  H9  1  0.703900  0.063500  0.123000  1.0  0.114
  H  H10  1  0.706000  0.119000  0.020000  1.0  0.1189
  H  H11  1  0.667600  0.996800  0.858200  1.0  0.1091
  H  H12  1  0.633400  0.899200  0.890100  1.0  0.1054
  H  H13  1  0.703600  0.668700  0.963000  1.0  0.1108
  H  H14  1  0.750900  0.606300  0.875500  1.0  0.1256
  H  H15  1  0.573500  0.792800  0.737500  1.0  0.1204
  H  H16  1  0.528300  0.855200  0.826300  1.0  0.1019
  H  H17  1  0.603000  0.747400  0.654400  1.0  0.1327
  H  H18  1  0.646800  0.676900  0.621700  1.0  0.1643
  H  H19  1  0.552100  0.677300  0.679200  1.0  0.1584
  H  H20  1  0.421600  0.739300  0.972200  1.0  0.1237
  H  H21  1  0.378000  0.624300  0.003800  1.0  0.1092
  H  H22  1  0.565600  0.549100  0.173000  1.0  0.1129
  H  H23  1  0.616800  0.661900  0.139000  1.0  0.1102
  H  H24  1  0.559700  0.416800  0.195400  1.0  0.157
  H  H25  1  0.548400  0.364900  0.148000  1.0  0.1575
  H  H26  1  0.618500  0.423800  0.120400  1.0  0.1401
  H  H27  1  0.637000  0.789200  0.313100  1.0  0.1014
  H  H28  1  0.584500  0.746100  0.426900  1.0  0.1179
  H  H29  1  0.455600  0.963600  0.434000  1.0  0.1187
  H  H30  1  0.516400  0.004100  0.321400  1.0  0.0975
  H  H31  1  0.412000  0.935200  0.548000  1.0  0.1423
  H  H32  1  0.446600  0.871300  0.620200  1.0  0.1285
  H  H33  1  0.536300  0.896700  0.565600  1.0  0.1393
  H  H34  1  0.785700  0.912500  0.318900  1.0  0.1113
  H  H35  1  0.871100  0.954300  0.392000  1.0  0.121
  H  H36  1  0.729000  0.172400  0.288000  1.0  0.1229
  H  H37  1  0.651200  0.130400  0.211200  1.0  0.1064
  H  H38  1  0.874300  0.205400  0.312500  1.0  0.133
  H  H39  1  0.965400  0.188000  0.367900  1.0  0.1446
  H  H40  1  0.982700  0.139000  0.312800  1.0  0.1375
  H  H41  1  0.862100  0.167400  0.972100  1.0  0.1238
  H  H42  1  0.919500  0.277600  0.932000  1.0  0.113
  H  H43  1  0.704300  0.360000  0.777600  1.0  0.1081
  H  H44  1  0.649900  0.249000  0.814100  1.0  0.1122
  H  H45  1  0.880300  0.405700  0.705600  1.0  0.1402
  H  H46  1  0.972000  0.438100  0.722400  1.0  0.1859
  H  H47  1  0.983900  0.348900  0.748000  1.0  0.1752
  H  H48  1  0.891900  0.121900  0.809300  1.0  0.1193
  H  H49  1  0.951300  0.143900  0.694600  1.0  0.1037
  H  H50  1  0.680800  0.114800  0.636600  1.0  0.1054
  H  H51  1  0.621700  0.092700  0.752900  1.0  0.0931
  H  H52  1  0.985400  0.197300  0.587500  1.0  0.1598
  H  H53  1  0.969400  0.214400  0.505100  1.0  0.1675
  H  H54  1  0.879200  0.257700  0.551000  1.0  0.1574
  H  H55  1  0.648000  0.476000  0.674000  1.0  0.4437
  H  H56  1  0.546000  0.505000  0.676000  1.0  0.4509
  H  H57  1  0.451700  0.196900  0.876800  1.0  0.1053
  H  H58  1  0.438700  0.141600  0.804800  1.0  0.0975
  H  H59  1  0.296100  0.936500  0.877000  1.0  0.1137
  H  H60  1  0.294000  0.881000  0.980000  1.0  0.1195
  H  H61  1  0.332400  0.003200  0.141800  1.0  0.1073
  H  H62  1  0.366600  0.100800  0.109900  1.0  0.1063
  H  H63  1  0.296400  0.331300  0.037000  1.0  0.1112
  H  H64  1  0.249100  0.393700  0.124500  1.0  0.1253
  H  H65  1  0.426500  0.207200  0.262500  1.0  0.1199
  H  H66  1  0.471700  0.144800  0.173700  1.0  0.1025
  H  H67  1  0.397000  0.252600  0.345600  1.0  0.1329
  H  H68  1  0.353200  0.323100  0.378300  1.0  0.1648
  H  H69  1  0.447900  0.322700  0.320800  1.0  0.1578
  H  H70  1  0.578400  0.260700  0.027800  1.0  0.1235
  H  H71  1  0.622000  0.375700  0.996200  1.0  0.1102
  H  H72  1  0.434400  0.450900  0.827000  1.0  0.1128
  H  H73  1  0.383200  0.338100  0.861000  1.0  0.1101
  H  H74  1  0.440300  0.583200  0.804600  1.0  0.1573
  H  H75  1  0.451600  0.635100  0.852000  1.0  0.1596
  H  H76  1  0.381500  0.576200  0.879600  1.0  0.1402
  H  H77  1  0.363000  0.210800  0.686900  1.0  0.1017
  H  H78  1  0.415500  0.253900  0.573100  1.0  0.1173
  H  H79  1  0.544400  0.036400  0.566000  1.0  0.119
  H  H80  1  0.483600  0.995900  0.678600  1.0  0.0975
  H  H81  1  0.588000  0.064800  0.452000  1.0  0.1422
  H  H82  1  0.553400  0.128700  0.379800  1.0  0.1281
  H  H83  1  0.463700  0.103300  0.434400  1.0  0.1395
  H  H84  1  0.214300  0.087500  0.681100  1.0  0.1113
  H  H85  1  0.128900  0.045700  0.608000  1.0  0.1213
  H  H86  1  0.271000  0.827600  0.712000  1.0  0.1224
  H  H87  1  0.348800  0.869600  0.788800  1.0  0.1062
  H  H88  1  0.125700  0.794600  0.687500  1.0  0.1321
  H  H89  1  0.034600  0.812000  0.632100  1.0  0.1442
  H  H90  1  0.017300  0.861000  0.687200  1.0  0.138
  H  H91  1  0.137900  0.832600  0.027900  1.0  0.1235
  H  H92  1  0.080500  0.722400  0.068000  1.0  0.1129
  H  H93  1  0.295700  0.640000  0.222400  1.0  0.1092
  H  H94  1  0.350100  0.751000  0.185900  1.0  0.1123
  H  H95  1  0.119700  0.594300  0.294400  1.0  0.14
  H  H96  1  0.028000  0.561900  0.277600  1.0  0.1867
  H  H97  1  0.016100  0.651100  0.252000  1.0  0.1715
  H  H98  1  0.108100  0.878100  0.190700  1.0  0.119
  H  H99  1  0.048700  0.856100  0.305400  1.0  0.1028
  H  H100  1  0.319200  0.885200  0.363400  1.0  0.1051
  H  H101  1  0.378300  0.907300  0.247100  1.0  0.0937
  H  H102  1  0.014600  0.802700  0.412500  1.0  0.1607
  H  H103  1  0.030600  0.785600  0.494900  1.0  0.1675
  H  H104  1  0.120800  0.742300  0.449000  1.0  0.1581
  H  H105  1  0.352000  0.524000  0.326000  1.0  0.4426
  H  H106  1  0.454000  0.495000  0.324000  1.0  0.4514
  C  C107  1  0.592100  0.811100  0.957500  1.0  -0.0079
  C  C108  1  0.561400  0.783000  0.028000  1.0  -0.0068
  C  C109  1  0.566300  0.822800  0.075500  1.0  -0.1243
  C  C110  1  0.596100  0.890100  0.056500  1.0  -0.0733
  C  C111  1  0.610100  0.927800  0.108100  1.0  -0.0427
  C  C112  1  0.591700  0.899900  0.180000  1.0  -0.1419
  C  C113  1  0.615400  0.929600  0.229900  1.0  -0.0075
  C  C114  1  0.663100  0.990300  0.208200  1.0  -0.0007
  C  C115  1  0.675700  0.021000  0.137600  1.0  -0.1314
  C  C116  1  0.649300  0.993100  0.085900  1.0  -0.0702
  C  C117  1  0.668800  0.026100  0.011300  1.0  -0.0462
  C  C118  1  0.700200  0.093200  0.987100  1.0  -0.1413
  C  C119  1  0.723100  0.123400  0.917400  1.0  -0.0042
  C  C120  1  0.713800  0.085300  0.868000  1.0  0.0053
  C  C121  1  0.677200  0.021000  0.891600  1.0  -0.1189
  C  C122  1  0.653600  0.990000  0.962400  1.0  -0.0535
  C  C123  1  0.619400  0.921000  0.984800  1.0  -0.0242
  C  C124  1  0.616900  0.879200  0.938100  1.0  -0.1471
  C  C125  1  0.612100  0.769000  0.903300  1.0  0.0134
  C  C126  1  0.677800  0.694400  0.917000  1.0  -0.0636
  C  C127  1  0.706100  0.657000  0.865200  1.0  -0.097
  C  C128  1  0.668000  0.694900  0.797900  1.0  -0.1413
  C  C129  1  0.601000  0.767800  0.783300  1.0  -0.0811
  C  C130  1  0.573800  0.804800  0.836500  1.0  -0.152
  C  C131  1  0.618300  0.692200  0.664200  1.0  -0.396
  C  C132  1  0.528400  0.710600  0.051500  1.0  0.0026
  C  C133  1  0.453600  0.700000  0.011800  1.0  -0.0881
  C  C134  1  0.427300  0.632000  0.031000  1.0  -0.0299
  C  C135  1  0.471800  0.575300  0.089300  1.0  -0.1025
  C  C136  1  0.539100  0.586700  0.131000  1.0  -0.0813
  C  C137  1  0.568300  0.654400  0.111000  1.0  -0.1289
  C  C138  1  0.554300  0.414900  0.147300  1.0  -0.4468
  C  C139  1  0.582300  0.900300  0.304400  1.0  0.0851
  C  C140  1  0.600600  0.825100  0.338000  1.0  -0.1341
  C  C141  1  0.569300  0.799100  0.405200  1.0  -0.095
  C  C142  1  0.513800  0.851600  0.442600  1.0  -0.1649
  C  C143  1  0.493900  0.927500  0.409900  1.0  -0.1165
  C  C144  1  0.528800  0.951200  0.342800  1.0  -0.1344
  C  C145  1  0.465200  0.888000  0.570400  1.0  -0.396
  C  C146  1  0.710200  0.016900  0.258400  1.0  0.0521
  C  C147  1  0.775100  0.965300  0.312000  1.0  -0.1155
  C  C148  1  0.825400  0.989800  0.355900  1.0  -0.0854
  C  C149  1  0.807100  0.066600  0.345800  1.0  -0.1778
  C  C150  1  0.741600  0.119700  0.293400  1.0  -0.0755
  C  C151  1  0.694300  0.094700  0.248500  1.0  -0.1205
  C  C152  1  0.929800  0.165400  0.342200  1.0  -0.4113
  C  C153  1  0.753400  0.195600  0.895600  1.0  0.0544
  C  C154  1  0.831300  0.205600  0.931500  1.0  -0.1603
  C  C155  1  0.864500  0.271600  0.908100  1.0  -0.0607
  C  C156  1  0.818500  0.327500  0.851400  1.0  -0.1032
  C  C157  1  0.737500  0.320100  0.816400  1.0  -0.0612
  C  C158  1  0.705200  0.254400  0.838300  1.0  -0.0717
  C  C159  1  0.933200  0.399500  0.740100  1.0  -0.212
  C  C160  1  0.749500  0.105300  0.792900  1.0  0.0567
  C  C161  1  0.848900  0.120400  0.774300  1.0  -0.1276
  C  C162  1  0.884300  0.132800  0.706500  1.0  -0.08
  C  C163  1  0.823600  0.129500  0.654100  1.0  -0.1813
  C  C164  1  0.724200  0.115600  0.671700  1.0  -0.0485
  C  C165  1  0.689000  0.103100  0.740900  1.0  -0.1492
  C  C166  1  0.932900  0.209600  0.550900  1.0  -0.4563
  C  C167  1  0.780600  0.391400  0.304900  1.0  0.3614
  C  C168  1  0.226400  0.102600  0.358000  1.0  0.4967
  C  C169  1  0.407900  0.188900  0.042500  1.0  -0.0085
  C  C170  1  0.438600  0.217000  0.972000  1.0  -0.006
  C  C171  1  0.433700  0.177200  0.924500  1.0  -0.1265
  C  C172  1  0.403900  0.109900  0.943500  1.0  -0.0697
  C  C173  1  0.389900  0.072200  0.891900  1.0  -0.0435
  C  C174  1  0.408300  0.100100  0.820000  1.0  -0.1444
  C  C175  1  0.384600  0.070400  0.770100  1.0  -0.0073
  C  C176  1  0.336900  0.009700  0.791800  1.0  -0.0013
  C  C177  1  0.324300  0.979000  0.862400  1.0  -0.1317
  C  C178  1  0.350700  0.006900  0.914100  1.0  -0.0691
  C  C179  1  0.331200  0.973900  0.988700  1.0  -0.0473
  C  C180  1  0.299800  0.906800  0.012900  1.0  -0.1432
  C  C181  1  0.276900  0.876600  0.082600  1.0  -0.0066
  C  C182  1  0.286200  0.914700  0.132000  1.0  0.0052
  C  C183  1  0.322800  0.979000  0.108400  1.0  -0.1188
  C  C184  1  0.346400  0.010000  0.037600  1.0  -0.0542
  C  C185  1  0.380600  0.079000  0.015200  1.0  -0.0255
  C  C186  1  0.383100  0.120800  0.061900  1.0  -0.1483
  C  C187  1  0.387900  0.231000  0.096700  1.0  0.0131
  C  C188  1  0.322200  0.305600  0.083000  1.0  -0.0626
  C  C189  1  0.293900  0.343000  0.134800  1.0  -0.095
  C  C190  1  0.332000  0.305100  0.202100  1.0  -0.1381
  C  C191  1  0.399000  0.232200  0.216700  1.0  -0.0804
  C  C192  1  0.426200  0.195200  0.163500  1.0  -0.1515
  C  C193  1  0.381700  0.307800  0.335800  1.0  -0.3965
  C  C194  1  0.471600  0.289400  0.948500  1.0  0.0015
  C  C195  1  0.546400  0.300000  0.988200  1.0  -0.0878
  C  C196  1  0.572700  0.368000  0.969000  1.0  -0.0297
  C  C197  1  0.528200  0.424700  0.910700  1.0  -0.1004
  C  C198  1  0.460900  0.413300  0.869000  1.0  -0.0817
  C  C199  1  0.431700  0.345600  0.889000  1.0  -0.1285
  C  C200  1  0.445700  0.585100  0.852700  1.0  -0.4455
  C  C201  1  0.417700  0.099700  0.695600  1.0  0.0853
  C  C202  1  0.399400  0.174900  0.662000  1.0  -0.1329
  C  C203  1  0.430700  0.200900  0.594800  1.0  -0.0872
  C  C204  1  0.486200  0.148400  0.557400  1.0  -0.1637
  C  C205  1  0.506100  0.072500  0.590100  1.0  -0.1158
  C  C206  1  0.471200  0.048800  0.657200  1.0  -0.1354
  C  C207  1  0.534800  0.112000  0.429600  1.0  -0.3967
  C  C208  1  0.289800  0.983100  0.741600  1.0  0.0518
  C  C209  1  0.224900  0.034700  0.688000  1.0  -0.1146
  C  C210  1  0.174600  0.010200  0.644100  1.0  -0.0848
  C  C211  1  0.192900  0.933400  0.654200  1.0  -0.181
  C  C212  1  0.258400  0.880300  0.706600  1.0  -0.0769
  C  C213  1  0.305700  0.905300  0.751500  1.0  -0.1215
  C  C214  1  0.070200  0.834600  0.657800  1.0  -0.4097
  C  C215  1  0.246600  0.804400  0.104400  1.0  0.0528
  C  C216  1  0.168700  0.794400  0.068500  1.0  -0.1596
  C  C217  1  0.135500  0.728400  0.091900  1.0  -0.0627
  C  C218  1  0.181500  0.672500  0.148600  1.0  -0.1036
  C  C219  1  0.262500  0.679900  0.183600  1.0  -0.062
  C  C220  1  0.294800  0.745600  0.161700  1.0  -0.0722
  C  C221  1  0.066800  0.600500  0.259900  1.0  -0.2093
  C  C222  1  0.250500  0.894700  0.207100  1.0  0.0553
  C  C223  1  0.151100  0.879600  0.225700  1.0  -0.1294
  C  C224  1  0.115700  0.867200  0.293500  1.0  -0.0813
  C  C225  1  0.176400  0.870500  0.345900  1.0  -0.1814
  C  C226  1  0.275800  0.884400  0.328300  1.0  -0.0489
  C  C227  1  0.311000  0.896900  0.259100  1.0  -0.1517
  C  C228  1  0.067100  0.790400  0.449100  1.0  -0.4563
  C  C229  1  0.219400  0.608600  0.695100  1.0  0.3601
  C  C230  1  0.773600  0.897400  0.642000  1.0  0.4982
  S  S231  1  0.212770  0.071590  0.449330  1.0  1.3118
  S  S232  1  0.714780  0.646720  0.732190  1.0  -0.0015
  S  S233  1  0.435510  0.488310  0.106530  1.0  -0.0203
  S  S234  1  0.466470  0.815230  0.528420  1.0  -0.0104
  S  S235  1  0.868840  0.098150  0.403820  1.0  0.0773
  S  S236  1  0.865920  0.410120  0.821140  1.0  0.0026
  S  S237  1  0.871130  0.138980  0.567060  1.0  0.2038
  S  S238  1  0.691800  0.341010  0.346950  1.0  1.2777
  S  S239  1  0.787230  0.928410  0.550670  1.0  1.3119
  S  S240  1  0.285220  0.353280  0.267810  1.0  0.0011
  S  S241  1  0.564490  0.511690  0.893470  1.0  -0.0182
  S  S242  1  0.533530  0.184770  0.471580  1.0  -0.0076
  S  S243  1  0.131160  0.901850  0.596180  1.0  0.0795
  S  S244  1  0.134080  0.589880  0.178860  1.0  0.0034
  S  S245  1  0.128870  0.861020  0.432940  1.0  0.2016
  S  S246  1  0.308200  0.658990  0.653050  1.0  1.2774
  O  O247  1  0.101600  0.098800  0.467000  1.0  -0.6992
  O  O248  1  0.260000  0.992200  0.469900  1.0  -0.5381
  O  O249  1  0.279300  0.113500  0.471300  1.0  -0.6712
  O  O250  1  0.749200  0.297700  0.414700  1.0  -0.8732
  O  O251  1  0.597000  0.399100  0.353800  1.0  -0.5992
  O  O252  1  0.678800  0.295000  0.307000  1.0  -0.5838
  O  O253  1  0.602100  0.500400  0.698500  1.0  -0.7983
  O  O254  1  0.898400  0.901200  0.533000  1.0  -0.7004
  O  O255  1  0.740000  0.007800  0.530100  1.0  -0.5379
  O  O256  1  0.720700  0.886500  0.528700  1.0  -0.6705
  O  O257  1  0.250800  0.702300  0.585300  1.0  -0.8738
  O  O258  1  0.403000  0.600900  0.646200  1.0  -0.598
  O  O259  1  0.321200  0.705000  0.693000  1.0  -0.5835
  O  O260  1  0.397900  0.499600  0.301500  1.0  -0.7987
  F  F261  1  0.878500  0.346700  0.289200  1.0  -0.1753
  F  F262  1  0.740700  0.440800  0.240700  1.0  -0.2136
  F  F263  1  0.804200  0.436500  0.339100  1.0  -0.1703
  F  F264  1  0.171300  0.065200  0.330500  1.0  -0.2128
  F  F265  1  0.327200  0.088800  0.336700  1.0  -0.2021
  F  F266  1  0.178200  0.175600  0.330000  1.0  -0.1723
  F  F267  1  0.121500  0.653300  0.710800  1.0  -0.1723
  F  F268  1  0.259300  0.559200  0.759300  1.0  -0.2112
  F  F269  1  0.195800  0.563500  0.660900  1.0  -0.1707
  F  F270  1  0.828700  0.934800  0.669500  1.0  -0.2116
  F  F271  1  0.672800  0.911200  0.663300  1.0  -0.2026
  F  F272  1  0.821800  0.824400  0.670000  1.0  -0.1721
