# generated using pymatgen
data_Eu2H6C18(SO4)3
_symmetry_space_group_name_H-M   'P 1'
_cell_length_a   10.69200000
_cell_length_b   17.21900000
_cell_length_c   17.85500000
_cell_angle_alpha   104.85200000
_cell_angle_beta   90.00000000
_cell_angle_gamma   90.00000000
_symmetry_Int_Tables_number   1
_chemical_formula_structural   Eu2H6C18(SO4)3
_chemical_formula_sum   'Eu8 H24 C72 S12 O48'
_cell_volume   3177.38285272
_cell_formula_units_Z   4
loop_
 _symmetry_equiv_pos_site_id
 _symmetry_equiv_pos_as_xyz
  1  'x, y, z'
loop_
 _atom_site_type_symbol
 _atom_site_label
 _atom_site_symmetry_multiplicity
 _atom_site_fract_x
 _atom_site_fract_y
 _atom_site_fract_z
 _atom_site_occupancy
 _atom_site_charge
  Eu  Eu1  1  0.869870  0.924290  0.515740  1.0  2.16
  Eu  Eu2  1  0.572930  0.110610  0.985660  1.0  2.178
  Eu  Eu3  1  0.369870  0.575710  0.984260  1.0  2.16
  Eu  Eu4  1  0.072930  0.389390  0.514340  1.0  2.1782
  Eu  Eu5  1  0.130130  0.075710  0.484260  1.0  2.1606
  Eu  Eu6  1  0.427070  0.889390  0.014340  1.0  2.1753
  Eu  Eu7  1  0.630130  0.424290  0.015740  1.0  2.1608
  Eu  Eu8  1  0.927070  0.610610  0.485660  1.0  2.1751
  H  H9  1  0.955200  0.278300  0.695800  1.0  0.103
  H  H10  1  0.874300  0.329400  0.827200  1.0  0.1238
  H  H11  1  0.101500  0.926400  0.829400  1.0  0.1201
  H  H12  1  0.029100  0.923400  0.701400  1.0  0.1024
  H  H13  1  0.649400  0.770800  0.840800  1.0  0.1152
  H  H14  1  0.759400  0.700500  0.721800  1.0  0.1063
  H  H15  1  0.455200  0.221700  0.804200  1.0  0.1031
  H  H16  1  0.374300  0.170600  0.672800  1.0  0.1233
  H  H17  1  0.601500  0.573600  0.670600  1.0  0.1203
  H  H18  1  0.529100  0.576600  0.798600  1.0  0.1018
  H  H19  1  0.149400  0.729200  0.659200  1.0  0.1148
  H  H20  1  0.259400  0.799500  0.778200  1.0  0.1031
  H  H21  1  0.044800  0.721700  0.304200  1.0  0.1031
  H  H22  1  0.125700  0.670600  0.172800  1.0  0.1229
  H  H23  1  0.898500  0.073600  0.170600  1.0  0.1206
  H  H24  1  0.970900  0.076600  0.298600  1.0  0.1022
  H  H25  1  0.350600  0.229200  0.159200  1.0  0.1154
  H  H26  1  0.240600  0.299500  0.278200  1.0  0.1051
  H  H27  1  0.544800  0.778300  0.195800  1.0  0.1032
  H  H28  1  0.625700  0.829400  0.327200  1.0  0.1235
  H  H29  1  0.398500  0.426400  0.329400  1.0  0.1203
  H  H30  1  0.470900  0.423400  0.201400  1.0  0.1027
  H  H31  1  0.850600  0.270800  0.340800  1.0  0.1156
  H  H32  1  0.740600  0.200500  0.221800  1.0  0.1041
  C  C33  1  0.891800  0.118000  0.613800  1.0  0.7305
  C  C34  1  0.863600  0.173100  0.692000  1.0  -0.1502
  C  C35  1  0.904100  0.249600  0.721200  1.0  -0.1067
  C  C36  1  0.855500  0.278200  0.797000  1.0  -0.0613
  C  C37  1  0.780300  0.227700  0.823700  1.0  -0.1968
  C  C38  1  0.708700  0.240400  0.896600  1.0  0.7951
  C  C39  1  0.336800  0.995900  0.884800  1.0  0.7807
  C  C40  1  0.261500  0.985300  0.812600  1.0  -0.2025
  C  C41  1  0.146100  0.948400  0.795100  1.0  -0.0734
  C  C42  1  0.103800  0.947300  0.722100  1.0  -0.0311
  C  C43  1  0.183000  0.985000  0.683900  1.0  -0.1825
  C  C44  1  0.166800  0.998100  0.609200  1.0  0.7291
  C  C45  1  0.655700  0.939600  0.887500  1.0  0.7306
  C  C46  1  0.697900  0.877500  0.821900  1.0  -0.2
  C  C47  1  0.690600  0.796900  0.808300  1.0  -0.0653
  C  C48  1  0.752600  0.756000  0.739000  1.0  -0.0504
  C  C49  1  0.802400  0.809900  0.699800  1.0  -0.1948
  C  C50  1  0.864200  0.790300  0.624900  1.0  0.7524
  C  C51  1  0.391800  0.382000  0.886200  1.0  0.7309
  C  C52  1  0.363600  0.326900  0.808000  1.0  -0.1506
  C  C53  1  0.404100  0.250400  0.778800  1.0  -0.1072
  C  C54  1  0.355500  0.221800  0.703000  1.0  -0.0622
  C  C55  1  0.280300  0.272300  0.676300  1.0  -0.1971
  C  C56  1  0.208700  0.259600  0.603400  1.0  0.7946
  C  C57  1  0.836800  0.504100  0.615200  1.0  0.7813
  C  C58  1  0.761500  0.514700  0.687400  1.0  -0.202
  C  C59  1  0.646100  0.551600  0.704900  1.0  -0.0723
  C  C60  1  0.603800  0.552700  0.777900  1.0  -0.0314
  C  C61  1  0.683000  0.515000  0.816100  1.0  -0.1826
  C  C62  1  0.666800  0.501900  0.890800  1.0  0.7296
  C  C63  1  0.155700  0.560400  0.612500  1.0  0.7309
  C  C64  1  0.197900  0.622500  0.678100  1.0  -0.1987
  C  C65  1  0.190600  0.703100  0.691700  1.0  -0.0653
  C  C66  1  0.252600  0.744000  0.761000  1.0  -0.0509
  C  C67  1  0.302400  0.690100  0.800200  1.0  -0.1939
  C  C68  1  0.364200  0.709700  0.875100  1.0  0.7546
  C  C69  1  0.108200  0.882000  0.386200  1.0  0.731
  C  C70  1  0.136400  0.826900  0.308000  1.0  -0.1521
  C  C71  1  0.095900  0.750400  0.278800  1.0  -0.1065
  C  C72  1  0.144500  0.721800  0.203000  1.0  -0.0633
  C  C73  1  0.219700  0.772300  0.176300  1.0  -0.1971
  C  C74  1  0.291300  0.759600  0.103400  1.0  0.7945
  C  C75  1  0.663200  0.004100  0.115200  1.0  0.7822
  C  C76  1  0.738500  0.014700  0.187400  1.0  -0.2029
  C  C77  1  0.853900  0.051600  0.204900  1.0  -0.0728
  C  C78  1  0.896200  0.052700  0.277900  1.0  -0.0326
  C  C79  1  0.817000  0.015000  0.316100  1.0  -0.1827
  C  C80  1  0.833200  0.001900  0.390800  1.0  0.7295
  C  C81  1  0.344300  0.060400  0.112500  1.0  0.7311
  C  C82  1  0.302100  0.122500  0.178100  1.0  -0.1993
  C  C83  1  0.309400  0.203100  0.191700  1.0  -0.0647
  C  C84  1  0.247400  0.244000  0.261000  1.0  -0.0508
  C  C85  1  0.197600  0.190100  0.300200  1.0  -0.1935
  C  C86  1  0.135800  0.209700  0.375100  1.0  0.7547
  C  C87  1  0.608200  0.618000  0.113800  1.0  0.7304
  C  C88  1  0.636400  0.673100  0.192000  1.0  -0.1505
  C  C89  1  0.595900  0.749600  0.221200  1.0  -0.1062
  C  C90  1  0.644500  0.778200  0.297000  1.0  -0.062
  C  C91  1  0.719700  0.727700  0.323700  1.0  -0.1971
  C  C92  1  0.791300  0.740400  0.396600  1.0  0.7941
  C  C93  1  0.163200  0.495900  0.384800  1.0  0.7815
  C  C94  1  0.238500  0.485300  0.312600  1.0  -0.2027
  C  C95  1  0.353900  0.448400  0.295100  1.0  -0.0731
  C  C96  1  0.396200  0.447300  0.222100  1.0  -0.0325
  C  C97  1  0.317000  0.485000  0.183900  1.0  -0.1824
  C  C98  1  0.333200  0.498100  0.109200  1.0  0.7292
  C  C99  1  0.844300  0.439600  0.387500  1.0  0.7311
  C  C100  1  0.802100  0.377500  0.321900  1.0  -0.2006
  C  C101  1  0.809400  0.296900  0.308300  1.0  -0.0642
  C  C102  1  0.747400  0.256000  0.239000  1.0  -0.0503
  C  C103  1  0.697600  0.309900  0.199800  1.0  -0.1945
  C  C104  1  0.635800  0.290300  0.124900  1.0  0.7535
  S  S105  1  0.762100  0.141390  0.751430  1.0  0.1735
  S  S106  1  0.312800  0.020210  0.739560  1.0  0.1769
  S  S107  1  0.777400  0.906160  0.750910  1.0  0.1681
  S  S108  1  0.262100  0.358610  0.748570  1.0  0.174
  S  S109  1  0.812800  0.479790  0.760440  1.0  0.1771
  S  S110  1  0.277400  0.593840  0.749090  1.0  0.1674
  S  S111  1  0.237900  0.858610  0.248570  1.0  0.1738
  S  S112  1  0.687200  0.979790  0.260440  1.0  0.1779
  S  S113  1  0.222600  0.093840  0.249090  1.0  0.1673
  S  S114  1  0.737900  0.641390  0.251430  1.0  0.1735
  S  S115  1  0.187200  0.520210  0.239560  1.0  0.1778
  S  S116  1  0.722600  0.406160  0.250910  1.0  0.1678
  O  O117  1  0.838000  0.052200  0.595700  1.0  -0.743
  O  O118  1  0.976300  0.144500  0.575400  1.0  -0.6996
  O  O119  1  0.641800  0.183000  0.904200  1.0  -0.6661
  O  O120  1  0.726700  0.305000  0.947700  1.0  -0.7413
  O  O121  1  0.310100  0.953300  0.930800  1.0  -0.7101
  O  O122  1  0.423500  0.046000  0.892900  1.0  -0.7178
  O  O123  1  0.066500  0.980100  0.573000  1.0  -0.7931
  O  O124  1  0.249200  0.034400  0.582600  1.0  -0.6155
  O  O125  1  0.686200  0.010600  0.894300  1.0  -0.6263
  O  O126  1  0.578600  0.918700  0.934500  1.0  -0.7789
  O  O127  1  0.879600  0.716900  0.590000  1.0  -0.7518
  O  O128  1  0.904200  0.846000  0.601000  1.0  -0.6853
  O  O129  1  0.338000  0.447800  0.904300  1.0  -0.7429
  O  O130  1  0.476300  0.355500  0.924600  1.0  -0.6991
  O  O131  1  0.141800  0.317000  0.595800  1.0  -0.665
  O  O132  1  0.226700  0.195000  0.552300  1.0  -0.741
  O  O133  1  0.810100  0.546700  0.569200  1.0  -0.7104
  O  O134  1  0.923500  0.454000  0.607100  1.0  -0.7172
  O  O135  1  0.566500  0.519900  0.927000  1.0  -0.7937
  O  O136  1  0.749200  0.465600  0.917400  1.0  -0.615
  O  O137  1  0.186200  0.489400  0.605700  1.0  -0.6263
  O  O138  1  0.078600  0.581300  0.565500  1.0  -0.7791
  O  O139  1  0.379600  0.783100  0.910000  1.0  -0.7554
  O  O140  1  0.404200  0.654000  0.899000  1.0  -0.6846
  O  O141  1  0.162000  0.947800  0.404300  1.0  -0.7443
  O  O142  1  0.023700  0.855500  0.424600  1.0  -0.6995
  O  O143  1  0.358200  0.817000  0.095800  1.0  -0.6671
  O  O144  1  0.273300  0.695000  0.052300  1.0  -0.7415
  O  O145  1  0.689900  0.046700  0.069200  1.0  -0.7104
  O  O146  1  0.576500  0.954000  0.107100  1.0  -0.7171
  O  O147  1  0.933500  0.019900  0.427000  1.0  -0.7957
  O  O148  1  0.750800  0.965600  0.417400  1.0  -0.6167
  O  O149  1  0.313800  0.989400  0.105700  1.0  -0.625
  O  O150  1  0.421400  0.081300  0.065500  1.0  -0.778
  O  O151  1  0.120400  0.283100  0.410000  1.0  -0.7539
  O  O152  1  0.095800  0.154000  0.399000  1.0  -0.6832
  O  O153  1  0.662000  0.552200  0.095700  1.0  -0.7438
  O  O154  1  0.523700  0.644500  0.075400  1.0  -0.699
  O  O155  1  0.858200  0.683000  0.404200  1.0  -0.6677
  O  O156  1  0.773300  0.805000  0.447700  1.0  -0.7402
  O  O157  1  0.189900  0.453300  0.430800  1.0  -0.7111
  O  O158  1  0.076500  0.546000  0.392900  1.0  -0.7167
  O  O159  1  0.433500  0.480100  0.073000  1.0  -0.795
  O  O160  1  0.250800  0.534400  0.082600  1.0  -0.6165
  O  O161  1  0.813800  0.510600  0.394300  1.0  -0.6266
  O  O162  1  0.921400  0.418700  0.434500  1.0  -0.7774
  O  O163  1  0.620400  0.216900  0.090000  1.0  -0.7508
  O  O164  1  0.595800  0.346000  0.101000  1.0  -0.6834
