# generated using pymatgen
data_Yb2H6C18(SO4)3
_symmetry_space_group_name_H-M   'P 1'
_cell_length_a   11.49200000
_cell_length_b   17.32600000
_cell_length_c   17.32600000
_cell_angle_alpha   106.05000000
_cell_angle_beta   90.00000000
_cell_angle_gamma   90.00000000
_symmetry_Int_Tables_number   1
_chemical_formula_structural   Yb2H6C18(SO4)3
_chemical_formula_sum   'Yb8 H24 C72 S12 O48'
_cell_volume   3315.31669681
_cell_formula_units_Z   4
loop_
 _symmetry_equiv_pos_site_id
 _symmetry_equiv_pos_as_xyz
  1  'x, y, z'
loop_
 _atom_site_type_symbol
 _atom_site_label
 _atom_site_symmetry_multiplicity
 _atom_site_fract_x
 _atom_site_fract_y
 _atom_site_fract_z
 _atom_site_occupancy
 _atom_site_charge
  Yb  Yb1  1  0.393670  0.084270  0.990540  1.0  1.5127
  Yb  Yb2  1  0.944780  0.108910  0.484990  1.0  1.5217
  Yb  Yb3  1  0.893670  0.415730  0.509460  1.0  1.5122
  Yb  Yb4  1  0.444780  0.391090  0.015010  1.0  1.5215
  Yb  Yb5  1  0.606330  0.915730  0.009460  1.0  1.5127
  Yb  Yb6  1  0.055220  0.891090  0.515010  1.0  1.5222
  Yb  Yb7  1  0.106330  0.584270  0.490540  1.0  1.5127
  Yb  Yb8  1  0.555220  0.608910  0.984990  1.0  1.5226
  H  H9  1  0.462600  0.919100  0.212400  1.0  0.1082
  H  H10  1  0.369400  0.908600  0.337100  1.0  0.1311
  H  H11  1  0.158300  0.226400  0.663300  1.0  0.1281
  H  H12  1  0.270800  0.297000  0.783900  1.0  0.111
  H  H13  1  0.621500  0.273300  0.174700  1.0  0.1121
  H  H14  1  0.712800  0.326500  0.306300  1.0  0.1103
  H  H15  1  0.962600  0.580900  0.287600  1.0  0.1077
  H  H16  1  0.869400  0.591400  0.162900  1.0  0.132
  H  H17  1  0.658300  0.273600  0.836700  1.0  0.1278
  H  H18  1  0.770800  0.203000  0.716100  1.0  0.1112
  H  H19  1  0.121500  0.226700  0.325300  1.0  0.112
  H  H20  1  0.212800  0.173500  0.193700  1.0  0.1102
  H  H21  1  0.537400  0.080900  0.787600  1.0  0.1075
  H  H22  1  0.630600  0.091400  0.662900  1.0  0.1324
  H  H23  1  0.841700  0.773600  0.336700  1.0  0.1278
  H  H24  1  0.729200  0.703000  0.216100  1.0  0.1084
  H  H25  1  0.378500  0.726700  0.825300  1.0  0.1125
  H  H26  1  0.287200  0.673500  0.693700  1.0  0.11
  H  H27  1  0.037400  0.419100  0.712400  1.0  0.108
  H  H28  1  0.130600  0.408600  0.837100  1.0  0.1319
  H  H29  1  0.341700  0.726400  0.163300  1.0  0.1281
  H  H30  1  0.229200  0.797000  0.283900  1.0  0.1081
  H  H31  1  0.878500  0.773300  0.674700  1.0  0.1123
  H  H32  1  0.787200  0.826500  0.806300  1.0  0.1103
  C  C33  1  0.356700  0.012100  0.117800  1.0  0.7328
  C  C34  1  0.331400  0.990300  0.193700  1.0  -0.1662
  C  C35  1  0.392800  0.944300  0.231800  1.0  -0.0269
  C  C36  1  0.339300  0.938500  0.304600  1.0  -0.0709
  C  C37  1  0.239600  0.981500  0.320500  1.0  -0.1631
  C  C38  1  0.158700  0.988500  0.390700  1.0  0.7327
  C  C39  1  0.141600  0.060200  0.613000  1.0  0.7333
  C  C40  1  0.201300  0.120300  0.681600  1.0  -0.1497
  C  C41  1  0.197700  0.200400  0.695700  1.0  -0.0746
  C  C42  1  0.261400  0.241600  0.766400  1.0  -0.0281
  C  C43  1  0.306600  0.189300  0.805000  1.0  -0.2043
  C  C44  1  0.371800  0.211100  0.880700  1.0  0.7427
  C  C45  1  0.638500  0.109900  0.095300  1.0  0.7398
  C  C46  1  0.683700  0.164300  0.170800  1.0  -0.1537
  C  C47  1  0.664800  0.242400  0.200500  1.0  -0.0586
  C  C48  1  0.718900  0.273000  0.276600  1.0  -0.0144
  C  C49  1  0.779700  0.218600  0.302100  1.0  -0.1919
  C  C50  1  0.837900  0.228500  0.379700  1.0  0.7647
  C  C51  1  0.856700  0.487900  0.382200  1.0  0.7293
  C  C52  1  0.831400  0.509700  0.306300  1.0  -0.1665
  C  C53  1  0.892800  0.555700  0.268200  1.0  -0.0268
  C  C54  1  0.839300  0.561500  0.195400  1.0  -0.0697
  C  C55  1  0.739600  0.518500  0.179500  1.0  -0.1618
  C  C56  1  0.658700  0.511500  0.109300  1.0  0.733
  C  C57  1  0.641600  0.439800  0.887000  1.0  0.7336
  C  C58  1  0.701300  0.379700  0.818400  1.0  -0.1498
  C  C59  1  0.697700  0.299600  0.804300  1.0  -0.0751
  C  C60  1  0.761400  0.258400  0.733600  1.0  -0.0281
  C  C61  1  0.806600  0.310700  0.695000  1.0  -0.2048
  C  C62  1  0.871800  0.288900  0.619300  1.0  0.7414
  C  C63  1  0.138500  0.390100  0.404700  1.0  0.7399
  C  C64  1  0.183700  0.335700  0.329200  1.0  -0.1537
  C  C65  1  0.164800  0.257600  0.299500  1.0  -0.0596
  C  C66  1  0.218900  0.227000  0.223400  1.0  -0.0142
  C  C67  1  0.279700  0.281400  0.197900  1.0  -0.192
  C  C68  1  0.337900  0.271500  0.120300  1.0  0.7634
  C  C69  1  0.643300  0.987900  0.882200  1.0  0.7345
  C  C70  1  0.668600  0.009700  0.806300  1.0  -0.1664
  C  C71  1  0.607200  0.055700  0.768200  1.0  -0.0271
  C  C72  1  0.660700  0.061500  0.695400  1.0  -0.0703
  C  C73  1  0.760400  0.018500  0.679500  1.0  -0.1603
  C  C74  1  0.841300  0.011500  0.609300  1.0  0.733
  C  C75  1  0.858400  0.939800  0.387000  1.0  0.7312
  C  C76  1  0.798700  0.879700  0.318400  1.0  -0.1494
  C  C77  1  0.802300  0.799600  0.304300  1.0  -0.0748
  C  C78  1  0.738600  0.758400  0.233600  1.0  -0.0287
  C  C79  1  0.693400  0.810700  0.195000  1.0  -0.2044
  C  C80  1  0.628200  0.788900  0.119300  1.0  0.7415
  C  C81  1  0.361500  0.890100  0.904700  1.0  0.7404
  C  C82  1  0.316300  0.835700  0.829200  1.0  -0.1535
  C  C83  1  0.335200  0.757600  0.799500  1.0  -0.0607
  C  C84  1  0.281100  0.727000  0.723400  1.0  -0.0147
  C  C85  1  0.220300  0.781400  0.697900  1.0  -0.192
  C  C86  1  0.162100  0.771500  0.620300  1.0  0.7647
  C  C87  1  0.143300  0.512100  0.617800  1.0  0.7291
  C  C88  1  0.168600  0.490300  0.693700  1.0  -0.1661
  C  C89  1  0.107200  0.444300  0.731800  1.0  -0.0272
  C  C90  1  0.160700  0.438500  0.804600  1.0  -0.0719
  C  C91  1  0.260400  0.481500  0.820500  1.0  -0.1621
  C  C92  1  0.341300  0.488500  0.890700  1.0  0.7326
  C  C93  1  0.358400  0.560200  0.113000  1.0  0.7309
  C  C94  1  0.298700  0.620300  0.181600  1.0  -0.1495
  C  C95  1  0.302300  0.700400  0.195700  1.0  -0.0748
  C  C96  1  0.238600  0.741600  0.266400  1.0  -0.0287
  C  C97  1  0.193400  0.689300  0.305000  1.0  -0.2038
  C  C98  1  0.128200  0.711100  0.380700  1.0  0.7429
  C  C99  1  0.861500  0.609900  0.595300  1.0  0.7402
  C  C100  1  0.816300  0.664300  0.670800  1.0  -0.1536
  C  C101  1  0.835200  0.742400  0.700500  1.0  -0.0597
  C  C102  1  0.781100  0.773000  0.776600  1.0  -0.015
  C  C103  1  0.720300  0.718600  0.802100  1.0  -0.1918
  C  C104  1  0.662100  0.728500  0.879700  1.0  0.7659
  S  S105  1  0.210600  0.028900  0.248850  1.0  0.1863
  S  S106  1  0.281700  0.092520  0.751640  1.0  0.1809
  S  S107  1  0.770000  0.126440  0.233440  1.0  0.1897
  S  S108  1  0.710600  0.471100  0.251150  1.0  0.1864
  S  S109  1  0.781700  0.407480  0.748360  1.0  0.1799
  S  S110  1  0.270000  0.373560  0.266560  1.0  0.1895
  S  S111  1  0.789400  0.971100  0.751150  1.0  0.1855
  S  S112  1  0.718300  0.907480  0.248360  1.0  0.1804
  S  S113  1  0.230000  0.873560  0.766560  1.0  0.1896
  S  S114  1  0.289400  0.528900  0.748850  1.0  0.1853
  S  S115  1  0.218300  0.592520  0.251640  1.0  0.181
  S  S116  1  0.730000  0.626440  0.733440  1.0  0.1895
  O  O117  1  0.286000  0.052000  0.092900  1.0  -0.5806
  O  O118  1  0.453900  0.991700  0.083400  1.0  -0.6857
  O  O119  1  0.080300  0.040900  0.395700  1.0  -0.655
  O  O120  1  0.172300  0.943600  0.435100  1.0  -0.5815
  O  O121  1  0.165500  0.988200  0.605900  1.0  -0.5822
  O  O122  1  0.072900  0.085100  0.570500  1.0  -0.6767
  O  O123  1  0.421800  0.154900  0.902800  1.0  -0.6513
  O  O124  1  0.375800  0.282600  0.919500  1.0  -0.5907
  O  O125  1  0.560700  0.136400  0.056600  1.0  -0.578
  O  O126  1  0.674800  0.038700  0.076500  1.0  -0.6263
  O  O127  1  0.845200  0.296100  0.426900  1.0  -0.621
  O  O128  1  0.872100  0.167700  0.396600  1.0  -0.606
  O  O129  1  0.786000  0.448000  0.407100  1.0  -0.5815
  O  O130  1  0.953900  0.508300  0.416600  1.0  -0.6876
  O  O131  1  0.580300  0.459100  0.104300  1.0  -0.6572
  O  O132  1  0.672300  0.556400  0.064900  1.0  -0.5817
  O  O133  1  0.665500  0.511800  0.894100  1.0  -0.5816
  O  O134  1  0.572900  0.414900  0.929500  1.0  -0.6778
  O  O135  1  0.921800  0.345100  0.597200  1.0  -0.6507
  O  O136  1  0.875800  0.217400  0.580500  1.0  -0.5939
  O  O137  1  0.060700  0.363600  0.443400  1.0  -0.5765
  O  O138  1  0.174800  0.461300  0.423500  1.0  -0.6262
  O  O139  1  0.345200  0.203900  0.073100  1.0  -0.6193
  O  O140  1  0.372100  0.332300  0.103400  1.0  -0.6047
  O  O141  1  0.714000  0.948000  0.907100  1.0  -0.582
  O  O142  1  0.546100  0.008300  0.916600  1.0  -0.6807
  O  O143  1  0.919700  0.959100  0.604300  1.0  -0.6552
  O  O144  1  0.827700  0.056400  0.564900  1.0  -0.5818
  O  O145  1  0.834500  0.011800  0.394100  1.0  -0.5814
  O  O146  1  0.927100  0.914900  0.429500  1.0  -0.677
  O  O147  1  0.578200  0.845100  0.097200  1.0  -0.6508
  O  O148  1  0.624200  0.717400  0.080500  1.0  -0.5952
  O  O149  1  0.439300  0.863600  0.943400  1.0  -0.575
  O  O150  1  0.325200  0.961300  0.923500  1.0  -0.6289
  O  O151  1  0.154800  0.703900  0.573100  1.0  -0.615
  O  O152  1  0.127900  0.832300  0.603400  1.0  -0.6035
  O  O153  1  0.214000  0.552000  0.592900  1.0  -0.5811
  O  O154  1  0.046100  0.491700  0.583400  1.0  -0.6799
  O  O155  1  0.419700  0.540900  0.895700  1.0  -0.6543
  O  O156  1  0.327700  0.443600  0.935100  1.0  -0.5806
  O  O157  1  0.334500  0.488200  0.105900  1.0  -0.5815
  O  O158  1  0.427100  0.585100  0.070500  1.0  -0.6775
  O  O159  1  0.078200  0.654900  0.402800  1.0  -0.6516
  O  O160  1  0.124200  0.782600  0.419500  1.0  -0.5905
  O  O161  1  0.939300  0.636400  0.556600  1.0  -0.5773
  O  O162  1  0.825200  0.538700  0.576500  1.0  -0.6278
  O  O163  1  0.654800  0.796100  0.926900  1.0  -0.6162
  O  O164  1  0.627900  0.667700  0.896600  1.0  -0.6053
