# generated using pymatgen
data_Zn3H14(C5O2)6
_symmetry_space_group_name_H-M   'P 1'
_cell_length_a   7.79400000
_cell_length_b   17.52400000
_cell_length_c   13.76300000
_cell_angle_alpha   90.00000000
_cell_angle_beta   101.39300000
_cell_angle_gamma   90.00000000
_symmetry_Int_Tables_number   1
_chemical_formula_structural   Zn3H14(C5O2)6
_chemical_formula_sum   'Zn6 H28 C60 O24'
_cell_volume   1842.73838821
_cell_formula_units_Z   2
loop_
 _symmetry_equiv_pos_site_id
 _symmetry_equiv_pos_as_xyz
  1  'x, y, z'
loop_
 _atom_site_type_symbol
 _atom_site_label
 _atom_site_symmetry_multiplicity
 _atom_site_fract_x
 _atom_site_fract_y
 _atom_site_fract_z
 _atom_site_occupancy
 _atom_site_charge
  Zn  Zn1  1  0.711300  0.962790  0.997440  1.0  1.0815
  Zn  Zn2  1  0.429330  0.908310  0.153910  1.0  1.0554
  Zn  Zn3  1  0.959700  0.023250  0.825930  1.0  1.0131
  Zn  Zn4  1  0.288700  0.462790  0.002560  1.0  1.0766
  Zn  Zn5  1  0.570670  0.408310  0.846090  1.0  1.0566
  Zn  Zn6  1  0.040300  0.523250  0.174070  1.0  1.0203
  H  H7  1  0.574200  0.189300  0.017700  1.0  0.1065
  H  H8  1  0.514800  0.357400  0.207200  1.0  0.1082
  H  H9  1  0.459600  0.137000  0.282000  1.0  0.1055
  H  H10  1  0.315500  0.374700  0.312900  1.0  0.1191
  H  H11  1  0.278800  0.416400  0.463900  1.0  0.0913
  H  H12  1  0.570600  0.244700  0.597200  1.0  0.1149
  H  H13  1  0.595500  0.196900  0.446600  1.0  0.091
  H  H14  1  0.937100  0.732500  0.996500  1.0  0.1128
  H  H15  1  0.034800  0.578100  0.798300  1.0  0.1066
  H  H16  1  0.993400  0.801000  0.728300  1.0  0.1022
  H  H17  1  0.178300  0.570200  0.671400  1.0  0.108
  H  H18  1  0.182800  0.536300  0.510900  1.0  0.0961
  H  H19  1  0.922700  0.728500  0.414900  1.0  0.1054
  H  H20  1  0.902300  0.758400  0.572700  1.0  0.0928
  H  H21  1  0.425800  0.689300  0.982300  1.0  0.1061
  H  H22  1  0.485200  0.857400  0.792800  1.0  0.1087
  H  H23  1  0.540400  0.637000  0.718000  1.0  0.1056
  H  H24  1  0.684500  0.874700  0.687100  1.0  0.1186
  H  H25  1  0.721200  0.916400  0.536100  1.0  0.0913
  H  H26  1  0.429400  0.744700  0.402800  1.0  0.115
  H  H27  1  0.404500  0.696900  0.553400  1.0  0.091
  H  H28  1  0.062900  0.232500  0.003500  1.0  0.1126
  H  H29  1  0.965200  0.078100  0.201700  1.0  0.1067
  H  H30  1  0.006600  0.301000  0.271700  1.0  0.1017
  H  H31  1  0.821700  0.070200  0.328600  1.0  0.1084
  H  H32  1  0.817200  0.036300  0.489100  1.0  0.0961
  H  H33  1  0.077300  0.228500  0.585100  1.0  0.1053
  H  H34  1  0.097700  0.258400  0.427300  1.0  0.0926
  C  C35  1  0.523500  0.150700  0.146600  1.0  -0.1498
  C  C36  1  0.552000  0.204600  0.078700  1.0  -0.0009
  C  C37  1  0.547700  0.282200  0.101200  1.0  -0.1322
  C  C38  1  0.517300  0.305600  0.192700  1.0  -0.0644
  C  C39  1  0.490300  0.251100  0.264000  1.0  0.0243
  C  C40  1  0.486600  0.173400  0.238300  1.0  -0.043
  C  C41  1  0.530100  0.067100  0.121600  1.0  0.7005
  C  C42  1  0.562400  0.340200  0.024200  1.0  0.6825
  C  C43  1  0.460800  0.278600  0.362900  1.0  0.0597
  C  C44  1  0.364100  0.347600  0.369700  1.0  -0.1855
  C  C45  1  0.344600  0.372600  0.460400  1.0  -0.0594
  C  C46  1  0.418000  0.335900  0.547500  1.0  -0.08
  C  C47  1  0.516200  0.269900  0.539900  1.0  -0.0756
  C  C48  1  0.533300  0.241900  0.449500  1.0  -0.1109
  C  C49  1  0.401400  0.369300  0.646500  1.0  0.7085
  C  C50  1  0.953300  0.778000  0.863900  1.0  -0.1526
  C  C51  1  0.958600  0.721100  0.934000  1.0  -0.0038
  C  C52  1  0.996500  0.646600  0.910100  1.0  -0.1446
  C  C53  1  0.017800  0.628700  0.814600  1.0  -0.0481
  C  C54  1  0.014200  0.685200  0.742700  1.0  0.0769
  C  C55  1  0.987500  0.761400  0.772400  1.0  -0.0648
  C  C56  1  0.906300  0.860100  0.887000  1.0  0.6939
  C  C57  1  0.020600  0.585300  0.987000  1.0  0.6801
  C  C58  1  0.035000  0.665800  0.640900  1.0  0.05
  C  C59  1  0.122500  0.601100  0.619800  1.0  -0.1449
  C  C60  1  0.128400  0.581500  0.523100  1.0  -0.0444
  C  C61  1  0.055500  0.627600  0.444600  1.0  -0.0951
  C  C62  1  0.971000  0.695800  0.466300  1.0  -0.064
  C  C63  1  0.959800  0.714000  0.560500  1.0  -0.1292
  C  C64  1  0.060200  0.608200  0.338500  1.0  0.6928
  C  C65  1  0.476500  0.650700  0.853400  1.0  -0.1497
  C  C66  1  0.448000  0.704600  0.921300  1.0  -0.0016
  C  C67  1  0.452300  0.782200  0.898800  1.0  -0.133
  C  C68  1  0.482700  0.805600  0.807300  1.0  -0.0637
  C  C69  1  0.509700  0.751100  0.736000  1.0  0.0244
  C  C70  1  0.513400  0.673400  0.761700  1.0  -0.0427
  C  C71  1  0.469900  0.567100  0.878400  1.0  0.7023
  C  C72  1  0.437600  0.840200  0.975800  1.0  0.6826
  C  C73  1  0.539200  0.778600  0.637100  1.0  0.0607
  C  C74  1  0.635900  0.847600  0.630300  1.0  -0.1862
  C  C75  1  0.655400  0.872600  0.539600  1.0  -0.0623
  C  C76  1  0.582000  0.835900  0.452500  1.0  -0.0801
  C  C77  1  0.483800  0.769900  0.460100  1.0  -0.0744
  C  C78  1  0.466700  0.741900  0.550500  1.0  -0.1084
  C  C79  1  0.598600  0.869300  0.353500  1.0  0.7084
  C  C80  1  0.046700  0.278000  0.136100  1.0  -0.152
  C  C81  1  0.041400  0.221100  0.066000  1.0  -0.003
  C  C82  1  0.003500  0.146600  0.089900  1.0  -0.147
  C  C83  1  0.982200  0.128700  0.185400  1.0  -0.0498
  C  C84  1  0.985800  0.185200  0.257300  1.0  0.0765
  C  C85  1  0.012500  0.261400  0.227600  1.0  -0.0654
  C  C86  1  0.093700  0.360100  0.113000  1.0  0.6958
  C  C87  1  0.979400  0.085300  0.013000  1.0  0.6803
  C  C88  1  0.965000  0.165800  0.359100  1.0  0.0503
  C  C89  1  0.877500  0.101100  0.380200  1.0  -0.1443
  C  C90  1  0.871600  0.081500  0.476900  1.0  -0.043
  C  C91  1  0.944500  0.127600  0.555400  1.0  -0.0962
  C  C92  1  0.029000  0.195800  0.533700  1.0  -0.0652
  C  C93  1  0.040200  0.214000  0.439500  1.0  -0.1301
  C  C94  1  0.939800  0.108200  0.661500  1.0  0.6923
  O  O95  1  0.466500  0.018300  0.170700  1.0  -0.6232
  O  O96  1  0.605200  0.052600  0.049100  1.0  -0.6369
  O  O97  1  0.597600  0.319700  0.942700  1.0  -0.5982
  O  O98  1  0.536500  0.410900  0.040800  1.0  -0.6576
  O  O99  1  0.272500  0.408800  0.653600  1.0  -0.5274
  O  O100  1  0.526400  0.353600  0.718900  1.0  -0.6171
  O  O101  1  0.830000  0.869500  0.957400  1.0  -0.6045
  O  O102  1  0.945500  0.909600  0.831100  1.0  -0.6116
  O  O103  1  0.015500  0.605400  0.074200  1.0  -0.6041
  O  O104  1  0.045200  0.517400  0.964000  1.0  -0.6115
  O  O105  1  0.091800  0.541200  0.317600  1.0  -0.6001
  O  O106  1  0.037400  0.660300  0.275000  1.0  -0.4952
  O  O107  1  0.533500  0.518300  0.829300  1.0  -0.6233
  O  O108  1  0.394800  0.552600  0.950900  1.0  -0.6378
  O  O109  1  0.402400  0.819700  0.057300  1.0  -0.5973
  O  O110  1  0.463500  0.910900  0.959200  1.0  -0.6582
  O  O111  1  0.727500  0.908800  0.346400  1.0  -0.527
  O  O112  1  0.473600  0.853600  0.281100  1.0  -0.6177
  O  O113  1  0.170000  0.369500  0.042600  1.0  -0.6067
  O  O114  1  0.054500  0.409600  0.168900  1.0  -0.6134
  O  O115  1  0.984500  0.105400  0.925800  1.0  -0.6042
  O  O116  1  0.954800  0.017400  0.036000  1.0  -0.6114
  O  O117  1  0.908200  0.041200  0.682400  1.0  -0.5977
  O  O118  1  0.962600  0.160300  0.725000  1.0  -0.4928
