# generated using pymatgen
data_Ni3H24(C22O5)2
_symmetry_space_group_name_H-M   'P 1'
_cell_length_a   42.61000000
_cell_length_b   6.32000000
_cell_length_c   25.20200000
_cell_angle_alpha   90.00000000
_cell_angle_beta   126.22900000
_cell_angle_gamma   90.00000000
_symmetry_Int_Tables_number   1
_chemical_formula_structural   Ni3H24(C22O5)2
_chemical_formula_sum   'Ni12 H96 C176 O40'
_cell_volume   5474.63070599
_cell_formula_units_Z   4
loop_
 _symmetry_equiv_pos_site_id
 _symmetry_equiv_pos_as_xyz
  1  'x, y, z'
loop_
 _atom_site_type_symbol
 _atom_site_label
 _atom_site_symmetry_multiplicity
 _atom_site_fract_x
 _atom_site_fract_y
 _atom_site_fract_z
 _atom_site_occupancy
 _atom_site_charge
  Ni  Ni1  1  0.242690  0.750060  0.551940  1.0  0.9626
  Ni  Ni2  1  0.742690  0.250060  0.551940  1.0  0.9626
  Ni  Ni3  1  0.757310  0.750060  0.948060  1.0  0.9629
  Ni  Ni4  1  0.257310  0.250060  0.948060  1.0  0.9629
  Ni  Ni5  1  0.757310  0.249940  0.448060  1.0  0.9634
  Ni  Ni6  1  0.257310  0.749940  0.448060  1.0  0.9634
  Ni  Ni7  1  0.242690  0.249940  0.051940  1.0  0.9625
  Ni  Ni8  1  0.742690  0.749940  0.051940  1.0  0.9625
  Ni  Ni9  1  0.250000  0.250000  0.500000  1.0  1.0536
  Ni  Ni10  1  0.750000  0.250000  0.000000  1.0  1.0541
  Ni  Ni11  1  0.750000  0.750000  0.500000  1.0  1.0536
  Ni  Ni12  1  0.250000  0.750000  0.000000  1.0  1.0541
  H  H13  1  0.593700  0.004500  0.731400  1.0  0.1167
  H  H14  1  0.640900  0.691900  0.766100  1.0  0.112
  H  H15  1  0.578600  0.612500  0.672400  1.0  0.1169
  H  H16  1  0.654700  0.086200  0.826100  1.0  0.1191
  H  H17  1  0.593100  0.899900  0.545500  1.0  0.1023
  H  H18  1  0.362200  0.085600  0.556400  1.0  0.1198
  H  H19  1  0.597600  0.089000  0.625600  1.0  0.1082
  H  H20  1  0.422000  0.007600  0.577100  1.0  0.1096
  H  H21  1  0.375900  0.698500  0.529600  1.0  0.1018
  H  H22  1  0.508800  0.396600  0.653900  1.0  0.1246
  H  H23  1  0.434800  0.620200  0.546000  1.0  0.1143
  H  H24  1  0.292920  0.937000  0.561200  1.0  0.287
  H  H25  1  0.093700  0.504500  0.731400  1.0  0.1167
  H  H26  1  0.140900  0.191900  0.766100  1.0  0.112
  H  H27  1  0.078600  0.112500  0.672400  1.0  0.1169
  H  H28  1  0.154700  0.586200  0.826100  1.0  0.1191
  H  H29  1  0.093100  0.399900  0.545500  1.0  0.1023
  H  H30  1  0.862200  0.585600  0.556400  1.0  0.1198
  H  H31  1  0.097600  0.589000  0.625600  1.0  0.1082
  H  H32  1  0.922000  0.507600  0.577100  1.0  0.1096
  H  H33  1  0.875900  0.198500  0.529600  1.0  0.1018
  H  H34  1  0.008800  0.896600  0.653900  1.0  0.1246
  H  H35  1  0.934800  0.120200  0.546000  1.0  0.1143
  H  H36  1  0.792920  0.437000  0.561200  1.0  0.287
  H  H37  1  0.406300  0.004500  0.768600  1.0  0.1159
  H  H38  1  0.359100  0.691900  0.733900  1.0  0.1118
  H  H39  1  0.421400  0.612500  0.827600  1.0  0.117
  H  H40  1  0.345300  0.086200  0.673900  1.0  0.1206
  H  H41  1  0.406900  0.899900  0.954500  1.0  0.1018
  H  H42  1  0.637800  0.085600  0.943600  1.0  0.1195
  H  H43  1  0.402400  0.089000  0.874400  1.0  0.1085
  H  H44  1  0.578000  0.007600  0.922900  1.0  0.1097
  H  H45  1  0.624100  0.698500  0.970400  1.0  0.1019
  H  H46  1  0.491200  0.396600  0.846100  1.0  0.1242
  H  H47  1  0.565200  0.620200  0.954000  1.0  0.1147
  H  H48  1  0.707080  0.937000  0.938800  1.0  0.2875
  H  H49  1  0.906300  0.504500  0.768600  1.0  0.1159
  H  H50  1  0.859100  0.191900  0.733900  1.0  0.1118
  H  H51  1  0.921400  0.112500  0.827600  1.0  0.117
  H  H52  1  0.845300  0.586200  0.673900  1.0  0.1206
  H  H53  1  0.906900  0.399900  0.954500  1.0  0.1018
  H  H54  1  0.137800  0.585600  0.943600  1.0  0.1195
  H  H55  1  0.902400  0.589000  0.874400  1.0  0.1085
  H  H56  1  0.078000  0.507600  0.922900  1.0  0.1097
  H  H57  1  0.124100  0.198500  0.970400  1.0  0.1019
  H  H58  1  0.991200  0.896600  0.846100  1.0  0.1242
  H  H59  1  0.065200  0.120200  0.954000  1.0  0.1147
  H  H60  1  0.207080  0.437000  0.938800  1.0  0.2875
  H  H61  1  0.406300  0.995500  0.268600  1.0  0.1164
  H  H62  1  0.359100  0.308100  0.233900  1.0  0.1121
  H  H63  1  0.421400  0.387500  0.327600  1.0  0.1175
  H  H64  1  0.345300  0.913800  0.173900  1.0  0.1208
  H  H65  1  0.406900  0.100100  0.454500  1.0  0.1019
  H  H66  1  0.637800  0.914400  0.443600  1.0  0.1193
  H  H67  1  0.402400  0.911000  0.374400  1.0  0.1088
  H  H68  1  0.578000  0.992400  0.422900  1.0  0.1103
  H  H69  1  0.624100  0.301500  0.470400  1.0  0.102
  H  H70  1  0.491200  0.603400  0.346100  1.0  0.1243
  H  H71  1  0.565200  0.379800  0.454000  1.0  0.1149
  H  H72  1  0.707080  0.063000  0.438800  1.0  0.2877
  H  H73  1  0.906300  0.495500  0.268600  1.0  0.1164
  H  H74  1  0.859100  0.808100  0.233900  1.0  0.1121
  H  H75  1  0.921400  0.887500  0.327600  1.0  0.1175
  H  H76  1  0.845300  0.413800  0.173900  1.0  0.1208
  H  H77  1  0.906900  0.600100  0.454500  1.0  0.1019
  H  H78  1  0.137800  0.414400  0.443600  1.0  0.1193
  H  H79  1  0.902400  0.411000  0.374400  1.0  0.1088
  H  H80  1  0.078000  0.492400  0.422900  1.0  0.1103
  H  H81  1  0.124100  0.801500  0.470400  1.0  0.102
  H  H82  1  0.991200  0.103400  0.346100  1.0  0.1243
  H  H83  1  0.065200  0.879800  0.454000  1.0  0.1149
  H  H84  1  0.207080  0.563000  0.438800  1.0  0.2877
  H  H85  1  0.593700  0.995500  0.231400  1.0  0.1167
  H  H86  1  0.640900  0.308100  0.266100  1.0  0.1122
  H  H87  1  0.578600  0.387500  0.172400  1.0  0.1169
  H  H88  1  0.654700  0.913800  0.326100  1.0  0.1188
  H  H89  1  0.593100  0.100100  0.045500  1.0  0.1021
  H  H90  1  0.362200  0.914400  0.056400  1.0  0.1194
  H  H91  1  0.597600  0.911000  0.125600  1.0  0.1083
  H  H92  1  0.422000  0.992400  0.077100  1.0  0.1099
  H  H93  1  0.375900  0.301500  0.029600  1.0  0.1017
  H  H94  1  0.508800  0.603400  0.153900  1.0  0.1246
  H  H95  1  0.434800  0.379800  0.046000  1.0  0.1144
  H  H96  1  0.292920  0.063000  0.061200  1.0  0.2866
  H  H97  1  0.093700  0.495500  0.231400  1.0  0.1167
  H  H98  1  0.140900  0.808100  0.266100  1.0  0.1122
  H  H99  1  0.078600  0.887500  0.172400  1.0  0.1169
  H  H100  1  0.154700  0.413800  0.326100  1.0  0.1188
  H  H101  1  0.093100  0.600100  0.045500  1.0  0.1021
  H  H102  1  0.862200  0.414400  0.056400  1.0  0.1194
  H  H103  1  0.097600  0.411000  0.125600  1.0  0.1083
  H  H104  1  0.922000  0.492400  0.077100  1.0  0.1099
  H  H105  1  0.875900  0.801500  0.029600  1.0  0.1017
  H  H106  1  0.008800  0.103400  0.153900  1.0  0.1246
  H  H107  1  0.934800  0.879800  0.046000  1.0  0.1144
  H  H108  1  0.792920  0.563000  0.061200  1.0  0.2866
  C  C109  1  0.603050  0.145790  0.738540  1.0  -0.0678
  C  C110  1  0.631170  0.551810  0.759360  1.0  -0.0312
  C  C111  1  0.594060  0.504160  0.703260  1.0  -0.1358
  C  C112  1  0.653610  0.397880  0.804740  1.0  -0.1223
  C  C113  1  0.639420  0.193390  0.794540  1.0  -0.0416
  C  C114  1  0.498770  0.937630  0.475410  1.0  0.0322
  C  C115  1  0.569880  0.939650  0.540210  1.0  -0.1028
  C  C116  1  0.376600  0.193720  0.553520  1.0  -0.0769
  C  C117  1  0.572550  0.052950  0.587360  1.0  -0.111
  C  C118  1  0.693760  0.449230  0.865050  1.0  0.6949
  C  C119  1  0.538590  0.122190  0.582000  1.0  -0.0301
  C  C120  1  0.412270  0.148090  0.565680  1.0  -0.0783
  C  C121  1  0.579710  0.300840  0.692270  1.0  0.0234
  C  C122  1  0.322120  0.447200  0.516760  1.0  0.7167
  C  C123  1  0.532960  0.875620  0.481580  1.0  0.0056
  C  C124  1  0.384730  0.556090  0.537100  1.0  -0.0252
  C  C125  1  0.506990  0.307410  0.621890  1.0  -0.0542
  C  C126  1  0.362290  0.399980  0.537120  1.0  -0.1085
  C  C127  1  0.420320  0.510300  0.547930  1.0  -0.1326
  C  C128  1  0.434310  0.304300  0.561490  1.0  0.0668
  C  C129  1  0.540760  0.243950  0.630290  1.0  -0.0355
  C  C130  1  0.470290  0.243560  0.567450  1.0  -0.0394
  C  C131  1  0.103050  0.645790  0.738540  1.0  -0.0678
  C  C132  1  0.131170  0.051810  0.759360  1.0  -0.0312
  C  C133  1  0.094060  0.004160  0.703260  1.0  -0.1358
  C  C134  1  0.153610  0.897880  0.804740  1.0  -0.1223
  C  C135  1  0.139420  0.693390  0.794540  1.0  -0.0416
  C  C136  1  0.998770  0.437630  0.475410  1.0  0.0322
  C  C137  1  0.069880  0.439650  0.540210  1.0  -0.1028
  C  C138  1  0.876600  0.693720  0.553520  1.0  -0.0769
  C  C139  1  0.072550  0.552950  0.587360  1.0  -0.111
  C  C140  1  0.193760  0.949230  0.865050  1.0  0.6949
  C  C141  1  0.038590  0.622190  0.582000  1.0  -0.0301
  C  C142  1  0.912270  0.648090  0.565680  1.0  -0.0783
  C  C143  1  0.079710  0.800840  0.692270  1.0  0.0234
  C  C144  1  0.822120  0.947200  0.516760  1.0  0.7167
  C  C145  1  0.032960  0.375620  0.481580  1.0  0.0056
  C  C146  1  0.884730  0.056090  0.537100  1.0  -0.0252
  C  C147  1  0.006990  0.807410  0.621890  1.0  -0.0542
  C  C148  1  0.862290  0.899980  0.537120  1.0  -0.1085
  C  C149  1  0.920320  0.010300  0.547930  1.0  -0.1326
  C  C150  1  0.934310  0.804300  0.561490  1.0  0.0668
  C  C151  1  0.040760  0.743950  0.630290  1.0  -0.0355
  C  C152  1  0.970290  0.743560  0.567450  1.0  -0.0394
  C  C153  1  0.396950  0.145790  0.761460  1.0  -0.068
  C  C154  1  0.368830  0.551810  0.740640  1.0  -0.0301
  C  C155  1  0.405940  0.504160  0.796740  1.0  -0.1358
  C  C156  1  0.346390  0.397880  0.695260  1.0  -0.1216
  C  C157  1  0.360580  0.193390  0.705460  1.0  -0.0414
  C  C158  1  0.501230  0.937630  0.024590  1.0  0.032
  C  C159  1  0.430120  0.939650  0.959790  1.0  -0.1043
  C  C160  1  0.623400  0.193720  0.946480  1.0  -0.0759
  C  C161  1  0.427450  0.052950  0.912640  1.0  -0.1111
  C  C162  1  0.306240  0.449230  0.634950  1.0  0.6935
  C  C163  1  0.461410  0.122190  0.918000  1.0  -0.0309
  C  C164  1  0.587730  0.148090  0.934320  1.0  -0.0792
  C  C165  1  0.420290  0.300840  0.807730  1.0  0.0235
  C  C166  1  0.677880  0.447200  0.983240  1.0  0.7161
  C  C167  1  0.467040  0.875620  0.018420  1.0  0.0052
  C  C168  1  0.615270  0.556090  0.962900  1.0  -0.0258
  C  C169  1  0.493010  0.307410  0.878110  1.0  -0.0527
  C  C170  1  0.637710  0.399980  0.962880  1.0  -0.1089
  C  C171  1  0.579680  0.510300  0.952070  1.0  -0.132
  C  C172  1  0.565690  0.304300  0.938510  1.0  0.067
  C  C173  1  0.459240  0.243950  0.869710  1.0  -0.0361
  C  C174  1  0.529710  0.243560  0.932550  1.0  -0.0403
  C  C175  1  0.896950  0.645790  0.761460  1.0  -0.068
  C  C176  1  0.868830  0.051810  0.740640  1.0  -0.0301
  C  C177  1  0.905940  0.004160  0.796740  1.0  -0.1358
  C  C178  1  0.846390  0.897880  0.695260  1.0  -0.1216
  C  C179  1  0.860580  0.693390  0.705460  1.0  -0.0414
  C  C180  1  0.001230  0.437630  0.024590  1.0  0.032
  C  C181  1  0.930120  0.439650  0.959790  1.0  -0.1043
  C  C182  1  0.123400  0.693720  0.946480  1.0  -0.0759
  C  C183  1  0.927450  0.552950  0.912640  1.0  -0.1111
  C  C184  1  0.806240  0.949230  0.634950  1.0  0.6935
  C  C185  1  0.961410  0.622190  0.918000  1.0  -0.0309
  C  C186  1  0.087730  0.648090  0.934320  1.0  -0.0792
  C  C187  1  0.920290  0.800840  0.807730  1.0  0.0235
  C  C188  1  0.177880  0.947200  0.983240  1.0  0.7161
  C  C189  1  0.967040  0.375620  0.018420  1.0  0.0052
  C  C190  1  0.115270  0.056090  0.962900  1.0  -0.0258
  C  C191  1  0.993010  0.807410  0.878110  1.0  -0.0527
  C  C192  1  0.137710  0.899980  0.962880  1.0  -0.1089
  C  C193  1  0.079680  0.010300  0.952070  1.0  -0.132
  C  C194  1  0.065690  0.804300  0.938510  1.0  0.067
  C  C195  1  0.959240  0.743950  0.869710  1.0  -0.0361
  C  C196  1  0.029710  0.743560  0.932550  1.0  -0.0403
  C  C197  1  0.396950  0.854210  0.261460  1.0  -0.0682
  C  C198  1  0.368830  0.448190  0.240640  1.0  -0.0295
  C  C199  1  0.405940  0.495840  0.296740  1.0  -0.1342
  C  C200  1  0.346390  0.602120  0.195260  1.0  -0.122
  C  C201  1  0.360580  0.806610  0.205460  1.0  -0.0412
  C  C202  1  0.501230  0.062370  0.524590  1.0  0.0321
  C  C203  1  0.430120  0.060350  0.459790  1.0  -0.1046
  C  C204  1  0.623400  0.806280  0.446480  1.0  -0.0759
  C  C205  1  0.427450  0.947050  0.412640  1.0  -0.1115
  C  C206  1  0.306240  0.550770  0.134950  1.0  0.693
  C  C207  1  0.461410  0.877810  0.418000  1.0  -0.031
  C  C208  1  0.587730  0.851910  0.434320  1.0  -0.0798
  C  C209  1  0.420290  0.699160  0.307730  1.0  0.0232
  C  C210  1  0.677880  0.552800  0.483240  1.0  0.716
  C  C211  1  0.467040  0.124380  0.518420  1.0  0.0052
  C  C212  1  0.615270  0.443910  0.462900  1.0  -0.0245
  C  C213  1  0.493010  0.692590  0.378110  1.0  -0.0528
  C  C214  1  0.637710  0.600020  0.462880  1.0  -0.1082
  C  C215  1  0.579680  0.489700  0.452070  1.0  -0.1303
  C  C216  1  0.565690  0.695700  0.438510  1.0  0.0666
  C  C217  1  0.459240  0.756050  0.369710  1.0  -0.0365
  C  C218  1  0.529710  0.756440  0.432550  1.0  -0.0404
  C  C219  1  0.896950  0.354210  0.261460  1.0  -0.0682
  C  C220  1  0.868830  0.948190  0.240640  1.0  -0.0295
  C  C221  1  0.905940  0.995840  0.296740  1.0  -0.1342
  C  C222  1  0.846390  0.102120  0.195260  1.0  -0.122
  C  C223  1  0.860580  0.306610  0.205460  1.0  -0.0412
  C  C224  1  0.001230  0.562370  0.524590  1.0  0.0321
  C  C225  1  0.930120  0.560350  0.459790  1.0  -0.1046
  C  C226  1  0.123400  0.306280  0.446480  1.0  -0.0759
  C  C227  1  0.927450  0.447050  0.412640  1.0  -0.1115
  C  C228  1  0.806240  0.050770  0.134950  1.0  0.693
  C  C229  1  0.961410  0.377810  0.418000  1.0  -0.031
  C  C230  1  0.087730  0.351910  0.434320  1.0  -0.0798
  C  C231  1  0.920290  0.199160  0.307730  1.0  0.0232
  C  C232  1  0.177880  0.052800  0.483240  1.0  0.716
  C  C233  1  0.967040  0.624380  0.518420  1.0  0.0052
  C  C234  1  0.115270  0.943910  0.462900  1.0  -0.0245
  C  C235  1  0.993010  0.192590  0.378110  1.0  -0.0528
  C  C236  1  0.137710  0.100020  0.462880  1.0  -0.1082
  C  C237  1  0.079680  0.989700  0.452070  1.0  -0.1303
  C  C238  1  0.065690  0.195700  0.438510  1.0  0.0666
  C  C239  1  0.959240  0.256050  0.369710  1.0  -0.0365
  C  C240  1  0.029710  0.256440  0.432550  1.0  -0.0404
  C  C241  1  0.603050  0.854210  0.238540  1.0  -0.0684
  C  C242  1  0.631170  0.448190  0.259360  1.0  -0.0301
  C  C243  1  0.594060  0.495840  0.203260  1.0  -0.1355
  C  C244  1  0.653610  0.602120  0.304740  1.0  -0.122
  C  C245  1  0.639420  0.806610  0.294540  1.0  -0.0426
  C  C246  1  0.498770  0.062370  0.975410  1.0  0.0322
  C  C247  1  0.569880  0.060350  0.040210  1.0  -0.1027
  C  C248  1  0.376600  0.806280  0.053520  1.0  -0.0766
  C  C249  1  0.572550  0.947050  0.087360  1.0  -0.1116
  C  C250  1  0.693760  0.550770  0.365050  1.0  0.6949
  C  C251  1  0.538590  0.877810  0.082000  1.0  -0.0302
  C  C252  1  0.412270  0.851910  0.065680  1.0  -0.0788
  C  C253  1  0.579710  0.699160  0.192270  1.0  0.023
  C  C254  1  0.322120  0.552800  0.016760  1.0  0.7165
  C  C255  1  0.532960  0.124380  0.981580  1.0  0.0057
  C  C256  1  0.384730  0.443910  0.037100  1.0  -0.0245
  C  C257  1  0.506990  0.692590  0.121890  1.0  -0.0541
  C  C258  1  0.362290  0.600020  0.037120  1.0  -0.1084
  C  C259  1  0.420320  0.489700  0.047930  1.0  -0.1314
  C  C260  1  0.434310  0.695700  0.061490  1.0  0.0667
  C  C261  1  0.540760  0.756050  0.130290  1.0  -0.0357
  C  C262  1  0.470290  0.756440  0.067450  1.0  -0.0395
  C  C263  1  0.103050  0.354210  0.238540  1.0  -0.0684
  C  C264  1  0.131170  0.948190  0.259360  1.0  -0.0301
  C  C265  1  0.094060  0.995840  0.203260  1.0  -0.1355
  C  C266  1  0.153610  0.102120  0.304740  1.0  -0.122
  C  C267  1  0.139420  0.306610  0.294540  1.0  -0.0426
  C  C268  1  0.998770  0.562370  0.975410  1.0  0.0322
  C  C269  1  0.069880  0.560350  0.040210  1.0  -0.1027
  C  C270  1  0.876600  0.306280  0.053520  1.0  -0.0766
  C  C271  1  0.072550  0.447050  0.087360  1.0  -0.1116
  C  C272  1  0.193760  0.050770  0.365050  1.0  0.6949
  C  C273  1  0.038590  0.377810  0.082000  1.0  -0.0302
  C  C274  1  0.912270  0.351910  0.065680  1.0  -0.0788
  C  C275  1  0.079710  0.199160  0.192270  1.0  0.023
  C  C276  1  0.822120  0.052800  0.016760  1.0  0.7165
  C  C277  1  0.032960  0.624380  0.981580  1.0  0.0057
  C  C278  1  0.884730  0.943910  0.037100  1.0  -0.0245
  C  C279  1  0.006990  0.192590  0.121890  1.0  -0.0541
  C  C280  1  0.862290  0.100020  0.037120  1.0  -0.1084
  C  C281  1  0.920320  0.989700  0.047930  1.0  -0.1314
  C  C282  1  0.934310  0.195700  0.061490  1.0  0.0667
  C  C283  1  0.040760  0.256050  0.130290  1.0  -0.0357
  C  C284  1  0.970290  0.256440  0.067450  1.0  -0.0395
  O  O285  1  0.266270  0.945330  0.520040  1.0  -0.9566
  O  O286  1  0.715880  0.292530  0.897970  1.0  -0.6237
  O  O287  1  0.702790  0.638170  0.877440  1.0  -0.5874
  O  O288  1  0.312850  0.639110  0.511580  1.0  -0.5762
  O  O289  1  0.299980  0.291930  0.504310  1.0  -0.6278
  O  O290  1  0.766270  0.445330  0.520040  1.0  -0.9566
  O  O291  1  0.215880  0.792530  0.897970  1.0  -0.6237
  O  O292  1  0.202790  0.138170  0.877440  1.0  -0.5874
  O  O293  1  0.812850  0.139110  0.511580  1.0  -0.5762
  O  O294  1  0.799980  0.791930  0.504310  1.0  -0.6278
  O  O295  1  0.733730  0.945330  0.979960  1.0  -0.9565
  O  O296  1  0.284120  0.292530  0.602030  1.0  -0.6216
  O  O297  1  0.297210  0.638170  0.622560  1.0  -0.5878
  O  O298  1  0.687150  0.639110  0.988420  1.0  -0.5759
  O  O299  1  0.700020  0.291930  0.995690  1.0  -0.6261
  O  O300  1  0.233730  0.445330  0.979960  1.0  -0.9565
  O  O301  1  0.784120  0.792530  0.602030  1.0  -0.6216
  O  O302  1  0.797210  0.138170  0.622560  1.0  -0.5878
  O  O303  1  0.187150  0.139110  0.988420  1.0  -0.5759
  O  O304  1  0.200020  0.791930  0.995690  1.0  -0.6261
  O  O305  1  0.733730  0.054670  0.479960  1.0  -0.9565
  O  O306  1  0.284120  0.707470  0.102030  1.0  -0.6213
  O  O307  1  0.297210  0.361830  0.122560  1.0  -0.5865
  O  O308  1  0.687150  0.360890  0.488420  1.0  -0.5763
  O  O309  1  0.700020  0.708070  0.495690  1.0  -0.6257
  O  O310  1  0.233730  0.554670  0.479960  1.0  -0.9565
  O  O311  1  0.784120  0.207470  0.102030  1.0  -0.6213
  O  O312  1  0.797210  0.861830  0.122560  1.0  -0.5865
  O  O313  1  0.187150  0.860890  0.488420  1.0  -0.5763
  O  O314  1  0.200020  0.208070  0.495690  1.0  -0.6257
  O  O315  1  0.266270  0.054670  0.020040  1.0  -0.9568
  O  O316  1  0.715880  0.707470  0.397970  1.0  -0.6223
  O  O317  1  0.702790  0.361830  0.377440  1.0  -0.5861
  O  O318  1  0.312850  0.360890  0.011580  1.0  -0.5767
  O  O319  1  0.299980  0.708070  0.004310  1.0  -0.6268
  O  O320  1  0.766270  0.554670  0.020040  1.0  -0.9568
  O  O321  1  0.215880  0.207470  0.397970  1.0  -0.6223
  O  O322  1  0.202790  0.861830  0.377440  1.0  -0.5861
  O  O323  1  0.812850  0.860890  0.011580  1.0  -0.5767
  O  O324  1  0.799980  0.208070  0.004310  1.0  -0.6268
