# generated using pymatgen
data_KTbC8(NO4)2
_symmetry_space_group_name_H-M   'P 1'
_cell_length_a   15.11900000
_cell_length_b   6.66120000
_cell_length_c   14.34200000
_cell_angle_alpha   90.00000000
_cell_angle_beta   90.00000000
_cell_angle_gamma   90.00000000
_symmetry_Int_Tables_number   1
_chemical_formula_structural   KTbC8(NO4)2
_chemical_formula_sum   'K4 Tb4 C32 N8 O32'
_cell_volume   1444.39261272
_cell_formula_units_Z   4
loop_
 _symmetry_equiv_pos_site_id
 _symmetry_equiv_pos_as_xyz
  1  'x, y, z'
loop_
 _atom_site_type_symbol
 _atom_site_label
 _atom_site_symmetry_multiplicity
 _atom_site_fract_x
 _atom_site_fract_y
 _atom_site_fract_z
 _atom_site_occupancy
 _atom_site_charge
  K  K1  1  0.271100  0.250000  0.309100  1.0  0.9335
  K  K2  1  0.228900  0.750000  0.809100  1.0  0.9362
  K  K3  1  0.728900  0.750000  0.690900  1.0  0.9343
  K  K4  1  0.771100  0.250000  0.190900  1.0  0.9347
  Tb  Tb5  1  0.700910  0.250000  0.879570  1.0  2.1984
  Tb  Tb6  1  0.799090  0.750000  0.379570  1.0  2.2002
  Tb  Tb7  1  0.299090  0.750000  0.120430  1.0  2.1994
  Tb  Tb8  1  0.200910  0.250000  0.620430  1.0  2.1985
  C  C9  1  0.575300  0.250000  0.066800  1.0  0.6132
  C  C10  1  0.504800  0.250000  0.992200  1.0  0.0969
  C  C11  1  0.413200  0.250000  0.005900  1.0  0.0772
  C  C12  1  0.369400  0.250000  0.102700  1.0  0.6971
  C  C13  1  0.323200  0.250000  0.771700  1.0  0.6818
  C  C14  1  0.390200  0.250000  0.847400  1.0  0.1515
  C  C15  1  0.482100  0.250000  0.832000  1.0  0.0153
  C  C16  1  0.529000  0.250000  0.738500  1.0  0.6287
  C  C17  1  0.924700  0.750000  0.566800  1.0  0.6119
  C  C18  1  0.995200  0.750000  0.492200  1.0  0.0974
  C  C19  1  0.086800  0.750000  0.505900  1.0  0.0781
  C  C20  1  0.130600  0.750000  0.602700  1.0  0.6981
  C  C21  1  0.176800  0.750000  0.271700  1.0  0.681
  C  C22  1  0.109800  0.750000  0.347400  1.0  0.1514
  C  C23  1  0.017900  0.750000  0.332000  1.0  0.0154
  C  C24  1  0.971000  0.750000  0.238500  1.0  0.6294
  C  C25  1  0.424700  0.750000  0.933200  1.0  0.6132
  C  C26  1  0.495200  0.750000  0.007800  1.0  0.097
  C  C27  1  0.586800  0.750000  0.994100  1.0  0.0778
  C  C28  1  0.630600  0.750000  0.897300  1.0  0.6956
  C  C29  1  0.676800  0.750000  0.228300  1.0  0.683
  C  C30  1  0.609800  0.750000  0.152600  1.0  0.1519
  C  C31  1  0.517900  0.750000  0.168000  1.0  0.0161
  C  C32  1  0.471000  0.750000  0.261500  1.0  0.6304
  C  C33  1  0.075300  0.250000  0.433200  1.0  0.6129
  C  C34  1  0.004800  0.250000  0.507800  1.0  0.0967
  C  C35  1  0.913200  0.250000  0.494100  1.0  0.0767
  C  C36  1  0.869400  0.250000  0.397300  1.0  0.697
  C  C37  1  0.823200  0.250000  0.728300  1.0  0.6832
  C  C38  1  0.890200  0.250000  0.652600  1.0  0.152
  C  C39  1  0.982100  0.250000  0.668000  1.0  0.0159
  C  C40  1  0.029000  0.250000  0.761500  1.0  0.6324
  N  N41  1  0.537500  0.250000  0.906300  1.0  -0.4169
  N  N42  1  0.357500  0.250000  0.933700  1.0  -0.3983
  N  N43  1  0.962500  0.750000  0.406300  1.0  -0.4164
  N  N44  1  0.142500  0.750000  0.433700  1.0  -0.3987
  N  N45  1  0.462500  0.750000  0.093700  1.0  -0.4167
  N  N46  1  0.642500  0.750000  0.066300  1.0  -0.3983
  N  N47  1  0.037500  0.250000  0.593700  1.0  -0.4169
  N  N48  1  0.857500  0.250000  0.566300  1.0  -0.3979
  O  O49  1  0.350700  0.416300  0.135000  1.0  -0.6969
  O  O50  1  0.294500  0.414200  0.742100  1.0  -0.7022
  O  O51  1  0.149300  0.583700  0.635000  1.0  -0.6994
  O  O52  1  0.205500  0.585800  0.242100  1.0  -0.7022
  O  O53  1  0.649300  0.916300  0.865000  1.0  -0.6986
  O  O54  1  0.705500  0.914200  0.257900  1.0  -0.7019
  O  O55  1  0.850700  0.083700  0.365000  1.0  -0.697
  O  O56  1  0.794500  0.085800  0.757900  1.0  -0.7005
  O  O57  1  0.649300  0.583700  0.865000  1.0  -0.6993
  O  O58  1  0.705500  0.585800  0.257900  1.0  -0.7004
  O  O59  1  0.850700  0.416300  0.365000  1.0  -0.6977
  O  O60  1  0.794500  0.414200  0.757900  1.0  -0.7018
  O  O61  1  0.350700  0.083700  0.135000  1.0  -0.696
  O  O62  1  0.294500  0.085800  0.742100  1.0  -0.7026
  O  O63  1  0.149300  0.916300  0.635000  1.0  -0.6983
  O  O64  1  0.205500  0.914200  0.242100  1.0  -0.7024
  O  O65  1  0.654400  0.250000  0.037700  1.0  -0.7513
  O  O66  1  0.551700  0.250000  0.148600  1.0  -0.547
  O  O67  1  0.480900  0.250000  0.668300  1.0  -0.5053
  O  O68  1  0.612200  0.250000  0.742300  1.0  -0.6792
  O  O69  1  0.845600  0.750000  0.537700  1.0  -0.7549
  O  O70  1  0.948300  0.750000  0.648600  1.0  -0.5477
  O  O71  1  0.019100  0.750000  0.168300  1.0  -0.5035
  O  O72  1  0.887800  0.750000  0.242300  1.0  -0.6772
  O  O73  1  0.345600  0.750000  0.962300  1.0  -0.7546
  O  O74  1  0.448300  0.750000  0.851400  1.0  -0.5455
  O  O75  1  0.519100  0.750000  0.331700  1.0  -0.5054
  O  O76  1  0.387800  0.750000  0.257700  1.0  -0.6796
  O  O77  1  0.154400  0.250000  0.462300  1.0  -0.7519
  O  O78  1  0.051700  0.250000  0.351400  1.0  -0.5442
  O  O79  1  0.980900  0.250000  0.831700  1.0  -0.5056
  O  O80  1  0.112200  0.250000  0.757700  1.0  -0.6812
