# generated using pymatgen
data_BaLi2H4C10(NO2)4
_symmetry_space_group_name_H-M   'P 1'
_cell_length_a   10.87830000
_cell_length_b   28.39450000
_cell_length_c   9.21410000
_cell_angle_alpha   90.00000000
_cell_angle_beta   90.00000000
_cell_angle_gamma   90.00000000
_symmetry_Int_Tables_number   1
_chemical_formula_structural   BaLi2H4C10(NO2)4
_chemical_formula_sum   'Ba6 Li12 H24 C60 N24 O48'
_cell_volume   2846.08704486
_cell_formula_units_Z   6
loop_
 _symmetry_equiv_pos_site_id
 _symmetry_equiv_pos_as_xyz
  1  'x, y, z'
loop_
 _atom_site_type_symbol
 _atom_site_label
 _atom_site_symmetry_multiplicity
 _atom_site_fract_x
 _atom_site_fract_y
 _atom_site_fract_z
 _atom_site_occupancy
 _atom_site_charge
  Ba  Ba1  1  0.140800  0.445190  0.027880  1.0  1.5963
  Ba  Ba2  1  0.859200  0.554810  0.027880  1.0  1.5963
  Ba  Ba3  1  0.359200  0.945190  0.972120  1.0  1.5966
  Ba  Ba4  1  0.640800  0.054810  0.972120  1.0  1.5966
  Ba  Ba5  1  0.500000  0.500000  0.823370  1.0  1.5668
  Ba  Ba6  1  0.000000  0.000000  0.176630  1.0  1.5665
  Li  Li7  1  0.410000  0.161300  0.842500  1.0  0.8766
  Li  Li8  1  0.418200  0.385300  0.940900  1.0  0.8748
  Li  Li9  1  0.722300  0.439600  0.088400  1.0  0.9082
  Li  Li10  1  0.590000  0.838700  0.842500  1.0  0.8769
  Li  Li11  1  0.581800  0.614700  0.940900  1.0  0.8752
  Li  Li12  1  0.277700  0.560400  0.088400  1.0  0.9071
  Li  Li13  1  0.090000  0.661300  0.157500  1.0  0.877
  Li  Li14  1  0.081800  0.885300  0.059100  1.0  0.8757
  Li  Li15  1  0.777700  0.939600  0.911600  1.0  0.907
  Li  Li16  1  0.910000  0.338700  0.157500  1.0  0.878
  Li  Li17  1  0.918200  0.114700  0.059100  1.0  0.8742
  Li  Li18  1  0.222300  0.060400  0.911600  1.0  0.9073
  H  H19  1  0.355000  0.285500  0.898100  1.0  0.1909
  H  H20  1  0.143000  0.417200  0.441200  1.0  0.2198
  H  H21  1  0.676600  0.468200  0.393000  1.0  0.2593
  H  H22  1  0.064100  0.238900  0.107500  1.0  0.0948
  H  H23  1  0.498200  0.432200  0.502700  1.0  0.0979
  H  H24  1  0.987900  0.444900  0.596600  1.0  0.1041
  H  H25  1  0.645000  0.714500  0.898100  1.0  0.1927
  H  H26  1  0.857000  0.582800  0.441200  1.0  0.2187
  H  H27  1  0.323400  0.531800  0.393000  1.0  0.259
  H  H28  1  0.935900  0.761100  0.107500  1.0  0.0943
  H  H29  1  0.501800  0.567800  0.502700  1.0  0.098
  H  H30  1  0.012100  0.555100  0.596600  1.0  0.1045
  H  H31  1  0.145000  0.785500  0.101900  1.0  0.1924
  H  H32  1  0.357000  0.917200  0.558800  1.0  0.2192
  H  H33  1  0.823400  0.968200  0.607000  1.0  0.2591
  H  H34  1  0.435900  0.738900  0.892500  1.0  0.0944
  H  H35  1  0.001800  0.932200  0.497300  1.0  0.0977
  H  H36  1  0.512100  0.944900  0.403400  1.0  0.104
  H  H37  1  0.855000  0.214500  0.101900  1.0  0.1919
  H  H38  1  0.643000  0.082800  0.558800  1.0  0.22
  H  H39  1  0.176600  0.031800  0.607000  1.0  0.2588
  H  H40  1  0.564100  0.261100  0.892500  1.0  0.0952
  H  H41  1  0.998200  0.067800  0.497300  1.0  0.097
  H  H42  1  0.487900  0.055100  0.403400  1.0  0.1039
  C  C43  1  0.179300  0.332200  0.034400  1.0  0.7433
  C  C44  1  0.201100  0.280530  0.012000  1.0  -0.0415
  C  C45  1  0.137400  0.240670  0.051600  1.0  -0.1202
  C  C46  1  0.204200  0.203500  0.991700  1.0  0.0273
  C  C47  1  0.180700  0.151400  0.989200  1.0  0.6407
  C  C48  1  0.470300  0.444110  0.185500  1.0  0.6342
  C  C49  1  0.389600  0.433800  0.311500  1.0  0.0955
  C  C50  1  0.419000  0.430060  0.459800  1.0  -0.0954
  C  C51  1  0.308700  0.422580  0.529700  1.0  -0.0155
  C  C52  1  0.280500  0.419520  0.686800  1.0  0.6833
  C  C53  1  0.820800  0.462000  0.832400  1.0  0.6645
  C  C54  1  0.808900  0.458500  0.672500  1.0  0.1159
  C  C55  1  0.904100  0.451180  0.574900  1.0  -0.1261
  C  C56  1  0.851500  0.454990  0.440700  1.0  0.0179
  C  C57  1  0.906400  0.453720  0.293500  1.0  0.6709
  C  C58  1  0.820700  0.667800  0.034400  1.0  0.7428
  C  C59  1  0.798900  0.719470  0.012000  1.0  -0.0387
  C  C60  1  0.862600  0.759330  0.051600  1.0  -0.1194
  C  C61  1  0.795800  0.796500  0.991700  1.0  0.0266
  C  C62  1  0.819300  0.848600  0.989200  1.0  0.6407
  C  C63  1  0.529700  0.555890  0.185500  1.0  0.6345
  C  C64  1  0.610400  0.566200  0.311500  1.0  0.0946
  C  C65  1  0.581000  0.569940  0.459800  1.0  -0.0986
  C  C66  1  0.691300  0.577420  0.529700  1.0  -0.0149
  C  C67  1  0.719500  0.580480  0.686800  1.0  0.6833
  C  C68  1  0.179200  0.538000  0.832400  1.0  0.6644
  C  C69  1  0.191100  0.541500  0.672500  1.0  0.1177
  C  C70  1  0.095900  0.548820  0.574900  1.0  -0.1301
  C  C71  1  0.148500  0.545010  0.440700  1.0  0.0172
  C  C72  1  0.093600  0.546280  0.293500  1.0  0.6711
  C  C73  1  0.320700  0.832200  0.965600  1.0  0.7432
  C  C74  1  0.298900  0.780530  0.988000  1.0  -0.041
  C  C75  1  0.362600  0.740670  0.948400  1.0  -0.1187
  C  C76  1  0.295800  0.703500  0.008300  1.0  0.0273
  C  C77  1  0.319300  0.651400  0.010800  1.0  0.6401
  C  C78  1  0.029700  0.944110  0.814500  1.0  0.6336
  C  C79  1  0.110400  0.933800  0.688500  1.0  0.0939
  C  C80  1  0.081000  0.930060  0.540200  1.0  -0.096
  C  C81  1  0.191300  0.922580  0.470300  1.0  -0.0139
  C  C82  1  0.219500  0.919520  0.313200  1.0  0.6808
  C  C83  1  0.679200  0.962000  0.167600  1.0  0.6637
  C  C84  1  0.691100  0.958500  0.327500  1.0  0.1159
  C  C85  1  0.595900  0.951180  0.425100  1.0  -0.1273
  C  C86  1  0.648500  0.954990  0.559300  1.0  0.0172
  C  C87  1  0.593600  0.953720  0.706500  1.0  0.6702
  C  C88  1  0.679300  0.167800  0.965600  1.0  0.7427
  C  C89  1  0.701100  0.219470  0.988000  1.0  -0.0391
  C  C90  1  0.637400  0.259330  0.948400  1.0  -0.1202
  C  C91  1  0.704200  0.296500  0.008300  1.0  0.0271
  C  C92  1  0.680700  0.348600  0.010800  1.0  0.6412
  C  C93  1  0.970300  0.055890  0.814500  1.0  0.6341
  C  C94  1  0.889600  0.066200  0.688500  1.0  0.0943
  C  C95  1  0.919000  0.069940  0.540200  1.0  -0.0964
  C  C96  1  0.808700  0.077420  0.470300  1.0  -0.0139
  C  C97  1  0.780500  0.080480  0.313200  1.0  0.6837
  C  C98  1  0.320800  0.038000  0.167600  1.0  0.6644
  C  C99  1  0.308900  0.041500  0.327500  1.0  0.1183
  C  C100  1  0.404100  0.048820  0.425100  1.0  -0.1268
  C  C101  1  0.351500  0.045010  0.559300  1.0  0.0185
  C  C102  1  0.406400  0.046280  0.706500  1.0  0.6703
  N  N103  1  0.299700  0.266270  0.934800  1.0  -0.097
  N  N104  1  0.303500  0.219280  0.920700  1.0  -0.445
  N  N105  1  0.268500  0.428560  0.291800  1.0  -0.3395
  N  N106  1  0.221700  0.421720  0.424200  1.0  -0.1581
  N  N107  1  0.701000  0.466050  0.605000  1.0  -0.3947
  N  N108  1  0.730200  0.464050  0.463400  1.0  -0.1632
  N  N109  1  0.700300  0.733730  0.934800  1.0  -0.0973
  N  N110  1  0.696500  0.780720  0.920700  1.0  -0.442
  N  N111  1  0.731500  0.571440  0.291800  1.0  -0.3402
  N  N112  1  0.778300  0.578280  0.424200  1.0  -0.1559
  N  N113  1  0.299000  0.533950  0.605000  1.0  -0.3974
  N  N114  1  0.269800  0.535950  0.463400  1.0  -0.1626
  N  N115  1  0.200300  0.766270  0.065200  1.0  -0.0973
  N  N116  1  0.196500  0.719280  0.079300  1.0  -0.4435
  N  N117  1  0.231500  0.928560  0.708200  1.0  -0.3397
  N  N118  1  0.278300  0.921720  0.575800  1.0  -0.1589
  N  N119  1  0.799000  0.966050  0.395000  1.0  -0.3961
  N  N120  1  0.769800  0.964050  0.536600  1.0  -0.1641
  N  N121  1  0.799700  0.233730  0.065200  1.0  -0.096
  N  N122  1  0.803500  0.280720  0.079300  1.0  -0.4426
  N  N123  1  0.768500  0.071440  0.708200  1.0  -0.3416
  N  N124  1  0.721700  0.078280  0.575800  1.0  -0.1569
  N  N125  1  0.201000  0.033950  0.395000  1.0  -0.3939
  N  N126  1  0.230200  0.035950  0.536600  1.0  -0.1634
  O  O127  1  0.074700  0.345330  0.078500  1.0  -0.7738
  O  O128  1  0.265800  0.358960  0.002500  1.0  -0.7323
  O  O129  1  0.082300  0.136930  0.043400  1.0  -0.6943
  O  O130  1  0.262600  0.126530  0.928600  1.0  -0.6623
  O  O131  1  0.421300  0.445290  0.061400  1.0  -0.7527
  O  O132  1  0.582100  0.450780  0.211600  1.0  -0.6295
  O  O133  1  0.172000  0.418550  0.726600  1.0  -0.6195
  O  O134  1  0.374800  0.420550  0.768100  1.0  -0.6763
  O  O135  1  0.726700  0.474770  0.904900  1.0  -0.7941
  O  O136  1  0.923400  0.455230  0.885300  1.0  -0.6706
  O  O137  1  0.847000  0.472750  0.192400  1.0  -0.6781
  O  O138  1  0.008800  0.434600  0.282000  1.0  -0.6204
  O  O139  1  0.925300  0.654670  0.078500  1.0  -0.7717
  O  O140  1  0.734200  0.641040  0.002500  1.0  -0.7332
  O  O141  1  0.917700  0.863070  0.043400  1.0  -0.6945
  O  O142  1  0.737400  0.873470  0.928600  1.0  -0.6631
  O  O143  1  0.578700  0.554710  0.061400  1.0  -0.7526
  O  O144  1  0.417900  0.549220  0.211600  1.0  -0.6305
  O  O145  1  0.828000  0.581450  0.726600  1.0  -0.6198
  O  O146  1  0.625200  0.579450  0.768100  1.0  -0.6803
  O  O147  1  0.273300  0.525230  0.904900  1.0  -0.7927
  O  O148  1  0.076600  0.544770  0.885300  1.0  -0.6709
  O  O149  1  0.153000  0.527250  0.192400  1.0  -0.6783
  O  O150  1  0.991200  0.565400  0.282000  1.0  -0.6189
  O  O151  1  0.425300  0.845330  0.921500  1.0  -0.7719
  O  O152  1  0.234200  0.858960  0.997500  1.0  -0.7324
  O  O153  1  0.417700  0.636930  0.956600  1.0  -0.6948
  O  O154  1  0.237400  0.626530  0.071400  1.0  -0.6621
  O  O155  1  0.078700  0.945290  0.938600  1.0  -0.749
  O  O156  1  0.917900  0.950780  0.788400  1.0  -0.6301
  O  O157  1  0.328000  0.918550  0.273400  1.0  -0.6198
  O  O158  1  0.125200  0.920550  0.231900  1.0  -0.6803
  O  O159  1  0.773300  0.974770  0.095100  1.0  -0.7925
  O  O160  1  0.576600  0.955230  0.114700  1.0  -0.6719
  O  O161  1  0.653000  0.972750  0.807600  1.0  -0.6766
  O  O162  1  0.491200  0.934600  0.718000  1.0  -0.6211
  O  O163  1  0.574700  0.154670  0.921500  1.0  -0.7735
  O  O164  1  0.765800  0.141040  0.997500  1.0  -0.7332
  O  O165  1  0.582300  0.363070  0.956600  1.0  -0.6938
  O  O166  1  0.762600  0.373470  0.071400  1.0  -0.6618
  O  O167  1  0.921300  0.054710  0.938600  1.0  -0.7505
  O  O168  1  0.082100  0.049220  0.788400  1.0  -0.6296
  O  O169  1  0.672000  0.081450  0.273400  1.0  -0.6185
  O  O170  1  0.874800  0.079450  0.231900  1.0  -0.6768
  O  O171  1  0.226700  0.025230  0.095100  1.0  -0.7938
  O  O172  1  0.423400  0.044770  0.114700  1.0  -0.6715
  O  O173  1  0.347000  0.027250  0.807600  1.0  -0.6762
  O  O174  1  0.508800  0.065400  0.718000  1.0  -0.6195
