# generated using pymatgen
data_SrLi2H4C10(NO2)4
_symmetry_space_group_name_H-M   'P 1'
_cell_length_a   14.72460000
_cell_length_b   14.72460000
_cell_length_c   10.22360000
_cell_angle_alpha   90.00000000
_cell_angle_beta   90.00000000
_cell_angle_gamma   90.00000000
_symmetry_Int_Tables_number   1
_chemical_formula_structural   SrLi2H4C10(NO2)4
_chemical_formula_sum   'Sr4 Li8 H16 C40 N16 O32'
_cell_volume   2216.61802738
_cell_formula_units_Z   4
loop_
 _symmetry_equiv_pos_site_id
 _symmetry_equiv_pos_as_xyz
  1  'x, y, z'
loop_
 _atom_site_type_symbol
 _atom_site_label
 _atom_site_symmetry_multiplicity
 _atom_site_fract_x
 _atom_site_fract_y
 _atom_site_fract_z
 _atom_site_occupancy
 _atom_site_charge
  Sr  Sr1  1  0.500000  0.000000  0.594490  1.0  1.5329
  Sr  Sr2  1  0.000000  0.500000  0.405510  1.0  1.5325
  Sr  Sr3  1  0.000000  0.500000  0.905510  1.0  1.5326
  Sr  Sr4  1  0.500000  0.000000  0.094490  1.0  1.5329
  Li  Li5  1  0.449400  0.181900  0.363700  1.0  0.8679
  Li  Li6  1  0.550600  0.818100  0.363700  1.0  0.8716
  Li  Li7  1  0.181900  0.550600  0.636300  1.0  0.8651
  Li  Li8  1  0.818100  0.449400  0.636300  1.0  0.8685
  Li  Li9  1  0.050600  0.681900  0.136300  1.0  0.871
  Li  Li10  1  0.949400  0.318100  0.136300  1.0  0.8685
  Li  Li11  1  0.318100  0.050600  0.863700  1.0  0.8675
  Li  Li12  1  0.681900  0.949400  0.863700  1.0  0.8647
  H  H13  1  0.188000  0.352700  0.451000  1.0  0.2605
  H  H14  1  0.195200  0.197900  0.760600  1.0  0.0913
  H  H15  1  0.812000  0.647300  0.451000  1.0  0.26
  H  H16  1  0.804800  0.802100  0.760600  1.0  0.0911
  H  H17  1  0.352700  0.812000  0.549000  1.0  0.2605
  H  H18  1  0.197900  0.804800  0.239400  1.0  0.0906
  H  H19  1  0.647300  0.188000  0.549000  1.0  0.2611
  H  H20  1  0.802100  0.195200  0.239400  1.0  0.0904
  H  H21  1  0.312000  0.852700  0.049000  1.0  0.2612
  H  H22  1  0.304800  0.697900  0.739400  1.0  0.0915
  H  H23  1  0.688000  0.147300  0.049000  1.0  0.2618
  H  H24  1  0.695200  0.302100  0.739400  1.0  0.0914
  H  H25  1  0.147300  0.312000  0.951000  1.0  0.2604
  H  H26  1  0.302100  0.304800  0.260600  1.0  0.0898
  H  H27  1  0.852700  0.688000  0.951000  1.0  0.2596
  H  H28  1  0.697900  0.695200  0.260600  1.0  0.0904
  C  C29  1  0.337850  0.124550  0.589800  1.0  0.6791
  C  C30  1  0.268250  0.197720  0.585500  1.0  0.0375
  C  C31  1  0.206310  0.225020  0.680000  1.0  -0.1552
  C  C32  1  0.164900  0.300760  0.628700  1.0  -0.0249
  C  C33  1  0.102060  0.370040  0.683500  1.0  0.6843
  C  C34  1  0.662150  0.875450  0.589800  1.0  0.679
  C  C35  1  0.731750  0.802280  0.585500  1.0  0.0379
  C  C36  1  0.793690  0.774980  0.680000  1.0  -0.1567
  C  C37  1  0.835100  0.699240  0.628700  1.0  -0.0256
  C  C38  1  0.897940  0.629960  0.683500  1.0  0.6862
  C  C39  1  0.124550  0.662150  0.410200  1.0  0.6786
  C  C40  1  0.197720  0.731750  0.414500  1.0  0.0364
  C  C41  1  0.225020  0.793690  0.320000  1.0  -0.1535
  C  C42  1  0.300760  0.835100  0.371300  1.0  -0.0254
  C  C43  1  0.370040  0.897940  0.316500  1.0  0.6828
  C  C44  1  0.875450  0.337850  0.410200  1.0  0.6794
  C  C45  1  0.802280  0.268250  0.414500  1.0  0.0371
  C  C46  1  0.774980  0.206310  0.320000  1.0  -0.1526
  C  C47  1  0.699240  0.164900  0.371300  1.0  -0.0269
  C  C48  1  0.629960  0.102060  0.316500  1.0  0.6819
  C  C49  1  0.162150  0.624550  0.910200  1.0  0.6793
  C  C50  1  0.231750  0.697720  0.914500  1.0  0.0373
  C  C51  1  0.293690  0.725020  0.820000  1.0  -0.1543
  C  C52  1  0.335100  0.800760  0.871300  1.0  -0.0244
  C  C53  1  0.397940  0.870040  0.816500  1.0  0.6862
  C  C54  1  0.837850  0.375450  0.910200  1.0  0.6794
  C  C55  1  0.768250  0.302280  0.914500  1.0  0.0375
  C  C56  1  0.706310  0.274980  0.820000  1.0  -0.1548
  C  C57  1  0.664900  0.199240  0.871300  1.0  -0.0247
  C  C58  1  0.602060  0.129960  0.816500  1.0  0.6854
  C  C59  1  0.375450  0.162150  0.089800  1.0  0.6798
  C  C60  1  0.302280  0.231750  0.085500  1.0  0.0375
  C  C61  1  0.274980  0.293690  0.180000  1.0  -0.1527
  C  C62  1  0.199240  0.335100  0.128700  1.0  -0.0273
  C  C63  1  0.129960  0.397940  0.183500  1.0  0.6826
  C  C64  1  0.624550  0.837850  0.089800  1.0  0.6778
  C  C65  1  0.697720  0.768250  0.085500  1.0  0.0369
  C  C66  1  0.725020  0.706310  0.180000  1.0  -0.1546
  C  C67  1  0.800760  0.664900  0.128700  1.0  -0.0261
  C  C68  1  0.870040  0.602060  0.183500  1.0  0.6821
  N  N69  1  0.202230  0.313310  0.508800  1.0  -0.0697
  N  N70  1  0.265470  0.251510  0.480600  1.0  -0.3642
  N  N71  1  0.797770  0.686690  0.508800  1.0  -0.0692
  N  N72  1  0.734530  0.748490  0.480600  1.0  -0.3635
  N  N73  1  0.313310  0.797770  0.491200  1.0  -0.0683
  N  N74  1  0.251510  0.734530  0.519400  1.0  -0.3653
  N  N75  1  0.686690  0.202230  0.491200  1.0  -0.0688
  N  N76  1  0.748490  0.265470  0.519400  1.0  -0.3644
  N  N77  1  0.297770  0.813310  0.991200  1.0  -0.0692
  N  N78  1  0.234530  0.751510  0.019400  1.0  -0.3678
  N  N79  1  0.702230  0.186690  0.991200  1.0  -0.0697
  N  N80  1  0.765470  0.248490  0.019400  1.0  -0.3672
  N  N81  1  0.186690  0.297770  0.008800  1.0  -0.07
  N  N82  1  0.248490  0.234530  0.980600  1.0  -0.3628
  N  N83  1  0.813310  0.702230  0.008800  1.0  -0.0706
  N  N84  1  0.751510  0.765470  0.980600  1.0  -0.3627
  O  O85  1  0.391310  0.117640  0.495800  1.0  -0.7085
  O  O86  1  0.341700  0.073510  0.687310  1.0  -0.7469
  O  O87  1  0.084770  0.437010  0.612370  1.0  -0.6964
  O  O88  1  0.074930  0.359310  0.799010  1.0  -0.6186
  O  O89  1  0.608690  0.882360  0.495800  1.0  -0.708
  O  O90  1  0.658300  0.926490  0.687310  1.0  -0.7498
  O  O91  1  0.915230  0.562990  0.612370  1.0  -0.6973
  O  O92  1  0.925070  0.640690  0.799010  1.0  -0.6188
  O  O93  1  0.117640  0.608690  0.504200  1.0  -0.7103
  O  O94  1  0.073510  0.658300  0.312690  1.0  -0.7453
  O  O95  1  0.437010  0.915230  0.387630  1.0  -0.6958
  O  O96  1  0.359310  0.925070  0.200990  1.0  -0.6202
  O  O97  1  0.882360  0.391310  0.504200  1.0  -0.709
  O  O98  1  0.926490  0.341700  0.312690  1.0  -0.7467
  O  O99  1  0.562990  0.084770  0.387630  1.0  -0.6969
  O  O100  1  0.640690  0.074930  0.200990  1.0  -0.6197
  O  O101  1  0.108690  0.617640  0.004200  1.0  -0.7093
  O  O102  1  0.158300  0.573510  0.812690  1.0  -0.7466
  O  O103  1  0.415230  0.937010  0.887630  1.0  -0.6978
  O  O104  1  0.425070  0.859310  0.700990  1.0  -0.6192
  O  O105  1  0.891310  0.382360  0.004200  1.0  -0.709
  O  O106  1  0.841700  0.426490  0.812690  1.0  -0.749
  O  O107  1  0.584770  0.062990  0.887630  1.0  -0.6985
  O  O108  1  0.574930  0.140690  0.700990  1.0  -0.6187
  O  O109  1  0.382360  0.108690  0.995800  1.0  -0.7083
  O  O110  1  0.426490  0.158300  0.187310  1.0  -0.7467
  O  O111  1  0.062990  0.415230  0.112370  1.0  -0.6954
  O  O112  1  0.140690  0.425070  0.299010  1.0  -0.6198
  O  O113  1  0.617640  0.891310  0.995800  1.0  -0.7087
  O  O114  1  0.573510  0.841700  0.187310  1.0  -0.7459
  O  O115  1  0.937010  0.584770  0.112370  1.0  -0.6949
  O  O116  1  0.859310  0.574930  0.299010  1.0  -0.6199
