# generated using pymatgen
data_BaLi2H4C10(NO2)4
_symmetry_space_group_name_H-M   'P 1'
_cell_length_a   15.09330000
_cell_length_b   15.09330000
_cell_length_c   10.05870000
_cell_angle_alpha   90.00000000
_cell_angle_beta   90.00000000
_cell_angle_gamma   90.00000000
_symmetry_Int_Tables_number   1
_chemical_formula_structural   BaLi2H4C10(NO2)4
_chemical_formula_sum   'Ba4 Li8 H16 C40 N16 O32'
_cell_volume   2291.44936118
_cell_formula_units_Z   4
loop_
 _symmetry_equiv_pos_site_id
 _symmetry_equiv_pos_as_xyz
  1  'x, y, z'
loop_
 _atom_site_type_symbol
 _atom_site_label
 _atom_site_symmetry_multiplicity
 _atom_site_fract_x
 _atom_site_fract_y
 _atom_site_fract_z
 _atom_site_occupancy
 _atom_site_charge
  Ba  Ba1  1  0.500000  0.000000  0.608910  1.0  1.5737
  Ba  Ba2  1  0.000000  0.500000  0.391090  1.0  1.5747
  Ba  Ba3  1  0.000000  0.500000  0.891090  1.0  1.5734
  Ba  Ba4  1  0.500000  0.000000  0.108910  1.0  1.5737
  Li  Li5  1  0.444000  0.190600  0.361700  1.0  0.8721
  Li  Li6  1  0.556000  0.809400  0.361700  1.0  0.8745
  Li  Li7  1  0.190600  0.556000  0.638300  1.0  0.8716
  Li  Li8  1  0.809400  0.444000  0.638300  1.0  0.8764
  Li  Li9  1  0.056000  0.690600  0.138300  1.0  0.875
  Li  Li10  1  0.944000  0.309400  0.138300  1.0  0.8721
  Li  Li11  1  0.309400  0.056000  0.861700  1.0  0.8757
  Li  Li12  1  0.690600  0.944000  0.861700  1.0  0.8723
  H  H13  1  0.196000  0.357000  0.448000  1.0  0.2863
  H  H14  1  0.189600  0.195100  0.748800  1.0  0.0906
  H  H15  1  0.804000  0.643000  0.448000  1.0  0.2861
  H  H16  1  0.810400  0.804900  0.748800  1.0  0.0906
  H  H17  1  0.357000  0.804000  0.552000  1.0  0.2859
  H  H18  1  0.195100  0.810400  0.251200  1.0  0.0903
  H  H19  1  0.643000  0.196000  0.552000  1.0  0.2856
  H  H20  1  0.804900  0.189600  0.251200  1.0  0.0896
  H  H21  1  0.304000  0.857000  0.052000  1.0  0.2862
  H  H22  1  0.310400  0.695100  0.751200  1.0  0.0901
  H  H23  1  0.696000  0.143000  0.052000  1.0  0.2862
  H  H24  1  0.689600  0.304900  0.751200  1.0  0.0905
  H  H25  1  0.143000  0.304000  0.948000  1.0  0.2856
  H  H26  1  0.304900  0.310400  0.248800  1.0  0.0897
  H  H27  1  0.857000  0.696000  0.948000  1.0  0.2854
  H  H28  1  0.695100  0.689600  0.248800  1.0  0.0904
  C  C29  1  0.334800  0.128900  0.584700  1.0  0.6907
  C  C30  1  0.269300  0.202100  0.579300  1.0  0.0534
  C  C31  1  0.204500  0.225100  0.671200  1.0  -0.1669
  C  C32  1  0.167300  0.301600  0.623100  1.0  -0.0136
  C  C33  1  0.103400  0.364800  0.682600  1.0  0.677
  C  C34  1  0.665200  0.871100  0.584700  1.0  0.6913
  C  C35  1  0.730700  0.797900  0.579300  1.0  0.052
  C  C36  1  0.795500  0.774900  0.671200  1.0  -0.1681
  C  C37  1  0.832700  0.698400  0.623100  1.0  -0.012
  C  C38  1  0.896600  0.635200  0.682600  1.0  0.6772
  C  C39  1  0.128900  0.665200  0.415300  1.0  0.6909
  C  C40  1  0.202100  0.730700  0.420700  1.0  0.0523
  C  C41  1  0.225100  0.795500  0.328800  1.0  -0.1645
  C  C42  1  0.301600  0.832700  0.376900  1.0  -0.0136
  C  C43  1  0.364800  0.896600  0.317400  1.0  0.678
  C  C44  1  0.871100  0.334800  0.415300  1.0  0.6898
  C  C45  1  0.797900  0.269300  0.420700  1.0  0.0549
  C  C46  1  0.774900  0.204500  0.328800  1.0  -0.1642
  C  C47  1  0.698400  0.167300  0.376900  1.0  -0.0137
  C  C48  1  0.635200  0.103400  0.317400  1.0  0.6769
  C  C49  1  0.165200  0.628900  0.915300  1.0  0.6921
  C  C50  1  0.230700  0.702100  0.920700  1.0  0.0521
  C  C51  1  0.295500  0.725100  0.828800  1.0  -0.1654
  C  C52  1  0.332700  0.801600  0.876900  1.0  -0.0115
  C  C53  1  0.396600  0.864800  0.817400  1.0  0.6787
  C  C54  1  0.834800  0.371100  0.915300  1.0  0.69
  C  C55  1  0.769300  0.297900  0.920700  1.0  0.0526
  C  C56  1  0.704500  0.274900  0.828800  1.0  -0.1662
  C  C57  1  0.667300  0.198400  0.876900  1.0  -0.0141
  C  C58  1  0.603400  0.135200  0.817400  1.0  0.6775
  C  C59  1  0.371100  0.165200  0.084700  1.0  0.6904
  C  C60  1  0.297900  0.230700  0.079300  1.0  0.0553
  C  C61  1  0.274900  0.295500  0.171200  1.0  -0.1655
  C  C62  1  0.198400  0.332700  0.123100  1.0  -0.0143
  C  C63  1  0.135200  0.396600  0.182600  1.0  0.6783
  C  C64  1  0.628900  0.834800  0.084700  1.0  0.6899
  C  C65  1  0.702100  0.769300  0.079300  1.0  0.0525
  C  C66  1  0.725100  0.704500  0.171200  1.0  -0.1657
  C  C67  1  0.801600  0.667300  0.123100  1.0  -0.0134
  C  C68  1  0.864800  0.603400  0.182600  1.0  0.6788
  N  N69  1  0.209900  0.319200  0.506700  1.0  -0.1074
  N  N70  1  0.272700  0.259500  0.479000  1.0  -0.3641
  N  N71  1  0.790100  0.680800  0.506700  1.0  -0.1087
  N  N72  1  0.727300  0.740500  0.479000  1.0  -0.3611
  N  N73  1  0.319200  0.790100  0.493300  1.0  -0.1086
  N  N74  1  0.259500  0.727300  0.521000  1.0  -0.3624
  N  N75  1  0.680800  0.209900  0.493300  1.0  -0.1082
  N  N76  1  0.740500  0.272700  0.521000  1.0  -0.3618
  N  N77  1  0.290100  0.819200  0.993300  1.0  -0.1094
  N  N78  1  0.227300  0.759500  0.021000  1.0  -0.3637
  N  N79  1  0.709900  0.180800  0.993300  1.0  -0.1093
  N  N80  1  0.772700  0.240500  0.021000  1.0  -0.3647
  N  N81  1  0.180800  0.290100  0.006700  1.0  -0.1086
  N  N82  1  0.240500  0.227300  0.979000  1.0  -0.3615
  N  N83  1  0.819200  0.709900  0.006700  1.0  -0.1098
  N  N84  1  0.759500  0.772700  0.979000  1.0  -0.3589
  O  O85  1  0.390320  0.123060  0.492000  1.0  -0.7138
  O  O86  1  0.333200  0.076300  0.681300  1.0  -0.7434
  O  O87  1  0.088490  0.435460  0.620300  1.0  -0.7242
  O  O88  1  0.070920  0.344790  0.794000  1.0  -0.622
  O  O89  1  0.609680  0.876940  0.492000  1.0  -0.7145
  O  O90  1  0.666800  0.923700  0.681300  1.0  -0.7479
  O  O91  1  0.911510  0.564540  0.620300  1.0  -0.7248
  O  O92  1  0.929080  0.655210  0.794000  1.0  -0.623
  O  O93  1  0.123060  0.609680  0.508000  1.0  -0.7155
  O  O94  1  0.076300  0.666800  0.318700  1.0  -0.7433
  O  O95  1  0.435460  0.911510  0.379700  1.0  -0.7272
  O  O96  1  0.344790  0.929080  0.206000  1.0  -0.6228
  O  O97  1  0.876940  0.390320  0.508000  1.0  -0.7151
  O  O98  1  0.923700  0.333200  0.318700  1.0  -0.745
  O  O99  1  0.564540  0.088490  0.379700  1.0  -0.729
  O  O100  1  0.655210  0.070920  0.206000  1.0  -0.6221
  O  O101  1  0.109680  0.623060  0.008000  1.0  -0.715
  O  O102  1  0.166800  0.576300  0.818700  1.0  -0.7443
  O  O103  1  0.411510  0.935460  0.879700  1.0  -0.7254
  O  O104  1  0.429080  0.844790  0.706000  1.0  -0.622
  O  O105  1  0.890320  0.376940  0.008000  1.0  -0.714
  O  O106  1  0.833200  0.423700  0.818700  1.0  -0.7474
  O  O107  1  0.588490  0.064540  0.879700  1.0  -0.7247
  O  O108  1  0.570920  0.155210  0.706000  1.0  -0.6214
  O  O109  1  0.376940  0.109680  0.992000  1.0  -0.7147
  O  O110  1  0.423700  0.166800  0.181300  1.0  -0.744
  O  O111  1  0.064540  0.411510  0.120300  1.0  -0.7271
  O  O112  1  0.155210  0.429080  0.294000  1.0  -0.623
  O  O113  1  0.623060  0.890320  0.992000  1.0  -0.7158
  O  O114  1  0.576300  0.833200  0.181300  1.0  -0.7439
  O  O115  1  0.935460  0.588490  0.120300  1.0  -0.727
  O  O116  1  0.844790  0.570920  0.294000  1.0  -0.6223
