# generated using pymatgen
data_Na3YbH13C21N3O16
_symmetry_space_group_name_H-M   'P 1'
_cell_length_a   12.90200000
_cell_length_b   13.03000000
_cell_length_c   13.10100000
_cell_angle_alpha   70.26000000
_cell_angle_beta   73.03000000
_cell_angle_gamma   71.98000000
_symmetry_Int_Tables_number   1
_chemical_formula_structural   Na3YbH13C21N3O16
_chemical_formula_sum   'Na6 Yb2 H26 C42 N6 O32'
_cell_volume   1927.65165646
_cell_formula_units_Z   2
loop_
 _symmetry_equiv_pos_site_id
 _symmetry_equiv_pos_as_xyz
  1  'x, y, z'
loop_
 _atom_site_type_symbol
 _atom_site_label
 _atom_site_symmetry_multiplicity
 _atom_site_fract_x
 _atom_site_fract_y
 _atom_site_fract_z
 _atom_site_occupancy
 _atom_site_charge
  Na  Na1  1  0.683500  0.151800  0.663900  1.0  1.0829
  Na  Na2  1  0.678400  0.673200  0.153500  1.0  1.0691
  Na  Na3  1  0.157600  0.651500  0.678900  1.0  0.9369
  Na  Na4  1  0.316500  0.848200  0.336100  1.0  1.0058
  Na  Na5  1  0.321600  0.326800  0.846500  1.0  0.9754
  Na  Na6  1  0.842400  0.348500  0.321100  1.0  0.9362
  Yb  Yb7  1  0.662710  0.657070  0.664370  1.0  1.021
  Yb  Yb8  1  0.337290  0.342930  0.335630  1.0  1.0602
  H  H9  1  0.700100  0.899000  0.242700  1.0  0.1266
  H  H10  1  0.662900  0.076300  0.271000  1.0  0.1084
  H  H11  1  0.624400  0.090400  0.453400  1.0  0.1179
  H  H12  1  0.088100  0.441700  0.630500  1.0  0.1174
  H  H13  1  0.067600  0.260200  0.673500  1.0  0.1141
  H  H14  1  0.889600  0.229500  0.713200  1.0  0.1324
  H  H15  1  0.239900  0.700200  0.885500  1.0  0.1275
  H  H16  1  0.269600  0.669200  0.061300  1.0  0.1173
  H  H17  1  0.453200  0.630300  0.084200  1.0  0.1202
  H  H18  1  0.541700  0.316300  0.504800  1.0  0.3619
  H  H19  1  0.775300  0.023200  0.847200  1.0  0.4615
  H  H20  1  0.288500  0.608600  0.483700  1.0  0.3455
  H  H21  1  0.061500  0.494800  0.874100  1.0  0.3824
  H  H22  1  0.938500  0.505200  0.125900  1.0  0.382
  H  H23  1  0.299900  0.101000  0.757300  1.0  0.1265
  H  H24  1  0.337100  0.923700  0.729000  1.0  0.1085
  H  H25  1  0.375600  0.909600  0.546600  1.0  0.117
  H  H26  1  0.911900  0.558300  0.369500  1.0  0.1185
  H  H27  1  0.932400  0.739800  0.326500  1.0  0.1146
  H  H28  1  0.110400  0.770500  0.286800  1.0  0.1336
  H  H29  1  0.760100  0.299800  0.114500  1.0  0.128
  H  H30  1  0.730400  0.330800  0.938700  1.0  0.1165
  H  H31  1  0.546800  0.369700  0.915800  1.0  0.1213
  H  H32  1  0.458300  0.683700  0.495200  1.0  0.3643
  H  H33  1  0.224700  0.976800  0.152800  1.0  0.4543
  H  H34  1  0.711500  0.391400  0.516300  1.0  0.345
  C  C35  1  0.680900  0.815900  0.405400  1.0  0.1165
  C  C36  1  0.684000  0.907300  0.313800  1.0  -0.0947
  C  C37  1  0.662300  0.012600  0.330900  1.0  -0.0668
  C  C38  1  0.639600  0.021300  0.439400  1.0  -0.0847
  C  C39  1  0.640600  0.923500  0.524900  1.0  0.1263
  C  C40  1  0.620100  0.923600  0.643900  1.0  0.6471
  C  C41  1  0.707700  0.696500  0.397100  1.0  0.6326
  C  C42  1  0.924900  0.515400  0.644100  1.0  0.1186
  C  C43  1  0.017600  0.428200  0.646200  1.0  -0.0896
  C  C44  1  0.005400  0.320000  0.672000  1.0  -0.024
  C  C45  1  0.900000  0.301500  0.695400  1.0  -0.1034
  C  C46  1  0.810700  0.393700  0.691500  1.0  0.1008
  C  C47  1  0.691000  0.386500  0.717200  1.0  0.6215
  C  C48  1  0.928100  0.635800  0.620100  1.0  0.6477
  C  C49  1  0.402200  0.680500  0.809000  1.0  0.1112
  C  C50  1  0.311700  0.684900  0.896700  1.0  -0.0902
  C  C51  1  0.329300  0.666200  0.001200  1.0  -0.043
  C  C52  1  0.438500  0.642800  0.015000  1.0  -0.0722
  C  C53  1  0.523800  0.638900  0.922500  1.0  0.1061
  C  C54  1  0.645700  0.616200  0.927800  1.0  0.649
  C  C55  1  0.393200  0.706500  0.690900  1.0  0.6493
  C  C56  1  0.319100  0.184100  0.594600  1.0  0.1155
  C  C57  1  0.316000  0.092700  0.686200  1.0  -0.0964
  C  C58  1  0.337700  0.987400  0.669100  1.0  -0.0535
  C  C59  1  0.360400  0.978700  0.560600  1.0  -0.0838
  C  C60  1  0.359400  0.076500  0.475100  1.0  0.1238
  C  C61  1  0.379900  0.076400  0.356100  1.0  0.6509
  C  C62  1  0.292300  0.303500  0.602900  1.0  0.6311
  C  C63  1  0.075100  0.484600  0.355900  1.0  0.1131
  C  C64  1  0.982400  0.571800  0.353800  1.0  -0.0895
  C  C65  1  0.994600  0.680000  0.328000  1.0  -0.0262
  C  C66  1  0.100000  0.698500  0.304600  1.0  -0.103
  C  C67  1  0.189300  0.606300  0.308500  1.0  0.1011
  C  C68  1  0.309000  0.613500  0.282800  1.0  0.6235
  C  C69  1  0.071900  0.364200  0.379900  1.0  0.6481
  C  C70  1  0.597800  0.319500  0.191000  1.0  0.1128
  C  C71  1  0.688300  0.315100  0.103300  1.0  -0.0866
  C  C72  1  0.670700  0.333800  0.998800  1.0  -0.052
  C  C73  1  0.561500  0.357200  0.985000  1.0  -0.0673
  C  C74  1  0.476200  0.361100  0.077500  1.0  0.1065
  C  C75  1  0.354300  0.383800  0.072200  1.0  0.6477
  C  C76  1  0.606800  0.293500  0.309100  1.0  0.65
  N  N77  1  0.659500  0.824600  0.508700  1.0  -0.2923
  N  N78  1  0.823800  0.498100  0.666000  1.0  -0.2724
  N  N79  1  0.507400  0.656600  0.822900  1.0  -0.3099
  N  N80  1  0.340500  0.175400  0.491300  1.0  -0.2905
  N  N81  1  0.176200  0.501900  0.334000  1.0  -0.2737
  N  N82  1  0.492600  0.343400  0.177100  1.0  -0.3004
  O  O83  1  0.615700  0.828100  0.713900  1.0  -0.5878
  O  O84  1  0.613500  0.009900  0.667600  1.0  -0.6338
  O  O85  1  0.733000  0.679500  0.305600  1.0  -0.6714
  O  O86  1  0.704000  0.621100  0.490500  1.0  -0.4741
  O  O87  1  0.619800  0.479600  0.711800  1.0  -0.5322
  O  O88  1  0.671000  0.292700  0.744800  1.0  -0.6076
  O  O89  1  0.017200  0.659000  0.607400  1.0  -0.6652
  O  O90  1  0.835400  0.706300  0.612800  1.0  -0.56
  O  O91  1  0.714400  0.604700  0.835400  1.0  -0.6069
  O  O92  1  0.669900  0.609800  0.012500  1.0  -0.6463
  O  O93  1  0.299100  0.733500  0.669000  1.0  -0.6408
  O  O94  1  0.486000  0.702700  0.620300  1.0  -0.5633
  O  O95  1  0.557400  0.295100  0.574700  1.0  -0.578
  O  O96  1  0.797500  0.030700  0.786900  1.0  -0.6901
  O  O97  1  0.296000  0.571400  0.552000  1.0  -0.5275
  O  O98  1  0.138100  0.493400  0.841200  1.0  -0.7161
  O  O99  1  0.861900  0.506600  0.158800  1.0  -0.7141
  O  O100  1  0.384300  0.171900  0.286100  1.0  -0.5491
  O  O101  1  0.386500  0.990100  0.332400  1.0  -0.6341
  O  O102  1  0.267000  0.320500  0.694400  1.0  -0.6731
  O  O103  1  0.296000  0.378900  0.509500  1.0  -0.4711
  O  O104  1  0.380200  0.520400  0.288200  1.0  -0.536
  O  O105  1  0.329000  0.707300  0.255200  1.0  -0.6057
  O  O106  1  0.982800  0.341000  0.392600  1.0  -0.6652
  O  O107  1  0.164600  0.293700  0.387200  1.0  -0.5613
  O  O108  1  0.285600  0.395300  0.164600  1.0  -0.5743
  O  O109  1  0.330100  0.390200  0.987500  1.0  -0.6461
  O  O110  1  0.700900  0.266500  0.331000  1.0  -0.6405
  O  O111  1  0.514000  0.297300  0.379700  1.0  -0.5597
  O  O112  1  0.442600  0.704900  0.425300  1.0  -0.5879
  O  O113  1  0.202500  0.969300  0.213100  1.0  -0.6889
  O  O114  1  0.704000  0.428600  0.448000  1.0  -0.5273
