# generated using pymatgen
data_CdH8C8N5O3
_symmetry_space_group_name_H-M   'P 1'
_cell_length_a   12.83310000
_cell_length_b   15.62600000
_cell_length_c   7.54500000
_cell_angle_alpha   90.00000000
_cell_angle_beta   93.22500000
_cell_angle_gamma   90.00000000
_symmetry_Int_Tables_number   1
_chemical_formula_structural   CdH8C8N5O3
_chemical_formula_sum   'Cd4 H32 C32 N20 O12'
_cell_volume   1510.60288768
_cell_formula_units_Z   4
loop_
 _symmetry_equiv_pos_site_id
 _symmetry_equiv_pos_as_xyz
  1  'x, y, z'
loop_
 _atom_site_type_symbol
 _atom_site_label
 _atom_site_symmetry_multiplicity
 _atom_site_fract_x
 _atom_site_fract_y
 _atom_site_fract_z
 _atom_site_occupancy
 _atom_site_charge
  Cd  Cd1  1  0.000000  0.458890  0.750000  1.0  0.939
  Cd  Cd2  1  0.000000  0.541110  0.250000  1.0  0.9398
  Cd  Cd3  1  0.500000  0.000000  0.000000  1.0  1.0653
  Cd  Cd4  1  0.500000  0.000000  0.500000  1.0  1.0653
  H  H5  1  0.263000  0.621300  0.043900  1.0  0.1101
  H  H6  1  0.183500  0.695000  0.995400  1.0  0.1169
  H  H7  1  0.684200  0.527600  0.181800  1.0  0.3293
  H  H8  1  0.586700  0.492700  0.093000  1.0  0.2606
  H  H9  1  0.324100  0.634500  0.746600  1.0  0.0771
  H  H10  1  0.255400  0.717200  0.724000  1.0  0.0968
  H  H11  1  0.334400  0.855000  0.853100  1.0  0.0913
  H  H12  1  0.664700  0.804500  0.158600  1.0  0.0878
  H  H13  1  0.737000  0.621300  0.456100  1.0  0.1105
  H  H14  1  0.816500  0.695000  0.504600  1.0  0.117
  H  H15  1  0.315800  0.527600  0.318200  1.0  0.3257
  H  H16  1  0.413300  0.492700  0.407000  1.0  0.2604
  H  H17  1  0.675900  0.634500  0.753400  1.0  0.0793
  H  H18  1  0.744600  0.717200  0.776000  1.0  0.0957
  H  H19  1  0.665600  0.855000  0.646900  1.0  0.0906
  H  H20  1  0.335300  0.804500  0.341400  1.0  0.0886
  H  H21  1  0.737000  0.378700  0.956100  1.0  0.1101
  H  H22  1  0.816500  0.305000  0.004600  1.0  0.1175
  H  H23  1  0.315800  0.472400  0.818200  1.0  0.3251
  H  H24  1  0.413300  0.507300  0.907000  1.0  0.2609
  H  H25  1  0.675900  0.365500  0.253400  1.0  0.0786
  H  H26  1  0.744600  0.282800  0.276000  1.0  0.096
  H  H27  1  0.665600  0.145000  0.146900  1.0  0.0906
  H  H28  1  0.335300  0.195500  0.841400  1.0  0.0884
  H  H29  1  0.263000  0.378700  0.543900  1.0  0.11
  H  H30  1  0.183500  0.305000  0.495400  1.0  0.1174
  H  H31  1  0.684200  0.472400  0.681800  1.0  0.3294
  H  H32  1  0.586700  0.507300  0.593000  1.0  0.2608
  H  H33  1  0.324100  0.365500  0.246600  1.0  0.077
  H  H34  1  0.255400  0.282800  0.224000  1.0  0.0963
  H  H35  1  0.334400  0.145000  0.353100  1.0  0.0903
  H  H36  1  0.664700  0.195500  0.658600  1.0  0.087
  C  C37  1  0.221800  0.647700  0.947000  1.0  -0.3405
  C  C38  1  0.144800  0.582700  0.867400  1.0  0.7363
  C  C39  1  0.527800  0.774900  0.028100  1.0  0.1085
  C  C40  1  0.470400  0.703300  0.977000  1.0  0.3176
  C  C41  1  0.295200  0.682200  0.809800  1.0  -0.0245
  C  C42  1  0.592200  0.614600  0.089500  1.0  0.6494
  C  C43  1  0.386800  0.819400  0.900600  1.0  0.2122
  C  C44  1  0.623300  0.759000  0.117400  1.0  0.1817
  C  C45  1  0.778200  0.647700  0.553000  1.0  -0.339
  C  C46  1  0.855200  0.582700  0.632600  1.0  0.7352
  C  C47  1  0.472200  0.774900  0.471900  1.0  0.1093
  C  C48  1  0.529600  0.703300  0.523000  1.0  0.3178
  C  C49  1  0.704800  0.682200  0.690200  1.0  -0.0254
  C  C50  1  0.407800  0.614600  0.410500  1.0  0.6494
  C  C51  1  0.613200  0.819400  0.599400  1.0  0.2115
  C  C52  1  0.376700  0.759000  0.382600  1.0  0.1826
  C  C53  1  0.778200  0.352300  0.053000  1.0  -0.3377
  C  C54  1  0.855200  0.417300  0.132600  1.0  0.7363
  C  C55  1  0.472200  0.225100  0.971900  1.0  0.1092
  C  C56  1  0.529600  0.296700  0.023000  1.0  0.3182
  C  C57  1  0.704800  0.317800  0.190200  1.0  -0.0256
  C  C58  1  0.407800  0.385400  0.910500  1.0  0.65
  C  C59  1  0.613200  0.180600  0.099400  1.0  0.2124
  C  C60  1  0.376700  0.241000  0.882600  1.0  0.183
  C  C61  1  0.221800  0.352300  0.447000  1.0  -0.3404
  C  C62  1  0.144800  0.417300  0.367400  1.0  0.7366
  C  C63  1  0.527800  0.225100  0.528100  1.0  0.107
  C  C64  1  0.470400  0.296700  0.477000  1.0  0.3182
  C  C65  1  0.295200  0.317800  0.309800  1.0  -0.0253
  C  C66  1  0.592200  0.385400  0.589500  1.0  0.6501
  C  C67  1  0.386800  0.180600  0.400600  1.0  0.2133
  C  C68  1  0.623300  0.241000  0.617400  1.0  0.182
  N  N69  1  0.380200  0.733000  0.891000  1.0  0.01
  N  N70  1  0.497500  0.622500  0.000900  1.0  -0.5217
  N  N71  1  0.624900  0.535700  0.125700  1.0  -0.6966
  N  N72  1  0.655400  0.680300  0.144000  1.0  -0.4108
  N  N73  1  0.472200  0.849400  0.981600  1.0  -0.4585
  N  N74  1  0.619800  0.733000  0.609000  1.0  0.0121
  N  N75  1  0.502500  0.622500  0.499100  1.0  -0.521
  N  N76  1  0.375100  0.535700  0.374300  1.0  -0.6959
  N  N77  1  0.344600  0.680300  0.356000  1.0  -0.4117
  N  N78  1  0.527800  0.849400  0.518400  1.0  -0.4584
  N  N79  1  0.619800  0.267000  0.109000  1.0  0.0118
  N  N80  1  0.502500  0.377500  0.999100  1.0  -0.5201
  N  N81  1  0.375100  0.464300  0.874300  1.0  -0.6962
  N  N82  1  0.344600  0.319700  0.856000  1.0  -0.412
  N  N83  1  0.527800  0.150600  0.018400  1.0  -0.456
  N  N84  1  0.380200  0.267000  0.391000  1.0  0.0092
  N  N85  1  0.497500  0.377500  0.500900  1.0  -0.5206
  N  N86  1  0.624900  0.464300  0.625700  1.0  -0.6968
  N  N87  1  0.655400  0.319700  0.644000  1.0  -0.4104
  N  N88  1  0.472200  0.150600  0.481600  1.0  -0.4556
  O  O89  1  0.168800  0.541000  0.733900  1.0  -0.6278
  O  O90  1  0.061900  0.571100  0.942000  1.0  -0.6467
  O  O91  1  0.410100  0.991100  0.224800  1.0  -0.6643
  O  O92  1  0.831200  0.541000  0.766100  1.0  -0.6289
  O  O93  1  0.938100  0.571100  0.558000  1.0  -0.6443
  O  O94  1  0.589900  0.991100  0.275200  1.0  -0.6637
  O  O95  1  0.831200  0.459000  0.266100  1.0  -0.6295
  O  O96  1  0.938100  0.428900  0.058000  1.0  -0.6447
  O  O97  1  0.589900  0.008900  0.775200  1.0  -0.6638
  O  O98  1  0.168800  0.459000  0.233900  1.0  -0.6278
  O  O99  1  0.061900  0.428900  0.442000  1.0  -0.6463
  O  O100  1  0.410100  0.008900  0.724800  1.0  -0.6645
