# generated using pymatgen
data_Al2P3H6(CO)9
_symmetry_space_group_name_H-M   'P 1'
_cell_length_a   38.18610000
_cell_length_b   5.00420000
_cell_length_c   8.38100000
_cell_angle_alpha   90.00000000
_cell_angle_beta   102.53500000
_cell_angle_gamma   90.00000000
_symmetry_Int_Tables_number   1
_chemical_formula_structural   Al2P3H6(CO)9
_chemical_formula_sum   'Al8 P12 H24 C36 O36'
_cell_volume   1563.35792058
_cell_formula_units_Z   4
loop_
 _symmetry_equiv_pos_site_id
 _symmetry_equiv_pos_as_xyz
  1  'x, y, z'
loop_
 _atom_site_type_symbol
 _atom_site_label
 _atom_site_symmetry_multiplicity
 _atom_site_fract_x
 _atom_site_fract_y
 _atom_site_fract_z
 _atom_site_occupancy
 _atom_site_charge
  Al  Al1  1  0.107990  0.000000  0.845800  1.0  1.8751
  Al  Al2  1  0.362480  0.000000  0.645300  1.0  1.8163
  Al  Al3  1  0.607990  0.500000  0.845800  1.0  1.8751
  Al  Al4  1  0.862480  0.500000  0.645300  1.0  1.8163
  Al  Al5  1  0.892010  0.000000  0.154200  1.0  1.8686
  Al  Al6  1  0.637520  0.000000  0.354700  1.0  1.8161
  Al  Al7  1  0.392010  0.500000  0.154200  1.0  1.8686
  Al  Al8  1  0.137520  0.500000  0.354700  1.0  1.8161
  P  P9  1  0.347110  0.000000  0.287800  1.0  1.4937
  P  P10  1  0.176150  0.000000  0.231300  1.0  1.4129
  P  P11  1  0.416140  0.000000  0.958100  1.0  1.6108
  P  P12  1  0.847110  0.500000  0.287800  1.0  1.4937
  P  P13  1  0.676150  0.500000  0.231300  1.0  1.4129
  P  P14  1  0.916140  0.500000  0.958100  1.0  1.6108
  P  P15  1  0.652890  0.000000  0.712200  1.0  1.4809
  P  P16  1  0.823850  0.000000  0.768700  1.0  1.4144
  P  P17  1  0.583860  0.000000  0.041900  1.0  1.6132
  P  P18  1  0.152890  0.500000  0.712200  1.0  1.4809
  P  P19  1  0.323850  0.500000  0.768700  1.0  1.4144
  P  P20  1  0.083860  0.500000  0.041900  1.0  1.6132
  H  H21  1  0.284960  0.000000  0.022420  1.0  0.1085
  H  H22  1  0.222420  0.000000  0.001750  1.0  0.1161
  H  H23  1  0.238370  0.000000  0.496710  1.0  0.1089
  H  H24  1  0.300890  0.000000  0.517370  1.0  0.1251
  H  H25  1  0.463130  0.000000  0.738100  1.0  0.1218
  H  H26  1  0.474200  0.000000  0.229490  1.0  0.1215
  H  H27  1  0.784960  0.500000  0.022420  1.0  0.1085
  H  H28  1  0.722420  0.500000  0.001750  1.0  0.1161
  H  H29  1  0.738370  0.500000  0.496710  1.0  0.1089
  H  H30  1  0.800890  0.500000  0.517370  1.0  0.1251
  H  H31  1  0.963130  0.500000  0.738100  1.0  0.1218
  H  H32  1  0.974200  0.500000  0.229490  1.0  0.1215
  H  H33  1  0.715040  0.000000  0.977580  1.0  0.1084
  H  H34  1  0.777580  0.000000  0.998250  1.0  0.1157
  H  H35  1  0.761630  0.000000  0.503290  1.0  0.1094
  H  H36  1  0.699110  0.000000  0.482630  1.0  0.1255
  H  H37  1  0.536870  0.000000  0.261900  1.0  0.1214
  H  H38  1  0.525800  0.000000  0.770510  1.0  0.1209
  H  H39  1  0.215040  0.500000  0.977580  1.0  0.1084
  H  H40  1  0.277580  0.500000  0.998250  1.0  0.1157
  H  H41  1  0.261630  0.500000  0.503290  1.0  0.1094
  H  H42  1  0.199110  0.500000  0.482630  1.0  0.1255
  H  H43  1  0.036870  0.500000  0.261900  1.0  0.1214
  H  H44  1  0.025800  0.500000  0.770510  1.0  0.1209
  C  C45  1  0.298550  0.000000  0.271700  1.0  -0.2777
  C  C46  1  0.275480  0.000000  0.119600  1.0  -0.0744
  C  C47  1  0.238430  0.000000  0.107300  1.0  -0.0778
  C  C48  1  0.224770  0.000000  0.247400  1.0  -0.2636
  C  C49  1  0.247840  0.000000  0.399600  1.0  -0.0916
  C  C50  1  0.284890  0.000000  0.411800  1.0  -0.0919
  C  C51  1  0.463140  0.000000  0.982400  1.0  -0.138
  C  C52  1  0.478290  0.000000  0.845690  1.0  -0.0515
  C  C53  1  0.484650  0.000000  0.135100  1.0  -0.1078
  C  C54  1  0.798550  0.500000  0.271700  1.0  -0.2777
  C  C55  1  0.775480  0.500000  0.119600  1.0  -0.0744
  C  C56  1  0.738430  0.500000  0.107300  1.0  -0.0778
  C  C57  1  0.724770  0.500000  0.247400  1.0  -0.2636
  C  C58  1  0.747840  0.500000  0.399600  1.0  -0.0916
  C  C59  1  0.784890  0.500000  0.411800  1.0  -0.0919
  C  C60  1  0.963140  0.500000  0.982400  1.0  -0.138
  C  C61  1  0.978290  0.500000  0.845690  1.0  -0.0515
  C  C62  1  0.984650  0.500000  0.135100  1.0  -0.1078
  C  C63  1  0.701450  0.000000  0.728300  1.0  -0.2784
  C  C64  1  0.724520  0.000000  0.880400  1.0  -0.0747
  C  C65  1  0.761570  0.000000  0.892700  1.0  -0.079
  C  C66  1  0.775230  0.000000  0.752600  1.0  -0.263
  C  C67  1  0.752160  0.000000  0.600400  1.0  -0.0905
  C  C68  1  0.715110  0.000000  0.588200  1.0  -0.0901
  C  C69  1  0.536860  0.000000  0.017600  1.0  -0.138
  C  C70  1  0.521710  0.000000  0.154310  1.0  -0.053
  C  C71  1  0.515350  0.000000  0.864900  1.0  -0.1052
  C  C72  1  0.201450  0.500000  0.728300  1.0  -0.2784
  C  C73  1  0.224520  0.500000  0.880400  1.0  -0.0747
  C  C74  1  0.261570  0.500000  0.892700  1.0  -0.079
  C  C75  1  0.275230  0.500000  0.752600  1.0  -0.263
  C  C76  1  0.252160  0.500000  0.600400  1.0  -0.0905
  C  C77  1  0.215110  0.500000  0.588200  1.0  -0.0901
  C  C78  1  0.036860  0.500000  0.017600  1.0  -0.138
  C  C79  1  0.021710  0.500000  0.154310  1.0  -0.053
  C  C80  1  0.015350  0.500000  0.864900  1.0  -0.1052
  O  O81  1  0.357780  0.751000  0.204500  1.0  -0.8862
  O  O82  1  0.165590  0.246200  0.313600  1.0  -0.9232
  O  O83  1  0.404970  0.763400  0.046300  1.0  -0.8884
  O  O84  1  0.857780  0.251000  0.204500  1.0  -0.8862
  O  O85  1  0.665590  0.746200  0.313600  1.0  -0.9232
  O  O86  1  0.904970  0.263400  0.046300  1.0  -0.8884
  O  O87  1  0.642220  0.751000  0.795500  1.0  -0.8871
  O  O88  1  0.834410  0.246200  0.686400  1.0  -0.9217
  O  O89  1  0.595030  0.763400  0.953700  1.0  -0.8877
  O  O90  1  0.142220  0.251000  0.795500  1.0  -0.8871
  O  O91  1  0.334410  0.746200  0.686400  1.0  -0.9217
  O  O92  1  0.095030  0.263400  0.953700  1.0  -0.8877
  O  O93  1  0.642220  0.249000  0.795500  1.0  -0.8864
  O  O94  1  0.834410  0.753800  0.686400  1.0  -0.922
  O  O95  1  0.595030  0.236600  0.953700  1.0  -0.8879
  O  O96  1  0.142220  0.749000  0.795500  1.0  -0.8864
  O  O97  1  0.334410  0.253800  0.686400  1.0  -0.922
  O  O98  1  0.095030  0.736600  0.953700  1.0  -0.8879
  O  O99  1  0.357780  0.249000  0.204500  1.0  -0.8852
  O  O100  1  0.165590  0.753800  0.313600  1.0  -0.9238
  O  O101  1  0.404970  0.236600  0.046300  1.0  -0.8887
  O  O102  1  0.857780  0.749000  0.204500  1.0  -0.8852
  O  O103  1  0.665590  0.253800  0.313600  1.0  -0.9238
  O  O104  1  0.904970  0.736600  0.046300  1.0  -0.8887
  O  O105  1  0.365840  0.000000  0.463700  1.0  -0.737
  O  O106  1  0.156390  0.000000  0.045700  1.0  -0.838
  O  O107  1  0.398640  0.000000  0.777800  1.0  -0.7594
  O  O108  1  0.865840  0.500000  0.463700  1.0  -0.737
  O  O109  1  0.656390  0.500000  0.045700  1.0  -0.838
  O  O110  1  0.898640  0.500000  0.777800  1.0  -0.7594
  O  O111  1  0.634160  0.000000  0.536300  1.0  -0.7385
  O  O112  1  0.843610  0.000000  0.954300  1.0  -0.838
  O  O113  1  0.601360  0.000000  0.222200  1.0  -0.7596
  O  O114  1  0.134160  0.500000  0.536300  1.0  -0.7385
  O  O115  1  0.343610  0.500000  0.954300  1.0  -0.838
  O  O116  1  0.101360  0.500000  0.222200  1.0  -0.7596
