# generated using pymatgen
data_LiH17C24(NO)6
_symmetry_space_group_name_H-M   'P 1'
_cell_length_a   4.97480000
_cell_length_b   37.21890000
_cell_length_c   16.02460000
_cell_angle_alpha   90.00000000
_cell_angle_beta   92.58200000
_cell_angle_gamma   90.00000000
_symmetry_Int_Tables_number   1
_chemical_formula_structural   LiH17C24(NO)6
_chemical_formula_sum   'Li4 H68 C96 N24 O24'
_cell_volume   2964.04794799
_cell_formula_units_Z   4
loop_
 _symmetry_equiv_pos_site_id
 _symmetry_equiv_pos_as_xyz
  1  'x, y, z'
loop_
 _atom_site_type_symbol
 _atom_site_label
 _atom_site_symmetry_multiplicity
 _atom_site_fract_x
 _atom_site_fract_y
 _atom_site_fract_z
 _atom_site_occupancy
 _atom_site_charge
  Li  Li1  1  0.798800  0.476690  0.514400  1.0  0.8964
  Li  Li2  1  0.201200  0.976690  0.985600  1.0  0.896
  Li  Li3  1  0.201200  0.523310  0.485600  1.0  0.896
  Li  Li4  1  0.798800  0.023310  0.014400  1.0  0.896
  H  H5  1  0.906600  0.320400  0.712800  1.0  0.2819
  H  H6  1  0.579700  0.426900  0.719900  1.0  0.0989
  H  H7  1  0.474500  0.371500  0.779100  1.0  0.1171
  H  H8  1  0.855700  0.360600  0.607600  1.0  0.0947
  H  H9  1  0.964400  0.415500  0.549100  1.0  0.0857
  H  H10  1  0.763500  0.320900  0.921900  1.0  0.2549
  H  H11  1  0.825900  0.246000  0.204100  1.0  0.3571
  H  H12  1  0.168700  0.202500  0.040200  1.0  0.0853
  H  H13  1  0.830800  0.226900  0.952500  1.0  0.1049
  H  H14  1  0.095900  0.327200  0.016100  1.0  0.1157
  H  H15  1  0.431500  0.302200  0.103400  1.0  0.1051
  H  H16  1  0.031400  0.208900  0.763900  1.0  0.2831
  H  H17  1  0.392300  0.022900  0.867400  1.0  0.3779
  H  H18  1  0.126900  0.092700  0.777000  1.0  0.1088
  H  H19  1  0.012100  0.151100  0.740800  1.0  0.1101
  H  H20  1  0.541900  0.188700  0.914100  1.0  0.1108
  H  H21  1  0.660200  0.130200  0.949500  1.0  0.079
  H  H22  1  0.093400  0.820400  0.787200  1.0  0.2819
  H  H23  1  0.420300  0.926900  0.780100  1.0  0.0993
  H  H24  1  0.525500  0.871500  0.720900  1.0  0.1158
  H  H25  1  0.144300  0.860600  0.892400  1.0  0.0944
  H  H26  1  0.035600  0.915500  0.950900  1.0  0.0863
  H  H27  1  0.236500  0.820900  0.578100  1.0  0.2558
  H  H28  1  0.174100  0.746000  0.295900  1.0  0.3563
  H  H29  1  0.831300  0.702500  0.459800  1.0  0.0856
  H  H30  1  0.169200  0.726900  0.547500  1.0  0.1048
  H  H31  1  0.904100  0.827200  0.483900  1.0  0.1155
  H  H32  1  0.568500  0.802200  0.396600  1.0  0.1063
  H  H33  1  0.968600  0.708900  0.736100  1.0  0.2852
  H  H34  1  0.607700  0.522900  0.632600  1.0  0.3785
  H  H35  1  0.873100  0.592700  0.723000  1.0  0.1099
  H  H36  1  0.987900  0.651100  0.759200  1.0  0.1108
  H  H37  1  0.458100  0.688700  0.585900  1.0  0.1111
  H  H38  1  0.339800  0.630200  0.550500  1.0  0.078
  H  H39  1  0.093400  0.679600  0.287200  1.0  0.2817
  H  H40  1  0.420300  0.573100  0.280100  1.0  0.0985
  H  H41  1  0.525500  0.628500  0.220900  1.0  0.1151
  H  H42  1  0.144300  0.639400  0.392400  1.0  0.0943
  H  H43  1  0.035600  0.584500  0.450900  1.0  0.0865
  H  H44  1  0.236500  0.679100  0.078100  1.0  0.2582
  H  H45  1  0.174100  0.754000  0.795900  1.0  0.3563
  H  H46  1  0.831300  0.797500  0.959800  1.0  0.0857
  H  H47  1  0.169200  0.773100  0.047500  1.0  0.1052
  H  H48  1  0.904100  0.672800  0.983900  1.0  0.1164
  H  H49  1  0.568500  0.697800  0.896600  1.0  0.1034
  H  H50  1  0.968600  0.791100  0.236100  1.0  0.2839
  H  H51  1  0.607700  0.977100  0.132600  1.0  0.3789
  H  H52  1  0.873100  0.907300  0.223000  1.0  0.1096
  H  H53  1  0.987900  0.848900  0.259200  1.0  0.1109
  H  H54  1  0.458100  0.811300  0.085900  1.0  0.1114
  H  H55  1  0.339800  0.869800  0.050500  1.0  0.0784
  H  H56  1  0.906600  0.179600  0.212800  1.0  0.2817
  H  H57  1  0.579700  0.073100  0.219900  1.0  0.0989
  H  H58  1  0.474500  0.128500  0.279100  1.0  0.1161
  H  H59  1  0.855700  0.139400  0.107600  1.0  0.0948
  H  H60  1  0.964400  0.084500  0.049100  1.0  0.0856
  H  H61  1  0.763500  0.179100  0.421900  1.0  0.2584
  H  H62  1  0.825900  0.254000  0.704100  1.0  0.3572
  H  H63  1  0.168700  0.297500  0.540200  1.0  0.0857
  H  H64  1  0.830800  0.273100  0.452500  1.0  0.1055
  H  H65  1  0.095900  0.172800  0.516100  1.0  0.1165
  H  H66  1  0.431500  0.197800  0.603400  1.0  0.1039
  H  H67  1  0.031400  0.291100  0.263900  1.0  0.2828
  H  H68  1  0.392300  0.477100  0.367400  1.0  0.3769
  H  H69  1  0.126900  0.407300  0.277000  1.0  0.1092
  H  H70  1  0.012100  0.348900  0.240800  1.0  0.1106
  H  H71  1  0.541900  0.311300  0.414100  1.0  0.111
  H  H72  1  0.660200  0.369800  0.449500  1.0  0.0789
  C  C73  1  0.210800  0.302740  0.777230  1.0  0.6688
  C  C74  1  0.542000  0.285460  0.868730  1.0  0.6323
  C  C75  1  0.269300  0.243840  0.811040  1.0  0.6512
  C  C76  1  0.343900  0.462740  0.593230  1.0  0.6385
  C  C77  1  0.279600  0.427140  0.629980  1.0  -0.1392
  C  C78  1  0.431100  0.413480  0.697330  1.0  -0.0356
  C  C79  1  0.369400  0.380420  0.732620  1.0  -0.1458
  C  C80  1  0.153400  0.360560  0.699470  1.0  0.2266
  C  C81  1  0.003100  0.374040  0.630790  1.0  -0.1952
  C  C82  1  0.066900  0.406810  0.596300  1.0  -0.0689
  C  C83  1  0.558700  0.233410  0.131770  1.0  0.6329
  C  C84  1  0.336700  0.249790  0.079560  1.0  -0.1899
  C  C85  1  0.154400  0.227850  0.034730  1.0  -0.0618
  C  C86  1  0.953200  0.242270  0.982500  1.0  -0.1683
  C  C87  1  0.931300  0.279550  0.974240  1.0  0.2162
  C  C88  1  0.111500  0.301850  0.020550  1.0  -0.2004
  C  C89  1  0.310800  0.286950  0.072340  1.0  -0.0549
  C  C90  1  0.485300  0.068190  0.890530  1.0  0.648
  C  C91  1  0.409900  0.105370  0.865750  1.0  -0.1231
  C  C92  1  0.216000  0.112150  0.804900  1.0  -0.1008
  C  C93  1  0.147800  0.147030  0.783400  1.0  -0.1664
  C  C94  1  0.271600  0.175840  0.821940  1.0  0.267
  C  C95  1  0.458500  0.169250  0.884700  1.0  -0.1578
  C  C96  1  0.527700  0.134240  0.905900  1.0  -0.1004
  C  C97  1  0.789200  0.802740  0.722770  1.0  0.6686
  C  C98  1  0.458000  0.785460  0.631270  1.0  0.6314
  C  C99  1  0.730700  0.743840  0.688960  1.0  0.6502
  C  C100  1  0.656100  0.962740  0.906770  1.0  0.6385
  C  C101  1  0.720400  0.927140  0.870020  1.0  -0.1392
  C  C102  1  0.568900  0.913480  0.802670  1.0  -0.0343
  C  C103  1  0.630600  0.880420  0.767380  1.0  -0.1444
  C  C104  1  0.846600  0.860560  0.800530  1.0  0.2264
  C  C105  1  0.996900  0.874040  0.869210  1.0  -0.1941
  C  C106  1  0.933100  0.906810  0.903700  1.0  -0.0714
  C  C107  1  0.441300  0.733410  0.368230  1.0  0.6333
  C  C108  1  0.663300  0.749790  0.420440  1.0  -0.1899
  C  C109  1  0.845600  0.727850  0.465270  1.0  -0.0621
  C  C110  1  0.046800  0.742270  0.517500  1.0  -0.1681
  C  C111  1  0.068700  0.779550  0.525760  1.0  0.2154
  C  C112  1  0.888500  0.801850  0.479450  1.0  -0.1992
  C  C113  1  0.689200  0.786950  0.427660  1.0  -0.0557
  C  C114  1  0.514700  0.568190  0.609470  1.0  0.6495
  C  C115  1  0.590100  0.605370  0.634250  1.0  -0.1233
  C  C116  1  0.784000  0.612150  0.695100  1.0  -0.0986
  C  C117  1  0.852200  0.647030  0.716600  1.0  -0.1654
  C  C118  1  0.728400  0.675840  0.678060  1.0  0.2666
  C  C119  1  0.541500  0.669250  0.615300  1.0  -0.1583
  C  C120  1  0.472300  0.634240  0.594100  1.0  -0.1004
  C  C121  1  0.789200  0.697260  0.222770  1.0  0.6677
  C  C122  1  0.458000  0.714540  0.131270  1.0  0.6307
  C  C123  1  0.730700  0.756160  0.188960  1.0  0.6511
  C  C124  1  0.656100  0.537260  0.406770  1.0  0.6382
  C  C125  1  0.720400  0.572860  0.370020  1.0  -0.1406
  C  C126  1  0.568900  0.586520  0.302670  1.0  -0.0362
  C  C127  1  0.630600  0.619580  0.267380  1.0  -0.1447
  C  C128  1  0.846600  0.639440  0.300530  1.0  0.2257
  C  C129  1  0.996900  0.625960  0.369210  1.0  -0.1946
  C  C130  1  0.933100  0.593190  0.403700  1.0  -0.0711
  C  C131  1  0.441300  0.766590  0.868230  1.0  0.633
  C  C132  1  0.663300  0.750210  0.920440  1.0  -0.1893
  C  C133  1  0.845600  0.772150  0.965270  1.0  -0.062
  C  C134  1  0.046800  0.757730  0.017500  1.0  -0.1675
  C  C135  1  0.068700  0.720450  0.025760  1.0  0.2151
  C  C136  1  0.888500  0.698150  0.979450  1.0  -0.2007
  C  C137  1  0.689200  0.713050  0.927660  1.0  -0.054
  C  C138  1  0.514700  0.931810  0.109470  1.0  0.6483
  C  C139  1  0.590100  0.894630  0.134250  1.0  -0.1228
  C  C140  1  0.784000  0.887850  0.195100  1.0  -0.0996
  C  C141  1  0.852200  0.852970  0.216600  1.0  -0.1658
  C  C142  1  0.728400  0.824160  0.178060  1.0  0.2666
  C  C143  1  0.541500  0.830750  0.115300  1.0  -0.1584
  C  C144  1  0.472300  0.865760  0.094100  1.0  -0.1004
  C  C145  1  0.210800  0.197260  0.277230  1.0  0.6682
  C  C146  1  0.542000  0.214540  0.368730  1.0  0.6321
  C  C147  1  0.269300  0.256160  0.311040  1.0  0.652
  C  C148  1  0.343900  0.037260  0.093230  1.0  0.6383
  C  C149  1  0.279600  0.072860  0.129980  1.0  -0.1389
  C  C150  1  0.431100  0.086520  0.197330  1.0  -0.0373
  C  C151  1  0.369400  0.119580  0.232620  1.0  -0.1467
  C  C152  1  0.153400  0.139440  0.199470  1.0  0.2268
  C  C153  1  0.003100  0.125960  0.130790  1.0  -0.1955
  C  C154  1  0.066900  0.093190  0.096300  1.0  -0.0686
  C  C155  1  0.558700  0.266590  0.631770  1.0  0.6329
  C  C156  1  0.336700  0.250210  0.579560  1.0  -0.1895
  C  C157  1  0.154400  0.272150  0.534730  1.0  -0.0618
  C  C158  1  0.953200  0.257730  0.482500  1.0  -0.1682
  C  C159  1  0.931300  0.220450  0.474240  1.0  0.2155
  C  C160  1  0.111500  0.198150  0.520550  1.0  -0.2026
  C  C161  1  0.310800  0.213050  0.572340  1.0  -0.0579
  C  C162  1  0.485300  0.431810  0.390530  1.0  0.6471
  C  C163  1  0.409900  0.394630  0.365750  1.0  -0.1225
  C  C164  1  0.216000  0.387850  0.304900  1.0  -0.1
  C  C165  1  0.147800  0.352970  0.283400  1.0  -0.1666
  C  C166  1  0.271600  0.324160  0.321940  1.0  0.2666
  C  C167  1  0.458500  0.330750  0.384700  1.0  -0.1576
  C  C168  1  0.527700  0.365760  0.405900  1.0  -0.1002
  N  N169  1  0.416200  0.312750  0.827270  1.0  -0.6147
  N  N170  1  0.486100  0.250340  0.861440  1.0  -0.59
  N  N171  1  0.119300  0.268490  0.769200  1.0  -0.3198
  N  N172  1  0.071500  0.326810  0.728440  1.0  -0.4196
  N  N173  1  0.745600  0.297380  0.921280  1.0  -0.3984
  N  N174  1  0.178800  0.209720  0.796290  1.0  -0.334
  N  N175  1  0.583800  0.812750  0.672730  1.0  -0.6145
  N  N176  1  0.513900  0.750340  0.638560  1.0  -0.5925
  N  N177  1  0.880700  0.768490  0.730800  1.0  -0.3197
  N  N178  1  0.928500  0.826810  0.771560  1.0  -0.4194
  N  N179  1  0.254400  0.797380  0.578720  1.0  -0.3991
  N  N180  1  0.821200  0.709720  0.703710  1.0  -0.333
  N  N181  1  0.583800  0.687250  0.172730  1.0  -0.6134
  N  N182  1  0.513900  0.749660  0.138560  1.0  -0.5922
  N  N183  1  0.880700  0.731510  0.230800  1.0  -0.3192
  N  N184  1  0.928500  0.673190  0.271560  1.0  -0.4196
  N  N185  1  0.254400  0.702620  0.078720  1.0  -0.4017
  N  N186  1  0.821200  0.790280  0.203710  1.0  -0.3325
  N  N187  1  0.416200  0.187250  0.327270  1.0  -0.614
  N  N188  1  0.486100  0.249660  0.361440  1.0  -0.5894
  N  N189  1  0.119300  0.231510  0.269200  1.0  -0.3197
  N  N190  1  0.071500  0.173190  0.228440  1.0  -0.4191
  N  N191  1  0.745600  0.202620  0.421280  1.0  -0.4013
  N  N192  1  0.178800  0.290280  0.296290  1.0  -0.3337
  O  O193  1  0.174600  0.477570  0.544130  1.0  -0.8285
  O  O194  1  0.572900  0.476720  0.612080  1.0  -0.6494
  O  O195  1  0.704100  0.256830  0.176210  1.0  -0.5255
  O  O196  1  0.602400  0.201020  0.133290  1.0  -0.5453
  O  O197  1  0.655200  0.061480  0.944960  1.0  -0.5901
  O  O198  1  0.349800  0.043270  0.848340  1.0  -0.5227
  O  O199  1  0.825400  0.977570  0.955870  1.0  -0.8296
  O  O200  1  0.427100  0.976720  0.887920  1.0  -0.648
  O  O201  1  0.295900  0.756830  0.323790  1.0  -0.5263
  O  O202  1  0.397600  0.701020  0.366710  1.0  -0.5451
  O  O203  1  0.344800  0.561480  0.555040  1.0  -0.5908
  O  O204  1  0.650200  0.543270  0.651660  1.0  -0.5245
  O  O205  1  0.825400  0.522430  0.455870  1.0  -0.8298
  O  O206  1  0.427100  0.523280  0.387920  1.0  -0.649
  O  O207  1  0.295900  0.743170  0.823790  1.0  -0.5253
  O  O208  1  0.397600  0.798980  0.866710  1.0  -0.5451
  O  O209  1  0.344800  0.938520  0.055040  1.0  -0.5908
  O  O210  1  0.650200  0.956730  0.151660  1.0  -0.5238
  O  O211  1  0.174600  0.022430  0.044130  1.0  -0.8288
  O  O212  1  0.572900  0.023280  0.112080  1.0  -0.65
  O  O213  1  0.704100  0.243170  0.676210  1.0  -0.5255
  O  O214  1  0.602400  0.298980  0.633290  1.0  -0.545
  O  O215  1  0.655200  0.438520  0.444960  1.0  -0.59
  O  O216  1  0.349800  0.456730  0.348340  1.0  -0.5223
