# generated using pymatgen
data_Cu6H24WC32S4(IN6)4
_symmetry_space_group_name_H-M   'P 1'
_cell_length_a   26.29340000
_cell_length_b   26.29340000
_cell_length_c   26.29340000
_cell_angle_alpha   109.47100000
_cell_angle_beta   109.47100000
_cell_angle_gamma   109.47100000
_symmetry_Int_Tables_number   1
_chemical_formula_structural   Cu6H24WC32S4(IN6)4
_chemical_formula_sum   'Cu36 H144 W6 C192 S24 I24 N144'
_cell_volume   13993.35661030
_cell_formula_units_Z   6
loop_
 _symmetry_equiv_pos_site_id
 _symmetry_equiv_pos_as_xyz
  1  'x, y, z'
loop_
 _atom_site_type_symbol
 _atom_site_label
 _atom_site_symmetry_multiplicity
 _atom_site_fract_x
 _atom_site_fract_y
 _atom_site_fract_z
 _atom_site_occupancy
 _atom_site_charge
  Cu  Cu1  1  0.266800  0.327160  0.202980  1.0  0.2725
  Cu  Cu2  1  0.624180  0.063820  0.297020  1.0  0.2698
  Cu  Cu3  1  0.875820  0.172840  0.439640  1.0  0.2728
  Cu  Cu4  1  0.233200  0.436180  0.060360  1.0  0.2718
  Cu  Cu5  1  0.939640  0.875820  0.672840  1.0  0.2721
  Cu  Cu6  1  0.560360  0.233200  0.936180  1.0  0.2707
  Cu  Cu7  1  0.702980  0.266800  0.827160  1.0  0.2728
  Cu  Cu8  1  0.797020  0.624180  0.563820  1.0  0.2734
  Cu  Cu9  1  0.063820  0.797020  0.124180  1.0  0.2722
  Cu  Cu10  1  0.327160  0.702980  0.766800  1.0  0.2705
  Cu  Cu11  1  0.436180  0.560360  0.733200  1.0  0.2707
  Cu  Cu12  1  0.172840  0.939640  0.375820  1.0  0.2729
  Cu  Cu13  1  0.563820  0.124180  0.797020  1.0  0.2718
  Cu  Cu14  1  0.827160  0.766800  0.702980  1.0  0.2709
  Cu  Cu15  1  0.936180  0.733200  0.560360  1.0  0.2728
  Cu  Cu16  1  0.672840  0.375820  0.939640  1.0  0.2733
  Cu  Cu17  1  0.766800  0.202980  0.327160  1.0  0.2713
  Cu  Cu18  1  0.124180  0.297020  0.063820  1.0  0.2709
  Cu  Cu19  1  0.375820  0.439640  0.172840  1.0  0.2717
  Cu  Cu20  1  0.733200  0.060360  0.436180  1.0  0.2722
  Cu  Cu21  1  0.439640  0.672840  0.875820  1.0  0.2735
  Cu  Cu22  1  0.060360  0.936180  0.233200  1.0  0.2698
  Cu  Cu23  1  0.202980  0.827160  0.266800  1.0  0.2722
  Cu  Cu24  1  0.297020  0.563820  0.624180  1.0  0.2722
  Cu  Cu25  1  0.250000  0.286280  0.036280  1.0  0.3589
  Cu  Cu26  1  0.750000  0.213720  0.463720  1.0  0.3566
  Cu  Cu27  1  0.963720  0.750000  0.713720  1.0  0.357
  Cu  Cu28  1  0.536280  0.250000  0.786280  1.0  0.3585
  Cu  Cu29  1  0.213720  0.963720  0.250000  1.0  0.3588
  Cu  Cu30  1  0.286280  0.536280  0.750000  1.0  0.3565
  Cu  Cu31  1  0.713720  0.250000  0.963720  1.0  0.357
  Cu  Cu32  1  0.786280  0.750000  0.536280  1.0  0.3585
  Cu  Cu33  1  0.750000  0.036280  0.286280  1.0  0.3589
  Cu  Cu34  1  0.250000  0.463720  0.213720  1.0  0.3566
  Cu  Cu35  1  0.463720  0.713720  0.750000  1.0  0.3588
  Cu  Cu36  1  0.036280  0.786280  0.250000  1.0  0.3565
  H  H37  1  0.413000  0.423000  0.326200  1.0  0.1459
  H  H38  1  0.243600  0.366400  0.314200  1.0  0.1206
  H  H39  1  0.324400  0.433600  0.426600  1.0  0.1168
  H  H40  1  0.270600  0.341000  0.944800  1.0  0.1188
  H  H41  1  0.327300  0.230000  0.992900  1.0  0.1411
  H  H42  1  0.365500  0.248400  0.921500  1.0  0.1474
  H  H43  1  0.596800  0.086800  0.173800  1.0  0.149
  H  H44  1  0.552200  0.929400  0.185800  1.0  0.1209
  H  H45  1  0.507000  0.897800  0.073400  1.0  0.1161
  H  H46  1  0.896200  0.325800  0.555200  1.0  0.1181
  H  H47  1  0.737100  0.334400  0.507100  1.0  0.1414
  H  H48  1  0.826900  0.444000  0.578500  1.0  0.1467
  H  H49  1  0.903200  0.077000  0.490000  1.0  0.1475
  H  H50  1  0.947800  0.133600  0.377200  1.0  0.1187
  H  H51  1  0.993000  0.066400  0.390800  1.0  0.1155
  H  H52  1  0.603800  0.159000  0.429600  1.0  0.1205
  H  H53  1  0.762900  0.270000  0.597300  1.0  0.1411
  H  H54  1  0.673100  0.251600  0.617100  1.0  0.1475
  H  H55  1  0.087000  0.413200  0.010000  1.0  0.1496
  H  H56  1  0.256400  0.570600  0.122800  1.0  0.1208
  H  H57  1  0.175600  0.602200  0.109200  1.0  0.1168
  H  H58  1  0.229400  0.174200  0.070400  1.0  0.1177
  H  H59  1  0.172700  0.165600  0.902700  1.0  0.1411
  H  H60  1  0.134500  0.056000  0.882900  1.0  0.1462
  H  H61  1  0.990000  0.903200  0.577000  1.0  0.1474
  H  H62  1  0.877200  0.947800  0.633600  1.0  0.1198
  H  H63  1  0.890800  0.993000  0.566400  1.0  0.1175
  H  H64  1  0.929600  0.603800  0.659000  1.0  0.119
  H  H65  1  0.097300  0.762900  0.770000  1.0  0.1432
  H  H66  1  0.117100  0.673100  0.751600  1.0  0.1446
  H  H67  1  0.510000  0.087000  0.913200  1.0  0.1466
  H  H68  1  0.622800  0.256400  0.070600  1.0  0.1204
  H  H69  1  0.609200  0.175600  0.102200  1.0  0.1159
  H  H70  1  0.570400  0.229400  0.674200  1.0  0.1187
  H  H71  1  0.402700  0.172700  0.665600  1.0  0.1417
  H  H72  1  0.382900  0.134500  0.556000  1.0  0.1457
  H  H73  1  0.826200  0.413000  0.923000  1.0  0.1466
  H  H74  1  0.814200  0.243600  0.866400  1.0  0.1223
  H  H75  1  0.926600  0.324400  0.933600  1.0  0.1172
  H  H76  1  0.444800  0.270600  0.841000  1.0  0.1197
  H  H77  1  0.492900  0.327300  0.730000  1.0  0.1414
  H  H78  1  0.421500  0.365500  0.748400  1.0  0.1471
  H  H79  1  0.673800  0.596800  0.586800  1.0  0.1466
  H  H80  1  0.685800  0.552200  0.429400  1.0  0.1194
  H  H81  1  0.573400  0.507000  0.397800  1.0  0.1155
  H  H82  1  0.055200  0.896200  0.825800  1.0  0.12
  H  H83  1  0.007100  0.737100  0.834400  1.0  0.1441
  H  H84  1  0.078500  0.826900  0.944000  1.0  0.1459
  H  H85  1  0.086800  0.673800  0.096800  1.0  0.1466
  H  H86  1  0.929400  0.685800  0.052200  1.0  0.1193
  H  H87  1  0.897800  0.573400  0.007000  1.0  0.116
  H  H88  1  0.325800  0.055200  0.396200  1.0  0.1187
  H  H89  1  0.334400  0.007100  0.237100  1.0  0.1409
  H  H90  1  0.444000  0.078500  0.326900  1.0  0.1463
  H  H91  1  0.423000  0.826200  0.913000  1.0  0.1465
  H  H92  1  0.366400  0.814200  0.743600  1.0  0.1185
  H  H93  1  0.433600  0.926600  0.824400  1.0  0.1157
  H  H94  1  0.341000  0.444800  0.770600  1.0  0.1198
  H  H95  1  0.230000  0.492900  0.827300  1.0  0.1418
  H  H96  1  0.248400  0.421500  0.865500  1.0  0.1466
  H  H97  1  0.413200  0.510000  0.587000  1.0  0.1489
  H  H98  1  0.570600  0.622800  0.756400  1.0  0.1183
  H  H99  1  0.602200  0.609200  0.675600  1.0  0.1164
  H  H100  1  0.174200  0.570400  0.729400  1.0  0.1197
  H  H101  1  0.165600  0.402700  0.672700  1.0  0.143
  H  H102  1  0.056000  0.382900  0.634500  1.0  0.1484
  H  H103  1  0.077000  0.990000  0.403200  1.0  0.1474
  H  H104  1  0.133600  0.877200  0.447800  1.0  0.119
  H  H105  1  0.066400  0.890800  0.493000  1.0  0.1138
  H  H106  1  0.159000  0.929600  0.103800  1.0  0.12
  H  H107  1  0.270000  0.097300  0.262900  1.0  0.1432
  H  H108  1  0.251600  0.117100  0.173100  1.0  0.1473
  H  H109  1  0.586800  0.096800  0.673800  1.0  0.1471
  H  H110  1  0.429400  0.052200  0.685800  1.0  0.1201
  H  H111  1  0.397800  0.007000  0.573400  1.0  0.1165
  H  H112  1  0.825800  0.396200  0.055200  1.0  0.119
  H  H113  1  0.834400  0.237100  0.007100  1.0  0.1438
  H  H114  1  0.944000  0.326900  0.078500  1.0  0.1451
  H  H115  1  0.923000  0.913000  0.826200  1.0  0.1472
  H  H116  1  0.866400  0.743600  0.814200  1.0  0.1218
  H  H117  1  0.933600  0.824400  0.926600  1.0  0.1158
  H  H118  1  0.841000  0.770600  0.444800  1.0  0.1194
  H  H119  1  0.730000  0.827300  0.492900  1.0  0.1414
  H  H120  1  0.748400  0.865500  0.421500  1.0  0.1459
  H  H121  1  0.913200  0.587000  0.510000  1.0  0.1462
  H  H122  1  0.070600  0.756400  0.622800  1.0  0.1212
  H  H123  1  0.102200  0.675600  0.609200  1.0  0.1171
  H  H124  1  0.674200  0.729400  0.570400  1.0  0.1188
  H  H125  1  0.665600  0.672700  0.402700  1.0  0.1415
  H  H126  1  0.556000  0.634500  0.382900  1.0  0.1467
  H  H127  1  0.577000  0.403200  0.990000  1.0  0.1467
  H  H128  1  0.633600  0.447800  0.877200  1.0  0.119
  H  H129  1  0.566400  0.493000  0.890800  1.0  0.1158
  H  H130  1  0.659000  0.103800  0.929600  1.0  0.1197
  H  H131  1  0.770000  0.262900  0.097300  1.0  0.1432
  H  H132  1  0.751600  0.173100  0.117100  1.0  0.1458
  H  H133  1  0.913000  0.326200  0.423000  1.0  0.1459
  H  H134  1  0.743600  0.314200  0.366400  1.0  0.1197
  H  H135  1  0.824400  0.426600  0.433600  1.0  0.1166
  H  H136  1  0.770600  0.944800  0.341000  1.0  0.119
  H  H137  1  0.827300  0.992900  0.230000  1.0  0.1407
  H  H138  1  0.865500  0.921500  0.248400  1.0  0.1458
  H  H139  1  0.096800  0.173800  0.086800  1.0  0.1465
  H  H140  1  0.052200  0.185800  0.929400  1.0  0.1181
  H  H141  1  0.007000  0.073400  0.897800  1.0  0.1152
  H  H142  1  0.396200  0.555200  0.325800  1.0  0.1195
  H  H143  1  0.237100  0.507100  0.334400  1.0  0.142
  H  H144  1  0.326900  0.578500  0.444000  1.0  0.1466
  H  H145  1  0.403200  0.490000  0.077000  1.0  0.1483
  H  H146  1  0.447800  0.377200  0.133600  1.0  0.1187
  H  H147  1  0.493000  0.390800  0.066400  1.0  0.1168
  H  H148  1  0.103800  0.429600  0.159000  1.0  0.1208
  H  H149  1  0.262900  0.597300  0.270000  1.0  0.1428
  H  H150  1  0.173100  0.617100  0.251600  1.0  0.1483
  H  H151  1  0.587000  0.010000  0.413200  1.0  0.1479
  H  H152  1  0.756400  0.122800  0.570600  1.0  0.1188
  H  H153  1  0.675600  0.109200  0.602200  1.0  0.1139
  H  H154  1  0.729400  0.070400  0.174200  1.0  0.1191
  H  H155  1  0.672700  0.902700  0.165600  1.0  0.1438
  H  H156  1  0.634500  0.882900  0.056000  1.0  0.1477
  H  H157  1  0.490000  0.577000  0.903200  1.0  0.1462
  H  H158  1  0.377200  0.633600  0.947800  1.0  0.1205
  H  H159  1  0.390800  0.566400  0.993000  1.0  0.1162
  H  H160  1  0.429600  0.659000  0.603800  1.0  0.119
  H  H161  1  0.597300  0.770000  0.762900  1.0  0.1409
  H  H162  1  0.617100  0.751600  0.673100  1.0  0.1469
  H  H163  1  0.010000  0.913200  0.087000  1.0  0.1507
  H  H164  1  0.122800  0.070600  0.256400  1.0  0.1209
  H  H165  1  0.109200  0.102200  0.175600  1.0  0.1168
  H  H166  1  0.070400  0.674200  0.229400  1.0  0.1183
  H  H167  1  0.902700  0.665600  0.172700  1.0  0.1413
  H  H168  1  0.882900  0.556000  0.134500  1.0  0.1472
  H  H169  1  0.326200  0.923000  0.413000  1.0  0.147
  H  H170  1  0.314200  0.866400  0.243600  1.0  0.1187
  H  H171  1  0.426600  0.933600  0.324400  1.0  0.1169
  H  H172  1  0.944800  0.841000  0.270600  1.0  0.1203
  H  H173  1  0.992900  0.730000  0.327300  1.0  0.1413
  H  H174  1  0.921500  0.748400  0.365500  1.0  0.1483
  H  H175  1  0.173800  0.586800  0.596800  1.0  0.1481
  H  H176  1  0.185800  0.429400  0.552200  1.0  0.1205
  H  H177  1  0.073400  0.397800  0.507000  1.0  0.1173
  H  H178  1  0.555200  0.825800  0.896200  1.0  0.1174
  H  H179  1  0.507100  0.834400  0.737100  1.0  0.1414
  H  H180  1  0.578500  0.944000  0.826900  1.0  0.1465
  W  W181  1  0.250000  0.375000  0.125000  1.0  0.4489
  W  W182  1  0.750000  0.125000  0.375000  1.0  0.4492
  W  W183  1  0.875000  0.750000  0.625000  1.0  0.4488
  W  W184  1  0.625000  0.250000  0.875000  1.0  0.4492
  W  W185  1  0.125000  0.875000  0.250000  1.0  0.4487
  W  W186  1  0.375000  0.625000  0.750000  1.0  0.4486
  C  C187  1  0.382100  0.417500  0.337000  1.0  0.1302
  C  C188  1  0.286300  0.385500  0.330000  1.0  -0.0037
  C  C189  1  0.331900  0.423300  0.393400  1.0  -0.0009
  C  C190  1  0.448200  0.478200  0.450400  1.0  0.129
  C  C191  1  0.288900  0.316600  0.947900  1.0  0.1562
  C  C192  1  0.321200  0.254010  0.975010  1.0  -0.0043
  C  C193  1  0.342400  0.264000  0.934400  1.0  -0.0086
  C  C194  1  0.336600  0.329800  0.884800  1.0  0.33
  C  C195  1  0.580500  0.045100  0.163000  1.0  0.1295
  C  C196  1  0.555500  0.956300  0.170000  1.0  0.0014
  C  C197  1  0.529900  0.938500  0.106600  1.0  -0.0017
  C  C198  1  0.527800  0.997800  0.049600  1.0  0.1313
  C  C199  1  0.868700  0.341000  0.552100  1.0  0.1597
  C  C200  1  0.779000  0.346190  0.524990  1.0  -0.0048
  C  C201  1  0.829600  0.408000  0.565600  1.0  -0.0073
  C  C202  1  0.945000  0.451800  0.615200  1.0  0.3357
  C  C203  1  0.919500  0.082500  0.464600  1.0  0.1285
  C  C204  1  0.944500  0.114500  0.400800  1.0  -1e-04
  C  C205  1  0.970100  0.076700  0.408600  1.0  -0.001
  C  C206  1  0.972200  0.021800  0.470000  1.0  0.127
  C  C207  1  0.631300  0.183400  0.472300  1.0  0.1648
  C  C208  1  0.721000  0.245990  0.567190  1.0  -0.0042
  C  C209  1  0.670400  0.236000  0.578400  1.0  -0.0018
  C  C210  1  0.555000  0.170200  0.506800  1.0  0.3295
  C  C211  1  0.117900  0.454900  0.035400  1.0  0.1281
  C  C212  1  0.213700  0.543700  0.099200  1.0  0.0005
  C  C213  1  0.168100  0.561500  0.091400  1.0  -0.002
  C  C214  1  0.051800  0.502200  0.030000  1.0  0.1283
  C  C215  1  0.211100  0.159000  0.027700  1.0  0.1602
  C  C216  1  0.178800  0.153810  0.932810  1.0  -0.0014
  C  C217  1  0.157600  0.092000  0.921600  1.0  -0.0046
  C  C218  1  0.163400  0.048200  0.993200  1.0  0.331
  C  C219  1  0.964600  0.919500  0.582500  1.0  0.1299
  C  C220  1  0.900800  0.944500  0.614500  1.0  0.003
  C  C221  1  0.908600  0.970100  0.576700  1.0  -0.0031
  C  C222  1  0.970000  0.972200  0.521800  1.0  0.1293
  C  C223  1  0.972300  0.631300  0.683400  1.0  0.1564
  C  C224  1  0.067190  0.721000  0.745990  1.0  -0.0043
  C  C225  1  0.078400  0.670400  0.736000  1.0  -0.0023
  C  C226  1  0.006800  0.555000  0.670200  1.0  0.3324
  C  C227  1  0.535400  0.117900  0.954900  1.0  0.1312
  C  C228  1  0.599200  0.213700  0.043700  1.0  0.002
  C  C229  1  0.591400  0.168100  0.061500  1.0  0.0024
  C  C230  1  0.530000  0.051800  0.002200  1.0  0.1284
  C  C231  1  0.527700  0.211100  0.659000  1.0  0.1596
  C  C232  1  0.432810  0.178800  0.653810  1.0  -0.0023
  C  C233  1  0.421600  0.157600  0.592000  1.0  -0.0031
  C  C234  1  0.493200  0.163400  0.548200  1.0  0.335
  C  C235  1  0.837000  0.382100  0.917500  1.0  0.1299
  C  C236  1  0.830000  0.286300  0.885500  1.0  -0.0013
  C  C237  1  0.893400  0.331900  0.923300  1.0  0.0005
  C  C238  1  0.950400  0.448200  0.978200  1.0  0.1313
  C  C239  1  0.447900  0.288900  0.816600  1.0  0.1596
  C  C240  1  0.475010  0.321200  0.754010  1.0  -0.0013
  C  C241  1  0.434400  0.342400  0.764000  1.0  -0.0063
  C  C242  1  0.384800  0.336600  0.829800  1.0  0.3303
  C  C243  1  0.663000  0.580500  0.545100  1.0  0.1288
  C  C244  1  0.670000  0.555500  0.456300  1.0  0.0013
  C  C245  1  0.606600  0.529900  0.438500  1.0  -0.0015
  C  C246  1  0.549600  0.527800  0.497800  1.0  0.129
  C  C247  1  0.052100  0.868700  0.841000  1.0  0.1643
  C  C248  1  0.024990  0.779000  0.846190  1.0  -0.0044
  C  C249  1  0.065600  0.829600  0.908000  1.0  -0.0003
  C  C250  1  0.115200  0.945000  0.951800  1.0  0.3289
  C  C251  1  0.045100  0.663000  0.080500  1.0  0.1287
  C  C252  1  0.956300  0.670000  0.055500  1.0  -0.0009
  C  C253  1  0.938500  0.606600  0.029900  1.0  0.0012
  C  C254  1  0.997800  0.549600  0.027800  1.0  0.1306
  C  C255  1  0.341000  0.052100  0.368700  1.0  0.1572
  C  C256  1  0.346190  0.024990  0.279000  1.0  -0.001
  C  C257  1  0.408000  0.065600  0.329600  1.0  -0.0066
  C  C258  1  0.451800  0.115200  0.445000  1.0  0.3307
  C  C259  1  0.417500  0.837000  0.882100  1.0  0.1303
  C  C260  1  0.385500  0.830000  0.786300  1.0  0.0
  C  C261  1  0.423300  0.893400  0.831900  1.0  -0.0006
  C  C262  1  0.478200  0.950400  0.948200  1.0  0.1315
  C  C263  1  0.316600  0.447900  0.788900  1.0  0.1639
  C  C264  1  0.254010  0.475010  0.821200  1.0  -0.0041
  C  C265  1  0.264000  0.434400  0.842400  1.0  -0.0087
  C  C266  1  0.329800  0.384800  0.836600  1.0  0.3306
  C  C267  1  0.454900  0.535400  0.617900  1.0  0.1304
  C  C268  1  0.543700  0.599200  0.713700  1.0  0.0048
  C  C269  1  0.561500  0.591400  0.668100  1.0  0.0008
  C  C270  1  0.502200  0.530000  0.551800  1.0  0.1296
  C  C271  1  0.159000  0.527700  0.711100  1.0  0.1566
  C  C272  1  0.153810  0.432810  0.678800  1.0  -0.0053
  C  C273  1  0.092000  0.421600  0.657600  1.0  -0.0068
  C  C274  1  0.048200  0.493200  0.663400  1.0  0.3369
  C  C275  1  0.082500  0.964600  0.419500  1.0  0.1299
  C  C276  1  0.114500  0.900800  0.444500  1.0  0.0031
  C  C277  1  0.076700  0.908600  0.470100  1.0  0.0012
  C  C278  1  0.021800  0.970000  0.472200  1.0  0.1275
  C  C279  1  0.183400  0.972300  0.131300  1.0  0.1592
  C  C280  1  0.245990  0.067190  0.221000  1.0  -0.0041
  C  C281  1  0.236000  0.078400  0.170400  1.0  -0.0052
  C  C282  1  0.170200  0.006800  0.055000  1.0  0.3242
  C  C283  1  0.545100  0.080500  0.663000  1.0  0.1299
  C  C284  1  0.456300  0.055500  0.670000  1.0  0.0024
  C  C285  1  0.438500  0.029900  0.606600  1.0  -0.0029
  C  C286  1  0.497800  0.027800  0.549600  1.0  0.1311
  C  C287  1  0.841000  0.368700  0.052100  1.0  0.1553
  C  C288  1  0.846190  0.279000  0.024990  1.0  -0.0054
  C  C289  1  0.908000  0.329600  0.065600  1.0  -0.0024
  C  C290  1  0.951800  0.445000  0.115200  1.0  0.3355
  C  C291  1  0.917500  0.882100  0.837000  1.0  0.132
  C  C292  1  0.885500  0.786300  0.830000  1.0  -0.0005
  C  C293  1  0.923300  0.831900  0.893400  1.0  0.0011
  C  C294  1  0.978200  0.948200  0.950400  1.0  0.1308
  C  C295  1  0.816600  0.788900  0.447900  1.0  0.1594
  C  C296  1  0.754010  0.821200  0.475010  1.0  -0.0021
  C  C297  1  0.764000  0.842400  0.434400  1.0  -0.0065
  C  C298  1  0.829800  0.836600  0.384800  1.0  0.3309
  C  C299  1  0.954900  0.617900  0.535400  1.0  0.1294
  C  C300  1  0.043700  0.713700  0.599200  1.0  0.003
  C  C301  1  0.061500  0.668100  0.591400  1.0  0.0017
  C  C302  1  0.002200  0.551800  0.530000  1.0  0.1297
  C  C303  1  0.659000  0.711100  0.527700  1.0  0.1581
  C  C304  1  0.653810  0.678800  0.432810  1.0  -0.0012
  C  C305  1  0.592000  0.657600  0.421600  1.0  -0.0033
  C  C306  1  0.548200  0.663400  0.493200  1.0  0.3352
  C  C307  1  0.582500  0.419500  0.964600  1.0  0.1288
  C  C308  1  0.614500  0.444500  0.900800  1.0  0.0028
  C  C309  1  0.576700  0.470100  0.908600  1.0  -0.0022
  C  C310  1  0.521800  0.472200  0.970000  1.0  0.1277
  C  C311  1  0.683400  0.131300  0.972300  1.0  0.1653
  C  C312  1  0.745990  0.221000  0.067190  1.0  -0.0037
  C  C313  1  0.736000  0.170400  0.078400  1.0  -0.0005
  C  C314  1  0.670200  0.055000  0.006800  1.0  0.3255
  C  C315  1  0.882100  0.337000  0.417500  1.0  0.1286
  C  C316  1  0.786300  0.330000  0.385500  1.0  -0.0002
  C  C317  1  0.831900  0.393400  0.423300  1.0  0.0003
  C  C318  1  0.948200  0.450400  0.478200  1.0  0.1316
  C  C319  1  0.788900  0.947900  0.316600  1.0  0.1577
  C  C320  1  0.821200  0.975010  0.254010  1.0  -0.0009
  C  C321  1  0.842400  0.934400  0.264000  1.0  -0.0072
  C  C322  1  0.836600  0.884800  0.329800  1.0  0.3294
  C  C323  1  0.080500  0.163000  0.045100  1.0  0.1297
  C  C324  1  0.055500  0.170000  0.956300  1.0  0.0004
  C  C325  1  0.029900  0.106600  0.938500  1.0  -0.0002
  C  C326  1  0.027800  0.049600  0.997800  1.0  0.13
  C  C327  1  0.368700  0.552100  0.341000  1.0  0.1644
  C  C328  1  0.279000  0.524990  0.346190  1.0  -0.0035
  C  C329  1  0.329600  0.565600  0.408000  1.0  -0.0038
  C  C330  1  0.445000  0.615200  0.451800  1.0  0.331
  C  C331  1  0.419500  0.464600  0.082500  1.0  0.1284
  C  C332  1  0.444500  0.400800  0.114500  1.0  0.0056
  C  C333  1  0.470100  0.408600  0.076700  1.0  0.0007
  C  C334  1  0.472200  0.470000  0.021800  1.0  0.1284
  C  C335  1  0.131300  0.472300  0.183400  1.0  0.1584
  C  C336  1  0.221000  0.567190  0.245990  1.0  -0.0044
  C  C337  1  0.170400  0.578400  0.236000  1.0  -0.0048
  C  C338  1  0.055000  0.506800  0.170200  1.0  0.3321
  C  C339  1  0.617900  0.035400  0.454900  1.0  0.1306
  C  C340  1  0.713700  0.099200  0.543700  1.0  0.0023
  C  C341  1  0.668100  0.091400  0.561500  1.0  0.0014
  C  C342  1  0.551800  0.030000  0.502200  1.0  0.128
  C  C343  1  0.711100  0.027700  0.159000  1.0  0.1581
  C  C344  1  0.678800  0.932810  0.153810  1.0  -0.0048
  C  C345  1  0.657600  0.921600  0.092000  1.0  -0.0016
  C  C346  1  0.663400  0.993200  0.048200  1.0  0.3308
  C  C347  1  0.464600  0.582500  0.919500  1.0  0.13
  C  C348  1  0.400800  0.614500  0.944500  1.0  -0.0037
  C  C349  1  0.408600  0.576700  0.970100  1.0  -0.0013
  C  C350  1  0.470000  0.521800  0.972200  1.0  0.1272
  C  C351  1  0.472300  0.683400  0.631300  1.0  0.1559
  C  C352  1  0.567190  0.745990  0.721000  1.0  -0.0043
  C  C353  1  0.578400  0.736000  0.670400  1.0  -0.0095
  C  C354  1  0.506800  0.670200  0.555000  1.0  0.329
  C  C355  1  0.035400  0.954900  0.117900  1.0  0.1283
  C  C356  1  0.099200  0.043700  0.213700  1.0  0.002
  C  C357  1  0.091400  0.061500  0.168100  1.0  -0.0012
  C  C358  1  0.030000  0.002200  0.051800  1.0  0.1305
  C  C359  1  0.027700  0.659000  0.211100  1.0  0.158
  C  C360  1  0.932810  0.653810  0.178800  1.0  -0.0048
  C  C361  1  0.921600  0.592000  0.157600  1.0  -0.0088
  C  C362  1  0.993200  0.548200  0.163400  1.0  0.3379
  C  C363  1  0.337000  0.917500  0.382100  1.0  0.1294
  C  C364  1  0.330000  0.885500  0.286300  1.0  -0.0016
  C  C365  1  0.393400  0.923300  0.331900  1.0  0.0006
  C  C366  1  0.450400  0.978200  0.448200  1.0  0.1289
  C  C367  1  0.947900  0.816600  0.288900  1.0  0.1652
  C  C368  1  0.975010  0.754010  0.321200  1.0  -0.0044
  C  C369  1  0.934400  0.764000  0.342400  1.0  -0.0069
  C  C370  1  0.884800  0.829800  0.336600  1.0  0.3309
  C  C371  1  0.163000  0.545100  0.580500  1.0  0.1287
  C  C372  1  0.170000  0.456300  0.555500  1.0  -0.0011
  C  C373  1  0.106600  0.438500  0.529900  1.0  -0.002
  C  C374  1  0.049600  0.497800  0.527800  1.0  0.129
  C  C375  1  0.552100  0.841000  0.868700  1.0  0.1624
  C  C376  1  0.524990  0.846190  0.779000  1.0  -0.0015
  C  C377  1  0.565600  0.908000  0.829600  1.0  -0.0066
  C  C378  1  0.615200  0.951800  0.945000  1.0  0.3274
  S  S379  1  0.314710  0.336240  0.143210  1.0  -0.085
  S  S380  1  0.693030  0.171500  0.356790  1.0  -0.0844
  S  S381  1  0.806970  0.163760  0.478470  1.0  -0.0837
  S  S382  1  0.185290  0.328500  0.021530  1.0  -0.083
  S  S383  1  0.978470  0.806970  0.663760  1.0  -0.0823
  S  S384  1  0.521530  0.185290  0.828500  1.0  -0.082
  S  S385  1  0.643210  0.314710  0.836240  1.0  -0.083
  S  S386  1  0.856790  0.693030  0.671500  1.0  -0.0843
  S  S387  1  0.171500  0.856790  0.193030  1.0  -0.0832
  S  S388  1  0.336240  0.643210  0.814710  1.0  -0.0822
  S  S389  1  0.328500  0.521530  0.685290  1.0  -0.0855
  S  S390  1  0.163760  0.978470  0.306970  1.0  -0.0839
  S  S391  1  0.671500  0.193030  0.856790  1.0  -0.0826
  S  S392  1  0.836240  0.814710  0.643210  1.0  -0.0818
  S  S393  1  0.828500  0.685290  0.521530  1.0  -0.0833
  S  S394  1  0.663760  0.306970  0.978470  1.0  -0.0844
  S  S395  1  0.814710  0.143210  0.336240  1.0  -0.0833
  S  S396  1  0.193030  0.356790  0.171500  1.0  -0.0821
  S  S397  1  0.306970  0.478470  0.163760  1.0  -0.0832
  S  S398  1  0.685290  0.021530  0.328500  1.0  -0.0862
  S  S399  1  0.478470  0.663760  0.806970  1.0  -0.0849
  S  S400  1  0.021530  0.828500  0.185290  1.0  -0.084
  S  S401  1  0.143210  0.836240  0.314710  1.0  -0.0837
  S  S402  1  0.356790  0.671500  0.693030  1.0  -0.0835
  I  I403  1  0.219130  0.219840  0.193030  1.0  -0.4093
  I  I404  1  0.526810  0.026100  0.306970  1.0  -0.4096
  I  I405  1  0.973190  0.280160  0.499290  1.0  -0.4079
  I  I406  1  0.280870  0.473900  0.000710  1.0  -0.4079
  I  I407  1  0.999290  0.973190  0.780160  1.0  -0.4092
  I  I408  1  0.500710  0.280870  0.973900  1.0  -0.4093
  I  I409  1  0.693030  0.219130  0.719840  1.0  -0.4072
  I  I410  1  0.806970  0.526810  0.526100  1.0  -0.4095
  I  I411  1  0.026100  0.806970  0.026810  1.0  -0.4083
  I  I412  1  0.219840  0.693030  0.719130  1.0  -0.4081
  I  I413  1  0.473900  0.500710  0.780870  1.0  -0.4091
  I  I414  1  0.280160  0.999290  0.473190  1.0  -0.4102
  I  I415  1  0.526100  0.026810  0.806970  1.0  -0.4098
  I  I416  1  0.719840  0.719130  0.693030  1.0  -0.4097
  I  I417  1  0.973900  0.780870  0.500710  1.0  -0.4072
  I  I418  1  0.780160  0.473190  0.999290  1.0  -0.4087
  I  I419  1  0.719130  0.193030  0.219840  1.0  -0.4079
  I  I420  1  0.026810  0.306970  0.026100  1.0  -0.4084
  I  I421  1  0.473190  0.499290  0.280160  1.0  -0.4091
  I  I422  1  0.780870  0.000710  0.473900  1.0  -0.4105
  I  I423  1  0.499290  0.780160  0.973190  1.0  -0.4091
  I  I424  1  0.000710  0.973900  0.280870  1.0  -0.409
  I  I425  1  0.193030  0.719840  0.219130  1.0  -0.4078
  I  I426  1  0.306970  0.526100  0.526810  1.0  -0.4087
  N  N427  1  0.316210  0.381660  0.294530  1.0  -0.311
  N  N428  1  0.391730  0.443080  0.398370  1.0  -0.0639
  N  N429  1  0.494980  0.491740  0.438440  1.0  -0.3597
  N  N430  1  0.289090  0.287030  0.983560  1.0  -0.3276
  N  N431  1  0.321940  0.302130  0.917130  1.0  -0.1348
  N  N432  1  0.314300  0.367600  0.874300  1.0  -0.4104
  N  N433  1  0.587130  0.021680  0.205470  1.0  -0.3123
  N  N434  1  0.544710  0.993360  0.101630  1.0  -0.0607
  N  N435  1  0.553300  0.056540  0.061560  1.0  -0.3546
  N  N436  1  0.803470  0.305530  0.516440  1.0  -0.3275
  N  N437  1  0.885000  0.404810  0.582870  1.0  -0.1317
  N  N438  1  0.993300  0.440000  0.625700  1.0  -0.4092
  N  N439  1  0.912870  0.118340  0.434550  1.0  -0.3098
  N  N440  1  0.955290  0.056920  0.448650  1.0  -0.0649
  N  N441  1  0.946700  0.008260  0.503240  1.0  -0.3588
  N  N442  1  0.696530  0.212970  0.502060  1.0  -0.3254
  N  N443  1  0.615000  0.197870  0.519810  1.0  -0.1367
  N  N444  1  0.506700  0.132400  0.446700  1.0  -0.4167
  N  N445  1  0.183790  0.478320  0.065450  1.0  -0.3112
  N  N446  1  0.108270  0.506640  0.051350  1.0  -0.0636
  N  N447  1  0.005020  0.443460  0.996760  1.0  -0.3512
  N  N448  1  0.210910  0.194470  0.997940  1.0  -0.3277
  N  N449  1  0.178060  0.095190  0.980190  1.0  -0.141
  N  N450  1  0.185700  0.060000  0.053300  1.0  -0.4098
  N  N451  1  0.934550  0.912870  0.618340  1.0  -0.3105
  N  N452  1  0.948650  0.955290  0.556920  1.0  -0.0636
  N  N453  1  0.003240  0.946700  0.508260  1.0  -0.3551
  N  N454  1  0.002060  0.696530  0.712970  1.0  -0.3302
  N  N455  1  0.019810  0.615000  0.697870  1.0  -0.1308
  N  N456  1  0.946700  0.506700  0.632400  1.0  -0.4074
  N  N457  1  0.565450  0.183790  0.978320  1.0  -0.3096
  N  N458  1  0.551350  0.108270  0.006640  1.0  -0.061
  N  N459  1  0.496760  0.005020  0.943460  1.0  -0.3567
  N  N460  1  0.497940  0.210910  0.694470  1.0  -0.3275
  N  N461  1  0.480190  0.178060  0.595190  1.0  -0.1351
  N  N462  1  0.553300  0.185700  0.560000  1.0  -0.4116
  N  N463  1  0.794530  0.316210  0.881660  1.0  -0.3101
  N  N464  1  0.898370  0.391730  0.943080  1.0  -0.0625
  N  N465  1  0.938440  0.494980  0.991740  1.0  -0.3532
  N  N466  1  0.483560  0.289090  0.787030  1.0  -0.33
  N  N467  1  0.417130  0.321940  0.802130  1.0  -0.1386
  N  N468  1  0.374300  0.314300  0.867600  1.0  -0.4114
  N  N469  1  0.705470  0.587130  0.521680  1.0  -0.308
  N  N470  1  0.601630  0.544710  0.493360  1.0  -0.0632
  N  N471  1  0.561560  0.553300  0.556540  1.0  -0.3547
  N  N472  1  0.016440  0.803470  0.805530  1.0  -0.3264
  N  N473  1  0.082870  0.885000  0.904810  1.0  -0.14
  N  N474  1  0.125700  0.993300  0.940000  1.0  -0.4122
  N  N475  1  0.021680  0.705470  0.087130  1.0  -0.3127
  N  N476  1  0.993360  0.601630  0.044710  1.0  -0.063
  N  N477  1  0.056540  0.561560  0.053300  1.0  -0.3544
  N  N478  1  0.305530  0.016440  0.303470  1.0  -0.3295
  N  N479  1  0.404810  0.082870  0.385000  1.0  -0.137
  N  N480  1  0.440000  0.125700  0.493300  1.0  -0.4078
  N  N481  1  0.381660  0.794530  0.816210  1.0  -0.308
  N  N482  1  0.443080  0.898370  0.891730  1.0  -0.0605
  N  N483  1  0.491740  0.938440  0.994980  1.0  -0.3547
  N  N484  1  0.287030  0.483560  0.789090  1.0  -0.3261
  N  N485  1  0.302130  0.417130  0.821940  1.0  -0.1352
  N  N486  1  0.367600  0.374300  0.814300  1.0  -0.4143
  N  N487  1  0.478320  0.565450  0.683790  1.0  -0.3112
  N  N488  1  0.506640  0.551350  0.608270  1.0  -0.0641
  N  N489  1  0.443460  0.496760  0.505020  1.0  -0.3562
  N  N490  1  0.194470  0.497940  0.710910  1.0  -0.3307
  N  N491  1  0.095190  0.480190  0.678060  1.0  -0.1319
  N  N492  1  0.060000  0.553300  0.685700  1.0  -0.4105
  N  N493  1  0.118340  0.934550  0.412870  1.0  -0.309
  N  N494  1  0.056920  0.948650  0.455290  1.0  -0.0629
  N  N495  1  0.008260  0.003240  0.446700  1.0  -0.3622
  N  N496  1  0.212970  0.002060  0.196530  1.0  -0.3267
  N  N497  1  0.197870  0.019810  0.115000  1.0  -0.1388
  N  N498  1  0.132400  0.946700  0.006700  1.0  -0.4095
  N  N499  1  0.521680  0.087130  0.705470  1.0  -0.3105
  N  N500  1  0.493360  0.044710  0.601630  1.0  -0.0644
  N  N501  1  0.556540  0.053300  0.561560  1.0  -0.3564
  N  N502  1  0.805530  0.303470  0.016440  1.0  -0.33
  N  N503  1  0.904810  0.385000  0.082870  1.0  -0.1311
  N  N504  1  0.940000  0.493300  0.125700  1.0  -0.4077
  N  N505  1  0.881660  0.816210  0.794530  1.0  -0.3099
  N  N506  1  0.943080  0.891730  0.898370  1.0  -0.0607
  N  N507  1  0.991740  0.994980  0.938440  1.0  -0.3565
  N  N508  1  0.787030  0.789090  0.483560  1.0  -0.3263
  N  N509  1  0.802130  0.821940  0.417130  1.0  -0.1348
  N  N510  1  0.867600  0.814300  0.374300  1.0  -0.412
  N  N511  1  0.978320  0.683790  0.565450  1.0  -0.3093
  N  N512  1  0.006640  0.608270  0.551350  1.0  -0.0622
  N  N513  1  0.943460  0.505020  0.496760  1.0  -0.3535
  N  N514  1  0.694470  0.710910  0.497940  1.0  -0.331
  N  N515  1  0.595190  0.678060  0.480190  1.0  -0.1393
  N  N516  1  0.560000  0.685700  0.553300  1.0  -0.4101
  N  N517  1  0.618340  0.412870  0.934550  1.0  -0.308
  N  N518  1  0.556920  0.455290  0.948650  1.0  -0.063
  N  N519  1  0.508260  0.446700  0.003240  1.0  -0.3538
  N  N520  1  0.712970  0.196530  0.002060  1.0  -0.3261
  N  N521  1  0.697870  0.115000  0.019810  1.0  -0.1399
  N  N522  1  0.632400  0.006700  0.946700  1.0  -0.4106
  N  N523  1  0.816210  0.294530  0.381660  1.0  -0.3118
  N  N524  1  0.891730  0.398370  0.443080  1.0  -0.0626
  N  N525  1  0.994980  0.438440  0.491740  1.0  -0.3537
  N  N526  1  0.789090  0.983560  0.287030  1.0  -0.3296
  N  N527  1  0.821940  0.917130  0.302130  1.0  -0.1362
  N  N528  1  0.814300  0.874300  0.367600  1.0  -0.4093
  N  N529  1  0.087130  0.205470  0.021680  1.0  -0.3098
  N  N530  1  0.044710  0.101630  0.993360  1.0  -0.0611
  N  N531  1  0.053300  0.061560  0.056540  1.0  -0.3554
  N  N532  1  0.303470  0.516440  0.305530  1.0  -0.3263
  N  N533  1  0.385000  0.582870  0.404810  1.0  -0.1358
  N  N534  1  0.493300  0.625700  0.440000  1.0  -0.4162
  N  N535  1  0.412870  0.434550  0.118340  1.0  -0.3108
  N  N536  1  0.455290  0.448650  0.056920  1.0  -0.0638
  N  N537  1  0.446700  0.503240  0.008260  1.0  -0.3585
  N  N538  1  0.196530  0.502060  0.212970  1.0  -0.3298
  N  N539  1  0.115000  0.519810  0.197870  1.0  -0.1317
  N  N540  1  0.006700  0.446700  0.132400  1.0  -0.41
  N  N541  1  0.683790  0.065450  0.478320  1.0  -0.3097
  N  N542  1  0.608270  0.051350  0.506640  1.0  -0.0631
  N  N543  1  0.505020  0.996760  0.443460  1.0  -0.36
  N  N544  1  0.710910  0.997940  0.194470  1.0  -0.3276
  N  N545  1  0.678060  0.980190  0.095190  1.0  -0.1387
  N  N546  1  0.685700  0.053300  0.060000  1.0  -0.4105
  N  N547  1  0.434550  0.618340  0.912870  1.0  -0.3131
  N  N548  1  0.448650  0.556920  0.955290  1.0  -0.0645
  N  N549  1  0.503240  0.508260  0.946700  1.0  -0.3618
  N  N550  1  0.502060  0.712970  0.696530  1.0  -0.3276
  N  N551  1  0.519810  0.697870  0.615000  1.0  -0.1356
  N  N552  1  0.446700  0.632400  0.506700  1.0  -0.4084
  N  N553  1  0.065450  0.978320  0.183790  1.0  -0.3113
  N  N554  1  0.051350  0.006640  0.108270  1.0  -0.0607
  N  N555  1  0.996760  0.943460  0.005020  1.0  -0.3532
  N  N556  1  0.997940  0.694470  0.210910  1.0  -0.3273
  N  N557  1  0.980190  0.595190  0.178060  1.0  -0.1313
  N  N558  1  0.053300  0.560000  0.185700  1.0  -0.4099
  N  N559  1  0.294530  0.881660  0.316210  1.0  -0.3096
  N  N560  1  0.398370  0.943080  0.391730  1.0  -0.0644
  N  N561  1  0.438440  0.991740  0.494980  1.0  -0.3562
  N  N562  1  0.983560  0.787030  0.289090  1.0  -0.3253
  N  N563  1  0.917130  0.802130  0.321940  1.0  -0.1358
  N  N564  1  0.874300  0.867600  0.314300  1.0  -0.4147
  N  N565  1  0.205470  0.521680  0.587130  1.0  -0.3123
  N  N566  1  0.101630  0.493360  0.544710  1.0  -0.0636
  N  N567  1  0.061560  0.556540  0.553300  1.0  -0.352
  N  N568  1  0.516440  0.805530  0.803470  1.0  -0.3278
  N  N569  1  0.582870  0.904810  0.885000  1.0  -0.1406
  N  N570  1  0.625700  0.940000  0.993300  1.0  -0.4098
