# generated using pymatgen
data_Cd9H16C8N40Cl9
_symmetry_space_group_name_H-M   'P 1'
_cell_length_a   13.49100000
_cell_length_b   36.22100000
_cell_length_c   13.77900000
_cell_angle_alpha   90.00000000
_cell_angle_beta   100.79400000
_cell_angle_gamma   90.00000000
_symmetry_Int_Tables_number   1
_chemical_formula_structural   Cd9H16C8N40Cl9
_chemical_formula_sum   'Cd36 H64 C32 N160 Cl36'
_cell_volume   6614.08023724
_cell_formula_units_Z   4
loop_
 _symmetry_equiv_pos_site_id
 _symmetry_equiv_pos_as_xyz
  1  'x, y, z'
loop_
 _atom_site_type_symbol
 _atom_site_label
 _atom_site_symmetry_multiplicity
 _atom_site_fract_x
 _atom_site_fract_y
 _atom_site_fract_z
 _atom_site_occupancy
 _atom_site_charge
  Cd  Cd1  1  0.350790  0.150500  0.005190  1.0  0.7536
  Cd  Cd2  1  0.207380  0.091580  0.793870  1.0  0.7421
  Cd  Cd3  1  0.400750  0.052590  0.616800  1.0  0.8021
  Cd  Cd4  1  0.989650  0.147600  0.636910  1.0  0.8612
  Cd  Cd5  1  0.850790  0.650500  0.005190  1.0  0.7536
  Cd  Cd6  1  0.707380  0.591580  0.793870  1.0  0.7421
  Cd  Cd7  1  0.900750  0.552590  0.616800  1.0  0.8021
  Cd  Cd8  1  0.489650  0.647600  0.636910  1.0  0.8612
  Cd  Cd9  1  0.649210  0.150500  0.994810  1.0  0.7544
  Cd  Cd10  1  0.792620  0.091580  0.206130  1.0  0.7437
  Cd  Cd11  1  0.599250  0.052590  0.383200  1.0  0.8015
  Cd  Cd12  1  0.010350  0.147600  0.363090  1.0  0.8601
  Cd  Cd13  1  0.149210  0.650500  0.994810  1.0  0.7544
  Cd  Cd14  1  0.292620  0.591580  0.206130  1.0  0.7437
  Cd  Cd15  1  0.099250  0.552590  0.383200  1.0  0.8015
  Cd  Cd16  1  0.510350  0.647600  0.363090  1.0  0.8601
  Cd  Cd17  1  0.649210  0.849500  0.994810  1.0  0.7542
  Cd  Cd18  1  0.792620  0.908420  0.206130  1.0  0.7436
  Cd  Cd19  1  0.599250  0.947410  0.383200  1.0  0.8015
  Cd  Cd20  1  0.010350  0.852400  0.363090  1.0  0.8603
  Cd  Cd21  1  0.149210  0.349500  0.994810  1.0  0.7542
  Cd  Cd22  1  0.292620  0.408420  0.206130  1.0  0.7436
  Cd  Cd23  1  0.099250  0.447410  0.383200  1.0  0.8015
  Cd  Cd24  1  0.510350  0.352400  0.363090  1.0  0.8603
  Cd  Cd25  1  0.350790  0.849500  0.005190  1.0  0.7538
  Cd  Cd26  1  0.207380  0.908420  0.793870  1.0  0.742
  Cd  Cd27  1  0.400750  0.947410  0.616800  1.0  0.8017
  Cd  Cd28  1  0.989650  0.852400  0.636910  1.0  0.8607
  Cd  Cd29  1  0.850790  0.349500  0.005190  1.0  0.7538
  Cd  Cd30  1  0.707380  0.408420  0.793870  1.0  0.742
  Cd  Cd31  1  0.900750  0.447410  0.616800  1.0  0.8017
  Cd  Cd32  1  0.489650  0.352400  0.636910  1.0  0.8607
  Cd  Cd33  1  0.250000  0.250000  0.000000  1.0  0.8396
  Cd  Cd34  1  0.750000  0.250000  0.000000  1.0  0.8396
  Cd  Cd35  1  0.750000  0.750000  0.000000  1.0  0.8396
  Cd  Cd36  1  0.250000  0.750000  0.000000  1.0  0.8396
  H  H37  1  0.289700  0.068400  0.387700  1.0  0.3592
  H  H38  1  0.200900  0.087700  0.328900  1.0  0.3577
  H  H39  1  0.076200  0.261900  0.781000  1.0  0.3636
  H  H40  1  0.018100  0.238200  0.701900  1.0  0.3624
  H  H41  1  0.444200  0.309600  0.996500  1.0  0.3663
  H  H42  1  0.669600  0.125700  0.767200  1.0  0.3538
  H  H43  1  0.615800  0.101600  0.686500  1.0  0.334
  H  H44  1  0.110000  0.020500  0.882200  1.0  0.3521
  H  H45  1  0.789700  0.568400  0.387700  1.0  0.3592
  H  H46  1  0.700900  0.587700  0.328900  1.0  0.3577
  H  H47  1  0.576200  0.761900  0.781000  1.0  0.3636
  H  H48  1  0.518100  0.738200  0.701900  1.0  0.3624
  H  H49  1  0.944200  0.809600  0.996500  1.0  0.3663
  H  H50  1  0.169600  0.625700  0.767200  1.0  0.3538
  H  H51  1  0.115800  0.601600  0.686500  1.0  0.334
  H  H52  1  0.610000  0.520500  0.882200  1.0  0.3521
  H  H53  1  0.710300  0.068400  0.612300  1.0  0.3583
  H  H54  1  0.799100  0.087700  0.671100  1.0  0.3597
  H  H55  1  0.923800  0.261900  0.219000  1.0  0.3632
  H  H56  1  0.981900  0.238200  0.298100  1.0  0.3649
  H  H57  1  0.555800  0.309600  0.003500  1.0  0.3657
  H  H58  1  0.330400  0.125700  0.232800  1.0  0.3529
  H  H59  1  0.384200  0.101600  0.313500  1.0  0.3346
  H  H60  1  0.890000  0.020500  0.117800  1.0  0.3522
  H  H61  1  0.210300  0.568400  0.612300  1.0  0.3583
  H  H62  1  0.299100  0.587700  0.671100  1.0  0.3597
  H  H63  1  0.423800  0.761900  0.219000  1.0  0.3632
  H  H64  1  0.481900  0.738200  0.298100  1.0  0.3649
  H  H65  1  0.055800  0.809600  0.003500  1.0  0.3657
  H  H66  1  0.830400  0.625700  0.232800  1.0  0.3529
  H  H67  1  0.884200  0.601600  0.313500  1.0  0.3346
  H  H68  1  0.390000  0.520500  0.117800  1.0  0.3522
  H  H69  1  0.710300  0.931600  0.612300  1.0  0.358
  H  H70  1  0.799100  0.912300  0.671100  1.0  0.3594
  H  H71  1  0.923800  0.738100  0.219000  1.0  0.3625
  H  H72  1  0.981900  0.761800  0.298100  1.0  0.3655
  H  H73  1  0.555800  0.690400  0.003500  1.0  0.3658
  H  H74  1  0.330400  0.874300  0.232800  1.0  0.3543
  H  H75  1  0.384200  0.898400  0.313500  1.0  0.3347
  H  H76  1  0.890000  0.979500  0.117800  1.0  0.354
  H  H77  1  0.210300  0.431600  0.612300  1.0  0.358
  H  H78  1  0.299100  0.412300  0.671100  1.0  0.3594
  H  H79  1  0.423800  0.238100  0.219000  1.0  0.3625
  H  H80  1  0.481900  0.261800  0.298100  1.0  0.3655
  H  H81  1  0.055800  0.190400  0.003500  1.0  0.3658
  H  H82  1  0.830400  0.374300  0.232800  1.0  0.3543
  H  H83  1  0.884200  0.398400  0.313500  1.0  0.3347
  H  H84  1  0.390000  0.479500  0.117800  1.0  0.354
  H  H85  1  0.289700  0.931600  0.387700  1.0  0.3582
  H  H86  1  0.200900  0.912300  0.328900  1.0  0.3576
  H  H87  1  0.076200  0.738100  0.781000  1.0  0.3633
  H  H88  1  0.018100  0.761800  0.701900  1.0  0.3624
  H  H89  1  0.444200  0.690400  0.996500  1.0  0.365
  H  H90  1  0.669600  0.874300  0.767200  1.0  0.3548
  H  H91  1  0.615800  0.898400  0.686500  1.0  0.3337
  H  H92  1  0.110000  0.979500  0.882200  1.0  0.3545
  H  H93  1  0.789700  0.431600  0.387700  1.0  0.3582
  H  H94  1  0.700900  0.412300  0.328900  1.0  0.3576
  H  H95  1  0.576200  0.238100  0.781000  1.0  0.3633
  H  H96  1  0.518100  0.261800  0.701900  1.0  0.3624
  H  H97  1  0.944200  0.190400  0.996500  1.0  0.365
  H  H98  1  0.169600  0.374300  0.767200  1.0  0.3548
  H  H99  1  0.115800  0.398400  0.686500  1.0  0.3337
  H  H100  1  0.610000  0.479500  0.882200  1.0  0.3545
  C  C101  1  0.206700  0.092600  0.471300  1.0  0.3359
  C  C102  1  0.122800  0.211200  0.788800  1.0  0.5825
  C  C103  1  0.532700  0.112400  0.787200  1.0  0.4213
  C  C104  1  0.706700  0.592600  0.471300  1.0  0.3359
  C  C105  1  0.622800  0.711200  0.788800  1.0  0.5825
  C  C106  1  0.032700  0.612400  0.787200  1.0  0.4213
  C  C107  1  0.793300  0.092600  0.528700  1.0  0.3362
  C  C108  1  0.877200  0.211200  0.211200  1.0  0.5818
  C  C109  1  0.467300  0.112400  0.212800  1.0  0.4205
  C  C110  1  0.293300  0.592600  0.528700  1.0  0.3362
  C  C111  1  0.377200  0.711200  0.211200  1.0  0.5818
  C  C112  1  0.967300  0.612400  0.212800  1.0  0.4205
  C  C113  1  0.793300  0.907400  0.528700  1.0  0.3362
  C  C114  1  0.877200  0.788800  0.211200  1.0  0.5818
  C  C115  1  0.467300  0.887600  0.212800  1.0  0.4203
  C  C116  1  0.293300  0.407400  0.528700  1.0  0.3362
  C  C117  1  0.377200  0.288800  0.211200  1.0  0.5818
  C  C118  1  0.967300  0.387600  0.212800  1.0  0.4203
  C  C119  1  0.206700  0.907400  0.471300  1.0  0.3359
  C  C120  1  0.122800  0.788800  0.788800  1.0  0.5825
  C  C121  1  0.532700  0.887600  0.787200  1.0  0.4213
  C  C122  1  0.706700  0.407400  0.471300  1.0  0.3359
  C  C123  1  0.622800  0.288800  0.788800  1.0  0.5825
  C  C124  1  0.032700  0.387600  0.787200  1.0  0.4213
  C  C125  1  0.195000  0.000000  0.804000  1.0  0.4824
  C  C126  1  0.695000  0.500000  0.804000  1.0  0.4824
  C  C127  1  0.805000  0.000000  0.196000  1.0  0.483
  C  C128  1  0.305000  0.500000  0.196000  1.0  0.483
  C  C129  1  0.500000  0.260700  0.000000  1.0  0.5024
  C  C130  1  0.000000  0.760700  0.000000  1.0  0.5024
  C  C131  1  0.500000  0.739300  0.000000  1.0  0.5017
  C  C132  1  0.000000  0.239300  0.000000  1.0  0.5017
  N  N133  1  0.253800  0.085000  0.562400  1.0  -0.3114
  N  N134  1  0.200700  0.101500  0.620300  1.0  -0.0751
  N  N135  1  0.120700  0.118200  0.572800  1.0  -0.2022
  N  N136  1  0.124700  0.114600  0.476300  1.0  -0.3095
  N  N137  1  0.236100  0.081500  0.385100  1.0  -0.6909
  N  N138  1  0.113700  0.177900  0.744700  1.0  -0.331
  N  N139  1  0.184000  0.156200  0.801500  1.0  -0.1415
  N  N140  1  0.235300  0.177200  0.871600  1.0  0.0282
  N  N141  1  0.197600  0.210800  0.865800  1.0  -0.2245
  N  N142  1  0.065400  0.240700  0.752900  1.0  -0.7403
  N  N143  1  0.419300  0.238600  0.995000  1.0  -0.2561
  N  N144  1  0.453300  0.203200  0.995100  1.0  -0.0964
  N  N145  1  0.527800  0.128700  0.867200  1.0  -0.2033
  N  N146  1  0.430600  0.123300  0.884100  1.0  -0.2464
  N  N147  1  0.383400  0.104300  0.807800  1.0  0.0201
  N  N148  1  0.446400  0.096200  0.745200  1.0  -0.3954
  N  N149  1  0.616900  0.113300  0.741000  1.0  -0.7399
  N  N150  1  0.235000  0.029900  0.775800  1.0  -0.2964
  N  N151  1  0.306200  0.018200  0.723900  1.0  -0.1486
  N  N152  1  0.753800  0.585000  0.562400  1.0  -0.3114
  N  N153  1  0.700700  0.601500  0.620300  1.0  -0.0751
  N  N154  1  0.620700  0.618200  0.572800  1.0  -0.2022
  N  N155  1  0.624700  0.614600  0.476300  1.0  -0.3095
  N  N156  1  0.736100  0.581500  0.385100  1.0  -0.6909
  N  N157  1  0.613700  0.677900  0.744700  1.0  -0.331
  N  N158  1  0.684000  0.656200  0.801500  1.0  -0.1415
  N  N159  1  0.735300  0.677200  0.871600  1.0  0.0282
  N  N160  1  0.697600  0.710800  0.865800  1.0  -0.2245
  N  N161  1  0.565400  0.740700  0.752900  1.0  -0.7403
  N  N162  1  0.919300  0.738600  0.995000  1.0  -0.2561
  N  N163  1  0.953300  0.703200  0.995100  1.0  -0.0964
  N  N164  1  0.027800  0.628700  0.867200  1.0  -0.2033
  N  N165  1  0.930600  0.623300  0.884100  1.0  -0.2464
  N  N166  1  0.883400  0.604300  0.807800  1.0  0.0201
  N  N167  1  0.946400  0.596200  0.745200  1.0  -0.3954
  N  N168  1  0.116900  0.613300  0.741000  1.0  -0.7399
  N  N169  1  0.735000  0.529900  0.775800  1.0  -0.2964
  N  N170  1  0.806200  0.518200  0.723900  1.0  -0.1486
  N  N171  1  0.746200  0.085000  0.437600  1.0  -0.3121
  N  N172  1  0.799300  0.101500  0.379700  1.0  -0.0726
  N  N173  1  0.879300  0.118200  0.427200  1.0  -0.2016
  N  N174  1  0.875300  0.114600  0.523700  1.0  -0.3101
  N  N175  1  0.763900  0.081500  0.614900  1.0  -0.6939
  N  N176  1  0.886300  0.177900  0.255300  1.0  -0.3291
  N  N177  1  0.816000  0.156200  0.198500  1.0  -0.1409
  N  N178  1  0.764700  0.177200  0.128400  1.0  0.0277
  N  N179  1  0.802400  0.210800  0.134200  1.0  -0.2235
  N  N180  1  0.934600  0.240700  0.247100  1.0  -0.7399
  N  N181  1  0.580700  0.238600  0.005000  1.0  -0.2566
  N  N182  1  0.546700  0.203200  0.004900  1.0  -0.0952
  N  N183  1  0.472200  0.128700  0.132800  1.0  -0.2031
  N  N184  1  0.569400  0.123300  0.115900  1.0  -0.2456
  N  N185  1  0.616600  0.104300  0.192200  1.0  0.02
  N  N186  1  0.553600  0.096200  0.254800  1.0  -0.3945
  N  N187  1  0.383100  0.113300  0.259000  1.0  -0.7414
  N  N188  1  0.765000  0.029900  0.224200  1.0  -0.2966
  N  N189  1  0.693800  0.018200  0.276100  1.0  -0.148
  N  N190  1  0.246200  0.585000  0.437600  1.0  -0.3121
  N  N191  1  0.299300  0.601500  0.379700  1.0  -0.0726
  N  N192  1  0.379300  0.618200  0.427200  1.0  -0.2016
  N  N193  1  0.375300  0.614600  0.523700  1.0  -0.3101
  N  N194  1  0.263900  0.581500  0.614900  1.0  -0.6939
  N  N195  1  0.386300  0.677900  0.255300  1.0  -0.3291
  N  N196  1  0.316000  0.656200  0.198500  1.0  -0.1409
  N  N197  1  0.264700  0.677200  0.128400  1.0  0.0277
  N  N198  1  0.302400  0.710800  0.134200  1.0  -0.2235
  N  N199  1  0.434600  0.740700  0.247100  1.0  -0.7399
  N  N200  1  0.080700  0.738600  0.005000  1.0  -0.2566
  N  N201  1  0.046700  0.703200  0.004900  1.0  -0.0952
  N  N202  1  0.972200  0.628700  0.132800  1.0  -0.2031
  N  N203  1  0.069400  0.623300  0.115900  1.0  -0.2456
  N  N204  1  0.116600  0.604300  0.192200  1.0  0.02
  N  N205  1  0.053600  0.596200  0.254800  1.0  -0.3945
  N  N206  1  0.883100  0.613300  0.259000  1.0  -0.7414
  N  N207  1  0.265000  0.529900  0.224200  1.0  -0.2966
  N  N208  1  0.193800  0.518200  0.276100  1.0  -0.148
  N  N209  1  0.746200  0.915000  0.437600  1.0  -0.3109
  N  N210  1  0.799300  0.898500  0.379700  1.0  -0.0724
  N  N211  1  0.879300  0.881800  0.427200  1.0  -0.2011
  N  N212  1  0.875300  0.885400  0.523700  1.0  -0.3088
  N  N213  1  0.763900  0.918500  0.614900  1.0  -0.6944
  N  N214  1  0.886300  0.822100  0.255300  1.0  -0.3293
  N  N215  1  0.816000  0.843800  0.198500  1.0  -0.1403
  N  N216  1  0.764700  0.822800  0.128400  1.0  0.0286
  N  N217  1  0.802400  0.789200  0.134200  1.0  -0.2232
  N  N218  1  0.934600  0.759300  0.247100  1.0  -0.7381
  N  N219  1  0.580700  0.761400  0.005000  1.0  -0.2567
  N  N220  1  0.546700  0.796800  0.004900  1.0  -0.0953
  N  N221  1  0.472200  0.871300  0.132800  1.0  -0.2032
  N  N222  1  0.569400  0.876700  0.115900  1.0  -0.2457
  N  N223  1  0.616600  0.895700  0.192200  1.0  0.0198
  N  N224  1  0.553600  0.903800  0.254800  1.0  -0.3954
  N  N225  1  0.383100  0.886700  0.259000  1.0  -0.7406
  N  N226  1  0.765000  0.970100  0.224200  1.0  -0.2951
  N  N227  1  0.693800  0.981800  0.276100  1.0  -0.1476
  N  N228  1  0.246200  0.415000  0.437600  1.0  -0.3109
  N  N229  1  0.299300  0.398500  0.379700  1.0  -0.0724
  N  N230  1  0.379300  0.381800  0.427200  1.0  -0.2011
  N  N231  1  0.375300  0.385400  0.523700  1.0  -0.3088
  N  N232  1  0.263900  0.418500  0.614900  1.0  -0.6944
  N  N233  1  0.386300  0.322100  0.255300  1.0  -0.3293
  N  N234  1  0.316000  0.343800  0.198500  1.0  -0.1403
  N  N235  1  0.264700  0.322800  0.128400  1.0  0.0286
  N  N236  1  0.302400  0.289200  0.134200  1.0  -0.2232
  N  N237  1  0.434600  0.259300  0.247100  1.0  -0.7381
  N  N238  1  0.080700  0.261400  0.005000  1.0  -0.2567
  N  N239  1  0.046700  0.296800  0.004900  1.0  -0.0953
  N  N240  1  0.972200  0.371300  0.132800  1.0  -0.2032
  N  N241  1  0.069400  0.376700  0.115900  1.0  -0.2457
  N  N242  1  0.116600  0.395700  0.192200  1.0  0.0198
  N  N243  1  0.053600  0.403800  0.254800  1.0  -0.3954
  N  N244  1  0.883100  0.386700  0.259000  1.0  -0.7406
  N  N245  1  0.265000  0.470100  0.224200  1.0  -0.2951
  N  N246  1  0.193800  0.481800  0.276100  1.0  -0.1476
  N  N247  1  0.253800  0.915000  0.562400  1.0  -0.3112
  N  N248  1  0.200700  0.898500  0.620300  1.0  -0.0748
  N  N249  1  0.120700  0.881800  0.572800  1.0  -0.2022
  N  N250  1  0.124700  0.885400  0.476300  1.0  -0.3088
  N  N251  1  0.236100  0.918500  0.385100  1.0  -0.6914
  N  N252  1  0.113700  0.822100  0.744700  1.0  -0.3301
  N  N253  1  0.184000  0.843800  0.801500  1.0  -0.1408
  N  N254  1  0.235300  0.822800  0.871600  1.0  0.0279
  N  N255  1  0.197600  0.789200  0.865800  1.0  -0.2241
  N  N256  1  0.065400  0.759300  0.752900  1.0  -0.7395
  N  N257  1  0.419300  0.761400  0.995000  1.0  -0.256
  N  N258  1  0.453300  0.796800  0.995100  1.0  -0.0954
  N  N259  1  0.527800  0.871300  0.867200  1.0  -0.2029
  N  N260  1  0.430600  0.876700  0.884100  1.0  -0.2462
  N  N261  1  0.383400  0.895700  0.807800  1.0  0.0206
  N  N262  1  0.446400  0.903800  0.745200  1.0  -0.3956
  N  N263  1  0.616900  0.886700  0.741000  1.0  -0.741
  N  N264  1  0.235000  0.970100  0.775800  1.0  -0.295
  N  N265  1  0.306200  0.981800  0.723900  1.0  -0.1483
  N  N266  1  0.753800  0.415000  0.562400  1.0  -0.3112
  N  N267  1  0.700700  0.398500  0.620300  1.0  -0.0748
  N  N268  1  0.620700  0.381800  0.572800  1.0  -0.2022
  N  N269  1  0.624700  0.385400  0.476300  1.0  -0.3088
  N  N270  1  0.736100  0.418500  0.385100  1.0  -0.6914
  N  N271  1  0.613700  0.322100  0.744700  1.0  -0.3301
  N  N272  1  0.684000  0.343800  0.801500  1.0  -0.1408
  N  N273  1  0.735300  0.322800  0.871600  1.0  0.0279
  N  N274  1  0.697600  0.289200  0.865800  1.0  -0.2241
  N  N275  1  0.565400  0.259300  0.752900  1.0  -0.7395
  N  N276  1  0.919300  0.261400  0.995000  1.0  -0.256
  N  N277  1  0.953300  0.296800  0.995100  1.0  -0.0954
  N  N278  1  0.027800  0.371300  0.867200  1.0  -0.2029
  N  N279  1  0.930600  0.376700  0.884100  1.0  -0.2462
  N  N280  1  0.883400  0.395700  0.807800  1.0  0.0206
  N  N281  1  0.946400  0.403800  0.745200  1.0  -0.3956
  N  N282  1  0.116900  0.386700  0.741000  1.0  -0.741
  N  N283  1  0.735000  0.470100  0.775800  1.0  -0.295
  N  N284  1  0.806200  0.481800  0.723900  1.0  -0.1483
  N  N285  1  0.127000  0.000000  0.862000  1.0  -0.6695
  N  N286  1  0.627000  0.500000  0.862000  1.0  -0.6695
  N  N287  1  0.873000  0.000000  0.138000  1.0  -0.6687
  N  N288  1  0.373000  0.500000  0.138000  1.0  -0.6687
  N  N289  1  0.500000  0.297800  0.000000  1.0  -0.7389
  N  N290  1  0.000000  0.797800  0.000000  1.0  -0.7389
  N  N291  1  0.500000  0.702200  0.000000  1.0  -0.7383
  N  N292  1  0.000000  0.202200  0.000000  1.0  -0.7383
  Cl  Cl293  1  0.238300  0.092600  0.984900  1.0  -0.4872
  Cl  Cl294  1  0.011300  0.088800  0.759500  1.0  -0.4873
  Cl  Cl295  1  0.262100  0.191800  0.116100  1.0  -0.5186
  Cl  Cl296  1  0.738300  0.592600  0.984900  1.0  -0.4872
  Cl  Cl297  1  0.511300  0.588800  0.759500  1.0  -0.4873
  Cl  Cl298  1  0.762100  0.691800  0.116100  1.0  -0.5186
  Cl  Cl299  1  0.761700  0.092600  0.015100  1.0  -0.4876
  Cl  Cl300  1  0.988700  0.088800  0.240500  1.0  -0.4858
  Cl  Cl301  1  0.737900  0.191800  0.883900  1.0  -0.5175
  Cl  Cl302  1  0.261700  0.592600  0.015100  1.0  -0.4876
  Cl  Cl303  1  0.488700  0.588800  0.240500  1.0  -0.4858
  Cl  Cl304  1  0.237900  0.691800  0.883900  1.0  -0.5175
  Cl  Cl305  1  0.761700  0.907400  0.015100  1.0  -0.4879
  Cl  Cl306  1  0.988700  0.911200  0.240500  1.0  -0.486
  Cl  Cl307  1  0.737900  0.808200  0.883900  1.0  -0.5165
  Cl  Cl308  1  0.261700  0.407400  0.015100  1.0  -0.4879
  Cl  Cl309  1  0.488700  0.411200  0.240500  1.0  -0.486
  Cl  Cl310  1  0.237900  0.308200  0.883900  1.0  -0.5165
  Cl  Cl311  1  0.238300  0.907400  0.984900  1.0  -0.4872
  Cl  Cl312  1  0.011300  0.911200  0.759500  1.0  -0.4871
  Cl  Cl313  1  0.262100  0.808200  0.116100  1.0  -0.5177
  Cl  Cl314  1  0.738300  0.407400  0.984900  1.0  -0.4872
  Cl  Cl315  1  0.511300  0.411200  0.759500  1.0  -0.4871
  Cl  Cl316  1  0.762100  0.308200  0.116100  1.0  -0.5177
  Cl  Cl317  1  0.500000  0.088630  0.500000  1.0  -0.4824
  Cl  Cl318  1  0.000000  0.588630  0.500000  1.0  -0.4824
  Cl  Cl319  1  0.500000  0.911370  0.500000  1.0  -0.4827
  Cl  Cl320  1  0.000000  0.411370  0.500000  1.0  -0.4827
  Cl  Cl321  1  0.341100  0.000000  0.491500  1.0  -0.5017
  Cl  Cl322  1  0.841100  0.500000  0.491500  1.0  -0.5017
  Cl  Cl323  1  0.658900  0.000000  0.508500  1.0  -0.501
  Cl  Cl324  1  0.158900  0.500000  0.508500  1.0  -0.501
  Cl  Cl325  1  0.000000  0.197980  0.500000  1.0  -0.4378
  Cl  Cl326  1  0.500000  0.697980  0.500000  1.0  -0.4378
  Cl  Cl327  1  0.000000  0.802020  0.500000  1.0  -0.436
  Cl  Cl328  1  0.500000  0.302020  0.500000  1.0  -0.436
