# generated using pymatgen
data_InH14(C7O2)4
_symmetry_space_group_name_H-M   'P 1'
_cell_length_a   9.82810000
_cell_length_b   10.10590000
_cell_length_c   18.91210000
_cell_angle_alpha   105.13000000
_cell_angle_beta   105.06000000
_cell_angle_gamma   90.00000000
_symmetry_Int_Tables_number   1
_chemical_formula_structural   InH14(C7O2)4
_chemical_formula_sum   'In2 H28 C56 O16'
_cell_volume   1746.35340741
_cell_formula_units_Z   2
loop_
 _symmetry_equiv_pos_site_id
 _symmetry_equiv_pos_as_xyz
  1  'x, y, z'
loop_
 _atom_site_type_symbol
 _atom_site_label
 _atom_site_symmetry_multiplicity
 _atom_site_fract_x
 _atom_site_fract_y
 _atom_site_fract_z
 _atom_site_occupancy
 _atom_site_charge
  In  In1  1  0.133440  0.988200  0.278770  1.0  1.6271
  In  In2  1  0.866560  0.011800  0.721230  1.0  1.626
  H  H3  1  0.751910  0.827010  0.077930  1.0  0.1259
  H  H4  1  0.680040  0.889720  0.971370  1.0  0.1283
  H  H5  1  0.615410  0.826960  0.833350  1.0  0.1307
  H  H6  1  0.158140  0.774260  0.723330  1.0  0.125
  H  H7  1  0.088980  0.710840  0.583420  1.0  0.1285
  H  H8  1  0.315400  0.852580  0.076660  1.0  0.1235
  H  H9  1  0.280750  0.698690  0.964310  1.0  0.1317
  H  H10  1  0.212160  0.649400  0.826300  1.0  0.1365
  H  H11  1  0.565740  0.616800  0.721940  1.0  0.1313
  H  H12  1  0.494300  0.549640  0.582300  1.0  0.1304
  H  H13  1  0.638230  0.949220  0.290000  1.0  0.1385
  H  H14  1  0.249270  0.363130  0.488460  1.0  0.1356
  H  H15  1  0.121540  0.435230  0.267300  1.0  0.1336
  H  H16  1  0.222460  0.777210  0.468860  1.0  0.1367
  H  H17  1  0.684600  0.147420  0.923340  1.0  0.1244
  H  H18  1  0.719250  0.301310  0.035690  1.0  0.1317
  H  H19  1  0.787840  0.350600  0.173700  1.0  0.1376
  H  H20  1  0.434260  0.383200  0.278060  1.0  0.1313
  H  H21  1  0.505700  0.450360  0.417700  1.0  0.1308
  H  H22  1  0.248090  0.172990  0.922070  1.0  0.1252
  H  H23  1  0.319960  0.110280  0.028630  1.0  0.1283
  H  H24  1  0.384590  0.173040  0.166650  1.0  0.1302
  H  H25  1  0.841860  0.225740  0.276670  1.0  0.125
  H  H26  1  0.911020  0.289160  0.416580  1.0  0.1288
  H  H27  1  0.361770  0.050780  0.710000  1.0  0.137
  H  H28  1  0.750730  0.636870  0.511540  1.0  0.1353
  H  H29  1  0.878460  0.564770  0.732700  1.0  0.1339
  H  H30  1  0.777540  0.222790  0.531140  1.0  0.1371
  C  C31  1  0.875530  0.919710  0.225170  1.0  0.6229
  C  C32  1  0.716020  0.891850  0.188580  1.0  -0.1017
  C  C33  1  0.671990  0.848840  0.108470  1.0  -0.0979
  C  C34  1  0.579090  0.833560  0.941310  1.0  -0.1145
  C  C35  1  0.541300  0.799430  0.861580  1.0  -0.099
  C  C36  1  0.232810  0.726420  0.693170  1.0  -0.1152
  C  C37  1  0.193590  0.691170  0.613320  1.0  -0.1071
  C  C38  1  0.336950  0.925360  0.224150  1.0  0.6352
  C  C39  1  0.460240  0.896770  0.187910  1.0  -0.1117
  C  C40  1  0.425410  0.858900  0.107740  1.0  -0.0975
  C  C41  1  0.354320  0.731230  0.937400  1.0  -0.123
  C  C42  1  0.314800  0.701560  0.857700  1.0  -0.1201
  C  C43  1  0.461820  0.639020  0.692520  1.0  -0.1217
  C  C44  1  0.421260  0.600680  0.612750  1.0  -0.0945
  C  C45  1  0.607930  0.914510  0.228520  1.0  0.0013
  C  C46  1  0.528610  0.834760  0.067020  1.0  0.0094
  C  C47  1  0.486980  0.799050  0.981050  1.0  0.036
  C  C48  1  0.408050  0.734760  0.818750  1.0  0.0755
  C  C49  1  0.367290  0.700410  0.733800  1.0  0.0668
  C  C50  1  0.286840  0.626300  0.572390  1.0  0.0491
  C  C51  1  0.240880  0.575910  0.487990  1.0  0.0693
  C  C52  1  0.226990  0.433850  0.453230  1.0  -0.1216
  C  C53  1  0.182800  0.382610  0.373690  1.0  -0.0851
  C  C54  1  0.154530  0.475020  0.328650  1.0  -0.0842
  C  C55  1  0.169230  0.617890  0.361890  1.0  -0.0473
  C  C56  1  0.211140  0.667630  0.442050  1.0  -0.0705
  C  C57  1  0.165140  0.232720  0.337460  1.0  0.6363
  C  C58  1  0.142060  0.713560  0.312490  1.0  0.5678
  C  C59  1  0.663050  0.074640  0.775850  1.0  0.6366
  C  C60  1  0.539760  0.103230  0.812090  1.0  -0.1098
  C  C61  1  0.574590  0.141100  0.892260  1.0  -0.0973
  C  C62  1  0.645680  0.268770  0.062600  1.0  -0.1238
  C  C63  1  0.685200  0.298440  0.142300  1.0  -0.1208
  C  C64  1  0.538180  0.360980  0.307480  1.0  -0.1228
  C  C65  1  0.578740  0.399320  0.387250  1.0  -0.0965
  C  C66  1  0.124470  0.080290  0.774830  1.0  0.6192
  C  C67  1  0.283980  0.108150  0.811420  1.0  -0.1026
  C  C68  1  0.328010  0.151160  0.891530  1.0  -0.1005
  C  C69  1  0.420910  0.166440  0.058690  1.0  -0.1141
  C  C70  1  0.458700  0.200570  0.138420  1.0  -0.1006
  C  C71  1  0.767190  0.273580  0.306830  1.0  -0.1163
  C  C72  1  0.806410  0.308830  0.386680  1.0  -0.1062
  C  C73  1  0.392070  0.085490  0.771480  1.0  0.0021
  C  C74  1  0.471390  0.165240  0.932980  1.0  0.0095
  C  C75  1  0.513020  0.200950  0.018950  1.0  0.0369
  C  C76  1  0.591950  0.265240  0.181250  1.0  0.0759
  C  C77  1  0.632710  0.299590  0.266200  1.0  0.0672
  C  C78  1  0.713160  0.373700  0.427610  1.0  0.0493
  C  C79  1  0.759120  0.424090  0.512010  1.0  0.0698
  C  C80  1  0.773010  0.566150  0.546770  1.0  -0.1234
  C  C81  1  0.817200  0.617390  0.626310  1.0  -0.0852
  C  C82  1  0.845470  0.524980  0.671350  1.0  -0.084
  C  C83  1  0.830770  0.382110  0.638110  1.0  -0.048
  C  C84  1  0.788860  0.332370  0.557950  1.0  -0.0722
  C  C85  1  0.834860  0.767280  0.662540  1.0  0.6348
  C  C86  1  0.857940  0.286440  0.687510  1.0  0.5684
  O  O87  1  0.966110  0.912250  0.187820  1.0  -0.5977
  O  O88  1  0.937260  0.958930  0.295050  1.0  -0.5991
  O  O89  1  0.213290  0.940820  0.187820  1.0  -0.5959
  O  O90  1  0.340220  0.937800  0.292650  1.0  -0.5591
  O  O91  1  0.125840  0.179280  0.267110  1.0  -0.5551
  O  O92  1  0.186320  0.143540  0.373400  1.0  -0.5719
  O  O93  1  0.167330  0.855510  0.345080  1.0  -0.5702
  O  O94  1  0.099160  0.668010  0.243580  1.0  -0.4618
  O  O95  1  0.786710  0.059180  0.812180  1.0  -0.5975
  O  O96  1  0.659780  0.062200  0.707350  1.0  -0.5593
  O  O97  1  0.033890  0.087750  0.812180  1.0  -0.6001
  O  O98  1  0.062740  0.041070  0.704950  1.0  -0.6006
  O  O99  1  0.874160  0.820720  0.732890  1.0  -0.5549
  O  O100  1  0.813680  0.856460  0.626600  1.0  -0.5709
  O  O101  1  0.832670  0.144490  0.654920  1.0  -0.5715
  O  O102  1  0.900840  0.331990  0.756420  1.0  -0.4625
