# generated using pymatgen
data_LiInH14C28O9
_symmetry_space_group_name_H-M   'P 1'
_cell_length_a   9.75890000
_cell_length_b   18.93190000
_cell_length_c   19.65250000
_cell_angle_alpha   103.09200000
_cell_angle_beta   90.00000000
_cell_angle_gamma   104.93600000
_symmetry_Int_Tables_number   1
_chemical_formula_structural   LiInH14C28O9
_chemical_formula_sum   'Li4 In4 H56 C112 O36'
_cell_volume   3410.44775220
_cell_formula_units_Z   4
loop_
 _symmetry_equiv_pos_site_id
 _symmetry_equiv_pos_as_xyz
  1  'x, y, z'
loop_
 _atom_site_type_symbol
 _atom_site_label
 _atom_site_symmetry_multiplicity
 _atom_site_fract_x
 _atom_site_fract_y
 _atom_site_fract_z
 _atom_site_occupancy
 _atom_site_charge
  Li  Li1  1  0.544400  0.960800  0.690700  1.0  0.9137
  Li  Li2  1  0.583600  0.039200  0.809300  1.0  0.9129
  Li  Li3  1  0.455600  0.039200  0.309300  1.0  0.9126
  Li  Li4  1  0.416400  0.960800  0.190700  1.0  0.9135
  In  In5  1  0.455300  0.787050  0.611960  1.0  1.5065
  In  In6  1  0.668250  0.212950  0.888040  1.0  1.5082
  In  In7  1  0.544700  0.212950  0.388040  1.0  1.5089
  In  In8  1  0.331750  0.787050  0.111960  1.0  1.5069
  H  H9  1  0.357400  0.590400  0.720400  1.0  0.1195
  H  H10  1  0.387700  0.784600  0.865000  1.0  0.1321
  H  H11  1  0.262600  0.586000  0.918600  1.0  0.1188
  H  H12  1  0.381100  0.353800  0.700200  1.0  0.116
  H  H13  1  0.434300  0.483200  0.733800  1.0  0.103
  H  H14  1  0.097100  0.469800  0.853000  1.0  0.1168
  H  H15  1  0.043400  0.340200  0.821000  1.0  0.1219
  H  H16  1  0.313800  0.110200  0.691900  1.0  0.1316
  H  H17  1  0.367900  0.238400  0.732900  1.0  0.0987
  H  H18  1  0.954400  0.232200  0.727100  1.0  0.1254
  H  H19  1  0.898600  0.103400  0.692100  1.0  0.1293
  H  H20  1  0.265100  0.995200  0.657900  1.0  0.1295
  H  H21  1  0.962400  0.795400  0.612400  1.0  0.1375
  H  H22  1  0.850100  0.989400  0.662900  1.0  0.1274
  H  H23  1  0.767000  0.409600  0.779600  1.0  0.1187
  H  H24  1  0.603100  0.215400  0.635000  1.0  0.1329
  H  H25  1  0.676600  0.414000  0.581400  1.0  0.1194
  H  H26  1  0.027300  0.646200  0.799800  1.0  0.1157
  H  H27  1  0.951100  0.516800  0.766200  1.0  0.1027
  H  H28  1  0.627300  0.530200  0.647000  1.0  0.117
  H  H29  1  0.703200  0.659800  0.679000  1.0  0.122
  H  H30  1  0.203600  0.889800  0.808100  1.0  0.1311
  H  H31  1  0.129500  0.761600  0.767100  1.0  0.0987
  H  H32  1  0.722200  0.767800  0.772900  1.0  0.1259
  H  H33  1  0.795200  0.896600  0.807900  1.0  0.1284
  H  H34  1  0.269900  0.004800  0.842100  1.0  0.1292
  H  H35  1  0.167000  0.204600  0.887600  1.0  0.1381
  H  H36  1  0.860700  0.010600  0.837100  1.0  0.1276
  H  H37  1  0.642600  0.409600  0.279600  1.0  0.119
  H  H38  1  0.612300  0.215400  0.135000  1.0  0.1327
  H  H39  1  0.737400  0.414000  0.081400  1.0  0.1196
  H  H40  1  0.618900  0.646200  0.299800  1.0  0.1163
  H  H41  1  0.565700  0.516800  0.266200  1.0  0.1028
  H  H42  1  0.902900  0.530200  0.147000  1.0  0.1169
  H  H43  1  0.956600  0.659800  0.179000  1.0  0.1222
  H  H44  1  0.686200  0.889800  0.308100  1.0  0.1307
  H  H45  1  0.632100  0.761600  0.267100  1.0  0.0985
  H  H46  1  0.045600  0.767800  0.272900  1.0  0.1253
  H  H47  1  0.101400  0.896600  0.307900  1.0  0.1282
  H  H48  1  0.734900  0.004800  0.342100  1.0  0.1298
  H  H49  1  0.037600  0.204600  0.387600  1.0  0.1383
  H  H50  1  0.149900  0.010600  0.337100  1.0  0.1275
  H  H51  1  0.233000  0.590400  0.220400  1.0  0.1199
  H  H52  1  0.396900  0.784600  0.365000  1.0  0.1316
  H  H53  1  0.323400  0.586000  0.418600  1.0  0.1194
  H  H54  1  0.972700  0.353800  0.200200  1.0  0.1163
  H  H55  1  0.048900  0.483200  0.233800  1.0  0.1029
  H  H56  1  0.372700  0.469800  0.353000  1.0  0.1171
  H  H57  1  0.296800  0.340200  0.321000  1.0  0.122
  H  H58  1  0.796400  0.110200  0.191900  1.0  0.1315
  H  H59  1  0.870500  0.238400  0.232900  1.0  0.0986
  H  H60  1  0.277800  0.232200  0.227100  1.0  0.1259
  H  H61  1  0.204800  0.103400  0.192100  1.0  0.1295
  H  H62  1  0.730100  0.995200  0.157900  1.0  0.1298
  H  H63  1  0.833000  0.795400  0.112400  1.0  0.1378
  H  H64  1  0.139300  0.989400  0.162900  1.0  0.1269
  C  C65  1  0.415100  0.735200  0.727000  1.0  0.6796
  C  C66  1  0.319900  0.729000  0.976700  1.0  0.668
  C  C67  1  0.346800  0.616000  0.766900  1.0  -0.0943
  C  C68  1  0.376000  0.693600  0.783500  1.0  -0.1092
  C  C69  1  0.365900  0.731200  0.852300  1.0  -0.0441
  C  C70  1  0.324200  0.690600  0.902000  1.0  -0.1269
  C  C71  1  0.292300  0.613200  0.883700  1.0  -0.0728
  C  C72  1  0.301900  0.573800  0.816400  1.0  0.0782
  C  C73  1  0.322600  0.377200  0.731300  1.0  -0.1468
  C  C74  1  0.354100  0.454000  0.751400  1.0  -0.1186
  C  C75  1  0.270800  0.490600  0.797200  1.0  0.0769
  C  C76  1  0.155300  0.446200  0.821900  1.0  -0.1194
  C  C77  1  0.122700  0.369000  0.802500  1.0  -0.1307
  C  C78  1  0.204700  0.332400  0.756100  1.0  0.1013
  C  C79  1  0.239500  0.134400  0.700200  1.0  -0.1668
  C  C80  1  0.271000  0.210800  0.723300  1.0  -0.1055
  C  C81  1  0.169000  0.250200  0.733300  1.0  0.0808
  C  C82  1  0.028500  0.207600  0.720800  1.0  -0.1825
  C  C83  1  0.995800  0.131000  0.699700  1.0  -0.0819
  C  C84  1  0.097900  0.092000  0.689000  1.0  0.0819
  C  C85  1  0.062900  0.007800  0.665100  1.0  0.0615
  C  C86  1  0.167800  0.968200  0.653400  1.0  -0.0493
  C  C87  1  0.130700  0.890000  0.635300  1.0  -0.1361
  C  C88  1  0.987600  0.848800  0.625600  1.0  -0.0026
  C  C89  1  0.885100  0.886800  0.635400  1.0  -0.1208
  C  C90  1  0.923400  0.964400  0.655400  1.0  -0.1008
  C  C91  1  0.245700  0.850800  0.625900  1.0  0.6845
  C  C92  1  0.732400  0.845000  0.626800  1.0  0.6934
  C  C93  1  0.679900  0.264800  0.773000  1.0  0.6805
  C  C94  1  0.590900  0.271000  0.523300  1.0  0.6678
  C  C95  1  0.730800  0.384000  0.733100  1.0  -0.0942
  C  C96  1  0.682400  0.306400  0.716500  1.0  -0.109
  C  C97  1  0.634700  0.268800  0.647700  1.0  -0.0473
  C  C98  1  0.633600  0.309400  0.598000  1.0  -0.129
  C  C99  1  0.679100  0.386800  0.616300  1.0  -0.0727
  C  C100  1  0.728100  0.426200  0.683600  1.0  0.0783
  C  C101  1  0.945400  0.622800  0.768700  1.0  -0.1474
  C  C102  1  0.900100  0.546000  0.748600  1.0  -0.1195
  C  C103  1  0.780200  0.509400  0.702800  1.0  0.0774
  C  C104  1  0.709100  0.553800  0.678100  1.0  -0.1191
  C  C105  1  0.753700  0.631000  0.697500  1.0  -0.1303
  C  C106  1  0.872300  0.667600  0.743900  1.0  0.1013
  C  C107  1  0.105100  0.865600  0.799800  1.0  -0.1679
  C  C108  1  0.060200  0.789200  0.776700  1.0  -0.1049
  C  C109  1  0.918800  0.749800  0.766700  1.0  0.0808
  C  C110  1  0.820900  0.792400  0.779200  1.0  -0.1842
  C  C111  1  0.864800  0.869000  0.800300  1.0  -0.0823
  C  C112  1  0.005900  0.908000  0.811000  1.0  0.089
  C  C113  1  0.055100  0.992200  0.834900  1.0  0.0644
  C  C114  1  0.199600  0.031800  0.846600  1.0  -0.0458
  C  C115  1  0.240700  0.110000  0.864700  1.0  -0.1343
  C  C116  1  0.138800  0.151200  0.874400  1.0  -0.0004
  C  C117  1  0.998300  0.113200  0.864600  1.0  -0.119
  C  C118  1  0.959000  0.035600  0.844600  1.0  -0.1017
  C  C119  1  0.394900  0.149200  0.874100  1.0  0.6872
  C  C120  1  0.887400  0.155000  0.873200  1.0  0.6928
  C  C121  1  0.584900  0.264800  0.273000  1.0  0.6803
  C  C122  1  0.680100  0.271000  0.023300  1.0  0.6681
  C  C123  1  0.653200  0.384000  0.233100  1.0  -0.095
  C  C124  1  0.624000  0.306400  0.216500  1.0  -0.1093
  C  C125  1  0.634100  0.268800  0.147700  1.0  -0.0479
  C  C126  1  0.675800  0.309400  0.098000  1.0  -0.1284
  C  C127  1  0.707700  0.386800  0.116300  1.0  -0.0721
  C  C128  1  0.698100  0.426200  0.183600  1.0  0.0782
  C  C129  1  0.677400  0.622800  0.268700  1.0  -0.1469
  C  C130  1  0.645900  0.546000  0.248600  1.0  -0.1191
  C  C131  1  0.729200  0.509400  0.202800  1.0  0.077
  C  C132  1  0.844700  0.553800  0.178100  1.0  -0.1191
  C  C133  1  0.877300  0.631000  0.197500  1.0  -0.1305
  C  C134  1  0.795300  0.667600  0.243900  1.0  0.1016
  C  C135  1  0.760500  0.865600  0.299800  1.0  -0.1661
  C  C136  1  0.729000  0.789200  0.276700  1.0  -0.1037
  C  C137  1  0.831000  0.749800  0.266700  1.0  0.0807
  C  C138  1  0.971500  0.792400  0.279200  1.0  -0.1832
  C  C139  1  0.004200  0.869000  0.300300  1.0  -0.0803
  C  C140  1  0.902100  0.908000  0.311000  1.0  0.0894
  C  C141  1  0.937100  0.992200  0.334900  1.0  0.064
  C  C142  1  0.832200  0.031800  0.346600  1.0  -0.0466
  C  C143  1  0.869300  0.110000  0.364700  1.0  -0.1356
  C  C144  1  0.012400  0.151200  0.374400  1.0  -0.0017
  C  C145  1  0.114900  0.113200  0.364600  1.0  -0.1183
  C  C146  1  0.076600  0.035600  0.344600  1.0  -0.101
  C  C147  1  0.754300  0.149200  0.374100  1.0  0.6842
  C  C148  1  0.267600  0.155000  0.373200  1.0  0.6962
  C  C149  1  0.320100  0.735200  0.227000  1.0  0.6795
  C  C150  1  0.409100  0.729000  0.476700  1.0  0.6683
  C  C151  1  0.269200  0.616000  0.266900  1.0  -0.0944
  C  C152  1  0.317600  0.693600  0.283500  1.0  -0.1091
  C  C153  1  0.365300  0.731200  0.352300  1.0  -0.0452
  C  C154  1  0.366400  0.690600  0.402000  1.0  -0.128
  C  C155  1  0.320900  0.613200  0.383700  1.0  -0.0732
  C  C156  1  0.271900  0.573800  0.316400  1.0  0.0781
  C  C157  1  0.054600  0.377200  0.231300  1.0  -0.1462
  C  C158  1  0.099900  0.454000  0.251400  1.0  -0.1186
  C  C159  1  0.219800  0.490600  0.297200  1.0  0.0767
  C  C160  1  0.290900  0.446200  0.321900  1.0  -0.1189
  C  C161  1  0.246300  0.369000  0.302500  1.0  -0.1302
  C  C162  1  0.127700  0.332400  0.256100  1.0  0.1017
  C  C163  1  0.894900  0.134400  0.200200  1.0  -0.1647
  C  C164  1  0.939800  0.210800  0.223300  1.0  -0.1046
  C  C165  1  0.081200  0.250200  0.233300  1.0  0.0807
  C  C166  1  0.179100  0.207600  0.220800  1.0  -0.1832
  C  C167  1  0.135200  0.131000  0.199700  1.0  -0.0814
  C  C168  1  0.994100  0.092000  0.189000  1.0  0.0821
  C  C169  1  0.944900  0.007800  0.165100  1.0  0.0614
  C  C170  1  0.800400  0.968200  0.153400  1.0  -0.0477
  C  C171  1  0.759300  0.890000  0.135300  1.0  -0.1373
  C  C172  1  0.861200  0.848800  0.125600  1.0  -0.0025
  C  C173  1  0.001700  0.886800  0.135400  1.0  -0.1198
  C  C174  1  0.041000  0.964400  0.155400  1.0  -0.1032
  C  C175  1  0.605100  0.850800  0.125900  1.0  0.6841
  C  C176  1  0.112600  0.845000  0.126800  1.0  0.6945
  O  O177  1  0.691630  0.777260  0.606100  1.0  -0.5543
  O  O178  1  0.641400  0.880600  0.639000  1.0  -0.6506
  O  O179  1  0.372470  0.890340  0.636000  1.0  -0.7123
  O  O180  1  0.220150  0.780300  0.609600  1.0  -0.5463
  O  O181  1  0.351800  0.799600  0.996800  1.0  -0.574
  O  O182  1  0.287580  0.688760  0.021700  1.0  -0.6102
  O  O183  1  0.440770  0.805140  0.739800  1.0  -0.5855
  O  O184  1  0.416120  0.696640  0.665700  1.0  -0.5895
  O  O185  1  0.589600  0.031200  0.714300  1.0  -0.6117
  O  O186  1  0.914370  0.222740  0.893900  1.0  -0.5518
  O  O187  1  0.760800  0.119400  0.861000  1.0  -0.6511
  O  O188  1  0.482130  0.109660  0.864000  1.0  -0.7103
  O  O189  1  0.439850  0.219700  0.890400  1.0  -0.549
  O  O190  1  0.552200  0.200400  0.503200  1.0  -0.574
  O  O191  1  0.598820  0.311240  0.478300  1.0  -0.6086
  O  O192  1  0.635630  0.194860  0.760200  1.0  -0.5854
  O  O193  1  0.719480  0.303360  0.834300  1.0  -0.5896
  O  O194  1  0.558400  0.968800  0.785700  1.0  -0.6124
  O  O195  1  0.308370  0.222740  0.393900  1.0  -0.5524
  O  O196  1  0.358600  0.119400  0.361000  1.0  -0.6502
  O  O197  1  0.627530  0.109660  0.364000  1.0  -0.7107
  O  O198  1  0.779850  0.219700  0.390400  1.0  -0.5483
  O  O199  1  0.648200  0.200400  0.003200  1.0  -0.5739
  O  O200  1  0.712420  0.311240  0.978300  1.0  -0.6115
  O  O201  1  0.559230  0.194860  0.260200  1.0  -0.5856
  O  O202  1  0.583880  0.303360  0.334300  1.0  -0.5892
  O  O203  1  0.410400  0.968800  0.285700  1.0  -0.6121
  O  O204  1  0.085630  0.777260  0.106100  1.0  -0.5542
  O  O205  1  0.239200  0.880600  0.139000  1.0  -0.65
  O  O206  1  0.517870  0.890340  0.136000  1.0  -0.712
  O  O207  1  0.560150  0.780300  0.109600  1.0  -0.5463
  O  O208  1  0.447800  0.799600  0.496800  1.0  -0.5742
  O  O209  1  0.401180  0.688760  0.521700  1.0  -0.6127
  O  O210  1  0.364370  0.805140  0.239800  1.0  -0.5857
  O  O211  1  0.280520  0.696640  0.165700  1.0  -0.5893
  O  O212  1  0.441600  0.031200  0.214300  1.0  -0.6114
