# generated using pymatgen
data_Mn3H25C24(N2O7)3
_symmetry_space_group_name_H-M   'P 1'
_cell_length_a   8.91470000
_cell_length_b   12.71500000
_cell_length_c   21.22600000
_cell_angle_alpha   90.21000000
_cell_angle_beta   94.14000000
_cell_angle_gamma   91.29000000
_symmetry_Int_Tables_number   1
_chemical_formula_structural   Mn3H25C24(N2O7)3
_chemical_formula_sum   'Mn6 H50 C48 N12 O42'
_cell_volume   2399.05575898
_cell_formula_units_Z   2
loop_
 _symmetry_equiv_pos_site_id
 _symmetry_equiv_pos_as_xyz
  1  'x, y, z'
loop_
 _atom_site_type_symbol
 _atom_site_label
 _atom_site_symmetry_multiplicity
 _atom_site_fract_x
 _atom_site_fract_y
 _atom_site_fract_z
 _atom_site_occupancy
 _atom_site_charge
  Mn  Mn1  1  0.602200  0.270800  0.237400  1.0  1.1434
  Mn  Mn2  1  0.974100  0.360800  0.246900  1.0  1.1767
  Mn  Mn3  1  0.279500  0.145100  0.262600  1.0  1.146
  Mn  Mn4  1  0.397800  0.729200  0.762600  1.0  1.1417
  Mn  Mn5  1  0.025900  0.639200  0.753100  1.0  1.1792
  Mn  Mn6  1  0.720500  0.854900  0.737400  1.0  1.1451
  H  H7  1  0.115200  0.165200  0.361300  1.0  0.4961
  H  H8  1  0.192200  0.956200  0.287300  1.0  0.4627
  H  H9  1  0.112000  0.434900  0.145200  1.0  0.472
  H  H10  1  0.510000  0.014100  0.397100  1.0  0.1356
  H  H11  1  0.426400  0.965000  0.335800  1.0  0.1301
  H  H12  1  0.655900  0.869100  0.321800  1.0  0.1279
  H  H13  1  0.710500  0.904700  0.390800  1.0  0.1226
  H  H14  1  0.277900  0.619300  0.293400  1.0  0.1203
  H  H15  1  0.216200  0.560300  0.351100  1.0  0.1114
  H  H16  1  0.472500  0.501900  0.287600  1.0  0.1368
  H  H17  1  0.440600  0.452200  0.352700  1.0  0.1289
  H  H18  1  0.498700  0.720600  0.568600  1.0  0.1509
  H  H19  1  0.439000  0.606400  0.552800  1.0  0.141
  H  H20  1  0.251500  0.783300  0.563000  1.0  0.1826
  H  H21  1  0.187000  0.673200  0.540900  1.0  0.1815
  H  H22  1  0.017900  0.012700  0.180100  1.0  0.1472
  H  H23  1  0.746600  0.087900  0.130400  1.0  0.1195
  H  H24  1  0.720100  0.020500  0.190900  1.0  0.1335
  H  H25  1  0.813000  0.797100  0.935900  1.0  0.1218
  H  H26  1  0.781600  0.918500  0.939600  1.0  0.1292
  H  H27  1  0.519600  0.819500  0.971900  1.0  0.1995
  H  H28  1  0.912000  0.658500  0.181800  1.0  0.1217
  H  H29  1  0.884200  0.600600  0.116400  1.0  0.1064
  H  H30  1  0.649000  0.649000  0.195000  1.0  0.1444
  H  H31  1  0.622200  0.590000  0.130000  1.0  0.1588
  H  H32  1  0.884800  0.834800  0.638700  1.0  0.4951
  H  H33  1  0.807800  0.043800  0.712700  1.0  0.4621
  H  H34  1  0.888000  0.565100  0.854800  1.0  0.4718
  H  H35  1  0.490000  0.985900  0.602900  1.0  0.1365
  H  H36  1  0.573600  0.035000  0.664200  1.0  0.1303
  H  H37  1  0.344100  0.130900  0.678200  1.0  0.1282
  H  H38  1  0.289500  0.095300  0.609200  1.0  0.1235
  H  H39  1  0.722100  0.380700  0.706600  1.0  0.1199
  H  H40  1  0.783800  0.439700  0.648900  1.0  0.1098
  H  H41  1  0.527500  0.498100  0.712400  1.0  0.1388
  H  H42  1  0.559400  0.547800  0.647300  1.0  0.1295
  H  H43  1  0.501300  0.279400  0.431400  1.0  0.1508
  H  H44  1  0.561000  0.393600  0.447200  1.0  0.1392
  H  H45  1  0.748500  0.216700  0.437000  1.0  0.1762
  H  H46  1  0.813000  0.326800  0.459100  1.0  0.18
  H  H47  1  0.982100  0.987300  0.819900  1.0  0.1476
  H  H48  1  0.253400  0.912100  0.869600  1.0  0.1197
  H  H49  1  0.279900  0.979500  0.809100  1.0  0.1339
  H  H50  1  0.187000  0.202900  0.064100  1.0  0.1212
  H  H51  1  0.218400  0.081500  0.060400  1.0  0.1301
  H  H52  1  0.480400  0.180500  0.028100  1.0  0.1991
  H  H53  1  0.088000  0.341500  0.818200  1.0  0.1231
  H  H54  1  0.115800  0.399400  0.883600  1.0  0.1092
  H  H55  1  0.351000  0.351000  0.805000  1.0  0.1452
  H  H56  1  0.377800  0.410000  0.870000  1.0  0.1552
  C  C57  1  0.601000  0.067000  0.315300  1.0  0.7927
  C  C58  1  0.524000  0.985000  0.356000  1.0  -0.2649
  C  C59  1  0.622000  0.889000  0.363000  1.0  0.0277
  C  C60  1  0.519000  0.788000  0.454000  1.0  0.0901
  C  C61  1  0.469000  0.734000  0.347000  1.0  0.4259
  C  C62  1  0.380000  0.627000  0.438000  1.0  0.4834
  C  C63  1  0.307000  0.582000  0.332000  1.0  0.0512
  C  C64  1  0.393000  0.481000  0.314000  1.0  -0.2927
  C  C65  1  0.301000  0.401000  0.282600  1.0  0.6949
  C  C66  1  0.422000  0.680000  0.543900  1.0  -0.1479
  C  C67  1  0.264000  0.708000  0.569000  1.0  -0.3277
  C  C68  1  0.230000  0.682000  0.637300  1.0  0.6794
  C  C69  1  0.942000  0.166000  0.211200  1.0  0.5656
  C  C70  1  0.936000  0.057000  0.182000  1.0  -0.0853
  C  C71  1  0.786000  0.031000  0.157000  1.0  -0.0205
  C  C72  1  0.778000  0.942000  0.055000  1.0  0.4344
  C  C73  1  0.809000  0.841000  0.151000  1.0  0.4901
  C  C74  1  0.801000  0.750000  0.050000  1.0  0.5897
  C  C75  1  0.754000  0.850000  0.955000  1.0  0.0297
  C  C76  1  0.592000  0.828000  0.943000  1.0  -0.077
  C  C77  1  0.571000  0.821000  0.872000  1.0  0.674
  C  C78  1  0.841000  0.649000  0.145000  1.0  0.033
  C  C79  1  0.693000  0.600000  0.167000  1.0  -0.3129
  C  C80  1  0.718000  0.495000  0.200000  1.0  0.7312
  C  C81  1  0.399000  0.933000  0.684700  1.0  0.7934
  C  C82  1  0.476000  0.015000  0.644000  1.0  -0.2666
  C  C83  1  0.378000  0.111000  0.637000  1.0  0.0278
  C  C84  1  0.481000  0.212000  0.546000  1.0  0.0906
  C  C85  1  0.531000  0.266000  0.653000  1.0  0.4242
  C  C86  1  0.620000  0.373000  0.562000  1.0  0.4838
  C  C87  1  0.693000  0.418000  0.668000  1.0  0.0512
  C  C88  1  0.607000  0.519000  0.686000  1.0  -0.2922
  C  C89  1  0.699000  0.599000  0.717400  1.0  0.6941
  C  C90  1  0.578000  0.320000  0.456100  1.0  -0.1465
  C  C91  1  0.736000  0.292000  0.431000  1.0  -0.3283
  C  C92  1  0.770000  0.318000  0.362700  1.0  0.676
  C  C93  1  0.058000  0.834000  0.788800  1.0  0.565
  C  C94  1  0.064000  0.943000  0.818000  1.0  -0.085
  C  C95  1  0.214000  0.969000  0.843000  1.0  -0.0199
  C  C96  1  0.222000  0.058000  0.945000  1.0  0.4341
  C  C97  1  0.191000  0.159000  0.849000  1.0  0.4919
  C  C98  1  0.199000  0.250000  0.950000  1.0  0.588
  C  C99  1  0.246000  0.150000  0.045000  1.0  0.03
  C  C100  1  0.408000  0.172000  0.057000  1.0  -0.0743
  C  C101  1  0.429000  0.179000  0.128000  1.0  0.6734
  C  C102  1  0.159000  0.351000  0.855000  1.0  0.0315
  C  C103  1  0.307000  0.400000  0.833000  1.0  -0.313
  C  C104  1  0.282000  0.505000  0.800000  1.0  0.7295
  N  N105  1  0.391000  0.650000  0.373200  1.0  -0.1277
  N  N106  1  0.443000  0.698000  0.475400  1.0  -0.1498
  N  N107  1  0.534000  0.798000  0.388800  1.0  -0.1149
  N  N108  1  0.795000  0.934000  0.119600  1.0  -0.229
  N  N109  1  0.816000  0.751000  0.113900  1.0  -0.2708
  N  N110  1  0.778000  0.847000  0.022800  1.0  -0.2298
  N  N111  1  0.609000  0.350000  0.626800  1.0  -0.1281
  N  N112  1  0.557000  0.302000  0.524600  1.0  -0.1511
  N  N113  1  0.466000  0.202000  0.611200  1.0  -0.1134
  N  N114  1  0.205000  0.066000  0.880400  1.0  -0.2293
  N  N115  1  0.184000  0.249000  0.886100  1.0  -0.2709
  N  N116  1  0.222000  0.153000  0.977200  1.0  -0.2289
  O  O117  1  0.167000  0.428000  0.276700  1.0  -0.6001
  O  O118  1  0.517000  0.126000  0.281100  1.0  -0.6623
  O  O119  1  0.739000  0.075000  0.314100  1.0  -0.5062
  O  O120  1  0.096000  0.664000  0.656000  1.0  -0.6183
  O  O121  1  0.338000  0.681000  0.671900  1.0  -0.5698
  O  O122  1  0.359000  0.314000  0.265400  1.0  -0.6641
  O  O123  1  0.482000  0.749000  0.291100  1.0  -0.4954
  O  O124  1  0.570000  0.849000  0.488600  1.0  -0.3823
  O  O125  1  0.317000  0.550000  0.457500  1.0  -0.4873
  O  O126  1  0.836000  0.232000  0.204200  1.0  -0.6704
  O  O127  1  0.053000  0.189000  0.240400  1.0  -0.5936
  O  O128  1  0.815000  0.837000  0.207300  1.0  -0.4871
  O  O129  1  0.760000  0.025000  0.029700  1.0  -0.467
  O  O130  1  0.804000  0.669000  0.019600  1.0  -0.4715
  O  O131  1  0.462000  0.771000  0.855700  1.0  -0.5453
  O  O132  1  0.665000  0.866000  0.835500  1.0  -0.6167
  O  O133  1  0.625000  0.425000  0.192300  1.0  -0.5775
  O  O134  1  0.830000  0.488000  0.232300  1.0  -0.5679
  O  O135  1  0.206000  0.156000  0.362500  1.0  -0.7102
  O  O136  1  0.240000  0.975000  0.258000  1.0  -0.6736
  O  O137  1  0.071000  0.377000  0.148000  1.0  -0.7215
  O  O138  1  0.833000  0.572000  0.723300  1.0  -0.5995
  O  O139  1  0.483000  0.874000  0.718900  1.0  -0.6613
  O  O140  1  0.261000  0.925000  0.685900  1.0  -0.5056
  O  O141  1  0.904000  0.336000  0.344000  1.0  -0.6209
  O  O142  1  0.662000  0.319000  0.328100  1.0  -0.5695
  O  O143  1  0.641000  0.686000  0.734600  1.0  -0.6648
  O  O144  1  0.518000  0.251000  0.708900  1.0  -0.4973
  O  O145  1  0.430000  0.151000  0.511400  1.0  -0.3825
  O  O146  1  0.683000  0.450000  0.542500  1.0  -0.4871
  O  O147  1  0.164000  0.768000  0.795800  1.0  -0.6712
  O  O148  1  0.947000  0.811000  0.759600  1.0  -0.5945
  O  O149  1  0.185000  0.163000  0.792700  1.0  -0.4837
  O  O150  1  0.240000  0.975000  0.970300  1.0  -0.4685
  O  O151  1  0.196000  0.331000  0.980400  1.0  -0.472
  O  O152  1  0.538000  0.229000  0.144300  1.0  -0.5451
  O  O153  1  0.335000  0.134000  0.164500  1.0  -0.6151
  O  O154  1  0.375000  0.575000  0.807700  1.0  -0.5794
  O  O155  1  0.170000  0.512000  0.767700  1.0  -0.5655
  O  O156  1  0.794000  0.844000  0.637500  1.0  -0.7077
  O  O157  1  0.760000  0.025000  0.742000  1.0  -0.6716
  O  O158  1  0.929000  0.623000  0.852000  1.0  -0.7188
