# generated using pymatgen
data_SmAgH8C14(NO4)2
_symmetry_space_group_name_H-M   'P 1'
_cell_length_a   9.17260000
_cell_length_b   9.71450000
_cell_length_c   22.34440000
_cell_angle_alpha   90.00000000
_cell_angle_beta   90.00000000
_cell_angle_gamma   117.29500000
_symmetry_Int_Tables_number   1
_chemical_formula_structural   SmAgH8C14(NO4)2
_chemical_formula_sum   'Sm4 Ag4 H32 C56 N8 O32'
_cell_volume   1769.35873896
_cell_formula_units_Z   4
loop_
 _symmetry_equiv_pos_site_id
 _symmetry_equiv_pos_as_xyz
  1  'x, y, z'
loop_
 _atom_site_type_symbol
 _atom_site_label
 _atom_site_symmetry_multiplicity
 _atom_site_fract_x
 _atom_site_fract_y
 _atom_site_fract_z
 _atom_site_occupancy
 _atom_site_charge
  Sm  Sm1  1  0.882330  0.142850  0.008690  1.0  2.2915
  Sm  Sm2  1  0.617670  0.857150  0.508680  1.0  2.2915
  Sm  Sm3  1  0.117670  0.857150  0.991310  1.0  2.295
  Sm  Sm4  1  0.382330  0.142850  0.491320  1.0  2.2948
  Ag  Ag5  1  0.516910  0.179330  0.147630  1.0  0.3947
  Ag  Ag6  1  0.983090  0.820670  0.647630  1.0  0.3944
  Ag  Ag7  1  0.483090  0.820670  0.852370  1.0  0.3948
  Ag  Ag8  1  0.016910  0.179330  0.352370  1.0  0.395
  H  H9  1  0.756000  0.469600  0.868100  1.0  0.135
  H  H10  1  0.316600  0.529100  0.933400  1.0  0.0838
  H  H11  1  0.722100  0.678800  0.841000  1.0  0.0686
  H  H12  1  0.560800  0.279500  0.927900  1.0  0.1051
  H  H13  1  0.988300  0.139500  0.218400  1.0  0.079
  H  H14  1  0.100600  0.812400  0.158900  1.0  0.1191
  H  H15  1  0.114100  0.909700  0.332200  1.0  0.0791
  H  H16  1  0.140000  0.763500  0.257300  1.0  0.1289
  H  H17  1  0.744000  0.530400  0.368100  1.0  0.1377
  H  H18  1  0.183400  0.470900  0.433400  1.0  0.0844
  H  H19  1  0.777900  0.321200  0.341000  1.0  0.0691
  H  H20  1  0.939200  0.720500  0.427900  1.0  0.1051
  H  H21  1  0.511700  0.860500  0.718400  1.0  0.0794
  H  H22  1  0.399400  0.187600  0.658900  1.0  0.1189
  H  H23  1  0.385900  0.090300  0.832200  1.0  0.0792
  H  H24  1  0.360000  0.236500  0.757300  1.0  0.129
  H  H25  1  0.244000  0.530400  0.131900  1.0  0.1369
  H  H26  1  0.683400  0.470900  0.066600  1.0  0.0842
  H  H27  1  0.277900  0.321200  0.159000  1.0  0.0694
  H  H28  1  0.439200  0.720500  0.072100  1.0  0.1053
  H  H29  1  0.011700  0.860500  0.781600  1.0  0.0793
  H  H30  1  0.899400  0.187600  0.841100  1.0  0.1185
  H  H31  1  0.885900  0.090300  0.667800  1.0  0.0793
  H  H32  1  0.860000  0.236500  0.742700  1.0  0.1291
  H  H33  1  0.256000  0.469600  0.631900  1.0  0.1352
  H  H34  1  0.816600  0.529100  0.566600  1.0  0.084
  H  H35  1  0.222100  0.678800  0.659000  1.0  0.0687
  H  H36  1  0.060800  0.279500  0.572100  1.0  0.1054
  H  H37  1  0.488300  0.139500  0.281600  1.0  0.079
  H  H38  1  0.600600  0.812400  0.341100  1.0  0.1191
  H  H39  1  0.614100  0.909700  0.167800  1.0  0.079
  H  H40  1  0.640000  0.763500  0.242700  1.0  0.1291
  C  C41  1  0.414700  0.383400  0.936170  1.0  -0.2259
  C  C42  1  0.664800  0.478900  0.881290  1.0  -0.1566
  C  C43  1  0.404700  0.515400  0.919510  1.0  0.1893
  C  C44  1  0.644100  0.604200  0.865660  1.0  0.168
  C  C45  1  0.281100  0.258600  0.972260  1.0  0.7731
  C  C46  1  0.549000  0.366200  0.916900  1.0  0.055
  C  C47  1  0.020800  0.063600  0.226180  1.0  0.1548
  C  C48  1  0.086400  0.869100  0.189900  1.0  0.0614
  C  C49  1  0.093100  0.927800  0.293050  1.0  0.1773
  C  C50  1  0.040100  0.983100  0.178160  1.0  -0.2208
  C  C51  1  0.111100  0.841200  0.248300  1.0  -0.1822
  C  C52  1  0.497200  0.020700  0.033030  1.0  0.547
  C  C53  1  0.007800  0.022900  0.116430  1.0  0.7527
  C  C54  1  0.008300  0.508100  0.034690  1.0  0.5467
  C  C55  1  0.085300  0.616600  0.436170  1.0  -0.2257
  C  C56  1  0.835200  0.521100  0.381290  1.0  -0.1585
  C  C57  1  0.095300  0.484600  0.419510  1.0  0.189
  C  C58  1  0.855900  0.395800  0.365660  1.0  0.168
  C  C59  1  0.218900  0.741400  0.472260  1.0  0.7731
  C  C60  1  0.951000  0.633800  0.416900  1.0  0.055
  C  C61  1  0.479200  0.936400  0.726180  1.0  0.1556
  C  C62  1  0.413600  0.130900  0.689900  1.0  0.0631
  C  C63  1  0.406900  0.072200  0.793050  1.0  0.1768
  C  C64  1  0.459900  0.016900  0.678160  1.0  -0.2207
  C  C65  1  0.388900  0.158800  0.748300  1.0  -0.1842
  C  C66  1  0.002800  0.979300  0.533030  1.0  0.5467
  C  C67  1  0.492200  0.977100  0.616430  1.0  0.7526
  C  C68  1  0.491700  0.491900  0.534690  1.0  0.5467
  C  C69  1  0.585300  0.616600  0.063830  1.0  -0.2256
  C  C70  1  0.335200  0.521100  0.118710  1.0  -0.1589
  C  C71  1  0.595300  0.484600  0.080490  1.0  0.1899
  C  C72  1  0.355900  0.395800  0.134340  1.0  0.1674
  C  C73  1  0.718900  0.741400  0.027740  1.0  0.7725
  C  C74  1  0.451000  0.633800  0.083100  1.0  0.0553
  C  C75  1  0.979200  0.936400  0.773820  1.0  0.1544
  C  C76  1  0.913600  0.130900  0.810100  1.0  0.0636
  C  C77  1  0.906900  0.072200  0.706950  1.0  0.1767
  C  C78  1  0.959900  0.016900  0.821840  1.0  -0.2199
  C  C79  1  0.888900  0.158800  0.751700  1.0  -0.1835
  C  C80  1  0.502800  0.979300  0.966970  1.0  0.5458
  C  C81  1  0.992200  0.977100  0.883570  1.0  0.7536
  C  C82  1  0.991700  0.491900  0.965310  1.0  0.5466
  C  C83  1  0.914700  0.383400  0.563830  1.0  -0.2256
  C  C84  1  0.164800  0.478900  0.618710  1.0  -0.1578
  C  C85  1  0.904700  0.515400  0.580490  1.0  0.1901
  C  C86  1  0.144100  0.604200  0.634340  1.0  0.1672
  C  C87  1  0.781100  0.258600  0.527740  1.0  0.7724
  C  C88  1  0.049000  0.366200  0.583100  1.0  0.0551
  C  C89  1  0.520800  0.063600  0.273820  1.0  0.1536
  C  C90  1  0.586400  0.869100  0.310100  1.0  0.0627
  C  C91  1  0.593100  0.927800  0.206950  1.0  0.1768
  C  C92  1  0.540100  0.983100  0.321840  1.0  -0.22
  C  C93  1  0.611100  0.841200  0.251700  1.0  -0.1816
  C  C94  1  0.997200  0.020700  0.466970  1.0  0.5465
  C  C95  1  0.507800  0.022900  0.383570  1.0  0.7533
  C  C96  1  0.508300  0.508100  0.465310  1.0  0.5467
  N  N97  1  0.516300  0.625400  0.884110  1.0  -0.3129
  N  N98  1  0.046300  0.038100  0.282960  1.0  -0.3082
  N  N99  1  0.983700  0.374600  0.384110  1.0  -0.3147
  N  N100  1  0.453700  0.961900  0.782960  1.0  -0.309
  N  N101  1  0.483700  0.374600  0.115890  1.0  -0.3164
  N  N102  1  0.953700  0.961900  0.717040  1.0  -0.312
  N  N103  1  0.016300  0.625400  0.615890  1.0  -0.3161
  N  N104  1  0.546300  0.038100  0.217040  1.0  -0.3091
  O  O105  1  0.630500  0.116500  0.055980  1.0  -0.6387
  O  O106  1  0.176900  0.290000  0.996740  1.0  -0.7308
  O  O107  1  0.283400  0.130900  0.973830  1.0  -0.7366
  O  O108  1  0.950400  0.384400  0.063820  1.0  -0.6399
  O  O109  1  0.361400  0.958200  0.058860  1.0  -0.6183
  O  O110  1  0.078700  0.642000  0.055700  1.0  -0.6656
  O  O111  1  0.944300  0.111800  0.111570  1.0  -0.6755
  O  O112  1  0.044800  0.965000  0.072460  1.0  -0.799
  O  O113  1  0.869500  0.883500  0.555980  1.0  -0.6375
  O  O114  1  0.323100  0.710000  0.496740  1.0  -0.7305
  O  O115  1  0.216600  0.869100  0.473830  1.0  -0.7352
  O  O116  1  0.549600  0.615600  0.563820  1.0  -0.6398
  O  O117  1  0.138600  0.041800  0.558860  1.0  -0.6187
  O  O118  1  0.421300  0.358000  0.555700  1.0  -0.6641
  O  O119  1  0.555700  0.888200  0.611570  1.0  -0.6747
  O  O120  1  0.455200  0.035000  0.572460  1.0  -0.7985
  O  O121  1  0.369500  0.883500  0.944020  1.0  -0.6384
  O  O122  1  0.823100  0.710000  0.003260  1.0  -0.7313
  O  O123  1  0.716600  0.869100  0.026170  1.0  -0.7354
  O  O124  1  0.049600  0.615600  0.936180  1.0  -0.64
  O  O125  1  0.638600  0.041800  0.941140  1.0  -0.6195
  O  O126  1  0.921300  0.358000  0.944300  1.0  -0.6637
  O  O127  1  0.055700  0.888200  0.888430  1.0  -0.6751
  O  O128  1  0.955200  0.035000  0.927540  1.0  -0.7991
  O  O129  1  0.130500  0.116500  0.444020  1.0  -0.6383
  O  O130  1  0.676900  0.290000  0.503260  1.0  -0.7313
  O  O131  1  0.783400  0.130900  0.526170  1.0  -0.7366
  O  O132  1  0.450400  0.384400  0.436180  1.0  -0.6397
  O  O133  1  0.861400  0.958200  0.441140  1.0  -0.6193
  O  O134  1  0.578700  0.642000  0.444300  1.0  -0.6655
  O  O135  1  0.444300  0.111800  0.388430  1.0  -0.6761
  O  O136  1  0.544800  0.965000  0.427540  1.0  -0.7986
