# generated using pymatgen
data_EuH12C21(NO2)3
_symmetry_space_group_name_H-M   'P 1'
_cell_length_a   16.24990000
_cell_length_b   8.74510000
_cell_length_c   20.73170000
_cell_angle_alpha   90.00000000
_cell_angle_beta   95.21300000
_cell_angle_gamma   90.00000000
_symmetry_Int_Tables_number   1
_chemical_formula_structural   EuH12C21(NO2)3
_chemical_formula_sum   'Eu4 H48 C84 N12 O24'
_cell_volume   2933.93398856
_cell_formula_units_Z   4
loop_
 _symmetry_equiv_pos_site_id
 _symmetry_equiv_pos_as_xyz
  1  'x, y, z'
loop_
 _atom_site_type_symbol
 _atom_site_label
 _atom_site_symmetry_multiplicity
 _atom_site_fract_x
 _atom_site_fract_y
 _atom_site_fract_z
 _atom_site_occupancy
 _atom_site_charge
  Eu  Eu1  1  0.242120  0.220740  0.711970  1.0  2.1899
  Eu  Eu2  1  0.257880  0.720740  0.788030  1.0  2.1865
  Eu  Eu3  1  0.757880  0.779260  0.288030  1.0  2.1888
  Eu  Eu4  1  0.742120  0.279260  0.211970  1.0  2.1887
  H  H5  1  0.199300  0.769000  0.630800  1.0  0.1026
  H  H6  1  0.135100  0.950500  0.564100  1.0  0.1365
  H  H7  1  0.943000  0.665400  0.524300  1.0  0.1305
  H  H8  1  0.008000  0.481800  0.590800  1.0  0.1116
  H  H9  1  0.502000  0.613600  0.853500  1.0  0.1017
  H  H10  1  0.642600  0.611700  0.877600  1.0  0.1398
  H  H11  1  0.659400  0.239100  0.768400  1.0  0.1241
  H  H12  1  0.515000  0.234600  0.748400  1.0  0.1034
  H  H13  1  0.038500  0.594400  0.881000  1.0  0.1151
  H  H14  1  0.894700  0.583100  0.879200  1.0  0.1289
  H  H15  1  0.894000  0.205800  0.772200  1.0  0.112
  H  H16  1  0.035600  0.215800  0.773200  1.0  0.0972
  H  H17  1  0.300700  0.269000  0.869200  1.0  0.1022
  H  H18  1  0.364900  0.450500  0.935900  1.0  0.1368
  H  H19  1  0.557000  0.165400  0.975700  1.0  0.1311
  H  H20  1  0.492000  0.981800  0.909200  1.0  0.1118
  H  H21  1  0.998000  0.113600  0.646500  1.0  0.1019
  H  H22  1  0.857400  0.111700  0.622400  1.0  0.1398
  H  H23  1  0.840600  0.739100  0.731600  1.0  0.1239
  H  H24  1  0.985000  0.734600  0.751600  1.0  0.1036
  H  H25  1  0.461500  0.094400  0.619000  1.0  0.1147
  H  H26  1  0.605300  0.083100  0.620800  1.0  0.1288
  H  H27  1  0.606000  0.705800  0.727800  1.0  0.1115
  H  H28  1  0.464400  0.715800  0.726800  1.0  0.0971
  H  H29  1  0.800700  0.231000  0.369200  1.0  0.1021
  H  H30  1  0.864900  0.049500  0.435900  1.0  0.1366
  H  H31  1  0.057000  0.334600  0.475700  1.0  0.1307
  H  H32  1  0.992000  0.518200  0.409200  1.0  0.1097
  H  H33  1  0.498000  0.386400  0.146500  1.0  0.1014
  H  H34  1  0.357400  0.388300  0.122400  1.0  0.1396
  H  H35  1  0.340600  0.760900  0.231600  1.0  0.1237
  H  H36  1  0.485000  0.765400  0.251600  1.0  0.1031
  H  H37  1  0.961500  0.405600  0.119000  1.0  0.1141
  H  H38  1  0.105300  0.416900  0.120800  1.0  0.1285
  H  H39  1  0.106000  0.794200  0.227800  1.0  0.1114
  H  H40  1  0.964400  0.784200  0.226800  1.0  0.0972
  H  H41  1  0.699300  0.731000  0.130800  1.0  0.1028
  H  H42  1  0.635100  0.549500  0.064100  1.0  0.1367
  H  H43  1  0.443000  0.834600  0.024300  1.0  0.1304
  H  H44  1  0.508000  0.018200  0.090800  1.0  0.1106
  H  H45  1  0.002000  0.886400  0.353500  1.0  0.1015
  H  H46  1  0.142600  0.888300  0.377600  1.0  0.14
  H  H47  1  0.159400  0.260900  0.268400  1.0  0.1241
  H  H48  1  0.015000  0.265400  0.248400  1.0  0.1034
  H  H49  1  0.538500  0.905600  0.381000  1.0  0.1149
  H  H50  1  0.394700  0.916900  0.379200  1.0  0.1293
  H  H51  1  0.394000  0.294200  0.272200  1.0  0.1119
  H  H52  1  0.535600  0.284200  0.273200  1.0  0.097
  C  C53  1  0.150700  0.492300  0.665300  1.0  0.7021
  C  C54  1  0.109800  0.609500  0.619900  1.0  -0.1218
  C  C55  1  0.147300  0.748900  0.609900  1.0  -0.0393
  C  C56  1  0.109500  0.857300  0.570200  1.0  -0.1172
  C  C57  1  0.031400  0.825700  0.538700  1.0  0.2133
  C  C58  1  0.994200  0.685900  0.546300  1.0  -0.2114
  C  C59  1  0.032700  0.576500  0.586200  1.0  -0.012
  C  C60  1  0.402900  0.429600  0.780300  1.0  0.6996
  C  C61  1  0.494900  0.426700  0.796800  1.0  -0.1388
  C  C62  1  0.533600  0.537800  0.836200  1.0  -0.0222
  C  C63  1  0.617400  0.538100  0.850100  1.0  -0.1996
  C  C64  1  0.663100  0.430800  0.823500  1.0  0.1255
  C  C65  1  0.627100  0.314300  0.785300  1.0  -0.0587
  C  C66  1  0.540900  0.312900  0.772900  1.0  0.0321
  C  C67  1  0.144300  0.414600  0.824100  1.0  0.7595
  C  C68  1  0.052000  0.406200  0.827300  1.0  -0.1406
  C  C69  1  0.009600  0.516000  0.858700  1.0  -0.0363
  C  C70  1  0.923100  0.510100  0.857300  1.0  -0.0484
  C  C71  1  0.881200  0.395900  0.823400  1.0  0.0591
  C  C72  1  0.923000  0.285500  0.793500  1.0  -0.1834
  C  C73  1  0.007900  0.290600  0.794600  1.0  -0.0125
  C  C74  1  0.349300  0.992300  0.834700  1.0  0.7017
  C  C75  1  0.390200  0.109500  0.880100  1.0  -0.1226
  C  C76  1  0.352700  0.248900  0.890100  1.0  -0.0396
  C  C77  1  0.390500  0.357300  0.929800  1.0  -0.1167
  C  C78  1  0.468600  0.325700  0.961300  1.0  0.2127
  C  C79  1  0.505800  0.185900  0.953700  1.0  -0.21
  C  C80  1  0.467300  0.076500  0.913800  1.0  -0.0126
  C  C81  1  0.097100  0.929600  0.719700  1.0  0.6997
  C  C82  1  0.005100  0.926700  0.703200  1.0  -0.1387
  C  C83  1  0.966400  0.037800  0.663800  1.0  -0.0222
  C  C84  1  0.882600  0.038100  0.649900  1.0  -0.2003
  C  C85  1  0.836900  0.930800  0.676500  1.0  0.1258
  C  C86  1  0.872900  0.814300  0.714700  1.0  -0.0564
  C  C87  1  0.959100  0.812900  0.727100  1.0  0.0328
  C  C88  1  0.355700  0.914600  0.675900  1.0  0.7455
  C  C89  1  0.448000  0.906200  0.672700  1.0  -0.1422
  C  C90  1  0.490400  0.016000  0.641300  1.0  -0.0342
  C  C91  1  0.576900  0.010100  0.642700  1.0  -0.0459
  C  C92  1  0.618800  0.895900  0.676600  1.0  0.0601
  C  C93  1  0.577000  0.785500  0.706500  1.0  -0.184
  C  C94  1  0.492100  0.790600  0.705400  1.0  -0.0108
  C  C95  1  0.849300  0.507700  0.334700  1.0  0.7024
  C  C96  1  0.890200  0.390500  0.380100  1.0  -0.1205
  C  C97  1  0.852700  0.251100  0.390100  1.0  -0.0407
  C  C98  1  0.890500  0.142700  0.429800  1.0  -0.1182
  C  C99  1  0.968600  0.174300  0.461300  1.0  0.2219
  C  C100  1  0.005800  0.314100  0.453700  1.0  -0.2105
  C  C101  1  0.967300  0.423500  0.413800  1.0  -0.014
  C  C102  1  0.597100  0.570400  0.219700  1.0  0.6996
  C  C103  1  0.505100  0.573300  0.203200  1.0  -0.1385
  C  C104  1  0.466400  0.462200  0.163800  1.0  -0.0223
  C  C105  1  0.382600  0.461900  0.149900  1.0  -0.1997
  C  C106  1  0.336900  0.569200  0.176500  1.0  0.1264
  C  C107  1  0.372900  0.685700  0.214700  1.0  -0.0574
  C  C108  1  0.459100  0.687100  0.227100  1.0  0.0323
  C  C109  1  0.855700  0.585400  0.175900  1.0  0.7615
  C  C110  1  0.948000  0.593800  0.172700  1.0  -0.1422
  C  C111  1  0.990400  0.484000  0.141300  1.0  -0.0335
  C  C112  1  0.076900  0.489900  0.142700  1.0  -0.0458
  C  C113  1  0.118800  0.604100  0.176600  1.0  0.0598
  C  C114  1  0.077000  0.714500  0.206500  1.0  -0.1841
  C  C115  1  0.992100  0.709400  0.205400  1.0  -0.0105
  C  C116  1  0.650700  0.007700  0.165300  1.0  0.7018
  C  C117  1  0.609800  0.890500  0.119900  1.0  -0.1203
  C  C118  1  0.647300  0.751100  0.109900  1.0  -0.039
  C  C119  1  0.609500  0.642700  0.070200  1.0  -0.118
  C  C120  1  0.531400  0.674300  0.038700  1.0  0.2225
  C  C121  1  0.494200  0.814100  0.046300  1.0  -0.2113
  C  C122  1  0.532700  0.923500  0.086200  1.0  -0.0135
  C  C123  1  0.902900  0.070400  0.280300  1.0  0.6992
  C  C124  1  0.994900  0.073300  0.296800  1.0  -0.1387
  C  C125  1  0.033600  0.962200  0.336200  1.0  -0.0219
  C  C126  1  0.117400  0.961900  0.350100  1.0  -0.1987
  C  C127  1  0.163100  0.069200  0.323500  1.0  0.1257
  C  C128  1  0.127100  0.185700  0.285300  1.0  -0.0591
  C  C129  1  0.040900  0.187100  0.272900  1.0  0.0323
  C  C130  1  0.644300  0.085400  0.324100  1.0  0.7434
  C  C131  1  0.552000  0.093800  0.327300  1.0  -0.1415
  C  C132  1  0.509600  0.984000  0.358700  1.0  -0.0354
  C  C133  1  0.423100  0.989900  0.357300  1.0  -0.0466
  C  C134  1  0.381200  0.104100  0.323400  1.0  0.059
  C  C135  1  0.423000  0.214500  0.293500  1.0  -0.1833
  C  C136  1  0.507900  0.209400  0.294600  1.0  -0.0119
  N  N137  1  0.984500  0.934500  0.499400  1.0  -0.1724
  N  N138  1  0.755200  0.460200  0.839900  1.0  -0.2439
  N  N139  1  0.787600  0.363400  0.812200  1.0  -0.2616
  N  N140  1  0.515500  0.434500  0.000600  1.0  -0.1713
  N  N141  1  0.744800  0.960200  0.660100  1.0  -0.2424
  N  N142  1  0.712400  0.863400  0.687800  1.0  -0.2606
  N  N143  1  0.015500  0.065500  0.500600  1.0  -0.172
  N  N144  1  0.244800  0.539800  0.160100  1.0  -0.2407
  N  N145  1  0.212400  0.636600  0.187800  1.0  -0.2634
  N  N146  1  0.484500  0.565500  0.999400  1.0  -0.1719
  N  N147  1  0.255200  0.039800  0.339900  1.0  -0.2413
  N  N148  1  0.287600  0.136600  0.312200  1.0  -0.2652
  O  O149  1  0.124000  0.357100  0.661500  1.0  -0.6345
  O  O150  1  0.370900  0.319900  0.748200  1.0  -0.7207
  O  O151  1  0.179500  0.536200  0.841300  1.0  -0.6808
  O  O152  1  0.178600  0.298900  0.803100  1.0  -0.6711
  O  O153  1  0.364200  0.542300  0.798900  1.0  -0.69
  O  O154  1  0.210900  0.529700  0.704500  1.0  -0.7691
  O  O155  1  0.376000  0.857100  0.838500  1.0  -0.6314
  O  O156  1  0.129100  0.819900  0.751800  1.0  -0.7203
  O  O157  1  0.320500  0.036200  0.658700  1.0  -0.6804
  O  O158  1  0.321400  0.798900  0.696900  1.0  -0.67
  O  O159  1  0.135800  0.042300  0.701100  1.0  -0.6898
  O  O160  1  0.289100  0.029700  0.795500  1.0  -0.7693
  O  O161  1  0.876000  0.642900  0.338500  1.0  -0.6331
  O  O162  1  0.629100  0.680100  0.251800  1.0  -0.7206
  O  O163  1  0.820500  0.463800  0.158700  1.0  -0.6802
  O  O164  1  0.821400  0.701100  0.196900  1.0  -0.6698
  O  O165  1  0.635800  0.457700  0.201100  1.0  -0.6902
  O  O166  1  0.789100  0.470300  0.295500  1.0  -0.7695
  O  O167  1  0.624000  0.142900  0.161500  1.0  -0.6337
  O  O168  1  0.870900  0.180100  0.248200  1.0  -0.7212
  O  O169  1  0.679500  0.963800  0.341300  1.0  -0.6804
  O  O170  1  0.678600  0.201100  0.303100  1.0  -0.6709
  O  O171  1  0.864200  0.957700  0.298900  1.0  -0.6904
  O  O172  1  0.710900  0.970300  0.204500  1.0  -0.769
