# generated using pymatgen
data_SmH12C21(NO2)3
_symmetry_space_group_name_H-M   'P 1'
_cell_length_a   16.29540000
_cell_length_b   8.76190000
_cell_length_c   20.75500000
_cell_angle_alpha   90.00000000
_cell_angle_beta   95.31600000
_cell_angle_gamma   90.00000000
_symmetry_Int_Tables_number   1
_chemical_formula_structural   SmH12C21(NO2)3
_chemical_formula_sum   'Sm4 H48 C84 N12 O24'
_cell_volume   2950.62533679
_cell_formula_units_Z   4
loop_
 _symmetry_equiv_pos_site_id
 _symmetry_equiv_pos_as_xyz
  1  'x, y, z'
loop_
 _atom_site_type_symbol
 _atom_site_label
 _atom_site_symmetry_multiplicity
 _atom_site_fract_x
 _atom_site_fract_y
 _atom_site_fract_z
 _atom_site_occupancy
 _atom_site_charge
  Sm  Sm1  1  0.241850  0.219700  0.711710  1.0  2.3194
  Sm  Sm2  1  0.258150  0.719700  0.788290  1.0  2.3133
  Sm  Sm3  1  0.758150  0.780300  0.288290  1.0  2.3215
  Sm  Sm4  1  0.741850  0.280300  0.211710  1.0  2.3119
  H  H5  1  0.199900  0.764800  0.630200  1.0  0.1076
  H  H6  1  0.135000  0.948400  0.564000  1.0  0.1177
  H  H7  1  0.944000  0.664500  0.522900  1.0  0.1181
  H  H8  1  0.006700  0.482500  0.591300  1.0  0.1104
  H  H9  1  0.502100  0.614100  0.851800  1.0  0.0987
  H  H10  1  0.643000  0.611500  0.877100  1.0  0.133
  H  H11  1  0.660500  0.235600  0.769600  1.0  0.1164
  H  H12  1  0.516700  0.232700  0.747300  1.0  0.096
  H  H13  1  0.039100  0.595100  0.880800  1.0  0.1178
  H  H14  1  0.895200  0.582900  0.878800  1.0  0.1192
  H  H15  1  0.894100  0.204500  0.772700  1.0  0.1034
  H  H16  1  0.035800  0.212400  0.775300  1.0  0.0993
  H  H17  1  0.300100  0.264800  0.869800  1.0  0.1077
  H  H18  1  0.365000  0.448400  0.936000  1.0  0.1178
  H  H19  1  0.556000  0.164500  0.977100  1.0  0.1187
  H  H20  1  0.493300  0.982500  0.908700  1.0  0.1104
  H  H21  1  0.997900  0.114100  0.648200  1.0  0.0986
  H  H22  1  0.857000  0.111500  0.622900  1.0  0.1329
  H  H23  1  0.839500  0.735600  0.730400  1.0  0.1167
  H  H24  1  0.983300  0.732700  0.752700  1.0  0.0964
  H  H25  1  0.460900  0.095100  0.619200  1.0  0.1171
  H  H26  1  0.604800  0.082900  0.621200  1.0  0.1194
  H  H27  1  0.605900  0.704500  0.727300  1.0  0.103
  H  H28  1  0.464200  0.712400  0.724700  1.0  0.0994
  H  H29  1  0.800100  0.235200  0.369800  1.0  0.1076
  H  H30  1  0.865000  0.051600  0.436000  1.0  0.1175
  H  H31  1  0.056000  0.335500  0.477100  1.0  0.1184
  H  H32  1  0.993300  0.517500  0.408700  1.0  0.1107
  H  H33  1  0.497900  0.385900  0.148200  1.0  0.0982
  H  H34  1  0.357000  0.388500  0.122900  1.0  0.1327
  H  H35  1  0.339500  0.764400  0.230400  1.0  0.1167
  H  H36  1  0.483300  0.767300  0.252700  1.0  0.096
  H  H37  1  0.960900  0.404900  0.119200  1.0  0.1168
  H  H38  1  0.104800  0.417100  0.121200  1.0  0.1192
  H  H39  1  0.105900  0.795500  0.227300  1.0  0.1029
  H  H40  1  0.964200  0.787600  0.224700  1.0  0.0995
  H  H41  1  0.699900  0.735200  0.130200  1.0  0.1078
  H  H42  1  0.635000  0.551600  0.064000  1.0  0.1175
  H  H43  1  0.444000  0.835500  0.022900  1.0  0.1179
  H  H44  1  0.506700  0.017500  0.091300  1.0  0.1107
  H  H45  1  0.002100  0.885900  0.351800  1.0  0.0985
  H  H46  1  0.143000  0.888500  0.377100  1.0  0.1333
  H  H47  1  0.160500  0.264400  0.269600  1.0  0.1164
  H  H48  1  0.016700  0.267300  0.247300  1.0  0.0961
  H  H49  1  0.539100  0.904900  0.380800  1.0  0.1178
  H  H50  1  0.395200  0.917100  0.378800  1.0  0.1195
  H  H51  1  0.394100  0.295500  0.272700  1.0  0.1034
  H  H52  1  0.535800  0.287600  0.275300  1.0  0.099
  C  C53  1  0.149300  0.490100  0.665300  1.0  0.6985
  C  C54  1  0.108200  0.607400  0.619800  1.0  -0.1153
  C  C55  1  0.147600  0.746300  0.609900  1.0  -0.0584
  C  C56  1  0.109100  0.855600  0.570100  1.0  -0.0656
  C  C57  1  0.031000  0.826100  0.538800  1.0  0.2153
  C  C58  1  0.994500  0.685700  0.545800  1.0  -0.1211
  C  C59  1  0.032100  0.576300  0.586400  1.0  -0.0319
  C  C60  1  0.404100  0.428300  0.779800  1.0  0.6958
  C  C61  1  0.495900  0.423800  0.796500  1.0  -0.1306
  C  C62  1  0.533900  0.537800  0.835300  1.0  -0.0125
  C  C63  1  0.617900  0.538100  0.849500  1.0  -0.1691
  C  C64  1  0.664100  0.429900  0.822700  1.0  0.0486
  C  C65  1  0.628200  0.312000  0.785500  1.0  -0.062
  C  C66  1  0.542200  0.310400  0.772300  1.0  0.0143
  C  C67  1  0.143800  0.414100  0.824400  1.0  0.7397
  C  C68  1  0.051600  0.404500  0.827500  1.0  -0.1217
  C  C69  1  0.010100  0.516400  0.858900  1.0  -0.0466
  C  C70  1  0.923600  0.509600  0.857300  1.0  -0.0431
  C  C71  1  0.881200  0.394100  0.823800  1.0  0.0179
  C  C72  1  0.923000  0.283800  0.794200  1.0  -0.113
  C  C73  1  0.008000  0.288400  0.795800  1.0  -0.0147
  C  C74  1  0.350700  0.990100  0.834700  1.0  0.6982
  C  C75  1  0.391800  0.107400  0.880200  1.0  -0.1176
  C  C76  1  0.352400  0.246300  0.890100  1.0  -0.0591
  C  C77  1  0.390900  0.355600  0.929900  1.0  -0.0668
  C  C78  1  0.469000  0.326100  0.961200  1.0  0.2137
  C  C79  1  0.505500  0.185700  0.954200  1.0  -0.122
  C  C80  1  0.467900  0.076300  0.913600  1.0  -0.0325
  C  C81  1  0.095900  0.928300  0.720200  1.0  0.6972
  C  C82  1  0.004100  0.923800  0.703500  1.0  -0.1307
  C  C83  1  0.966100  0.037800  0.664700  1.0  -0.0124
  C  C84  1  0.882100  0.038100  0.650500  1.0  -0.169
  C  C85  1  0.835900  0.929900  0.677300  1.0  0.048
  C  C86  1  0.871800  0.812000  0.714500  1.0  -0.0607
  C  C87  1  0.957800  0.810400  0.727700  1.0  0.0158
  C  C88  1  0.356200  0.914100  0.675600  1.0  0.7403
  C  C89  1  0.448400  0.904500  0.672500  1.0  -0.1237
  C  C90  1  0.489900  0.016400  0.641100  1.0  -0.042
  C  C91  1  0.576400  0.009600  0.642700  1.0  -0.0404
  C  C92  1  0.618800  0.894100  0.676200  1.0  0.0182
  C  C93  1  0.577000  0.783800  0.705800  1.0  -0.1131
  C  C94  1  0.492000  0.788400  0.704200  1.0  -0.0133
  C  C95  1  0.850700  0.509900  0.334700  1.0  0.6982
  C  C96  1  0.891800  0.392600  0.380200  1.0  -0.1164
  C  C97  1  0.852400  0.253700  0.390100  1.0  -0.06
  C  C98  1  0.890900  0.144400  0.429900  1.0  -0.0666
  C  C99  1  0.969000  0.173900  0.461200  1.0  0.2141
  C  C100  1  0.005500  0.314300  0.454200  1.0  -0.1224
  C  C101  1  0.967900  0.423700  0.413600  1.0  -0.0318
  C  C102  1  0.595900  0.571700  0.220200  1.0  0.6971
  C  C103  1  0.504100  0.576200  0.203500  1.0  -0.1309
  C  C104  1  0.466100  0.462200  0.164700  1.0  -0.0125
  C  C105  1  0.382100  0.461900  0.150500  1.0  -0.1686
  C  C106  1  0.335900  0.570100  0.177300  1.0  0.0486
  C  C107  1  0.371800  0.688000  0.214500  1.0  -0.0618
  C  C108  1  0.457800  0.689600  0.227700  1.0  0.0156
  C  C109  1  0.856200  0.585900  0.175600  1.0  0.7403
  C  C110  1  0.948400  0.595500  0.172500  1.0  -0.1239
  C  C111  1  0.989900  0.483600  0.141100  1.0  -0.0411
  C  C112  1  0.076400  0.490400  0.142700  1.0  -0.0405
  C  C113  1  0.118800  0.605900  0.176200  1.0  0.018
  C  C114  1  0.077000  0.716200  0.205800  1.0  -0.1129
  C  C115  1  0.992000  0.711600  0.204200  1.0  -0.0132
  C  C116  1  0.649300  0.009900  0.165300  1.0  0.6982
  C  C117  1  0.608200  0.892600  0.119800  1.0  -0.1138
  C  C118  1  0.647600  0.753700  0.109900  1.0  -0.0575
  C  C119  1  0.609100  0.644400  0.070100  1.0  -0.0659
  C  C120  1  0.531000  0.673900  0.038800  1.0  0.2157
  C  C121  1  0.494500  0.814300  0.045800  1.0  -0.1215
  C  C122  1  0.532100  0.923700  0.086400  1.0  -0.0319
  C  C123  1  0.904100  0.071700  0.279800  1.0  0.6957
  C  C124  1  0.995900  0.076200  0.296500  1.0  -0.1305
  C  C125  1  0.033900  0.962200  0.335300  1.0  -0.0121
  C  C126  1  0.117900  0.961900  0.349500  1.0  -0.1683
  C  C127  1  0.164100  0.070100  0.322700  1.0  0.0489
  C  C128  1  0.128200  0.188000  0.285500  1.0  -0.0624
  C  C129  1  0.042200  0.189600  0.272300  1.0  0.0141
  C  C130  1  0.643800  0.085900  0.324400  1.0  0.7398
  C  C131  1  0.551600  0.095500  0.327500  1.0  -0.1223
  C  C132  1  0.510100  0.983600  0.358900  1.0  -0.0449
  C  C133  1  0.423600  0.990400  0.357300  1.0  -0.0417
  C  C134  1  0.381200  0.105900  0.323800  1.0  0.0182
  C  C135  1  0.423000  0.216200  0.294200  1.0  -0.1117
  C  C136  1  0.508000  0.211600  0.295800  1.0  -0.0139
  N  N137  1  0.984500  0.934900  0.498900  1.0  -0.1569
  N  N138  1  0.757200  0.460500  0.839400  1.0  -0.2914
  N  N139  1  0.787100  0.361400  0.811600  1.0  -0.2744
  N  N140  1  0.515500  0.434900  0.001100  1.0  -0.1551
  N  N141  1  0.742800  0.960500  0.660600  1.0  -0.2915
  N  N142  1  0.712900  0.861400  0.688400  1.0  -0.2739
  N  N143  1  0.015500  0.065100  0.501100  1.0  -0.1562
  N  N144  1  0.242800  0.539500  0.160600  1.0  -0.292
  N  N145  1  0.212900  0.638600  0.188400  1.0  -0.2746
  N  N146  1  0.484500  0.565100  0.998900  1.0  -0.1566
  N  N147  1  0.257200  0.039500  0.339400  1.0  -0.2914
  N  N148  1  0.287100  0.138600  0.311600  1.0  -0.2757
  O  O149  1  0.122500  0.356300  0.661200  1.0  -0.67
  O  O150  1  0.371400  0.318200  0.747900  1.0  -0.7361
  O  O151  1  0.179700  0.534200  0.842100  1.0  -0.6795
  O  O152  1  0.178400  0.297800  0.803900  1.0  -0.6627
  O  O153  1  0.365100  0.540500  0.798400  1.0  -0.7098
  O  O154  1  0.210500  0.527200  0.704180  1.0  -0.8041
  O  O155  1  0.377500  0.856300  0.838800  1.0  -0.6679
  O  O156  1  0.128600  0.818200  0.752100  1.0  -0.7353
  O  O157  1  0.320300  0.034200  0.657900  1.0  -0.6785
  O  O158  1  0.321600  0.797800  0.696100  1.0  -0.6626
  O  O159  1  0.134900  0.040500  0.701600  1.0  -0.7095
  O  O160  1  0.289500  0.027200  0.795820  1.0  -0.8043
  O  O161  1  0.877500  0.643700  0.338800  1.0  -0.6686
  O  O162  1  0.628600  0.681800  0.252100  1.0  -0.7348
  O  O163  1  0.820300  0.465800  0.157900  1.0  -0.6786
  O  O164  1  0.821600  0.702200  0.196100  1.0  -0.6626
  O  O165  1  0.634900  0.459500  0.201600  1.0  -0.71
  O  O166  1  0.789500  0.472800  0.295820  1.0  -0.8045
  O  O167  1  0.622500  0.143700  0.161200  1.0  -0.6691
  O  O168  1  0.871400  0.181800  0.247900  1.0  -0.7362
  O  O169  1  0.679700  0.965800  0.342100  1.0  -0.6792
  O  O170  1  0.678400  0.202200  0.303900  1.0  -0.6624
  O  O171  1  0.865100  0.959500  0.298400  1.0  -0.7102
  O  O172  1  0.710500  0.972800  0.204180  1.0  -0.8043
