# generated using pymatgen
data_DyH12C21(NO2)3
_symmetry_space_group_name_H-M   'P 1'
_cell_length_a   16.20780000
_cell_length_b   8.70820000
_cell_length_c   20.87750000
_cell_angle_alpha   90.00000000
_cell_angle_beta   94.74800000
_cell_angle_gamma   90.00000000
_symmetry_Int_Tables_number   1
_chemical_formula_structural   DyH12C21(NO2)3
_chemical_formula_sum   'Dy4 H48 C84 N12 O24'
_cell_volume   2936.55449723
_cell_formula_units_Z   4
loop_
 _symmetry_equiv_pos_site_id
 _symmetry_equiv_pos_as_xyz
  1  'x, y, z'
loop_
 _atom_site_type_symbol
 _atom_site_label
 _atom_site_symmetry_multiplicity
 _atom_site_fract_x
 _atom_site_fract_y
 _atom_site_fract_z
 _atom_site_occupancy
 _atom_site_charge
  Dy  Dy1  1  0.242720  0.222250  0.712690  1.0  2.304
  Dy  Dy2  1  0.257280  0.722250  0.787310  1.0  2.3024
  Dy  Dy3  1  0.757280  0.777750  0.287310  1.0  2.3033
  Dy  Dy4  1  0.742720  0.277750  0.212690  1.0  2.303
  H  H5  1  0.200800  0.771800  0.630100  1.0  0.1008
  H  H6  1  0.135800  0.952800  0.563400  1.0  0.1237
  H  H7  1  0.944300  0.659800  0.525800  1.0  0.1198
  H  H8  1  0.011000  0.478700  0.592100  1.0  0.104
  H  H9  1  0.499200  0.614600  0.854600  1.0  0.097
  H  H10  1  0.642000  0.612100  0.877800  1.0  0.1298
  H  H11  1  0.658000  0.235600  0.769800  1.0  0.1195
  H  H12  1  0.513000  0.236600  0.747400  1.0  0.0915
  H  H13  1  0.038600  0.595200  0.882400  1.0  0.1242
  H  H14  1  0.892200  0.583500  0.877800  1.0  0.1139
  H  H15  1  0.892600  0.209900  0.770700  1.0  0.0972
  H  H16  1  0.035600  0.219300  0.770700  1.0  0.095
  H  H17  1  0.299200  0.271800  0.869900  1.0  0.1005
  H  H18  1  0.364200  0.452800  0.936600  1.0  0.124
  H  H19  1  0.555700  0.159800  0.974200  1.0  0.1201
  H  H20  1  0.489000  0.978700  0.907900  1.0  0.1045
  H  H21  1  0.000800  0.114600  0.645400  1.0  0.0968
  H  H22  1  0.858000  0.112100  0.622200  1.0  0.1298
  H  H23  1  0.842000  0.735600  0.730200  1.0  0.1195
  H  H24  1  0.987000  0.736600  0.752600  1.0  0.0918
  H  H25  1  0.461400  0.095200  0.617600  1.0  0.1236
  H  H26  1  0.607800  0.083500  0.622200  1.0  0.1144
  H  H27  1  0.607400  0.709900  0.729300  1.0  0.097
  H  H28  1  0.464400  0.719300  0.729300  1.0  0.095
  H  H29  1  0.799200  0.228200  0.369900  1.0  0.1003
  H  H30  1  0.864200  0.047200  0.436600  1.0  0.1238
  H  H31  1  0.055700  0.340200  0.474200  1.0  0.1198
  H  H32  1  0.989000  0.521300  0.407900  1.0  0.1016
  H  H33  1  0.500800  0.385400  0.145400  1.0  0.0964
  H  H34  1  0.358000  0.387900  0.122200  1.0  0.1296
  H  H35  1  0.342000  0.764400  0.230200  1.0  0.1195
  H  H36  1  0.487000  0.763400  0.252600  1.0  0.0914
  H  H37  1  0.961400  0.404800  0.117600  1.0  0.1229
  H  H38  1  0.107800  0.416500  0.122200  1.0  0.1139
  H  H39  1  0.107400  0.790100  0.229300  1.0  0.0969
  H  H40  1  0.964400  0.780700  0.229300  1.0  0.0949
  H  H41  1  0.700800  0.728200  0.130100  1.0  0.1009
  H  H42  1  0.635800  0.547200  0.063400  1.0  0.1238
  H  H43  1  0.444300  0.840200  0.025800  1.0  0.1196
  H  H44  1  0.511000  0.021300  0.092100  1.0  0.1023
  H  H45  1  0.999200  0.885400  0.354600  1.0  0.0969
  H  H46  1  0.142000  0.887900  0.377800  1.0  0.1302
  H  H47  1  0.158000  0.264400  0.269800  1.0  0.1196
  H  H48  1  0.013000  0.263400  0.247400  1.0  0.0914
  H  H49  1  0.538600  0.904800  0.382400  1.0  0.1241
  H  H50  1  0.392200  0.916500  0.377800  1.0  0.1141
  H  H51  1  0.392600  0.290100  0.270700  1.0  0.0971
  H  H52  1  0.535600  0.280700  0.270700  1.0  0.0945
  C  C53  1  0.152800  0.494800  0.665400  1.0  0.6986
  C  C54  1  0.111000  0.610400  0.620500  1.0  -0.1317
  C  C55  1  0.148800  0.750900  0.609800  1.0  -0.0534
  C  C56  1  0.110300  0.859000  0.569800  1.0  -0.0644
  C  C57  1  0.032200  0.826400  0.538700  1.0  0.177
  C  C58  1  0.995500  0.682400  0.547300  1.0  -0.1281
  C  C59  1  0.034900  0.574700  0.587200  1.0  -0.0203
  C  C60  1  0.399900  0.433900  0.780700  1.0  0.6878
  C  C61  1  0.492200  0.426000  0.797400  1.0  -0.1016
  C  C62  1  0.530900  0.538800  0.837100  1.0  0.001
  C  C63  1  0.616500  0.538500  0.850600  1.0  -0.1685
  C  C64  1  0.661800  0.429900  0.823800  1.0  0.0637
  C  C65  1  0.625800  0.312500  0.786000  1.0  -0.0828
  C  C66  1  0.538600  0.313300  0.772900  1.0  0.0191
  C  C67  1  0.143300  0.417300  0.822200  1.0  0.7412
  C  C68  1  0.051600  0.407300  0.826100  1.0  -0.1215
  C  C69  1  0.009800  0.518100  0.859200  1.0  -0.1039
  C  C70  1  0.921400  0.510000  0.856600  1.0  -0.0395
  C  C71  1  0.879700  0.395200  0.823300  1.0  0.024
  C  C72  1  0.921600  0.288600  0.792600  1.0  -0.0955
  C  C73  1  0.007900  0.293300  0.792900  1.0  -0.0239
  C  C74  1  0.347200  0.994800  0.834600  1.0  0.6987
  C  C75  1  0.389000  0.110400  0.879500  1.0  -0.1329
  C  C76  1  0.351200  0.250900  0.890200  1.0  -0.0517
  C  C77  1  0.389700  0.359000  0.930200  1.0  -0.0635
  C  C78  1  0.467800  0.326400  0.961300  1.0  0.1772
  C  C79  1  0.504500  0.182400  0.952700  1.0  -0.129
  C  C80  1  0.465100  0.074700  0.912800  1.0  -0.0207
  C  C81  1  0.100100  0.933900  0.719300  1.0  0.6875
  C  C82  1  0.007800  0.926000  0.702600  1.0  -0.1007
  C  C83  1  0.969100  0.038800  0.662900  1.0  0.0009
  C  C84  1  0.883500  0.038500  0.649400  1.0  -0.1681
  C  C85  1  0.838200  0.929900  0.676200  1.0  0.0616
  C  C86  1  0.874200  0.812500  0.714000  1.0  -0.0813
  C  C87  1  0.961400  0.813300  0.727100  1.0  0.0197
  C  C88  1  0.356700  0.917300  0.677800  1.0  0.7422
  C  C89  1  0.448400  0.907300  0.673900  1.0  -0.1233
  C  C90  1  0.490200  0.018100  0.640800  1.0  -0.1028
  C  C91  1  0.578600  0.010000  0.643400  1.0  -0.0383
  C  C92  1  0.620300  0.895200  0.676700  1.0  0.0221
  C  C93  1  0.578400  0.788600  0.707400  1.0  -0.0968
  C  C94  1  0.492100  0.793300  0.707100  1.0  -0.0229
  C  C95  1  0.847200  0.505200  0.334600  1.0  0.699
  C  C96  1  0.889000  0.389600  0.379500  1.0  -0.1312
  C  C97  1  0.851200  0.249100  0.390200  1.0  -0.053
  C  C98  1  0.889700  0.141000  0.430200  1.0  -0.065
  C  C99  1  0.967800  0.173600  0.461300  1.0  0.1773
  C  C100  1  0.004500  0.317600  0.452700  1.0  -0.1291
  C  C101  1  0.965100  0.425300  0.412800  1.0  -0.0215
  C  C102  1  0.600100  0.566100  0.219300  1.0  0.6872
  C  C103  1  0.507800  0.574000  0.202600  1.0  -0.1007
  C  C104  1  0.469100  0.461200  0.162900  1.0  0.0008
  C  C105  1  0.383500  0.461500  0.149400  1.0  -0.1673
  C  C106  1  0.338200  0.570100  0.176200  1.0  0.0622
  C  C107  1  0.374200  0.687500  0.214000  1.0  -0.0825
  C  C108  1  0.461400  0.686700  0.227100  1.0  0.0199
  C  C109  1  0.856700  0.582700  0.177800  1.0  0.7423
  C  C110  1  0.948400  0.592700  0.173900  1.0  -0.1234
  C  C111  1  0.990200  0.481900  0.140800  1.0  -0.1023
  C  C112  1  0.078600  0.490000  0.143400  1.0  -0.0385
  C  C113  1  0.120300  0.604800  0.176700  1.0  0.0218
  C  C114  1  0.078400  0.711400  0.207400  1.0  -0.0977
  C  C115  1  0.992100  0.706700  0.207100  1.0  -0.0227
  C  C116  1  0.652800  0.005200  0.165400  1.0  0.6982
  C  C117  1  0.611000  0.889600  0.120500  1.0  -0.1307
  C  C118  1  0.648800  0.749100  0.109800  1.0  -0.0531
  C  C119  1  0.610300  0.641000  0.069800  1.0  -0.0653
  C  C120  1  0.532200  0.673600  0.038700  1.0  0.1774
  C  C121  1  0.495500  0.817600  0.047300  1.0  -0.1276
  C  C122  1  0.534900  0.925300  0.087200  1.0  -0.0215
  C  C123  1  0.899900  0.066100  0.280700  1.0  0.6874
  C  C124  1  0.992200  0.074000  0.297400  1.0  -0.1014
  C  C125  1  0.030900  0.961200  0.337100  1.0  0.0009
  C  C126  1  0.116500  0.961500  0.350600  1.0  -0.1671
  C  C127  1  0.161800  0.070100  0.323800  1.0  0.064
  C  C128  1  0.125800  0.187500  0.286000  1.0  -0.0835
  C  C129  1  0.038600  0.186700  0.272900  1.0  0.0197
  C  C130  1  0.643300  0.082700  0.322200  1.0  0.7412
  C  C131  1  0.551600  0.092700  0.326100  1.0  -0.122
  C  C132  1  0.509800  0.981900  0.359200  1.0  -0.102
  C  C133  1  0.421400  0.990000  0.356600  1.0  -0.0378
  C  C134  1  0.379700  0.104800  0.323300  1.0  0.0243
  C  C135  1  0.421600  0.211400  0.292600  1.0  -0.0959
  C  C136  1  0.507900  0.206700  0.292900  1.0  -0.0234
  N  N137  1  0.985200  0.934200  0.499500  1.0  -0.1814
  N  N138  1  0.755700  0.458000  0.841100  1.0  -0.2837
  N  N139  1  0.783800  0.360900  0.810900  1.0  -0.3135
  N  N140  1  0.514800  0.434200  0.000500  1.0  -0.1797
  N  N141  1  0.744300  0.958000  0.658900  1.0  -0.2841
  N  N142  1  0.716200  0.860900  0.689100  1.0  -0.3136
  N  N143  1  0.014800  0.065800  0.500500  1.0  -0.1805
  N  N144  1  0.244300  0.542000  0.158900  1.0  -0.2834
  N  N145  1  0.216200  0.639100  0.189100  1.0  -0.3136
  N  N146  1  0.485200  0.565800  0.999500  1.0  -0.1808
  N  N147  1  0.255700  0.042000  0.341100  1.0  -0.2828
  N  N148  1  0.283800  0.139100  0.310900  1.0  -0.3146
  O  O149  1  0.127600  0.358100  0.662700  1.0  -0.6332
  O  O150  1  0.367400  0.322600  0.748800  1.0  -0.6883
  O  O151  1  0.179300  0.539600  0.838900  1.0  -0.6841
  O  O152  1  0.178500  0.301500  0.801000  1.0  -0.6398
  O  O153  1  0.362100  0.547300  0.799400  1.0  -0.651
  O  O154  1  0.212900  0.535500  0.705400  1.0  -0.8228
  O  O155  1  0.372400  0.858100  0.837300  1.0  -0.6314
  O  O156  1  0.132600  0.822600  0.751200  1.0  -0.6872
  O  O157  1  0.320700  0.039600  0.661100  1.0  -0.6849
  O  O158  1  0.321500  0.801500  0.699000  1.0  -0.6391
  O  O159  1  0.137900  0.047300  0.700600  1.0  -0.6504
  O  O160  1  0.287100  0.035500  0.794600  1.0  -0.8233
  O  O161  1  0.872400  0.641900  0.337300  1.0  -0.6328
  O  O162  1  0.632600  0.677400  0.251200  1.0  -0.6871
  O  O163  1  0.820700  0.460400  0.161100  1.0  -0.6852
  O  O164  1  0.821500  0.698500  0.199000  1.0  -0.6385
  O  O165  1  0.637900  0.452700  0.200600  1.0  -0.651
  O  O166  1  0.787100  0.464500  0.294600  1.0  -0.8235
  O  O167  1  0.627600  0.141900  0.162700  1.0  -0.6331
  O  O168  1  0.867400  0.177400  0.248800  1.0  -0.6879
  O  O169  1  0.679300  0.960400  0.338900  1.0  -0.6846
  O  O170  1  0.678500  0.198500  0.301000  1.0  -0.6393
  O  O171  1  0.862100  0.952700  0.299400  1.0  -0.6515
  O  O172  1  0.712900  0.964500  0.205400  1.0  -0.8228
