# generated using pymatgen
data_ErH12C21(NO2)3
_symmetry_space_group_name_H-M   'P 1'
_cell_length_a   16.17050000
_cell_length_b   8.69430000
_cell_length_c   20.87970000
_cell_angle_alpha   90.00000000
_cell_angle_beta   94.63300000
_cell_angle_gamma   90.00000000
_symmetry_Int_Tables_number   1
_chemical_formula_structural   ErH12C21(NO2)3
_chemical_formula_sum   'Er4 H48 C84 N12 O24'
_cell_volume   2925.90993505
_cell_formula_units_Z   4
loop_
 _symmetry_equiv_pos_site_id
 _symmetry_equiv_pos_as_xyz
  1  'x, y, z'
loop_
 _atom_site_type_symbol
 _atom_site_label
 _atom_site_symmetry_multiplicity
 _atom_site_fract_x
 _atom_site_fract_y
 _atom_site_fract_z
 _atom_site_occupancy
 _atom_site_charge
  Er  Er1  1  0.243190  0.223050  0.713120  1.0  1.5414
  Er  Er2  1  0.256810  0.723050  0.786880  1.0  1.5423
  Er  Er3  1  0.756810  0.776950  0.286880  1.0  1.5413
  Er  Er4  1  0.743190  0.276950  0.213120  1.0  1.5432
  H  H5  1  0.202800  0.773200  0.629500  1.0  0.1222
  H  H6  1  0.136100  0.954700  0.562900  1.0  0.1394
  H  H7  1  0.947300  0.659400  0.524400  1.0  0.1382
  H  H8  1  0.013100  0.480200  0.592900  1.0  0.1192
  H  H9  1  0.498900  0.617700  0.854800  1.0  0.1111
  H  H10  1  0.640000  0.613800  0.877800  1.0  0.1412
  H  H11  1  0.656400  0.240000  0.769600  1.0  0.1307
  H  H12  1  0.512000  0.234700  0.749000  1.0  0.1183
  H  H13  1  0.035600  0.594600  0.880600  1.0  0.1336
  H  H14  1  0.892600  0.578200  0.880200  1.0  0.1352
  H  H15  1  0.892200  0.206800  0.768600  1.0  0.1238
  H  H16  1  0.035100  0.217300  0.770100  1.0  0.1048
  H  H17  1  0.297200  0.273200  0.870500  1.0  0.1226
  H  H18  1  0.363900  0.454700  0.937100  1.0  0.1392
  H  H19  1  0.552700  0.159400  0.975600  1.0  0.1382
  H  H20  1  0.486900  0.980200  0.907100  1.0  0.1197
  H  H21  1  0.001100  0.117700  0.645200  1.0  0.1105
  H  H22  1  0.860000  0.113800  0.622200  1.0  0.1412
  H  H23  1  0.843600  0.740000  0.730400  1.0  0.1302
  H  H24  1  0.988000  0.734700  0.751000  1.0  0.1187
  H  H25  1  0.464400  0.094600  0.619400  1.0  0.1332
  H  H26  1  0.607400  0.078200  0.619800  1.0  0.1354
  H  H27  1  0.607800  0.706800  0.731400  1.0  0.1237
  H  H28  1  0.464900  0.717300  0.729900  1.0  0.1047
  H  H29  1  0.797200  0.226800  0.370500  1.0  0.1227
  H  H30  1  0.863900  0.045300  0.437100  1.0  0.1391
  H  H31  1  0.052700  0.340600  0.475600  1.0  0.1381
  H  H32  1  0.986900  0.519800  0.407100  1.0  0.1199
  H  H33  1  0.501100  0.382300  0.145200  1.0  0.1103
  H  H34  1  0.360000  0.386200  0.122200  1.0  0.1412
  H  H35  1  0.343600  0.760000  0.230400  1.0  0.1299
  H  H36  1  0.488000  0.765300  0.251000  1.0  0.1186
  H  H37  1  0.964400  0.405400  0.119400  1.0  0.1326
  H  H38  1  0.107400  0.421800  0.119800  1.0  0.135
  H  H39  1  0.107800  0.793200  0.231400  1.0  0.1237
  H  H40  1  0.964900  0.782700  0.229900  1.0  0.1047
  H  H41  1  0.702800  0.726800  0.129500  1.0  0.1224
  H  H42  1  0.636100  0.545300  0.062900  1.0  0.1392
  H  H43  1  0.447300  0.840600  0.024400  1.0  0.138
  H  H44  1  0.513100  0.019800  0.092900  1.0  0.1197
  H  H45  1  0.998900  0.882300  0.354800  1.0  0.1111
  H  H46  1  0.140000  0.886200  0.377800  1.0  0.1418
  H  H47  1  0.156400  0.260000  0.269600  1.0  0.1305
  H  H48  1  0.012000  0.265300  0.249000  1.0  0.1183
  H  H49  1  0.535600  0.905400  0.380600  1.0  0.1334
  H  H50  1  0.392600  0.921800  0.380200  1.0  0.1356
  H  H51  1  0.392200  0.293200  0.268600  1.0  0.1237
  H  H52  1  0.535100  0.282700  0.270100  1.0  0.1045
  C  C53  1  0.154300  0.496900  0.666667  1.0  0.7049
  C  C54  1  0.112800  0.611700  0.621000  1.0  -0.1197
  C  C55  1  0.150400  0.752000  0.609700  1.0  -0.0479
  C  C56  1  0.110900  0.860500  0.569500  1.0  -0.0523
  C  C57  1  0.033000  0.827300  0.539200  1.0  0.2502
  C  C58  1  0.997600  0.683600  0.546800  1.0  -0.1195
  C  C59  1  0.037100  0.576000  0.587700  1.0  -0.0204
  C  C60  1  0.398900  0.435200  0.781100  1.0  0.699
  C  C61  1  0.490900  0.428400  0.798100  1.0  -0.1151
  C  C62  1  0.530300  0.540900  0.837500  1.0  -0.0083
  C  C63  1  0.614600  0.539300  0.851000  1.0  -0.1633
  C  C64  1  0.660100  0.431800  0.825800  1.0  0.1029
  C  C65  1  0.623600  0.315100  0.786700  1.0  -0.056
  C  C66  1  0.537500  0.313000  0.773800  1.0  0.0303
  C  C67  1  0.143200  0.418700  0.820800  1.0  0.7479
  C  C68  1  0.050600  0.408000  0.825300  1.0  -0.1278
  C  C69  1  0.007200  0.515900  0.858100  1.0  -0.0341
  C  C70  1  0.921400  0.506800  0.857400  1.0  -0.045
  C  C71  1  0.878900  0.392600  0.823100  1.0  0.0394
  C  C72  1  0.921100  0.284900  0.791100  1.0  -0.1001
  C  C73  1  0.006700  0.291300  0.791900  1.0  0.0002
  C  C74  1  0.345700  0.996900  0.833400  1.0  0.706
  C  C75  1  0.387200  0.111700  0.879000  1.0  -0.1213
  C  C76  1  0.349600  0.252000  0.890300  1.0  -0.0481
  C  C77  1  0.389100  0.360500  0.930500  1.0  -0.0533
  C  C78  1  0.467000  0.327300  0.960800  1.0  0.2496
  C  C79  1  0.502400  0.183600  0.953200  1.0  -0.1218
  C  C80  1  0.462900  0.076000  0.912300  1.0  -0.0225
  C  C81  1  0.101100  0.935200  0.718900  1.0  0.6991
  C  C82  1  0.009100  0.928400  0.701900  1.0  -0.1146
  C  C83  1  0.969700  0.040900  0.662500  1.0  -0.0076
  C  C84  1  0.885400  0.039300  0.649000  1.0  -0.1629
  C  C85  1  0.839900  0.931800  0.674200  1.0  0.1009
  C  C86  1  0.876400  0.815100  0.713300  1.0  -0.0562
  C  C87  1  0.962500  0.813000  0.726200  1.0  0.0321
  C  C88  1  0.356800  0.918700  0.679200  1.0  0.7483
  C  C89  1  0.449400  0.908000  0.674700  1.0  -0.1288
  C  C90  1  0.492800  0.015900  0.641900  1.0  -0.0299
  C  C91  1  0.578600  0.006800  0.642600  1.0  -0.0423
  C  C92  1  0.621100  0.892600  0.676900  1.0  0.04
  C  C93  1  0.578900  0.784900  0.708900  1.0  -0.0998
  C  C94  1  0.493300  0.791300  0.708100  1.0  0.0013
  C  C95  1  0.845700  0.503100  0.333400  1.0  0.7046
  C  C96  1  0.887200  0.388300  0.379000  1.0  -0.1193
  C  C97  1  0.849600  0.248000  0.390300  1.0  -0.0487
  C  C98  1  0.889100  0.139500  0.430500  1.0  -0.0551
  C  C99  1  0.967000  0.172700  0.460800  1.0  0.2495
  C  C100  1  0.002400  0.316400  0.453200  1.0  -0.1226
  C  C101  1  0.962900  0.424000  0.412300  1.0  -0.0225
  C  C102  1  0.601100  0.564800  0.218900  1.0  0.6989
  C  C103  1  0.509100  0.571600  0.201900  1.0  -0.1146
  C  C104  1  0.469700  0.459100  0.162500  1.0  -0.0075
  C  C105  1  0.385400  0.460700  0.149000  1.0  -0.1629
  C  C106  1  0.339900  0.568200  0.174200  1.0  0.1017
  C  C107  1  0.376400  0.684900  0.213300  1.0  -0.0575
  C  C108  1  0.462500  0.687000  0.226200  1.0  0.0328
  C  C109  1  0.856800  0.581300  0.179200  1.0  0.7484
  C  C110  1  0.949400  0.592000  0.174700  1.0  -0.1285
  C  C111  1  0.992800  0.484100  0.141900  1.0  -0.03
  C  C112  1  0.078600  0.493200  0.142600  1.0  -0.0419
  C  C113  1  0.121100  0.607400  0.176900  1.0  0.0389
  C  C114  1  0.078900  0.715100  0.208900  1.0  -0.1
  C  C115  1  0.993300  0.708700  0.208100  1.0  0.0014
  C  C116  1  0.654300  0.003100  0.166600  1.0  0.7053
  C  C117  1  0.612800  0.888300  0.121000  1.0  -0.119
  C  C118  1  0.650400  0.748000  0.109700  1.0  -0.0482
  C  C119  1  0.610900  0.639500  0.069500  1.0  -0.0528
  C  C120  1  0.533000  0.672700  0.039200  1.0  0.25
  C  C121  1  0.497600  0.816400  0.046800  1.0  -0.1198
  C  C122  1  0.537100  0.924000  0.087700  1.0  -0.0215
  C  C123  1  0.898900  0.064800  0.281100  1.0  0.6985
  C  C124  1  0.990900  0.071600  0.298100  1.0  -0.115
  C  C125  1  0.030300  0.959100  0.337500  1.0  -0.0079
  C  C126  1  0.114600  0.960700  0.351000  1.0  -0.1619
  C  C127  1  0.160100  0.068200  0.325800  1.0  0.1028
  C  C128  1  0.123600  0.184900  0.286700  1.0  -0.0559
  C  C129  1  0.037500  0.187000  0.273800  1.0  0.0303
  C  C130  1  0.643200  0.081300  0.320800  1.0  0.748
  C  C131  1  0.550600  0.092000  0.325300  1.0  -0.1286
  C  C132  1  0.507200  0.984100  0.358100  1.0  -0.0326
  C  C133  1  0.421400  0.993200  0.357400  1.0  -0.044
  C  C134  1  0.378900  0.107400  0.323100  1.0  0.0394
  C  C135  1  0.421100  0.215100  0.291100  1.0  -0.0994
  C  C136  1  0.506700  0.208700  0.291900  1.0  0.0012
  N  N137  1  0.985700  0.933000  0.499400  1.0  -0.1587
  N  N138  1  0.753800  0.456900  0.840200  1.0  -0.229
  N  N139  1  0.783700  0.361000  0.811800  1.0  -0.2472
  N  N140  1  0.514300  0.433000  0.000600  1.0  -0.1575
  N  N141  1  0.746200  0.956900  0.659800  1.0  -0.23
  N  N142  1  0.716300  0.861000  0.688200  1.0  -0.2467
  N  N143  1  0.014300  0.067000  0.500600  1.0  -0.1581
  N  N144  1  0.246200  0.543100  0.159800  1.0  -0.2303
  N  N145  1  0.216300  0.639000  0.188200  1.0  -0.2484
  N  N146  1  0.485700  0.567000  0.999400  1.0  -0.1577
  N  N147  1  0.253800  0.043100  0.340200  1.0  -0.2286
  N  N148  1  0.283700  0.139000  0.311800  1.0  -0.2487
  O  O149  1  0.130300  0.360000  0.663400  1.0  -0.6036
  O  O150  1  0.366700  0.324400  0.749400  1.0  -0.6685
  O  O151  1  0.177700  0.542600  0.837100  1.0  -0.6889
  O  O152  1  0.178500  0.302300  0.799900  1.0  -0.628
  O  O153  1  0.360800  0.549000  0.800300  1.0  -0.6428
  O  O154  1  0.214400  0.539700  0.705200  1.0  -0.7614
  O  O155  1  0.369700  0.860000  0.836600  1.0  -0.604
  O  O156  1  0.133300  0.824400  0.750600  1.0  -0.6676
  O  O157  1  0.322300  0.042600  0.662900  1.0  -0.685
  O  O158  1  0.321500  0.802300  0.700100  1.0  -0.6273
  O  O159  1  0.139200  0.049000  0.699700  1.0  -0.6423
  O  O160  1  0.285600  0.039700  0.794800  1.0  -0.7631
  O  O161  1  0.869700  0.640000  0.336600  1.0  -0.605
  O  O162  1  0.633300  0.675600  0.250600  1.0  -0.6676
  O  O163  1  0.822300  0.457400  0.162900  1.0  -0.6866
  O  O164  1  0.821500  0.697700  0.200100  1.0  -0.6268
  O  O165  1  0.639200  0.451000  0.199700  1.0  -0.642
  O  O166  1  0.785600  0.460300  0.294800  1.0  -0.7629
  O  O167  1  0.630300  0.140000  0.163400  1.0  -0.6039
  O  O168  1  0.866700  0.175600  0.249400  1.0  -0.668
  O  O169  1  0.677700  0.957400  0.337100  1.0  -0.686
  O  O170  1  0.678500  0.197700  0.299900  1.0  -0.6279
  O  O171  1  0.860800  0.951000  0.300300  1.0  -0.6423
  O  O172  1  0.714400  0.960300  0.205200  1.0  -0.7628
