# generated using pymatgen
data_TbH12C21(NO2)3
_symmetry_space_group_name_H-M   'P 1'
_cell_length_a   16.25380000
_cell_length_b   8.70930000
_cell_length_c   20.85950000
_cell_angle_alpha   90.00000000
_cell_angle_beta   94.89100000
_cell_angle_gamma   90.00000000
_symmetry_Int_Tables_number   1
_chemical_formula_structural   TbH12C21(NO2)3
_chemical_formula_sum   'Tb4 H48 C84 N12 O24'
_cell_volume   2942.10233080
_cell_formula_units_Z   4
loop_
 _symmetry_equiv_pos_site_id
 _symmetry_equiv_pos_as_xyz
  1  'x, y, z'
loop_
 _atom_site_type_symbol
 _atom_site_label
 _atom_site_symmetry_multiplicity
 _atom_site_fract_x
 _atom_site_fract_y
 _atom_site_fract_z
 _atom_site_occupancy
 _atom_site_charge
  Tb  Tb1  1  0.242390  0.221230  0.712420  1.0  2.2931
  Tb  Tb2  1  0.257610  0.721230  0.787580  1.0  2.2974
  Tb  Tb3  1  0.757610  0.778770  0.287580  1.0  2.2956
  Tb  Tb4  1  0.742390  0.278770  0.212420  1.0  2.2934
  H  H5  1  0.200600  0.769700  0.630900  1.0  0.1079
  H  H6  1  0.135400  0.950800  0.563200  1.0  0.1107
  H  H7  1  0.945400  0.662300  0.524700  1.0  0.1167
  H  H8  1  0.009900  0.480000  0.591100  1.0  0.1078
  H  H9  1  0.499900  0.612600  0.854500  1.0  0.0929
  H  H10  1  0.640700  0.615500  0.877400  1.0  0.1395
  H  H11  1  0.658200  0.236000  0.769200  1.0  0.1155
  H  H12  1  0.514200  0.233200  0.748300  1.0  0.0952
  H  H13  1  0.037800  0.594300  0.881500  1.0  0.1187
  H  H14  1  0.893600  0.579000  0.879600  1.0  0.1119
  H  H15  1  0.892500  0.208200  0.770400  1.0  0.0979
  H  H16  1  0.035300  0.213000  0.772500  1.0  0.1063
  H  H17  1  0.299400  0.269700  0.869100  1.0  0.1076
  H  H18  1  0.364600  0.450800  0.936800  1.0  0.1113
  H  H19  1  0.554600  0.162300  0.975300  1.0  0.117
  H  H20  1  0.490100  0.980000  0.908900  1.0  0.1094
  H  H21  1  0.000100  0.112600  0.645500  1.0  0.093
  H  H22  1  0.859300  0.115500  0.622600  1.0  0.1392
  H  H23  1  0.841800  0.736000  0.730800  1.0  0.1156
  H  H24  1  0.985800  0.733200  0.751700  1.0  0.0952
  H  H25  1  0.462200  0.094300  0.618500  1.0  0.1186
  H  H26  1  0.606400  0.079000  0.620400  1.0  0.1127
  H  H27  1  0.607500  0.708200  0.729600  1.0  0.0975
  H  H28  1  0.464700  0.713000  0.727500  1.0  0.1074
  H  H29  1  0.799400  0.230300  0.369100  1.0  0.1075
  H  H30  1  0.864600  0.049200  0.436800  1.0  0.1112
  H  H31  1  0.054600  0.337700  0.475300  1.0  0.1167
  H  H32  1  0.990100  0.520000  0.408900  1.0  0.1066
  H  H33  1  0.500100  0.387400  0.145500  1.0  0.0927
  H  H34  1  0.359300  0.384500  0.122600  1.0  0.1393
  H  H35  1  0.341800  0.764000  0.230800  1.0  0.1154
  H  H36  1  0.485800  0.766800  0.251700  1.0  0.0949
  H  H37  1  0.962200  0.405700  0.118500  1.0  0.118
  H  H38  1  0.106400  0.421000  0.120400  1.0  0.1122
  H  H39  1  0.107500  0.791800  0.229600  1.0  0.0976
  H  H40  1  0.964700  0.787000  0.227500  1.0  0.107
  H  H41  1  0.700600  0.730300  0.130900  1.0  0.108
  H  H42  1  0.635400  0.549200  0.063200  1.0  0.1107
  H  H43  1  0.445400  0.837700  0.024700  1.0  0.1166
  H  H44  1  0.509900  0.020000  0.091100  1.0  0.1074
  H  H45  1  0.999900  0.887400  0.354500  1.0  0.0928
  H  H46  1  0.140700  0.884500  0.377400  1.0  0.1397
  H  H47  1  0.158200  0.264000  0.269200  1.0  0.1155
  H  H48  1  0.014200  0.266800  0.248300  1.0  0.0953
  H  H49  1  0.537800  0.905700  0.381500  1.0  0.1187
  H  H50  1  0.393600  0.921000  0.379600  1.0  0.1121
  H  H51  1  0.392500  0.291800  0.270400  1.0  0.0979
  H  H52  1  0.535300  0.287000  0.272500  1.0  0.1062
  C  C53  1  0.151700  0.492500  0.665700  1.0  0.6992
  C  C54  1  0.110600  0.608900  0.620500  1.0  -0.1344
  C  C55  1  0.148700  0.749000  0.610400  1.0  -0.0476
  C  C56  1  0.109600  0.857600  0.569800  1.0  -0.078
  C  C57  1  0.032100  0.827700  0.539100  1.0  0.2177
  C  C58  1  0.996100  0.684500  0.546800  1.0  -0.1325
  C  C59  1  0.034400  0.575500  0.586700  1.0  -0.0368
  C  C60  1  0.401400  0.431200  0.779800  1.0  0.6877
  C  C61  1  0.493100  0.426300  0.796600  1.0  -0.1365
  C  C62  1  0.531900  0.537900  0.836700  1.0  -0.0127
  C  C63  1  0.616000  0.540300  0.850600  1.0  -0.1928
  C  C64  1  0.662600  0.429800  0.824100  1.0  0.0688
  C  C65  1  0.626000  0.312200  0.785800  1.0  -0.0606
  C  C66  1  0.539700  0.311500  0.772900  1.0  0.0151
  C  C67  1  0.143300  0.414900  0.822400  1.0  0.7369
  C  C68  1  0.050900  0.407100  0.826200  1.0  -0.1259
  C  C69  1  0.009200  0.516100  0.858800  1.0  -0.0707
  C  C70  1  0.922300  0.506900  0.857300  1.0  -0.0473
  C  C71  1  0.880000  0.394000  0.823700  1.0  0.0328
  C  C72  1  0.921800  0.286000  0.792700  1.0  -0.0938
  C  C73  1  0.007400  0.288800  0.793500  1.0  -0.0395
  C  C74  1  0.348300  0.992500  0.834300  1.0  0.6986
  C  C75  1  0.389400  0.108900  0.879500  1.0  -0.1357
  C  C76  1  0.351300  0.249000  0.889600  1.0  -0.0557
  C  C77  1  0.390400  0.357600  0.930200  1.0  -0.0835
  C  C78  1  0.467900  0.327700  0.960900  1.0  0.2245
  C  C79  1  0.503900  0.184500  0.953200  1.0  -0.1339
  C  C80  1  0.465600  0.075500  0.913300  1.0  -0.0374
  C  C81  1  0.098600  0.931200  0.720200  1.0  0.6866
  C  C82  1  0.006900  0.926300  0.703400  1.0  -0.1364
  C  C83  1  0.968100  0.037900  0.663300  1.0  -0.013
  C  C84  1  0.884000  0.040300  0.649400  1.0  -0.1932
  C  C85  1  0.837400  0.929800  0.675900  1.0  0.0684
  C  C86  1  0.874000  0.812200  0.714200  1.0  -0.0607
  C  C87  1  0.960300  0.811500  0.727100  1.0  0.0159
  C  C88  1  0.356700  0.914900  0.677600  1.0  0.7394
  C  C89  1  0.449100  0.907100  0.673800  1.0  -0.1281
  C  C90  1  0.490800  0.016100  0.641200  1.0  -0.0707
  C  C91  1  0.577700  0.006900  0.642700  1.0  -0.0464
  C  C92  1  0.620000  0.894000  0.676300  1.0  0.0331
  C  C93  1  0.578200  0.786000  0.707300  1.0  -0.0947
  C  C94  1  0.492600  0.788800  0.706500  1.0  -0.0393
  C  C95  1  0.848300  0.507500  0.334300  1.0  0.7
  C  C96  1  0.889400  0.391100  0.379500  1.0  -0.1345
  C  C97  1  0.851300  0.251000  0.389600  1.0  -0.0474
  C  C98  1  0.890400  0.142400  0.430200  1.0  -0.0791
  C  C99  1  0.967900  0.172300  0.460900  1.0  0.2246
  C  C100  1  0.003900  0.315500  0.453200  1.0  -0.1302
  C  C101  1  0.965600  0.424500  0.413300  1.0  -0.038
  C  C102  1  0.598600  0.568800  0.220200  1.0  0.6882
  C  C103  1  0.506900  0.573700  0.203400  1.0  -0.1362
  C  C104  1  0.468100  0.462100  0.163300  1.0  -0.0127
  C  C105  1  0.384000  0.459700  0.149400  1.0  -0.1906
  C  C106  1  0.337400  0.570200  0.175900  1.0  0.0687
  C  C107  1  0.374000  0.687800  0.214200  1.0  -0.061
  C  C108  1  0.460300  0.688500  0.227100  1.0  0.0159
  C  C109  1  0.856700  0.585100  0.177600  1.0  0.7395
  C  C110  1  0.949100  0.592900  0.173800  1.0  -0.128
  C  C111  1  0.990800  0.483900  0.141200  1.0  -0.0679
  C  C112  1  0.077700  0.493100  0.142700  1.0  -0.0465
  C  C113  1  0.120000  0.606000  0.176300  1.0  0.0283
  C  C114  1  0.078200  0.714000  0.207300  1.0  -0.0954
  C  C115  1  0.992600  0.711200  0.206500  1.0  -0.0387
  C  C116  1  0.651700  0.007500  0.165700  1.0  0.6984
  C  C117  1  0.610600  0.891100  0.120500  1.0  -0.1341
  C  C118  1  0.648700  0.751000  0.110400  1.0  -0.047
  C  C119  1  0.609600  0.642400  0.069800  1.0  -0.0824
  C  C120  1  0.532100  0.672300  0.039100  1.0  0.2167
  C  C121  1  0.496100  0.815500  0.046800  1.0  -0.1296
  C  C122  1  0.534400  0.924500  0.086700  1.0  -0.0376
  C  C123  1  0.901400  0.068800  0.279800  1.0  0.6888
  C  C124  1  0.993100  0.073700  0.296600  1.0  -0.1363
  C  C125  1  0.031900  0.962100  0.336700  1.0  -0.0122
  C  C126  1  0.116000  0.959700  0.350600  1.0  -0.1923
  C  C127  1  0.162600  0.070200  0.324100  1.0  0.067
  C  C128  1  0.126000  0.187800  0.285800  1.0  -0.0638
  C  C129  1  0.039700  0.188500  0.272900  1.0  0.0149
  C  C130  1  0.643300  0.085100  0.322400  1.0  0.7368
  C  C131  1  0.550900  0.092900  0.326200  1.0  -0.1263
  C  C132  1  0.509200  0.983900  0.358800  1.0  -0.0681
  C  C133  1  0.422300  0.993100  0.357300  1.0  -0.0463
  C  C134  1  0.380000  0.106000  0.323700  1.0  0.033
  C  C135  1  0.421800  0.214000  0.292700  1.0  -0.0934
  C  C136  1  0.507400  0.211200  0.293500  1.0  -0.0391
  N  N137  1  0.985200  0.934100  0.499100  1.0  -0.1601
  N  N138  1  0.754800  0.457800  0.840200  1.0  -0.2635
  N  N139  1  0.785600  0.360500  0.812100  1.0  -0.2668
  N  N140  1  0.514800  0.434100  0.000900  1.0  -0.1593
  N  N141  1  0.745200  0.957800  0.659800  1.0  -0.2637
  N  N142  1  0.714400  0.860500  0.687900  1.0  -0.2663
  N  N143  1  0.014800  0.065900  0.500900  1.0  -0.16
  N  N144  1  0.245200  0.542200  0.159800  1.0  -0.2624
  N  N145  1  0.214400  0.639500  0.187900  1.0  -0.2676
  N  N146  1  0.485200  0.565900  0.999100  1.0  -0.1598
  N  N147  1  0.254800  0.042200  0.340200  1.0  -0.2613
  N  N148  1  0.285600  0.139500  0.312100  1.0  -0.2688
  O  O149  1  0.125900  0.357300  0.662200  1.0  -0.6278
  O  O150  1  0.369300  0.320100  0.748400  1.0  -0.6814
  O  O151  1  0.179200  0.538400  0.839500  1.0  -0.7079
  O  O152  1  0.178400  0.299700  0.801600  1.0  -0.6727
  O  O153  1  0.363200  0.543900  0.798900  1.0  -0.6864
  O  O154  1  0.212000  0.533000  0.704670  1.0  -0.8035
  O  O155  1  0.374100  0.857300  0.837800  1.0  -0.6235
  O  O156  1  0.130700  0.820100  0.751600  1.0  -0.6814
  O  O157  1  0.320800  0.038400  0.660500  1.0  -0.7066
  O  O158  1  0.321600  0.799700  0.698400  1.0  -0.6719
  O  O159  1  0.136800  0.043900  0.701100  1.0  -0.685
  O  O160  1  0.288000  0.033000  0.795330  1.0  -0.804
  O  O161  1  0.874100  0.642700  0.337800  1.0  -0.6224
  O  O162  1  0.630700  0.679900  0.251600  1.0  -0.6821
  O  O163  1  0.820800  0.461600  0.160500  1.0  -0.7059
  O  O164  1  0.821600  0.700300  0.198400  1.0  -0.6713
  O  O165  1  0.636800  0.456100  0.201100  1.0  -0.6846
  O  O166  1  0.788000  0.467000  0.295330  1.0  -0.8041
  O  O167  1  0.625900  0.142700  0.162200  1.0  -0.6255
  O  O168  1  0.869300  0.179900  0.248400  1.0  -0.6822
  O  O169  1  0.679200  0.961600  0.339500  1.0  -0.7067
  O  O170  1  0.678400  0.200300  0.301600  1.0  -0.6722
  O  O171  1  0.863200  0.956100  0.298900  1.0  -0.6861
  O  O172  1  0.712000  0.967000  0.204670  1.0  -0.8032
