# generated using pymatgen
data_HoH12C21(NO2)3
_symmetry_space_group_name_H-M   'P 1'
_cell_length_a   16.19250000
_cell_length_b   8.69260000
_cell_length_c   20.88150000
_cell_angle_alpha   90.00000000
_cell_angle_beta   94.79700000
_cell_angle_gamma   90.00000000
_symmetry_Int_Tables_number   1
_chemical_formula_structural   HoH12C21(NO2)3
_chemical_formula_sum   'Ho4 H48 C84 N12 O24'
_cell_volume   2928.87875357
_cell_formula_units_Z   4
loop_
 _symmetry_equiv_pos_site_id
 _symmetry_equiv_pos_as_xyz
  1  'x, y, z'
loop_
 _atom_site_type_symbol
 _atom_site_label
 _atom_site_symmetry_multiplicity
 _atom_site_fract_x
 _atom_site_fract_y
 _atom_site_fract_z
 _atom_site_occupancy
 _atom_site_charge
  Ho  Ho1  1  0.242990  0.222760  0.712920  1.0  2.2189
  Ho  Ho2  1  0.257010  0.722760  0.787080  1.0  2.2178
  Ho  Ho3  1  0.757010  0.777240  0.287080  1.0  2.2168
  Ho  Ho4  1  0.742990  0.277240  0.212920  1.0  2.2199
  H  H5  1  0.201400  0.773000  0.630200  1.0  0.1088
  H  H6  1  0.135200  0.954800  0.564000  1.0  0.1295
  H  H7  1  0.946700  0.660500  0.524100  1.0  0.1291
  H  H8  1  0.011100  0.482300  0.593600  1.0  0.1083
  H  H9  1  0.499300  0.618500  0.854400  1.0  0.1046
  H  H10  1  0.639800  0.612900  0.878600  1.0  0.1284
  H  H11  1  0.656900  0.237000  0.771600  1.0  0.1126
  H  H12  1  0.513000  0.235700  0.747700  1.0  0.1062
  H  H13  1  0.036800  0.594500  0.881300  1.0  0.1265
  H  H14  1  0.892500  0.578400  0.879500  1.0  0.1168
  H  H15  1  0.893400  0.205600  0.769700  1.0  0.107
  H  H16  1  0.035300  0.217100  0.770300  1.0  0.0976
  H  H17  1  0.298600  0.273000  0.869800  1.0  0.1092
  H  H18  1  0.364800  0.454800  0.936000  1.0  0.1292
  H  H19  1  0.553300  0.160500  0.975900  1.0  0.13
  H  H20  1  0.488900  0.982300  0.906400  1.0  0.1087
  H  H21  1  0.000700  0.118500  0.645600  1.0  0.1043
  H  H22  1  0.860200  0.112900  0.621400  1.0  0.1284
  H  H23  1  0.843100  0.737000  0.728400  1.0  0.1128
  H  H24  1  0.987000  0.735700  0.752300  1.0  0.1062
  H  H25  1  0.463200  0.094500  0.618700  1.0  0.1261
  H  H26  1  0.607500  0.078400  0.620500  1.0  0.1172
  H  H27  1  0.606600  0.705600  0.730300  1.0  0.1067
  H  H28  1  0.464700  0.717100  0.729700  1.0  0.0977
  H  H29  1  0.798600  0.227000  0.369800  1.0  0.109
  H  H30  1  0.864800  0.045200  0.436000  1.0  0.1289
  H  H31  1  0.053300  0.339500  0.475900  1.0  0.1299
  H  H32  1  0.988900  0.517700  0.406400  1.0  0.1086
  H  H33  1  0.500700  0.381500  0.145600  1.0  0.1042
  H  H34  1  0.360200  0.387100  0.121400  1.0  0.1284
  H  H35  1  0.343100  0.763000  0.228400  1.0  0.1128
  H  H36  1  0.487000  0.764300  0.252300  1.0  0.1064
  H  H37  1  0.963200  0.405500  0.118700  1.0  0.1255
  H  H38  1  0.107500  0.421600  0.120500  1.0  0.1166
  H  H39  1  0.106600  0.794400  0.230300  1.0  0.1064
  H  H40  1  0.964700  0.782900  0.229700  1.0  0.0978
  H  H41  1  0.701400  0.727000  0.130200  1.0  0.1089
  H  H42  1  0.635200  0.545200  0.064000  1.0  0.1292
  H  H43  1  0.446700  0.839500  0.024100  1.0  0.129
  H  H44  1  0.511100  0.017700  0.093600  1.0  0.1083
  H  H45  1  0.999300  0.881500  0.354400  1.0  0.1046
  H  H46  1  0.139800  0.887100  0.378600  1.0  0.129
  H  H47  1  0.156900  0.263000  0.271600  1.0  0.1129
  H  H48  1  0.013000  0.264300  0.247700  1.0  0.1061
  H  H49  1  0.536800  0.905500  0.381300  1.0  0.1265
  H  H50  1  0.392500  0.921600  0.379500  1.0  0.1169
  H  H51  1  0.393400  0.294400  0.269700  1.0  0.1068
  H  H52  1  0.535300  0.282900  0.270300  1.0  0.0975
  C  C53  1  0.153400  0.495400  0.666300  1.0  0.7001
  C  C54  1  0.112000  0.611000  0.620500  1.0  -0.1182
  C  C55  1  0.149300  0.751800  0.610000  1.0  -0.0488
  C  C56  1  0.110200  0.860200  0.570100  1.0  -0.0764
  C  C57  1  0.032900  0.826500  0.539100  1.0  0.2226
  C  C58  1  0.997000  0.684300  0.546600  1.0  -0.2016
  C  C59  1  0.035900  0.577200  0.587800  1.0  -0.0211
  C  C60  1  0.400000  0.434100  0.781100  1.0  0.7014
  C  C61  1  0.491300  0.428200  0.798400  1.0  -0.1302
  C  C62  1  0.530600  0.541100  0.837500  1.0  -0.0197
  C  C63  1  0.614700  0.539300  0.851100  1.0  -0.1572
  C  C64  1  0.661200  0.431900  0.825200  1.0  0.0544
  C  C65  1  0.624400  0.314200  0.787400  1.0  -0.0511
  C  C66  1  0.538300  0.312700  0.773400  1.0  0.005
  C  C67  1  0.142900  0.418400  0.821100  1.0  0.7409
  C  C68  1  0.051400  0.407800  0.825400  1.0  -0.1432
  C  C69  1  0.008400  0.516300  0.858500  1.0  -0.0608
  C  C70  1  0.921300  0.506700  0.857000  1.0  -0.0264
  C  C71  1  0.879000  0.393700  0.823100  1.0  0.0095
  C  C72  1  0.922100  0.284900  0.791700  1.0  -0.1104
  C  C73  1  0.007200  0.291100  0.792200  1.0  -0.0308
  C  C74  1  0.346600  0.995400  0.833700  1.0  0.6999
  C  C75  1  0.388000  0.111000  0.879500  1.0  -0.1197
  C  C76  1  0.350700  0.251800  0.890000  1.0  -0.0487
  C  C77  1  0.389800  0.360200  0.929900  1.0  -0.0773
  C  C78  1  0.467100  0.326500  0.960900  1.0  0.222
  C  C79  1  0.503000  0.184300  0.953400  1.0  -0.2031
  C  C80  1  0.464100  0.077200  0.912200  1.0  -0.0222
  C  C81  1  0.100000  0.934100  0.718900  1.0  0.7022
  C  C82  1  0.008700  0.928200  0.701600  1.0  -0.1302
  C  C83  1  0.969400  0.041100  0.662500  1.0  -0.0186
  C  C84  1  0.885300  0.039300  0.648900  1.0  -0.1577
  C  C85  1  0.838800  0.931900  0.674800  1.0  0.0516
  C  C86  1  0.875600  0.814200  0.712600  1.0  -0.0513
  C  C87  1  0.961700  0.812700  0.726600  1.0  0.0059
  C  C88  1  0.357100  0.918400  0.678900  1.0  0.7402
  C  C89  1  0.448600  0.907800  0.674600  1.0  -0.142
  C  C90  1  0.491600  0.016300  0.641500  1.0  -0.0545
  C  C91  1  0.578700  0.006700  0.643000  1.0  -0.0249
  C  C92  1  0.621000  0.893700  0.676900  1.0  0.0103
  C  C93  1  0.577900  0.784900  0.708300  1.0  -0.1117
  C  C94  1  0.492800  0.791100  0.707800  1.0  -0.0294
  C  C95  1  0.846600  0.504600  0.333700  1.0  0.6994
  C  C96  1  0.888000  0.389000  0.379500  1.0  -0.1183
  C  C97  1  0.850700  0.248200  0.390000  1.0  -0.0502
  C  C98  1  0.889800  0.139800  0.429900  1.0  -0.0785
  C  C99  1  0.967100  0.173500  0.460900  1.0  0.2223
  C  C100  1  0.003000  0.315700  0.453400  1.0  -0.2037
  C  C101  1  0.964100  0.422800  0.412200  1.0  -0.0225
  C  C102  1  0.600000  0.565900  0.218900  1.0  0.7021
  C  C103  1  0.508700  0.571800  0.201600  1.0  -0.1304
  C  C104  1  0.469400  0.458900  0.162500  1.0  -0.0187
  C  C105  1  0.385300  0.460700  0.148900  1.0  -0.1576
  C  C106  1  0.338800  0.568100  0.174800  1.0  0.0524
  C  C107  1  0.375600  0.685800  0.212600  1.0  -0.0523
  C  C108  1  0.461700  0.687300  0.226600  1.0  0.0058
  C  C109  1  0.857100  0.581600  0.178900  1.0  0.7402
  C  C110  1  0.948600  0.592200  0.174600  1.0  -0.142
  C  C111  1  0.991600  0.483700  0.141500  1.0  -0.0551
  C  C112  1  0.078700  0.493300  0.143000  1.0  -0.0244
  C  C113  1  0.121000  0.606300  0.176900  1.0  0.0103
  C  C114  1  0.077900  0.715100  0.208300  1.0  -0.1114
  C  C115  1  0.992800  0.708900  0.207800  1.0  -0.0296
  C  C116  1  0.653400  0.004600  0.166300  1.0  0.6989
  C  C117  1  0.612000  0.889000  0.120500  1.0  -0.1165
  C  C118  1  0.649300  0.748200  0.110000  1.0  -0.0488
  C  C119  1  0.610200  0.639800  0.070100  1.0  -0.077
  C  C120  1  0.532900  0.673500  0.039100  1.0  0.2227
  C  C121  1  0.497000  0.815700  0.046600  1.0  -0.2018
  C  C122  1  0.535900  0.922800  0.087800  1.0  -0.0219
  C  C123  1  0.900000  0.065900  0.281100  1.0  0.7012
  C  C124  1  0.991300  0.071800  0.298400  1.0  -0.13
  C  C125  1  0.030600  0.958900  0.337500  1.0  -0.0197
  C  C126  1  0.114700  0.960700  0.351100  1.0  -0.1558
  C  C127  1  0.161200  0.068100  0.325200  1.0  0.0546
  C  C128  1  0.124400  0.185800  0.287400  1.0  -0.0516
  C  C129  1  0.038300  0.187300  0.273400  1.0  0.0043
  C  C130  1  0.642900  0.081600  0.321100  1.0  0.7409
  C  C131  1  0.551400  0.092200  0.325400  1.0  -0.1444
  C  C132  1  0.508400  0.983700  0.358500  1.0  -0.0598
  C  C133  1  0.421300  0.993300  0.357000  1.0  -0.0251
  C  C134  1  0.379000  0.106300  0.323100  1.0  0.01
  C  C135  1  0.422100  0.215100  0.291700  1.0  -0.1094
  C  C136  1  0.507200  0.208900  0.292200  1.0  -0.0302
  N  N137  1  0.985700  0.933100  0.499100  1.0  -0.1723
  N  N138  1  0.755000  0.458800  0.841000  1.0  -0.281
  N  N139  1  0.783900  0.360500  0.811300  1.0  -0.2975
  N  N140  1  0.514300  0.433100  0.000900  1.0  -0.1712
  N  N141  1  0.745000  0.958800  0.659000  1.0  -0.282
  N  N142  1  0.716100  0.860500  0.688700  1.0  -0.2974
  N  N143  1  0.014300  0.066900  0.500900  1.0  -0.172
  N  N144  1  0.245000  0.541200  0.159000  1.0  -0.2808
  N  N145  1  0.216100  0.639500  0.188700  1.0  -0.2967
  N  N146  1  0.485700  0.566900  0.999100  1.0  -0.1718
  N  N147  1  0.255000  0.041200  0.341000  1.0  -0.2802
  N  N148  1  0.283900  0.139500  0.311300  1.0  -0.2982
  O  O149  1  0.128700  0.359800  0.663000  1.0  -0.6091
  O  O150  1  0.367200  0.324600  0.749100  1.0  -0.6872
  O  O151  1  0.178300  0.541500  0.837900  1.0  -0.6956
  O  O152  1  0.178800  0.302100  0.800300  1.0  -0.64
  O  O153  1  0.361900  0.548200  0.799700  1.0  -0.6509
  O  O154  1  0.213800  0.536900  0.705200  1.0  -0.8017
  O  O155  1  0.371300  0.859800  0.837000  1.0  -0.6086
  O  O156  1  0.132800  0.824600  0.750900  1.0  -0.6867
  O  O157  1  0.321700  0.041500  0.662100  1.0  -0.6958
  O  O158  1  0.321200  0.802100  0.699700  1.0  -0.6392
  O  O159  1  0.138100  0.048200  0.700300  1.0  -0.6508
  O  O160  1  0.286200  0.036900  0.794800  1.0  -0.802
  O  O161  1  0.871300  0.640200  0.337000  1.0  -0.6088
  O  O162  1  0.632800  0.675400  0.250900  1.0  -0.6872
  O  O163  1  0.821700  0.458500  0.162100  1.0  -0.6958
  O  O164  1  0.821200  0.697900  0.199700  1.0  -0.6386
  O  O165  1  0.638100  0.451800  0.200300  1.0  -0.65
  O  O166  1  0.786200  0.463100  0.294800  1.0  -0.8019
  O  O167  1  0.628700  0.140200  0.163000  1.0  -0.6079
  O  O168  1  0.867200  0.175400  0.249100  1.0  -0.6868
  O  O169  1  0.678300  0.958500  0.337900  1.0  -0.6956
  O  O170  1  0.678800  0.197900  0.300300  1.0  -0.6394
  O  O171  1  0.861900  0.951800  0.299700  1.0  -0.6512
  O  O172  1  0.713800  0.963100  0.205200  1.0  -0.8013
