# generated using pymatgen
data_GdH12C21(NO2)3
_symmetry_space_group_name_H-M   'P 1'
_cell_length_a   16.23180000
_cell_length_b   8.72520000
_cell_length_c   20.77730000
_cell_angle_alpha   90.00000000
_cell_angle_beta   94.98400000
_cell_angle_gamma   90.00000000
_symmetry_Int_Tables_number   1
_chemical_formula_structural   GdH12C21(NO2)3
_chemical_formula_sum   'Gd4 H48 C84 N12 O24'
_cell_volume   2931.47370876
_cell_formula_units_Z   4
loop_
 _symmetry_equiv_pos_site_id
 _symmetry_equiv_pos_as_xyz
  1  'x, y, z'
loop_
 _atom_site_type_symbol
 _atom_site_label
 _atom_site_symmetry_multiplicity
 _atom_site_fract_x
 _atom_site_fract_y
 _atom_site_fract_z
 _atom_site_occupancy
 _atom_site_charge
  Gd  Gd1  1  0.242310  0.221080  0.712180  1.0  2.2399
  Gd  Gd2  1  0.257690  0.721080  0.787820  1.0  2.2335
  Gd  Gd3  1  0.757690  0.778920  0.287820  1.0  2.2383
  Gd  Gd4  1  0.742310  0.278920  0.212180  1.0  2.236
  H  H5  1  0.944200  0.663800  0.524300  1.0  0.1338
  H  H6  1  0.134600  0.952200  0.564300  1.0  0.134
  H  H7  1  0.009800  0.481500  0.592000  1.0  0.1027
  H  H8  1  0.200000  0.767600  0.630300  1.0  0.1108
  H  H9  1  0.035100  0.214700  0.773200  1.0  0.0961
  H  H10  1  0.501100  0.614100  0.854000  1.0  0.1032
  H  H11  1  0.038400  0.594200  0.881300  1.0  0.1227
  H  H12  1  0.515300  0.234300  0.748000  1.0  0.1049
  H  H13  1  0.894400  0.581800  0.878600  1.0  0.1176
  H  H14  1  0.641900  0.612800  0.876600  1.0  0.1299
  H  H15  1  0.893900  0.205300  0.771300  1.0  0.1105
  H  H16  1  0.658600  0.237500  0.769800  1.0  0.1212
  H  H17  1  0.555800  0.163800  0.975700  1.0  0.1346
  H  H18  1  0.365400  0.452200  0.935700  1.0  0.1343
  H  H19  1  0.490200  0.981500  0.908000  1.0  0.103
  H  H20  1  0.300000  0.267600  0.869700  1.0  0.1106
  H  H21  1  0.464900  0.714700  0.726800  1.0  0.0961
  H  H22  1  0.998900  0.114100  0.646000  1.0  0.1029
  H  H23  1  0.461600  0.094200  0.618700  1.0  0.1227
  H  H24  1  0.984700  0.734300  0.752000  1.0  0.1051
  H  H25  1  0.605600  0.081800  0.621400  1.0  0.1185
  H  H26  1  0.858100  0.112800  0.623400  1.0  0.13
  H  H27  1  0.606100  0.705300  0.728700  1.0  0.1103
  H  H28  1  0.841400  0.737500  0.730200  1.0  0.1212
  H  H29  1  0.055800  0.336200  0.475700  1.0  0.1343
  H  H30  1  0.865400  0.047800  0.435700  1.0  0.1342
  H  H31  1  0.990200  0.518500  0.408000  1.0  0.1003
  H  H32  1  0.800000  0.232400  0.369700  1.0  0.1108
  H  H33  1  0.964900  0.785300  0.226800  1.0  0.0962
  H  H34  1  0.498900  0.385900  0.146000  1.0  0.1024
  H  H35  1  0.961600  0.405800  0.118700  1.0  0.1219
  H  H36  1  0.484700  0.765700  0.252000  1.0  0.1047
  H  H37  1  0.105600  0.418200  0.121400  1.0  0.1179
  H  H38  1  0.358100  0.387200  0.123400  1.0  0.1301
  H  H39  1  0.106100  0.794700  0.228700  1.0  0.11
  H  H40  1  0.341400  0.762500  0.230200  1.0  0.121
  H  H41  1  0.444200  0.836200  0.024300  1.0  0.1338
  H  H42  1  0.634600  0.547800  0.064300  1.0  0.1343
  H  H43  1  0.509800  0.018500  0.092000  1.0  0.1011
  H  H44  1  0.700000  0.732400  0.130300  1.0  0.111
  H  H45  1  0.535100  0.285300  0.273200  1.0  0.0959
  H  H46  1  0.001100  0.885900  0.354000  1.0  0.103
  H  H47  1  0.538400  0.905800  0.381300  1.0  0.1224
  H  H48  1  0.015300  0.265700  0.248000  1.0  0.105
  H  H49  1  0.394400  0.918200  0.378600  1.0  0.1177
  H  H50  1  0.141900  0.887200  0.376600  1.0  0.1304
  H  H51  1  0.393900  0.294700  0.271300  1.0  0.1104
  H  H52  1  0.158600  0.262500  0.269800  1.0  0.1213
  C  C53  1  0.995100  0.685600  0.546400  1.0  -0.2219
  C  C54  1  0.109300  0.858300  0.570200  1.0  -0.0841
  C  C55  1  0.034400  0.576600  0.587000  1.0  -0.0196
  C  C56  1  0.402500  0.430100  0.780700  1.0  0.7005
  C  C57  1  0.147700  0.748000  0.610000  1.0  -0.0419
  C  C58  1  0.143700  0.415700  0.823400  1.0  0.7358
  C  C59  1  0.031900  0.826000  0.539000  1.0  0.2357
  C  C60  1  0.051700  0.406300  0.826900  1.0  -0.1316
  C  C61  1  0.110100  0.609200  0.620100  1.0  -0.1329
  C  C62  1  0.007200  0.290000  0.794400  1.0  -0.0095
  C  C63  1  0.151200  0.493200  0.665700  1.0  0.6935
  C  C64  1  0.494000  0.425600  0.797300  1.0  -0.1248
  C  C65  1  0.532600  0.538100  0.836500  1.0  -0.0364
  C  C66  1  0.009700  0.515900  0.858700  1.0  -0.064
  C  C67  1  0.540600  0.312100  0.773100  1.0  0.0145
  C  C68  1  0.922900  0.508400  0.856800  1.0  -0.0389
  C  C69  1  0.663200  0.430800  0.824300  1.0  0.0662
  C  C70  1  0.616800  0.537900  0.849700  1.0  -0.1481
  C  C71  1  0.880200  0.394600  0.823500  1.0  0.0194
  C  C72  1  0.922700  0.284600  0.793100  1.0  -0.1087
  C  C73  1  0.626400  0.313700  0.786300  1.0  -0.0582
  C  C74  1  0.504900  0.185600  0.953600  1.0  -0.2231
  C  C75  1  0.390700  0.358300  0.929800  1.0  -0.0847
  C  C76  1  0.465600  0.076600  0.913000  1.0  -0.0203
  C  C77  1  0.097500  0.930100  0.719300  1.0  0.7008
  C  C78  1  0.352300  0.248000  0.890000  1.0  -0.0424
  C  C79  1  0.356300  0.915700  0.676600  1.0  0.7368
  C  C80  1  0.468100  0.326000  0.961000  1.0  0.2353
  C  C81  1  0.448300  0.906300  0.673100  1.0  -0.1342
  C  C82  1  0.389900  0.109200  0.879900  1.0  -0.1338
  C  C83  1  0.492800  0.790000  0.705600  1.0  -0.0077
  C  C84  1  0.348800  0.993200  0.834300  1.0  0.6932
  C  C85  1  0.006000  0.925600  0.702700  1.0  -0.1247
  C  C86  1  0.967400  0.038100  0.663500  1.0  -0.0364
  C  C87  1  0.490300  0.015900  0.641300  1.0  -0.0625
  C  C88  1  0.959400  0.812100  0.726900  1.0  0.0138
  C  C89  1  0.577100  0.008400  0.643200  1.0  -0.0388
  C  C90  1  0.836800  0.930800  0.675700  1.0  0.0634
  C  C91  1  0.883200  0.037900  0.650300  1.0  -0.1491
  C  C92  1  0.619800  0.894600  0.676500  1.0  0.0202
  C  C93  1  0.577300  0.784600  0.706900  1.0  -0.1084
  C  C94  1  0.873600  0.813700  0.713700  1.0  -0.0566
  C  C95  1  0.004900  0.314400  0.453600  1.0  -0.224
  C  C96  1  0.890700  0.141700  0.429800  1.0  -0.091
  C  C97  1  0.965600  0.423400  0.413000  1.0  -0.0208
  C  C98  1  0.597500  0.569900  0.219300  1.0  0.7009
  C  C99  1  0.852300  0.252000  0.390000  1.0  -0.0438
  C  C100  1  0.856300  0.584300  0.176600  1.0  0.7369
  C  C101  1  0.968100  0.174000  0.461000  1.0  0.2354
  C  C102  1  0.948300  0.593700  0.173100  1.0  -0.134
  C  C103  1  0.889900  0.390800  0.379900  1.0  -0.1316
  C  C104  1  0.992800  0.710000  0.205600  1.0  -0.0076
  C  C105  1  0.848800  0.506800  0.334300  1.0  0.6935
  C  C106  1  0.506000  0.574400  0.202700  1.0  -0.1244
  C  C107  1  0.467400  0.461900  0.163500  1.0  -0.0365
  C  C108  1  0.990300  0.484100  0.141300  1.0  -0.0618
  C  C109  1  0.459400  0.687900  0.226900  1.0  0.0144
  C  C110  1  0.077100  0.491600  0.143200  1.0  -0.0393
  C  C111  1  0.336800  0.569200  0.175700  1.0  0.0642
  C  C112  1  0.383200  0.462100  0.150300  1.0  -0.1483
  C  C113  1  0.119800  0.605400  0.176500  1.0  0.0195
  C  C114  1  0.077300  0.715400  0.206900  1.0  -0.1082
  C  C115  1  0.373600  0.686300  0.213700  1.0  -0.0573
  C  C116  1  0.495100  0.814400  0.046400  1.0  -0.2221
  C  C117  1  0.609300  0.641700  0.070200  1.0  -0.0895
  C  C118  1  0.534400  0.923400  0.087000  1.0  -0.02
  C  C119  1  0.902500  0.069900  0.280700  1.0  0.7003
  C  C120  1  0.647700  0.752000  0.110000  1.0  -0.0413
  C  C121  1  0.643700  0.084300  0.323400  1.0  0.736
  C  C122  1  0.531900  0.674000  0.039000  1.0  0.2357
  C  C123  1  0.551700  0.093700  0.326900  1.0  -0.1322
  C  C124  1  0.610100  0.890800  0.120100  1.0  -0.1316
  C  C125  1  0.507200  0.210000  0.294400  1.0  -0.0084
  C  C126  1  0.651200  0.006800  0.165700  1.0  0.6932
  C  C127  1  0.994000  0.074400  0.297300  1.0  -0.1246
  C  C128  1  0.032600  0.961900  0.336500  1.0  -0.0358
  C  C129  1  0.509700  0.984100  0.358700  1.0  -0.0627
  C  C130  1  0.040600  0.187900  0.273100  1.0  0.0156
  C  C131  1  0.422900  0.991600  0.356800  1.0  -0.0382
  C  C132  1  0.163200  0.069200  0.324300  1.0  0.0666
  C  C133  1  0.116800  0.962100  0.349700  1.0  -0.1466
  C  C134  1  0.380200  0.105400  0.323500  1.0  0.0197
  C  C135  1  0.422700  0.215400  0.293100  1.0  -0.1075
  C  C136  1  0.126400  0.186300  0.286300  1.0  -0.0588
  N  N137  1  0.984900  0.933900  0.499500  1.0  -0.1806
  N  N138  1  0.756500  0.459900  0.839900  1.0  -0.2874
  N  N139  1  0.784800  0.361300  0.811300  1.0  -0.2887
  N  N140  1  0.515100  0.433900  0.000500  1.0  -0.1797
  N  N141  1  0.743500  0.959900  0.660100  1.0  -0.2863
  N  N142  1  0.715200  0.861300  0.688700  1.0  -0.2889
  N  N143  1  0.015100  0.066100  0.500500  1.0  -0.1804
  N  N144  1  0.243500  0.540100  0.160100  1.0  -0.2855
  N  N145  1  0.215200  0.638700  0.188700  1.0  -0.289
  N  N146  1  0.484900  0.566100  0.999500  1.0  -0.1796
  N  N147  1  0.256500  0.040100  0.339900  1.0  -0.2861
  N  N148  1  0.284800  0.138700  0.311300  1.0  -0.2899
  O  O149  1  0.178800  0.299000  0.802610  1.0  -0.6511
  O  O150  1  0.125300  0.357400  0.661900  1.0  -0.6257
  O  O151  1  0.370400  0.319900  0.748490  1.0  -0.6867
  O  O152  1  0.363600  0.543100  0.799080  1.0  -0.682
  O  O153  1  0.179800  0.536700  0.840860  1.0  -0.6834
  O  O154  1  0.211700  0.531300  0.704680  1.0  -0.7831
  O  O155  1  0.321200  0.799000  0.697390  1.0  -0.6511
  O  O156  1  0.374700  0.857400  0.838100  1.0  -0.623
  O  O157  1  0.129600  0.819900  0.751510  1.0  -0.6872
  O  O158  1  0.136400  0.043100  0.700920  1.0  -0.6816
  O  O159  1  0.320200  0.036700  0.659140  1.0  -0.6834
  O  O160  1  0.288300  0.031300  0.795320  1.0  -0.7833
  O  O161  1  0.821200  0.701000  0.197390  1.0  -0.6506
  O  O162  1  0.874700  0.642600  0.338100  1.0  -0.6251
  O  O163  1  0.629600  0.680100  0.251510  1.0  -0.6875
  O  O164  1  0.636400  0.456900  0.200920  1.0  -0.6816
  O  O165  1  0.820200  0.463300  0.159140  1.0  -0.6828
  O  O166  1  0.788300  0.468700  0.295320  1.0  -0.7834
  O  O167  1  0.678800  0.201000  0.302610  1.0  -0.6501
  O  O168  1  0.625300  0.142600  0.161900  1.0  -0.625
  O  O169  1  0.870400  0.180100  0.248490  1.0  -0.687
  O  O170  1  0.863600  0.956900  0.299080  1.0  -0.6821
  O  O171  1  0.679800  0.963300  0.340860  1.0  -0.6827
  O  O172  1  0.711700  0.968700  0.204680  1.0  -0.7829
