# generated using pymatgen
data_NaCo3H24C36(NO)12
_symmetry_space_group_name_H-M   'P 1'
_cell_length_a   13.11910000
_cell_length_b   13.11910000
_cell_length_c   16.01400000
_cell_angle_alpha   90.00000000
_cell_angle_beta   90.00000000
_cell_angle_gamma   120.00000000
_symmetry_Int_Tables_number   1
_chemical_formula_structural   NaCo3H24C36(NO)12
_chemical_formula_sum   'Na2 Co6 H48 C72 N24 O24'
_cell_volume   2386.92372294
_cell_formula_units_Z   2
loop_
 _symmetry_equiv_pos_site_id
 _symmetry_equiv_pos_as_xyz
  1  'x, y, z'
loop_
 _atom_site_type_symbol
 _atom_site_label
 _atom_site_symmetry_multiplicity
 _atom_site_fract_x
 _atom_site_fract_y
 _atom_site_fract_z
 _atom_site_occupancy
 _atom_site_charge
  Na  Na1  1  0.333333  0.666667  0.270400  1.0  0.992
  Na  Na2  1  0.666667  0.333333  0.770400  1.0  0.992
  Co  Co3  1  0.473360  0.517930  0.271710  1.0  0.9304
  Co  Co4  1  0.482070  0.955430  0.271710  1.0  0.9303
  Co  Co5  1  0.044570  0.526640  0.271710  1.0  0.9297
  Co  Co6  1  0.526640  0.482070  0.771710  1.0  0.9299
  Co  Co7  1  0.517930  0.044570  0.771710  1.0  0.9306
  Co  Co8  1  0.955430  0.473360  0.771710  1.0  0.9283
  H  H9  1  0.485500  0.774700  0.077700  1.0  0.0976
  H  H10  1  0.468300  0.869700  0.933500  1.0  0.1297
  H  H11  1  0.699300  0.812000  0.028900  1.0  0.121
  H  H12  1  0.265600  0.350100  0.505800  1.0  0.1072
  H  H13  1  0.211500  0.518800  0.461500  1.0  0.1023
  H  H14  1  0.059000  0.524200  0.581400  1.0  0.1076
  H  H15  1  0.126600  0.369800  0.764800  1.0  0.0994
  H  H16  1  0.753200  0.045700  0.803400  1.0  0.076
  H  H17  1  0.225300  0.710800  0.077700  1.0  0.0972
  H  H18  1  0.130300  0.598600  0.933500  1.0  0.1306
  H  H19  1  0.188000  0.887300  0.028900  1.0  0.1212
  H  H20  1  0.649900  0.915500  0.505800  1.0  0.1067
  H  H21  1  0.481200  0.692700  0.461500  1.0  0.1017
  H  H22  1  0.475800  0.534800  0.581400  1.0  0.1084
  H  H23  1  0.630200  0.756800  0.764800  1.0  0.0988
  H  H24  1  0.954300  0.707500  0.803400  1.0  0.0753
  H  H25  1  0.289200  0.514500  0.077700  1.0  0.0967
  H  H26  1  0.401400  0.531700  0.933500  1.0  0.1302
  H  H27  1  0.112700  0.300700  0.028900  1.0  0.1215
  H  H28  1  0.084500  0.734400  0.505800  1.0  0.1068
  H  H29  1  0.307300  0.788500  0.461500  1.0  0.1022
  H  H30  1  0.465200  0.941000  0.581400  1.0  0.1077
  H  H31  1  0.243200  0.873400  0.764800  1.0  0.0995
  H  H32  1  0.292500  0.246800  0.803400  1.0  0.0763
  H  H33  1  0.514500  0.225300  0.577700  1.0  0.0981
  H  H34  1  0.531700  0.130300  0.433500  1.0  0.1298
  H  H35  1  0.300700  0.188000  0.528900  1.0  0.1204
  H  H36  1  0.734400  0.649900  0.005800  1.0  0.1073
  H  H37  1  0.788500  0.481200  0.961500  1.0  0.1023
  H  H38  1  0.941000  0.475800  0.081400  1.0  0.1081
  H  H39  1  0.873400  0.630200  0.264800  1.0  0.0995
  H  H40  1  0.246800  0.954300  0.303400  1.0  0.0769
  H  H41  1  0.774700  0.289200  0.577700  1.0  0.0969
  H  H42  1  0.869700  0.401400  0.433500  1.0  0.1303
  H  H43  1  0.812000  0.112700  0.528900  1.0  0.1199
  H  H44  1  0.350100  0.084500  0.005800  1.0  0.1066
  H  H45  1  0.518800  0.307300  0.961500  1.0  0.102
  H  H46  1  0.524200  0.465200  0.081400  1.0  0.1082
  H  H47  1  0.369800  0.243200  0.264800  1.0  0.1
  H  H48  1  0.045700  0.292500  0.303400  1.0  0.0748
  H  H49  1  0.710800  0.485500  0.577700  1.0  0.097
  H  H50  1  0.598600  0.468300  0.433500  1.0  0.1304
  H  H51  1  0.887300  0.699300  0.528900  1.0  0.1214
  H  H52  1  0.915500  0.265600  0.005800  1.0  0.107
  H  H53  1  0.692700  0.211500  0.961500  1.0  0.102
  H  H54  1  0.534800  0.059000  0.081400  1.0  0.1074
  H  H55  1  0.756800  0.126600  0.264800  1.0  0.0991
  H  H56  1  0.707500  0.753200  0.303400  1.0  0.0763
  C  C57  1  0.563300  0.691800  0.146000  1.0  0.703
  C  C58  1  0.551800  0.766300  0.078700  1.0  -0.1649
  C  C59  1  0.332200  0.431700  0.392300  1.0  0.6786
  C  C60  1  0.545300  0.902600  0.914400  1.0  0.0276
  C  C61  1  0.632300  0.818500  0.022500  1.0  -0.0815
  C  C62  1  0.631900  0.887100  0.949300  1.0  0.1575
  C  C63  1  0.268600  0.408800  0.471600  1.0  -0.0987
  C  C64  1  0.215400  0.465400  0.497800  1.0  -0.1334
  C  C65  1  0.162100  0.449400  0.580200  1.0  0.0542
  C  C66  1  0.088000  0.483300  0.611200  1.0  0.0775
  C  C67  1  0.124000  0.398500  0.712200  1.0  0.2769
  C  C68  1  0.700200  0.997700  0.844000  1.0  0.2728
  C  C69  1  0.308200  0.871500  0.146000  1.0  0.7036
  C  C70  1  0.233700  0.785500  0.078700  1.0  -0.1645
  C  C71  1  0.568300  0.900500  0.392300  1.0  0.6814
  C  C72  1  0.097400  0.642700  0.914400  1.0  0.0278
  C  C73  1  0.181500  0.813800  0.022500  1.0  -0.0848
  C  C74  1  0.112900  0.744800  0.949300  1.0  0.1597
  C  C75  1  0.591200  0.859800  0.471600  1.0  -0.0964
  C  C76  1  0.534600  0.750000  0.497800  1.0  -0.1319
  C  C77  1  0.550600  0.712700  0.580200  1.0  0.0547
  C  C78  1  0.516700  0.604700  0.611200  1.0  0.0777
  C  C79  1  0.601500  0.725500  0.712200  1.0  0.2766
  C  C80  1  0.002300  0.702500  0.844000  1.0  0.2729
  C  C81  1  0.128500  0.436700  0.146000  1.0  0.7018
  C  C82  1  0.214500  0.448200  0.078700  1.0  -0.1612
  C  C83  1  0.099500  0.667800  0.392300  1.0  0.6792
  C  C84  1  0.357300  0.454700  0.914400  1.0  0.0257
  C  C85  1  0.186200  0.367700  0.022500  1.0  -0.0862
  C  C86  1  0.255200  0.368100  0.949300  1.0  0.157
  C  C87  1  0.140200  0.731400  0.471600  1.0  -0.0974
  C  C88  1  0.250000  0.784600  0.497800  1.0  -0.1294
  C  C89  1  0.287300  0.837900  0.580200  1.0  0.0543
  C  C90  1  0.395300  0.912000  0.611200  1.0  0.0764
  C  C91  1  0.274500  0.876000  0.712200  1.0  0.2788
  C  C92  1  0.297500  0.299800  0.844000  1.0  0.2715
  C  C93  1  0.436700  0.308200  0.646000  1.0  0.703
  C  C94  1  0.448200  0.233700  0.578700  1.0  -0.1637
  C  C95  1  0.667800  0.568300  0.892300  1.0  0.6794
  C  C96  1  0.454700  0.097400  0.414400  1.0  0.0275
  C  C97  1  0.367700  0.181500  0.522500  1.0  -0.0838
  C  C98  1  0.368100  0.112900  0.449300  1.0  0.158
  C  C99  1  0.731400  0.591200  0.971600  1.0  -0.101
  C  C100  1  0.784600  0.534600  0.997800  1.0  -0.1299
  C  C101  1  0.837900  0.550600  0.080200  1.0  0.0544
  C  C102  1  0.912000  0.516700  0.111200  1.0  0.0771
  C  C103  1  0.876000  0.601500  0.212200  1.0  0.2762
  C  C104  1  0.299800  0.002300  0.344000  1.0  0.2708
  C  C105  1  0.691800  0.128500  0.646000  1.0  0.7051
  C  C106  1  0.766300  0.214500  0.578700  1.0  -0.1664
  C  C107  1  0.431700  0.099500  0.892300  1.0  0.6806
  C  C108  1  0.902600  0.357300  0.414400  1.0  0.0277
  C  C109  1  0.818500  0.186200  0.522500  1.0  -0.0817
  C  C110  1  0.887100  0.255200  0.449300  1.0  0.1572
  C  C111  1  0.408800  0.140200  0.971600  1.0  -0.0977
  C  C112  1  0.465400  0.250000  0.997800  1.0  -0.1294
  C  C113  1  0.449400  0.287300  0.080200  1.0  0.0535
  C  C114  1  0.483300  0.395300  0.111200  1.0  0.078
  C  C115  1  0.398500  0.274500  0.212200  1.0  0.2768
  C  C116  1  0.997700  0.297500  0.344000  1.0  0.2728
  C  C117  1  0.871500  0.563300  0.646000  1.0  0.7019
  C  C118  1  0.785500  0.551800  0.578700  1.0  -0.1647
  C  C119  1  0.900500  0.332200  0.892300  1.0  0.6801
  C  C120  1  0.642700  0.545300  0.414400  1.0  0.0269
  C  C121  1  0.813800  0.632300  0.522500  1.0  -0.0844
  C  C122  1  0.744800  0.631900  0.449300  1.0  0.1579
  C  C123  1  0.859800  0.268600  0.971600  1.0  -0.0964
  C  C124  1  0.750000  0.215400  0.997800  1.0  -0.1329
  C  C125  1  0.712700  0.162100  0.080200  1.0  0.0534
  C  C126  1  0.604700  0.088000  0.111200  1.0  0.0772
  C  C127  1  0.725500  0.124000  0.212200  1.0  0.2791
  C  C128  1  0.702500  0.700200  0.344000  1.0  0.2722
  N  N129  1  0.727500  0.947400  0.903100  1.0  -0.3188
  N  N130  1  0.183300  0.394400  0.645500  1.0  -0.4023
  N  N131  1  0.061300  0.448700  0.693300  1.0  -0.3908
  N  N132  1  0.590900  0.974100  0.847300  1.0  -0.3698
  N  N133  1  0.052600  0.780100  0.903100  1.0  -0.3189
  N  N134  1  0.605600  0.788900  0.645500  1.0  -0.4
  N  N135  1  0.551300  0.612600  0.693300  1.0  -0.3906
  N  N136  1  0.025900  0.616800  0.847300  1.0  -0.3699
  N  N137  1  0.219900  0.272500  0.903100  1.0  -0.3139
  N  N138  1  0.211100  0.816700  0.645500  1.0  -0.399
  N  N139  1  0.387400  0.938700  0.693300  1.0  -0.3917
  N  N140  1  0.383200  0.409100  0.847300  1.0  -0.3713
  N  N141  1  0.272500  0.052600  0.403100  1.0  -0.3167
  N  N142  1  0.816700  0.605600  0.145500  1.0  -0.4015
  N  N143  1  0.938700  0.551300  0.193300  1.0  -0.3916
  N  N144  1  0.409100  0.025900  0.347300  1.0  -0.3713
  N  N145  1  0.947400  0.219900  0.403100  1.0  -0.3172
  N  N146  1  0.394400  0.211100  0.145500  1.0  -0.4007
  N  N147  1  0.448700  0.387400  0.193300  1.0  -0.3898
  N  N148  1  0.974100  0.383200  0.347300  1.0  -0.3694
  N  N149  1  0.780100  0.727500  0.403100  1.0  -0.3165
  N  N150  1  0.788900  0.183300  0.145500  1.0  -0.4008
  N  N151  1  0.612600  0.061300  0.193300  1.0  -0.3915
  N  N152  1  0.616800  0.590900  0.347300  1.0  -0.3712
  O  O153  1  0.381200  0.373900  0.375200  1.0  -0.5837
  O  O154  1  0.474900  0.640700  0.194700  1.0  -0.6609
  O  O155  1  0.650100  0.681300  0.150900  1.0  -0.5142
  O  O156  1  0.341000  0.512600  0.342400  1.0  -0.6351
  O  O157  1  0.626100  0.007300  0.375200  1.0  -0.5845
  O  O158  1  0.359300  0.834200  0.194700  1.0  -0.6604
  O  O159  1  0.318700  0.968800  0.150900  1.0  -0.5129
  O  O160  1  0.487400  0.828400  0.342400  1.0  -0.637
  O  O161  1  0.992700  0.618800  0.375200  1.0  -0.5843
  O  O162  1  0.165800  0.525100  0.194700  1.0  -0.6615
  O  O163  1  0.031200  0.349900  0.150900  1.0  -0.5122
  O  O164  1  0.171600  0.659000  0.342400  1.0  -0.635
  O  O165  1  0.618800  0.626100  0.875200  1.0  -0.5823
  O  O166  1  0.525100  0.359300  0.694700  1.0  -0.6611
  O  O167  1  0.349900  0.318700  0.650900  1.0  -0.514
  O  O168  1  0.659000  0.487400  0.842400  1.0  -0.6351
  O  O169  1  0.373900  0.992700  0.875200  1.0  -0.586
  O  O170  1  0.640700  0.165800  0.694700  1.0  -0.6621
  O  O171  1  0.681300  0.031200  0.650900  1.0  -0.5121
  O  O172  1  0.512600  0.171600  0.842400  1.0  -0.6373
  O  O173  1  0.007300  0.381200  0.875200  1.0  -0.5838
  O  O174  1  0.834200  0.474900  0.694700  1.0  -0.6602
  O  O175  1  0.968800  0.650100  0.650900  1.0  -0.5123
  O  O176  1  0.828400  0.341000  0.842400  1.0  -0.635
