# generated using pymatgen
data_NaCo3H27C36(NO)12
_symmetry_space_group_name_H-M   'P 1'
_cell_length_a   13.11770000
_cell_length_b   13.11770000
_cell_length_c   16.00500000
_cell_angle_alpha   90.00000000
_cell_angle_beta   90.00000000
_cell_angle_gamma   120.00000000
_symmetry_Int_Tables_number   1
_chemical_formula_structural   NaCo3H27C36(NO)12
_chemical_formula_sum   'Na2 Co6 H54 C72 N24 O24'
_cell_volume   2385.07312621
_cell_formula_units_Z   2
loop_
 _symmetry_equiv_pos_site_id
 _symmetry_equiv_pos_as_xyz
  1  'x, y, z'
loop_
 _atom_site_type_symbol
 _atom_site_label
 _atom_site_symmetry_multiplicity
 _atom_site_fract_x
 _atom_site_fract_y
 _atom_site_fract_z
 _atom_site_occupancy
 _atom_site_charge
  Na  Na1  1  0.333333  0.666667  0.093100  1.0  0.9712
  Na  Na2  1  0.666667  0.333333  0.593100  1.0  0.9712
  Co  Co3  1  0.044300  0.525970  0.091550  1.0  0.8927
  Co  Co4  1  0.474030  0.518330  0.091550  1.0  0.8939
  Co  Co5  1  0.481670  0.955700  0.091550  1.0  0.8926
  Co  Co6  1  0.955700  0.474030  0.591550  1.0  0.8927
  Co  Co7  1  0.525970  0.481670  0.591550  1.0  0.8937
  Co  Co8  1  0.518330  0.044300  0.591550  1.0  0.8935
  H  H9  1  0.113100  0.300600  0.333600  1.0  0.0858
  H  H10  1  0.308500  0.790000  0.901000  1.0  0.0725
  H  H11  1  0.085400  0.735400  0.857100  1.0  0.0773
  H  H12  1  0.136000  0.775200  0.719100  1.0  0.2888
  H  H13  1  0.402500  0.530800  0.426800  1.0  0.102
  H  H14  1  0.291400  0.246600  0.558900  1.0  0.083
  H  H15  1  0.155900  0.205800  0.452300  1.0  0.3129
  H  H16  1  0.290100  0.515300  0.284400  1.0  0.0733
  H  H17  1  0.486000  0.935000  0.770000  1.0  0.0915
  H  H18  1  0.699400  0.812500  0.333600  1.0  0.0865
  H  H19  1  0.210000  0.518500  0.901000  1.0  0.0728
  H  H20  1  0.264600  0.350000  0.857100  1.0  0.0784
  H  H21  1  0.224800  0.360800  0.719100  1.0  0.2897
  H  H22  1  0.469200  0.871700  0.426800  1.0  0.1021
  H  H23  1  0.753400  0.044800  0.558900  1.0  0.083
  H  H24  1  0.794200  0.950100  0.452300  1.0  0.3166
  H  H25  1  0.484700  0.774800  0.284400  1.0  0.0744
  H  H26  1  0.065000  0.551000  0.770000  1.0  0.0915
  H  H27  1  0.187500  0.886900  0.333600  1.0  0.0864
  H  H28  1  0.481500  0.691500  0.901000  1.0  0.0725
  H  H29  1  0.650000  0.914600  0.857100  1.0  0.078
  H  H30  1  0.639200  0.864000  0.719100  1.0  0.2903
  H  H31  1  0.128300  0.597500  0.426800  1.0  0.1029
  H  H32  1  0.955200  0.708600  0.558900  1.0  0.0839
  H  H33  1  0.049900  0.844100  0.452300  1.0  0.315
  H  H34  1  0.225200  0.709900  0.284400  1.0  0.0738
  H  H35  1  0.449000  0.514000  0.770000  1.0  0.0909
  H  H36  1  0.886900  0.699400  0.833600  1.0  0.0861
  H  H37  1  0.691500  0.210000  0.401000  1.0  0.0724
  H  H38  1  0.914600  0.264600  0.357100  1.0  0.0777
  H  H39  1  0.864000  0.224800  0.219100  1.0  0.2887
  H  H40  1  0.597500  0.469200  0.926800  1.0  0.1031
  H  H41  1  0.708600  0.753400  0.058900  1.0  0.083
  H  H42  1  0.844100  0.794200  0.952300  1.0  0.3131
  H  H43  1  0.709900  0.484700  0.784400  1.0  0.0734
  H  H44  1  0.514000  0.065000  0.270000  1.0  0.0916
  H  H45  1  0.300600  0.187500  0.833600  1.0  0.0865
  H  H46  1  0.790000  0.481500  0.401000  1.0  0.0729
  H  H47  1  0.735400  0.650000  0.357100  1.0  0.0783
  H  H48  1  0.775200  0.639200  0.219100  1.0  0.2918
  H  H49  1  0.530800  0.128300  0.926800  1.0  0.102
  H  H50  1  0.246600  0.955200  0.058900  1.0  0.0832
  H  H51  1  0.205800  0.049900  0.952300  1.0  0.3162
  H  H52  1  0.515300  0.225200  0.784400  1.0  0.0748
  H  H53  1  0.935000  0.449000  0.270000  1.0  0.0915
  H  H54  1  0.812500  0.113100  0.833600  1.0  0.0854
  H  H55  1  0.518500  0.308500  0.401000  1.0  0.0726
  H  H56  1  0.350000  0.085400  0.357100  1.0  0.0778
  H  H57  1  0.360800  0.136000  0.219100  1.0  0.2885
  H  H58  1  0.871700  0.402500  0.926800  1.0  0.103
  H  H59  1  0.044800  0.291400  0.058900  1.0  0.0838
  H  H60  1  0.950100  0.155900  0.952300  1.0  0.3123
  H  H61  1  0.774800  0.290100  0.784400  1.0  0.0738
  H  H62  1  0.551000  0.486000  0.270000  1.0  0.091
  C  C63  1  0.127200  0.436200  0.216500  1.0  0.6539
  C  C64  1  0.099400  0.667500  0.970800  1.0  0.6479
  C  C65  1  0.186300  0.367800  0.340300  1.0  -0.0917
  C  C66  1  0.250900  0.785600  0.864800  1.0  -0.1707
  C  C67  1  0.287700  0.838600  0.781400  1.0  0.0305
  C  C68  1  0.141000  0.732100  0.891300  1.0  -0.1291
  C  C69  1  0.395700  0.913900  0.750400  1.0  0.0953
  C  C70  1  0.357400  0.454500  0.447100  1.0  -0.0046
  C  C71  1  0.296700  0.300100  0.518600  1.0  0.1867
  C  C72  1  0.276500  0.877400  0.649900  1.0  0.1447
  C  C73  1  0.254600  0.368800  0.413600  1.0  0.1048
  C  C74  1  0.215300  0.449100  0.283800  1.0  -0.136
  C  C75  1  0.563800  0.691000  0.216500  1.0  0.654
  C  C76  1  0.332500  0.431900  0.970800  1.0  0.646
  C  C77  1  0.632200  0.818500  0.340300  1.0  -0.0896
  C  C78  1  0.214400  0.465300  0.864800  1.0  -0.1711
  C  C79  1  0.161400  0.449100  0.781400  1.0  0.0314
  C  C80  1  0.267900  0.408900  0.891300  1.0  -0.1299
  C  C81  1  0.086100  0.481800  0.750400  1.0  0.0955
  C  C82  1  0.545500  0.902900  0.447100  1.0  -0.0025
  C  C83  1  0.699900  0.996600  0.518600  1.0  0.1861
  C  C84  1  0.122600  0.399100  0.649900  1.0  0.1425
  C  C85  1  0.631200  0.885800  0.413600  1.0  0.1063
  C  C86  1  0.550900  0.766200  0.283800  1.0  -0.1402
  C  C87  1  0.309000  0.872800  0.216500  1.0  0.6553
  C  C88  1  0.568100  0.900600  0.970800  1.0  0.649
  C  C89  1  0.181500  0.813700  0.340300  1.0  -0.0933
  C  C90  1  0.534700  0.749100  0.864800  1.0  -0.1707
  C  C91  1  0.550900  0.712300  0.781400  1.0  0.0318
  C  C92  1  0.591100  0.859000  0.891300  1.0  -0.1291
  C  C93  1  0.518200  0.604300  0.750400  1.0  0.0943
  C  C94  1  0.097100  0.642600  0.447100  1.0  -0.0027
  C  C95  1  0.003400  0.703300  0.518600  1.0  0.1864
  C  C96  1  0.600900  0.723500  0.649900  1.0  0.1429
  C  C97  1  0.114200  0.745400  0.413600  1.0  0.1069
  C  C98  1  0.233800  0.784700  0.283800  1.0  -0.1392
  C  C99  1  0.872800  0.563800  0.716500  1.0  0.6545
  C  C100  1  0.900600  0.332500  0.470800  1.0  0.649
  C  C101  1  0.813700  0.632200  0.840300  1.0  -0.089
  C  C102  1  0.749100  0.214400  0.364800  1.0  -0.171
  C  C103  1  0.712300  0.161400  0.281400  1.0  0.0308
  C  C104  1  0.859000  0.267900  0.391300  1.0  -0.129
  C  C105  1  0.604300  0.086100  0.250400  1.0  0.0947
  C  C106  1  0.642600  0.545500  0.947100  1.0  -0.0048
  C  C107  1  0.703300  0.699900  0.018600  1.0  0.1851
  C  C108  1  0.723500  0.122600  0.149900  1.0  0.1426
  C  C109  1  0.745400  0.631200  0.913600  1.0  0.1062
  C  C110  1  0.784700  0.550900  0.783800  1.0  -0.1383
  C  C111  1  0.436200  0.309000  0.716500  1.0  0.6538
  C  C112  1  0.667500  0.568100  0.470800  1.0  0.6472
  C  C113  1  0.367800  0.181500  0.840300  1.0  -0.0921
  C  C114  1  0.785600  0.534700  0.364800  1.0  -0.171
  C  C115  1  0.838600  0.550900  0.281400  1.0  0.0312
  C  C116  1  0.732100  0.591100  0.391300  1.0  -0.1301
  C  C117  1  0.913900  0.518200  0.250400  1.0  0.0961
  C  C118  1  0.454500  0.097100  0.947100  1.0  -0.0038
  C  C119  1  0.300100  0.003400  0.018600  1.0  0.1865
  C  C120  1  0.877400  0.600900  0.149900  1.0  0.1426
  C  C121  1  0.368800  0.114200  0.913600  1.0  0.1059
  C  C122  1  0.449100  0.233800  0.783800  1.0  -0.1388
  C  C123  1  0.691000  0.127200  0.716500  1.0  0.6562
  C  C124  1  0.431900  0.099400  0.470800  1.0  0.6492
  C  C125  1  0.818500  0.186300  0.840300  1.0  -0.09
  C  C126  1  0.465300  0.250900  0.364800  1.0  -0.1704
  C  C127  1  0.449100  0.287700  0.281400  1.0  0.0313
  C  C128  1  0.408900  0.141000  0.391300  1.0  -0.1293
  C  C129  1  0.481800  0.395700  0.250400  1.0  0.0968
  C  C130  1  0.902900  0.357400  0.947100  1.0  -0.0022
  C  C131  1  0.996600  0.296700  0.018600  1.0  0.1869
  C  C132  1  0.399100  0.276500  0.149900  1.0  0.1433
  C  C133  1  0.885800  0.254600  0.913600  1.0  0.1053
  C  C134  1  0.766200  0.215300  0.783800  1.0  -0.1416
  N  N135  1  0.211400  0.818000  0.717200  1.0  -0.2637
  N  N136  1  0.386800  0.939000  0.669700  1.0  -0.3075
  N  N137  1  0.383000  0.408800  0.516200  1.0  -0.4195
  N  N138  1  0.218500  0.272900  0.459700  1.0  -0.2646
  N  N139  1  0.182000  0.393400  0.717200  1.0  -0.2629
  N  N140  1  0.061000  0.447800  0.669700  1.0  -0.3072
  N  N141  1  0.591200  0.974200  0.516200  1.0  -0.4194
  N  N142  1  0.727100  0.945600  0.459700  1.0  -0.2628
  N  N143  1  0.606600  0.788600  0.717200  1.0  -0.2613
  N  N144  1  0.552200  0.613200  0.669700  1.0  -0.3072
  N  N145  1  0.025800  0.617000  0.516200  1.0  -0.4172
  N  N146  1  0.054400  0.781500  0.459700  1.0  -0.2632
  N  N147  1  0.788600  0.182000  0.217200  1.0  -0.2629
  N  N148  1  0.613200  0.061000  0.169700  1.0  -0.3084
  N  N149  1  0.617000  0.591200  0.016200  1.0  -0.4188
  N  N150  1  0.781500  0.727100  0.959700  1.0  -0.2622
  N  N151  1  0.818000  0.606600  0.217200  1.0  -0.2619
  N  N152  1  0.939000  0.552200  0.169700  1.0  -0.308
  N  N153  1  0.408800  0.025800  0.016200  1.0  -0.4194
  N  N154  1  0.272900  0.054400  0.959700  1.0  -0.2647
  N  N155  1  0.393400  0.211400  0.217200  1.0  -0.263
  N  N156  1  0.447800  0.386800  0.169700  1.0  -0.3077
  N  N157  1  0.974200  0.383000  0.016200  1.0  -0.4176
  N  N158  1  0.945600  0.218500  0.959700  1.0  -0.2662
  O  O159  1  0.165700  0.525000  0.167800  1.0  -0.6955
  O  O160  1  0.172000  0.658800  0.020200  1.0  -0.66
  O  O161  1  0.031300  0.350600  0.211600  1.0  -0.5196
  O  O162  1  0.992600  0.618700  0.987200  1.0  -0.6126
  O  O163  1  0.475000  0.640700  0.167800  1.0  -0.6958
  O  O164  1  0.341200  0.513200  0.020200  1.0  -0.6593
  O  O165  1  0.649400  0.680700  0.211600  1.0  -0.5161
  O  O166  1  0.381300  0.373900  0.987200  1.0  -0.611
  O  O167  1  0.359300  0.834300  0.167800  1.0  -0.6957
  O  O168  1  0.486800  0.828000  0.020200  1.0  -0.6614
  O  O169  1  0.319300  0.968700  0.211600  1.0  -0.5193
  O  O170  1  0.626100  0.007400  0.987200  1.0  -0.6125
  O  O171  1  0.834300  0.475000  0.667800  1.0  -0.6959
  O  O172  1  0.828000  0.341200  0.520200  1.0  -0.6601
  O  O173  1  0.968700  0.649400  0.711600  1.0  -0.5203
  O  O174  1  0.007400  0.381300  0.487200  1.0  -0.6116
  O  O175  1  0.525000  0.359300  0.667800  1.0  -0.6957
  O  O176  1  0.658800  0.486800  0.520200  1.0  -0.6596
  O  O177  1  0.350600  0.319300  0.711600  1.0  -0.5151
  O  O178  1  0.618700  0.626100  0.487200  1.0  -0.611
  O  O179  1  0.640700  0.165700  0.667800  1.0  -0.6955
  O  O180  1  0.513200  0.172000  0.520200  1.0  -0.6629
  O  O181  1  0.680700  0.031300  0.711600  1.0  -0.5204
  O  O182  1  0.373900  0.992600  0.487200  1.0  -0.6129
