# generated using pymatgen
data_Cu5H30(C27O10)2
_symmetry_space_group_name_H-M   'P 1'
_cell_length_a   12.07900000
_cell_length_b   12.38200000
_cell_length_c   12.56800000
_cell_angle_alpha   99.99000000
_cell_angle_beta   96.00000000
_cell_angle_gamma   91.29000000
_symmetry_Int_Tables_number   1
_chemical_formula_structural   Cu5H30(C27O10)2
_chemical_formula_sum   'Cu5 H30 C54 O20'
_cell_volume   1839.47051331
_cell_formula_units_Z   1
loop_
 _symmetry_equiv_pos_site_id
 _symmetry_equiv_pos_as_xyz
  1  'x, y, z'
loop_
 _atom_site_type_symbol
 _atom_site_label
 _atom_site_symmetry_multiplicity
 _atom_site_fract_x
 _atom_site_fract_y
 _atom_site_fract_z
 _atom_site_occupancy
 _atom_site_charge
  Cu  Cu1  1  0.463190  0.903910  0.417470  1.0  0.8924
  Cu  Cu2  1  0.672810  0.038330  0.353890  1.0  0.8306
  Cu  Cu3  1  0.536810  0.096090  0.582530  1.0  0.8933
  Cu  Cu4  1  0.327190  0.961670  0.646110  1.0  0.8284
  Cu  Cu5  1  0.500000  0.000000  0.000000  1.0  0.8009
  H  H6  1  0.876200  0.530000  0.426700  1.0  0.1337
  H  H7  1  0.921300  0.613100  0.604500  1.0  0.1199
  H  H8  1  0.761500  0.368200  0.708300  1.0  0.1079
  H  H9  1  0.738000  0.509900  0.849200  1.0  0.113
  H  H10  1  0.952400  0.692000  0.078800  1.0  0.1097
  H  H11  1  0.036300  0.607200  0.777100  1.0  0.1096
  H  H12  1  0.691400  0.442300  0.001100  1.0  0.1172
  H  H13  1  0.553200  0.443600  0.119200  1.0  0.1188
  H  H14  1  0.768900  0.759000  0.128400  1.0  0.1144
  H  H15  1  0.139100  0.695700  0.123600  1.0  0.1159
  H  H16  1  0.309200  0.793000  0.178600  1.0  0.1084
  H  H17  1  0.139700  0.774200  0.827200  1.0  0.1104
  H  H18  1  0.502400  0.603800  0.310000  1.0  0.4668
  H  H19  1  0.769400  0.283300  0.344000  1.0  0.3671
  H  H20  1  0.649600  0.949400  0.504900  1.0  0.4701
  H  H21  1  0.123800  0.470000  0.573300  1.0  0.132
  H  H22  1  0.078700  0.386900  0.395500  1.0  0.1203
  H  H23  1  0.238500  0.631800  0.291700  1.0  0.1083
  H  H24  1  0.262000  0.490100  0.150800  1.0  0.114
  H  H25  1  0.047600  0.308000  0.921200  1.0  0.1093
  H  H26  1  0.963700  0.392800  0.222900  1.0  0.1097
  H  H27  1  0.308600  0.557700  0.998900  1.0  0.1175
  H  H28  1  0.446800  0.556400  0.880800  1.0  0.1198
  H  H29  1  0.231100  0.241000  0.871600  1.0  0.1149
  H  H30  1  0.860900  0.304300  0.876400  1.0  0.1158
  H  H31  1  0.690800  0.207000  0.821400  1.0  0.1079
  H  H32  1  0.860300  0.225800  0.172800  1.0  0.1116
  H  H33  1  0.497600  0.396200  0.690000  1.0  0.4658
  H  H34  1  0.230600  0.716700  0.656000  1.0  0.3681
  H  H35  1  0.350400  0.050600  0.495100  1.0  0.4684
  C  C36  1  0.686100  0.243800  0.521500  1.0  0.7085
  C  C37  1  0.755900  0.347500  0.541900  1.0  -0.2063
  C  C38  1  0.791000  0.397200  0.458200  1.0  0.2832
  C  C39  1  0.853400  0.496600  0.482900  1.0  -0.2007
  C  C40  1  0.881300  0.545300  0.589000  1.0  -0.1084
  C  C41  1  0.851500  0.496300  0.675800  1.0  0.0565
  C  C42  1  0.786100  0.399600  0.651600  1.0  -0.0493
  C  C43  1  0.881900  0.550300  0.792000  1.0  0.0421
  C  C44  1  0.807500  0.547400  0.870000  1.0  -0.1027
  C  C45  1  0.834400  0.599400  0.978700  1.0  0.0112
  C  C46  1  0.935000  0.655700  0.006600  1.0  -0.1284
  C  C47  1  0.012500  0.661800  0.933900  1.0  0.0203
  C  C48  1  0.984000  0.606500  0.827400  1.0  -0.1048
  C  C49  1  0.746200  0.599900  0.055200  1.0  0.0278
  C  C50  1  0.680000  0.506600  0.050200  1.0  -0.1594
  C  C51  1  0.595200  0.508400  0.119100  1.0  -0.0903
  C  C52  1  0.573000  0.603200  0.186200  1.0  0.2999
  C  C53  1  0.638800  0.697900  0.193500  1.0  -0.0728
  C  C54  1  0.724700  0.694900  0.125900  1.0  -0.0607
  C  C55  1  0.619200  0.800900  0.267900  1.0  0.681
  C  C56  1  0.121200  0.722300  0.967700  1.0  0.0315
  C  C57  1  0.172700  0.730900  0.074000  1.0  -0.0994
  C  C58  1  0.274500  0.791500  0.107800  1.0  -0.1157
  C  C59  1  0.323900  0.848600  0.039200  1.0  0.2358
  C  C60  1  0.274000  0.838700  0.929600  1.0  -0.1294
  C  C61  1  0.173600  0.777800  0.898600  1.0  -0.0548
  C  C62  1  0.323600  0.898100  0.849600  1.0  0.7045
  C  C63  1  0.313900  0.756200  0.478500  1.0  0.7085
  C  C64  1  0.244100  0.652500  0.458100  1.0  -0.207
  C  C65  1  0.209000  0.602800  0.541800  1.0  0.2829
  C  C66  1  0.146600  0.503400  0.517100  1.0  -0.2018
  C  C67  1  0.118700  0.454700  0.411000  1.0  -0.1086
  C  C68  1  0.148500  0.503700  0.324200  1.0  0.0561
  C  C69  1  0.213900  0.600400  0.348400  1.0  -0.0488
  C  C70  1  0.118100  0.449700  0.208000  1.0  0.0423
  C  C71  1  0.192500  0.452600  0.130000  1.0  -0.1009
  C  C72  1  0.165600  0.400600  0.021300  1.0  0.012
  C  C73  1  0.065000  0.344300  0.993400  1.0  -0.1275
  C  C74  1  0.987500  0.338200  0.066100  1.0  0.0206
  C  C75  1  0.016000  0.393500  0.172600  1.0  -0.105
  C  C76  1  0.253800  0.400100  0.944800  1.0  0.0285
  C  C77  1  0.320000  0.493400  0.949800  1.0  -0.1601
  C  C78  1  0.404800  0.491600  0.880900  1.0  -0.0908
  C  C79  1  0.427000  0.396800  0.813800  1.0  0.2985
  C  C80  1  0.361200  0.302100  0.806500  1.0  -0.0732
  C  C81  1  0.275300  0.305100  0.874100  1.0  -0.0618
  C  C82  1  0.380800  0.199100  0.732100  1.0  0.6814
  C  C83  1  0.878800  0.277700  0.032300  1.0  0.0316
  C  C84  1  0.827300  0.269100  0.926000  1.0  -0.0983
  C  C85  1  0.725500  0.208500  0.892200  1.0  -0.1151
  C  C86  1  0.676100  0.151400  0.960800  1.0  0.2365
  C  C87  1  0.726000  0.161300  0.070400  1.0  -0.1298
  C  C88  1  0.826400  0.222200  0.101400  1.0  -0.0551
  C  C89  1  0.676400  0.101900  0.150400  1.0  0.7055
  O  O90  1  0.659700  0.198800  0.421900  1.0  -0.6119
  O  O91  1  0.656500  0.206900  0.601100  1.0  -0.5698
  O  O92  1  0.481100  0.595800  0.244000  1.0  -0.5527
  O  O93  1  0.535800  0.796300  0.321300  1.0  -0.604
  O  O94  1  0.680300  0.885400  0.272300  1.0  -0.6226
  O  O95  1  0.418200  0.908100  0.078100  1.0  -0.5914
  O  O96  1  0.419100  0.943000  0.872300  1.0  -0.5985
  O  O97  1  0.269000  0.898400  0.760300  1.0  -0.5895
  O  O98  1  0.767200  0.351100  0.350800  1.0  -0.5168
  O  O99  1  0.605100  0.989100  0.474600  1.0  -0.9687
  O  O100  1  0.340300  0.801200  0.578100  1.0  -0.6109
  O  O101  1  0.343500  0.793100  0.398900  1.0  -0.5682
  O  O102  1  0.518900  0.404200  0.756000  1.0  -0.5522
  O  O103  1  0.464200  0.203700  0.678700  1.0  -0.6041
  O  O104  1  0.319700  0.114600  0.727700  1.0  -0.6215
  O  O105  1  0.581800  0.091900  0.921900  1.0  -0.5943
  O  O106  1  0.580900  0.057000  0.127700  1.0  -0.5982
  O  O107  1  0.731000  0.101600  0.239700  1.0  -0.59
  O  O108  1  0.232800  0.648900  0.649200  1.0  -0.5199
  O  O109  1  0.394900  0.010900  0.525400  1.0  -0.9666
