# generated using pymatgen
data_AgH8C9N4
_symmetry_space_group_name_H-M   'P 1'
_cell_length_a   28.95890000
_cell_length_b   28.95890000
_cell_length_c   14.56530000
_cell_angle_alpha   90.00000000
_cell_angle_beta   90.00000000
_cell_angle_gamma   120.00000000
_symmetry_Int_Tables_number   1
_chemical_formula_structural   AgH8C9N4
_chemical_formula_sum   'Ag18 H144 C162 N72'
_cell_volume   10578.25880886
_cell_formula_units_Z   18
loop_
 _symmetry_equiv_pos_site_id
 _symmetry_equiv_pos_as_xyz
  1  'x, y, z'
loop_
 _atom_site_type_symbol
 _atom_site_label
 _atom_site_symmetry_multiplicity
 _atom_site_fract_x
 _atom_site_fract_y
 _atom_site_fract_z
 _atom_site_occupancy
 _atom_site_charge
  Ag  Ag1  1  0.601660  0.063530  0.743240  1.0  0.3159
  Ag  Ag2  1  0.268330  0.396860  0.076570  1.0  0.3159
  Ag  Ag3  1  0.934990  0.730200  0.409910  1.0  0.3164
  Ag  Ag4  1  0.936470  0.538130  0.743240  1.0  0.3169
  Ag  Ag5  1  0.603140  0.871460  0.076570  1.0  0.3169
  Ag  Ag6  1  0.269800  0.204800  0.409910  1.0  0.317
  Ag  Ag7  1  0.461870  0.398340  0.743240  1.0  0.3168
  Ag  Ag8  1  0.128540  0.731670  0.076570  1.0  0.3162
  Ag  Ag9  1  0.795200  0.065010  0.409910  1.0  0.3168
  Ag  Ag10  1  0.398340  0.936470  0.256760  1.0  0.3199
  Ag  Ag11  1  0.065010  0.269800  0.590090  1.0  0.3201
  Ag  Ag12  1  0.731670  0.603140  0.923430  1.0  0.3199
  Ag  Ag13  1  0.063530  0.461870  0.256760  1.0  0.316
  Ag  Ag14  1  0.730200  0.795200  0.590090  1.0  0.3161
  Ag  Ag15  1  0.396860  0.128540  0.923430  1.0  0.316
  Ag  Ag16  1  0.538130  0.601660  0.256760  1.0  0.3206
  Ag  Ag17  1  0.204800  0.934990  0.590090  1.0  0.3206
  Ag  Ag18  1  0.871460  0.268330  0.923430  1.0  0.3201
  H  H19  1  0.803200  0.226500  0.745400  1.0  0.0734
  H  H20  1  0.741400  0.195600  0.625400  1.0  0.0656
  H  H21  1  0.679900  0.167200  0.654100  1.0  0.0765
  H  H22  1  0.763100  0.166500  0.994600  1.0  0.0619
  H  H23  1  0.773600  0.145400  0.542900  1.0  0.066
  H  H24  1  0.681700  0.102000  0.941700  1.0  0.074
  H  H25  1  0.674900  0.994700  0.485800  1.0  0.0487
  H  H26  1  0.613400  0.994000  0.586600  1.0  0.0561
  H  H27  1  0.469870  0.559830  0.078730  1.0  0.0734
  H  H28  1  0.408070  0.528930  0.958730  1.0  0.0656
  H  H29  1  0.346570  0.500530  0.987430  1.0  0.0765
  H  H30  1  0.429770  0.499830  0.327930  1.0  0.0619
  H  H31  1  0.440270  0.478730  0.876230  1.0  0.066
  H  H32  1  0.348370  0.435330  0.275030  1.0  0.074
  H  H33  1  0.341570  0.328030  0.819130  1.0  0.0487
  H  H34  1  0.280070  0.327330  0.919930  1.0  0.056
  H  H35  1  0.136530  0.893170  0.412070  1.0  0.0734
  H  H36  1  0.074730  0.862270  0.292070  1.0  0.0656
  H  H37  1  0.013230  0.833870  0.320770  1.0  0.077
  H  H38  1  0.096430  0.833170  0.661270  1.0  0.0619
  H  H39  1  0.106930  0.812070  0.209570  1.0  0.066
  H  H40  1  0.015030  0.768670  0.608370  1.0  0.074
  H  H41  1  0.008230  0.661370  0.152470  1.0  0.0487
  H  H42  1  0.946730  0.660670  0.253270  1.0  0.056
  H  H43  1  0.773500  0.576700  0.745400  1.0  0.073
  H  H44  1  0.804400  0.545800  0.625400  1.0  0.0652
  H  H45  1  0.832800  0.512700  0.654100  1.0  0.0823
  H  H46  1  0.833500  0.596600  0.994600  1.0  0.0615
  H  H47  1  0.854600  0.628200  0.542900  1.0  0.0649
  H  H48  1  0.898000  0.579700  0.941700  1.0  0.0732
  H  H49  1  0.005300  0.680200  0.485800  1.0  0.0489
  H  H50  1  0.006000  0.619400  0.586600  1.0  0.0557
  H  H51  1  0.440170  0.910030  0.078730  1.0  0.073
  H  H52  1  0.471070  0.879130  0.958730  1.0  0.0652
  H  H53  1  0.499470  0.846030  0.987430  1.0  0.0823
  H  H54  1  0.500170  0.929930  0.327930  1.0  0.0615
  H  H55  1  0.521270  0.961530  0.876230  1.0  0.0649
  H  H56  1  0.564670  0.913030  0.275030  1.0  0.0732
  H  H57  1  0.671970  0.013530  0.819130  1.0  0.0489
  H  H58  1  0.672670  0.952730  0.919930  1.0  0.0557
  H  H59  1  0.106830  0.243370  0.412070  1.0  0.0729
  H  H60  1  0.137730  0.212470  0.292070  1.0  0.0652
  H  H61  1  0.166130  0.179370  0.320770  1.0  0.0824
  H  H62  1  0.166830  0.263270  0.661270  1.0  0.0615
  H  H63  1  0.187930  0.294870  0.209570  1.0  0.0649
  H  H64  1  0.231330  0.246370  0.608370  1.0  0.0732
  H  H65  1  0.338630  0.346870  0.152470  1.0  0.0489
  H  H66  1  0.339330  0.286070  0.253270  1.0  0.0557
  H  H67  1  0.423300  0.196800  0.745400  1.0  0.0727
  H  H68  1  0.454200  0.258600  0.625400  1.0  0.068
  H  H69  1  0.487300  0.320100  0.654100  1.0  0.0858
  H  H70  1  0.403400  0.236900  0.994600  1.0  0.0614
  H  H71  1  0.371800  0.226400  0.542900  1.0  0.0658
  H  H72  1  0.420300  0.318300  0.941700  1.0  0.074
  H  H73  1  0.319800  0.325100  0.485800  1.0  0.049
  H  H74  1  0.380600  0.386600  0.586600  1.0  0.057
  H  H75  1  0.089970  0.530130  0.078730  1.0  0.0727
  H  H76  1  0.120870  0.591930  0.958730  1.0  0.068
  H  H77  1  0.153970  0.653430  0.987430  1.0  0.0858
  H  H78  1  0.070070  0.570230  0.327930  1.0  0.0614
  H  H79  1  0.038470  0.559730  0.876230  1.0  0.0658
  H  H80  1  0.086970  0.651630  0.275030  1.0  0.074
  H  H81  1  0.986470  0.658430  0.819130  1.0  0.049
  H  H82  1  0.047270  0.719930  0.919930  1.0  0.057
  H  H83  1  0.756630  0.863470  0.412070  1.0  0.0726
  H  H84  1  0.787530  0.925270  0.292070  1.0  0.068
  H  H85  1  0.820630  0.986770  0.320770  1.0  0.0841
  H  H86  1  0.736730  0.903570  0.661270  1.0  0.0614
  H  H87  1  0.705130  0.893070  0.209570  1.0  0.0658
  H  H88  1  0.753630  0.984970  0.608370  1.0  0.074
  H  H89  1  0.653130  0.991770  0.152470  1.0  0.049
  H  H90  1  0.713930  0.053270  0.253270  1.0  0.057
  H  H91  1  0.196800  0.773500  0.254600  1.0  0.0734
  H  H92  1  0.258600  0.804400  0.374600  1.0  0.0659
  H  H93  1  0.320100  0.832800  0.345900  1.0  0.0759
  H  H94  1  0.236900  0.833500  0.005400  1.0  0.0603
  H  H95  1  0.226400  0.854600  0.457100  1.0  0.0656
  H  H96  1  0.318300  0.898000  0.058300  1.0  0.0731
  H  H97  1  0.325100  0.005300  0.514200  1.0  0.049
  H  H98  1  0.386600  0.006000  0.413400  1.0  0.0561
  H  H99  1  0.863470  0.106830  0.587930  1.0  0.0735
  H  H100  1  0.925270  0.137730  0.707930  1.0  0.0659
  H  H101  1  0.986770  0.166130  0.679230  1.0  0.0763
  H  H102  1  0.903570  0.166830  0.338730  1.0  0.0602
  H  H103  1  0.893070  0.187930  0.790430  1.0  0.0656
  H  H104  1  0.984970  0.231330  0.391630  1.0  0.0731
  H  H105  1  0.991770  0.338630  0.847530  1.0  0.0489
  H  H106  1  0.053270  0.339330  0.746730  1.0  0.0561
  H  H107  1  0.530130  0.440170  0.921270  1.0  0.0734
  H  H108  1  0.591930  0.471070  0.041270  1.0  0.0659
  H  H109  1  0.653430  0.499470  0.012570  1.0  0.0759
  H  H110  1  0.570230  0.500170  0.672070  1.0  0.0602
  H  H111  1  0.559730  0.521270  0.123770  1.0  0.0656
  H  H112  1  0.651630  0.564670  0.724970  1.0  0.0731
  H  H113  1  0.658430  0.671970  0.180870  1.0  0.049
  H  H114  1  0.719930  0.672670  0.080070  1.0  0.0561
  H  H115  1  0.226500  0.423300  0.254600  1.0  0.0729
  H  H116  1  0.195600  0.454200  0.374600  1.0  0.0651
  H  H117  1  0.167200  0.487300  0.345900  1.0  0.0825
  H  H118  1  0.166500  0.403400  0.005400  1.0  0.0606
  H  H119  1  0.145400  0.371800  0.457100  1.0  0.0645
  H  H120  1  0.102000  0.420300  0.058300  1.0  0.0729
  H  H121  1  0.994700  0.319800  0.514200  1.0  0.0488
  H  H122  1  0.994000  0.380600  0.413400  1.0  0.0566
  H  H123  1  0.893170  0.756630  0.587930  1.0  0.0728
  H  H124  1  0.862270  0.787530  0.707930  1.0  0.0651
  H  H125  1  0.833870  0.820630  0.679230  1.0  0.0825
  H  H126  1  0.833170  0.736730  0.338730  1.0  0.0606
  H  H127  1  0.812070  0.705130  0.790430  1.0  0.0645
  H  H128  1  0.768670  0.753630  0.391630  1.0  0.0729
  H  H129  1  0.661370  0.653130  0.847530  1.0  0.0488
  H  H130  1  0.660670  0.713930  0.746730  1.0  0.0566
  H  H131  1  0.559830  0.089970  0.921270  1.0  0.0729
  H  H132  1  0.528930  0.120870  0.041270  1.0  0.0651
  H  H133  1  0.500530  0.153970  0.012570  1.0  0.0825
  H  H134  1  0.499830  0.070070  0.672070  1.0  0.0606
  H  H135  1  0.478730  0.038470  0.123770  1.0  0.0645
  H  H136  1  0.435330  0.086970  0.724970  1.0  0.0729
  H  H137  1  0.328030  0.986470  0.180870  1.0  0.0488
  H  H138  1  0.327330  0.047270  0.080070  1.0  0.0566
  H  H139  1  0.576700  0.803200  0.254600  1.0  0.0732
  H  H140  1  0.545800  0.741400  0.374600  1.0  0.068
  H  H141  1  0.512700  0.679900  0.345900  1.0  0.0853
  H  H142  1  0.596600  0.763100  0.005400  1.0  0.0602
  H  H143  1  0.628200  0.773600  0.457100  1.0  0.0653
  H  H144  1  0.579700  0.681700  0.058300  1.0  0.074
  H  H145  1  0.680200  0.674900  0.514200  1.0  0.0487
  H  H146  1  0.619400  0.613400  0.413400  1.0  0.0563
  H  H147  1  0.243370  0.136530  0.587930  1.0  0.0731
  H  H148  1  0.212470  0.074730  0.707930  1.0  0.068
  H  H149  1  0.179370  0.013230  0.679230  1.0  0.0835
  H  H150  1  0.263270  0.096430  0.338730  1.0  0.0602
  H  H151  1  0.294870  0.106930  0.790430  1.0  0.0653
  H  H152  1  0.246370  0.015030  0.391630  1.0  0.074
  H  H153  1  0.346870  0.008230  0.847530  1.0  0.0487
  H  H154  1  0.286070  0.946730  0.746730  1.0  0.0563
  H  H155  1  0.910030  0.469870  0.921270  1.0  0.0732
  H  H156  1  0.879130  0.408070  0.041270  1.0  0.068
  H  H157  1  0.846030  0.346570  0.012570  1.0  0.0853
  H  H158  1  0.929930  0.429770  0.672070  1.0  0.0602
  H  H159  1  0.961530  0.440270  0.123770  1.0  0.0653
  H  H160  1  0.913030  0.348370  0.724970  1.0  0.074
  H  H161  1  0.013530  0.341570  0.180870  1.0  0.0487
  H  H162  1  0.952730  0.280070  0.080070  1.0  0.0564
  C  C163  1  0.702500  0.114600  0.608300  1.0  0.2452
  C  C164  1  0.727750  0.165570  0.755900  1.0  0.3036
  C  C165  1  0.777700  0.201860  0.787300  1.0  0.0903
  C  C166  1  0.712500  0.164300  0.657300  1.0  -0.4254
  C  C167  1  0.754800  0.166500  0.931500  1.0  0.093
  C  C168  1  0.740300  0.113700  0.550700  1.0  0.0962
  C  C169  1  0.705800  0.128700  0.900600  1.0  0.085
  C  C170  1  0.683400  0.026300  0.518400  1.0  0.0815
  C  C171  1  0.646200  0.026200  0.577500  1.0  0.0859
  C  C172  1  0.369170  0.447930  0.941630  1.0  0.2452
  C  C173  1  0.394420  0.498900  0.089230  1.0  0.3036
  C  C174  1  0.444370  0.535190  0.120630  1.0  0.0903
  C  C175  1  0.379170  0.497630  0.990630  1.0  -0.4252
  C  C176  1  0.421470  0.499830  0.264830  1.0  0.093
  C  C177  1  0.406970  0.447030  0.884030  1.0  0.0962
  C  C178  1  0.372470  0.462030  0.233930  1.0  0.085
  C  C179  1  0.350070  0.359630  0.851730  1.0  0.0815
  C  C180  1  0.312870  0.359530  0.910830  1.0  0.0859
  C  C181  1  0.035830  0.781270  0.274970  1.0  0.2453
  C  C182  1  0.061080  0.832240  0.422570  1.0  0.3036
  C  C183  1  0.111030  0.868530  0.453970  1.0  0.0903
  C  C184  1  0.045830  0.830970  0.323970  1.0  -0.4253
  C  C185  1  0.088130  0.833170  0.598170  1.0  0.093
  C  C186  1  0.073630  0.780370  0.217370  1.0  0.096
  C  C187  1  0.039130  0.795370  0.567270  1.0  0.085
  C  C188  1  0.016730  0.692970  0.185070  1.0  0.0813
  C  C189  1  0.979530  0.692870  0.244170  1.0  0.0859
  C  C190  1  0.885400  0.587900  0.608300  1.0  0.2471
  C  C191  1  0.834430  0.562180  0.755900  1.0  0.3043
  C  C192  1  0.798140  0.575840  0.787300  1.0  0.0922
  C  C193  1  0.835700  0.548200  0.657300  1.0  -0.4255
  C  C194  1  0.833500  0.588300  0.931500  1.0  0.0919
  C  C195  1  0.886300  0.626600  0.550700  1.0  0.0961
  C  C196  1  0.871300  0.577100  0.900600  1.0  0.0864
  C  C197  1  0.973700  0.657100  0.518400  1.0  0.0832
  C  C198  1  0.973800  0.620000  0.577500  1.0  0.0896
  C  C199  1  0.552070  0.921230  0.941630  1.0  0.2471
  C  C200  1  0.501100  0.895510  0.089230  1.0  0.3043
  C  C201  1  0.464810  0.909170  0.120630  1.0  0.0922
  C  C202  1  0.502370  0.881530  0.990630  1.0  -0.4255
  C  C203  1  0.500170  0.921630  0.264830  1.0  0.0919
  C  C204  1  0.552970  0.959930  0.884030  1.0  0.0961
  C  C205  1  0.537970  0.910430  0.233930  1.0  0.0865
  C  C206  1  0.640370  0.990430  0.851730  1.0  0.0832
  C  C207  1  0.640470  0.953330  0.910830  1.0  0.0896
  C  C208  1  0.218730  0.254570  0.274970  1.0  0.247
  C  C209  1  0.167760  0.228850  0.422570  1.0  0.3043
  C  C210  1  0.131470  0.242510  0.453970  1.0  0.0922
  C  C211  1  0.169030  0.214870  0.323970  1.0  -0.4255
  C  C212  1  0.166830  0.254970  0.598170  1.0  0.092
  C  C213  1  0.219630  0.293270  0.217370  1.0  0.0961
  C  C214  1  0.204630  0.243770  0.567270  1.0  0.0864
  C  C215  1  0.307030  0.323770  0.185070  1.0  0.0832
  C  C216  1  0.307130  0.286670  0.244170  1.0  0.0896
  C  C217  1  0.412100  0.297500  0.608300  1.0  0.2465
  C  C218  1  0.437820  0.272250  0.755900  1.0  0.3038
  C  C219  1  0.424160  0.222300  0.787300  1.0  0.0907
  C  C220  1  0.451800  0.287500  0.657300  1.0  -0.4279
  C  C221  1  0.411700  0.245200  0.931500  1.0  0.0935
  C  C222  1  0.373400  0.259700  0.550700  1.0  0.0968
  C  C223  1  0.422900  0.294200  0.900600  1.0  0.0837
  C  C224  1  0.342900  0.316600  0.518400  1.0  0.0829
  C  C225  1  0.380000  0.353800  0.577500  1.0  0.0874
  C  C226  1  0.078770  0.630830  0.941630  1.0  0.2465
  C  C227  1  0.104490  0.605580  0.089230  1.0  0.3038
  C  C228  1  0.090830  0.555630  0.120630  1.0  0.0907
  C  C229  1  0.118470  0.620830  0.990630  1.0  -0.4279
  C  C230  1  0.078370  0.578530  0.264830  1.0  0.0935
  C  C231  1  0.040070  0.593030  0.884030  1.0  0.0968
  C  C232  1  0.089570  0.627530  0.233930  1.0  0.0836
  C  C233  1  0.009570  0.649930  0.851730  1.0  0.0829
  C  C234  1  0.046670  0.687130  0.910830  1.0  0.0874
  C  C235  1  0.745430  0.964170  0.274970  1.0  0.2464
  C  C236  1  0.771150  0.938920  0.422570  1.0  0.3038
  C  C237  1  0.757490  0.888970  0.453970  1.0  0.0907
  C  C238  1  0.785130  0.954170  0.323970  1.0  -0.4277
  C  C239  1  0.745030  0.911870  0.598170  1.0  0.0934
  C  C240  1  0.706730  0.926370  0.217370  1.0  0.0968
  C  C241  1  0.756230  0.960870  0.567270  1.0  0.0837
  C  C242  1  0.676230  0.983270  0.185070  1.0  0.0829
  C  C243  1  0.713330  0.020470  0.244170  1.0  0.0874
  C  C244  1  0.297500  0.885400  0.391700  1.0  0.2457
  C  C245  1  0.272250  0.834430  0.244100  1.0  0.3041
  C  C246  1  0.222300  0.798140  0.212700  1.0  0.0912
  C  C247  1  0.287500  0.835700  0.342700  1.0  -0.426
  C  C248  1  0.245200  0.833500  0.068500  1.0  0.0915
  C  C249  1  0.259700  0.886300  0.449300  1.0  0.097
  C  C250  1  0.294200  0.871300  0.099400  1.0  0.0849
  C  C251  1  0.316600  0.973700  0.481600  1.0  0.0802
  C  C252  1  0.353800  0.973800  0.422500  1.0  0.0873
  C  C253  1  0.964170  0.218730  0.725030  1.0  0.2458
  C  C254  1  0.938920  0.167760  0.577430  1.0  0.3041
  C  C255  1  0.888970  0.131470  0.546030  1.0  0.0912
  C  C256  1  0.954170  0.169030  0.676030  1.0  -0.4259
  C  C257  1  0.911870  0.166830  0.401830  1.0  0.0916
  C  C258  1  0.926370  0.219630  0.782630  1.0  0.0968
  C  C259  1  0.960870  0.204630  0.432730  1.0  0.0849
  C  C260  1  0.983270  0.307030  0.814930  1.0  0.0801
  C  C261  1  0.020470  0.307130  0.755830  1.0  0.0873
  C  C262  1  0.630830  0.552070  0.058370  1.0  0.2457
  C  C263  1  0.605580  0.501100  0.910770  1.0  0.3041
  C  C264  1  0.555630  0.464810  0.879370  1.0  0.0912
  C  C265  1  0.620830  0.502370  0.009370  1.0  -0.4258
  C  C266  1  0.578530  0.500170  0.735170  1.0  0.0915
  C  C267  1  0.593030  0.552970  0.115970  1.0  0.097
  C  C268  1  0.627530  0.537970  0.766070  1.0  0.0849
  C  C269  1  0.649930  0.640370  0.148270  1.0  0.0802
  C  C270  1  0.687130  0.640470  0.089170  1.0  0.0873
  C  C271  1  0.114600  0.412100  0.391700  1.0  0.2469
  C  C272  1  0.165570  0.437820  0.244100  1.0  0.3044
  C  C273  1  0.201860  0.424160  0.212700  1.0  0.0902
  C  C274  1  0.164300  0.451800  0.342700  1.0  -0.4293
  C  C275  1  0.166500  0.411700  0.068500  1.0  0.0923
  C  C276  1  0.113700  0.373400  0.449300  1.0  0.0953
  C  C277  1  0.128700  0.422900  0.099400  1.0  0.0854
  C  C278  1  0.026300  0.342900  0.481600  1.0  0.0831
  C  C279  1  0.026200  0.380000  0.422500  1.0  0.0902
  C  C280  1  0.781270  0.745430  0.725030  1.0  0.2468
  C  C281  1  0.832240  0.771150  0.577430  1.0  0.3044
  C  C282  1  0.868530  0.757490  0.546030  1.0  0.0903
  C  C283  1  0.830970  0.785130  0.676030  1.0  -0.4293
  C  C284  1  0.833170  0.745030  0.401830  1.0  0.0924
  C  C285  1  0.780370  0.706730  0.782630  1.0  0.0953
  C  C286  1  0.795370  0.756230  0.432730  1.0  0.0854
  C  C287  1  0.692970  0.676230  0.814930  1.0  0.0831
  C  C288  1  0.692870  0.713330  0.755830  1.0  0.0902
  C  C289  1  0.447930  0.078770  0.058370  1.0  0.2469
  C  C290  1  0.498900  0.104490  0.910770  1.0  0.3044
  C  C291  1  0.535190  0.090830  0.879370  1.0  0.0902
  C  C292  1  0.497630  0.118470  0.009370  1.0  -0.4293
  C  C293  1  0.499830  0.078370  0.735170  1.0  0.0923
  C  C294  1  0.447030  0.040070  0.115970  1.0  0.0953
  C  C295  1  0.462030  0.089570  0.766070  1.0  0.0854
  C  C296  1  0.359630  0.009570  0.148270  1.0  0.0831
  C  C297  1  0.359530  0.046670  0.089170  1.0  0.0902
  C  C298  1  0.587900  0.702500  0.391700  1.0  0.2453
  C  C299  1  0.562180  0.727750  0.244100  1.0  0.3046
  C  C300  1  0.575840  0.777700  0.212700  1.0  0.0897
  C  C301  1  0.548200  0.712500  0.342700  1.0  -0.4283
  C  C302  1  0.588300  0.754800  0.068500  1.0  0.0921
  C  C303  1  0.626600  0.740300  0.449300  1.0  0.0929
  C  C304  1  0.577100  0.705800  0.099400  1.0  0.0835
  C  C305  1  0.657100  0.683400  0.481600  1.0  0.0838
  C  C306  1  0.620000  0.646200  0.422500  1.0  0.0878
  C  C307  1  0.254570  0.035830  0.725030  1.0  0.2453
  C  C308  1  0.228850  0.061080  0.577430  1.0  0.3046
  C  C309  1  0.242510  0.111030  0.546030  1.0  0.0898
  C  C310  1  0.214870  0.045830  0.676030  1.0  -0.4282
  C  C311  1  0.254970  0.088130  0.401830  1.0  0.0921
  C  C312  1  0.293270  0.073630  0.782630  1.0  0.0929
  C  C313  1  0.243770  0.039130  0.432730  1.0  0.0835
  C  C314  1  0.323770  0.016730  0.814930  1.0  0.0838
  C  C315  1  0.286670  0.979530  0.755830  1.0  0.0878
  C  C316  1  0.921230  0.369170  0.058370  1.0  0.2453
  C  C317  1  0.895510  0.394420  0.910770  1.0  0.3047
  C  C318  1  0.909170  0.444370  0.879370  1.0  0.0898
  C  C319  1  0.881530  0.379170  0.009370  1.0  -0.4284
  C  C320  1  0.921630  0.421470  0.735170  1.0  0.0921
  C  C321  1  0.959930  0.406970  0.115970  1.0  0.0929
  C  C322  1  0.910430  0.372470  0.766070  1.0  0.0834
  C  C323  1  0.990430  0.350070  0.148270  1.0  0.0838
  C  C324  1  0.953330  0.312870  0.089170  1.0  0.0879
  N  N325  1  0.791360  0.203480  0.876700  1.0  -0.3366
  N  N326  1  0.654830  0.069750  0.622100  1.0  -0.3842
  N  N327  1  0.690890  0.128400  0.812000  1.0  -0.4118
  N  N328  1  0.731220  0.069600  0.505700  1.0  -0.3692
  N  N329  1  0.458030  0.536810  0.210030  1.0  -0.3366
  N  N330  1  0.321500  0.403080  0.955430  1.0  -0.3842
  N  N331  1  0.357560  0.461730  0.145330  1.0  -0.4118
  N  N332  1  0.397890  0.402930  0.839030  1.0  -0.3692
  N  N333  1  0.124690  0.870150  0.543370  1.0  -0.3368
  N  N334  1  0.988160  0.736420  0.288770  1.0  -0.3842
  N  N335  1  0.024220  0.795070  0.478670  1.0  -0.4117
  N  N336  1  0.064550  0.736270  0.172370  1.0  -0.3693
  N  N337  1  0.796520  0.587880  0.876700  1.0  -0.3369
  N  N338  1  0.930250  0.585080  0.622100  1.0  -0.3851
  N  N339  1  0.871600  0.562490  0.812000  1.0  -0.4087
  N  N340  1  0.930400  0.661620  0.505700  1.0  -0.3683
  N  N341  1  0.463190  0.921210  0.210030  1.0  -0.3369
  N  N342  1  0.596920  0.918410  0.955430  1.0  -0.3854
  N  N343  1  0.538270  0.895820  0.145330  1.0  -0.4087
  N  N344  1  0.597070  0.994950  0.839030  1.0  -0.3683
  N  N345  1  0.129850  0.254550  0.543370  1.0  -0.3366
  N  N346  1  0.263580  0.251750  0.288770  1.0  -0.3851
  N  N347  1  0.204930  0.229160  0.478670  1.0  -0.4087
  N  N348  1  0.263730  0.328290  0.172370  1.0  -0.3683
  N  N349  1  0.412120  0.208640  0.876700  1.0  -0.3342
  N  N350  1  0.414920  0.345170  0.622100  1.0  -0.386
  N  N351  1  0.437510  0.309110  0.812000  1.0  -0.4108
  N  N352  1  0.338380  0.268780  0.505700  1.0  -0.371
  N  N353  1  0.078790  0.541970  0.210030  1.0  -0.3341
  N  N354  1  0.081590  0.678500  0.955430  1.0  -0.386
  N  N355  1  0.104180  0.642440  0.145330  1.0  -0.4109
  N  N356  1  0.005050  0.602110  0.839030  1.0  -0.371
  N  N357  1  0.745450  0.875310  0.543370  1.0  -0.3342
  N  N358  1  0.748250  0.011840  0.288770  1.0  -0.386
  N  N359  1  0.770840  0.975780  0.478670  1.0  -0.4108
  N  N360  1  0.671710  0.935450  0.172370  1.0  -0.3712
  N  N361  1  0.208640  0.796520  0.123300  1.0  -0.3357
  N  N362  1  0.345170  0.930250  0.377900  1.0  -0.3858
  N  N363  1  0.309110  0.871600  0.188000  1.0  -0.4118
  N  N364  1  0.268780  0.930400  0.494300  1.0  -0.3679
  N  N365  1  0.875310  0.129850  0.456630  1.0  -0.3358
  N  N366  1  0.011840  0.263580  0.711230  1.0  -0.3858
  N  N367  1  0.975780  0.204930  0.521330  1.0  -0.4117
  N  N368  1  0.935450  0.263730  0.827630  1.0  -0.3679
  N  N369  1  0.541970  0.463190  0.789970  1.0  -0.3357
  N  N370  1  0.678500  0.596920  0.044570  1.0  -0.3858
  N  N371  1  0.642440  0.538270  0.854670  1.0  -0.4118
  N  N372  1  0.602110  0.597070  0.160970  1.0  -0.3679
  N  N373  1  0.203480  0.412120  0.123300  1.0  -0.3392
  N  N374  1  0.069750  0.414920  0.377900  1.0  -0.3853
  N  N375  1  0.128400  0.437510  0.188000  1.0  -0.4088
  N  N376  1  0.069600  0.338380  0.494300  1.0  -0.3661
  N  N377  1  0.870150  0.745450  0.456630  1.0  -0.339
  N  N378  1  0.736420  0.748250  0.711230  1.0  -0.3853
  N  N379  1  0.795070  0.770840  0.521330  1.0  -0.4087
  N  N380  1  0.736270  0.671710  0.827630  1.0  -0.3661
  N  N381  1  0.536810  0.078790  0.789970  1.0  -0.3392
  N  N382  1  0.403080  0.081590  0.044570  1.0  -0.3856
  N  N383  1  0.461730  0.104180  0.854670  1.0  -0.4088
  N  N384  1  0.402930  0.005050  0.160970  1.0  -0.3661
  N  N385  1  0.587880  0.791360  0.123300  1.0  -0.3352
  N  N386  1  0.585080  0.654830  0.377900  1.0  -0.3843
  N  N387  1  0.562490  0.690890  0.188000  1.0  -0.4116
  N  N388  1  0.661620  0.731220  0.494300  1.0  -0.3692
  N  N389  1  0.254550  0.124690  0.456630  1.0  -0.335
  N  N390  1  0.251750  0.988160  0.711230  1.0  -0.3843
  N  N391  1  0.229160  0.024220  0.521330  1.0  -0.4116
  N  N392  1  0.328290  0.064550  0.827630  1.0  -0.3695
  N  N393  1  0.921210  0.458030  0.789970  1.0  -0.3352
  N  N394  1  0.918410  0.321500  0.044570  1.0  -0.3843
  N  N395  1  0.895820  0.357560  0.854670  1.0  -0.4116
  N  N396  1  0.994950  0.397890  0.160970  1.0  -0.3692
