# generated using pymatgen
data_AgH8C9N4
_symmetry_space_group_name_H-M   'P 1'
_cell_length_a   29.46450000
_cell_length_b   29.46450000
_cell_length_c   14.26320000
_cell_angle_alpha   90.00000000
_cell_angle_beta   90.00000000
_cell_angle_gamma   120.00000000
_symmetry_Int_Tables_number   1
_chemical_formula_structural   AgH8C9N4
_chemical_formula_sum   'Ag18 H144 C162 N72'
_cell_volume   10723.72714070
_cell_formula_units_Z   18
loop_
 _symmetry_equiv_pos_site_id
 _symmetry_equiv_pos_as_xyz
  1  'x, y, z'
loop_
 _atom_site_type_symbol
 _atom_site_label
 _atom_site_symmetry_multiplicity
 _atom_site_fract_x
 _atom_site_fract_y
 _atom_site_fract_z
 _atom_site_occupancy
 _atom_site_charge
  Ag  Ag1  1  0.462080  0.070370  0.748350  1.0  0.2439
  Ag  Ag2  1  0.128750  0.403700  0.081680  1.0  0.2439
  Ag  Ag3  1  0.795410  0.737040  0.415020  1.0  0.2439
  Ag  Ag4  1  0.929630  0.391710  0.748350  1.0  0.239
  Ag  Ag5  1  0.596300  0.725040  0.081680  1.0  0.239
  Ag  Ag6  1  0.262960  0.058380  0.415020  1.0  0.239
  Ag  Ag7  1  0.608290  0.537920  0.748350  1.0  0.2425
  Ag  Ag8  1  0.274960  0.871250  0.081680  1.0  0.2414
  Ag  Ag9  1  0.941620  0.204590  0.415020  1.0  0.2425
  Ag  Ag10  1  0.537920  0.929630  0.251650  1.0  0.2429
  Ag  Ag11  1  0.204590  0.262960  0.584980  1.0  0.2429
  Ag  Ag12  1  0.871250  0.596300  0.918320  1.0  0.2429
  Ag  Ag13  1  0.070370  0.608290  0.251650  1.0  0.2417
  Ag  Ag14  1  0.737040  0.941620  0.584980  1.0  0.2417
  Ag  Ag15  1  0.403700  0.274960  0.918320  1.0  0.2417
  Ag  Ag16  1  0.391710  0.462080  0.251650  1.0  0.2418
  Ag  Ag17  1  0.058380  0.795410  0.584980  1.0  0.2418
  Ag  Ag18  1  0.725040  0.128750  0.918320  1.0  0.2407
  H  H19  1  0.483400  0.166300  0.646300  1.0  0.0806
  H  H20  1  0.449900  0.193900  0.621000  1.0  0.052
  H  H21  1  0.420100  0.225400  0.744500  1.0  0.0572
  H  H22  1  0.424100  0.184200  0.004400  1.0  0.0665
  H  H23  1  0.447300  0.124200  0.952200  1.0  0.0552
  H  H24  1  0.367900  0.143000  0.541200  1.0  0.0638
  H  H25  1  0.303400  0.990200  0.520400  1.0  0.0646
  H  H26  1  0.366900  0.993100  0.618800  1.0  0.0525
  H  H27  1  0.150070  0.499630  0.979630  1.0  0.0806
  H  H28  1  0.116570  0.527230  0.954330  1.0  0.052
  H  H29  1  0.086770  0.558730  0.077830  1.0  0.0572
  H  H30  1  0.090770  0.517530  0.337730  1.0  0.0665
  H  H31  1  0.113970  0.457530  0.285530  1.0  0.0552
  H  H32  1  0.034570  0.476330  0.874530  1.0  0.0637
  H  H33  1  0.970070  0.323530  0.853730  1.0  0.0646
  H  H34  1  0.033570  0.326430  0.952130  1.0  0.0525
  H  H35  1  0.816730  0.832970  0.312970  1.0  0.0806
  H  H36  1  0.783230  0.860570  0.287670  1.0  0.052
  H  H37  1  0.753430  0.892070  0.411170  1.0  0.0572
  H  H38  1  0.757430  0.850870  0.671070  1.0  0.0665
  H  H39  1  0.780630  0.790870  0.618870  1.0  0.0552
  H  H40  1  0.701230  0.809670  0.207870  1.0  0.0638
  H  H41  1  0.636730  0.656870  0.187070  1.0  0.0646
  H  H42  1  0.700230  0.659770  0.285470  1.0  0.0525
  H  H43  1  0.833700  0.317100  0.646300  1.0  0.0873
  H  H44  1  0.806100  0.256000  0.621000  1.0  0.0538
  H  H45  1  0.774600  0.194700  0.744500  1.0  0.0565
  H  H46  1  0.815800  0.239900  0.004400  1.0  0.0663
  H  H47  1  0.875800  0.323100  0.952200  1.0  0.0549
  H  H48  1  0.857000  0.224900  0.541200  1.0  0.0629
  H  H49  1  0.009800  0.313200  0.520400  1.0  0.0648
  H  H50  1  0.006900  0.373800  0.618800  1.0  0.0515
  H  H51  1  0.500370  0.650430  0.979630  1.0  0.0873
  H  H52  1  0.472770  0.589330  0.954330  1.0  0.0538
  H  H53  1  0.441270  0.528030  0.077830  1.0  0.0565
  H  H54  1  0.482470  0.573230  0.337730  1.0  0.0663
  H  H55  1  0.542470  0.656430  0.285530  1.0  0.0549
  H  H56  1  0.523670  0.558230  0.874530  1.0  0.0629
  H  H57  1  0.676470  0.646530  0.853730  1.0  0.0647
  H  H58  1  0.673570  0.707130  0.952130  1.0  0.0516
  H  H59  1  0.167030  0.983770  0.312970  1.0  0.0868
  H  H60  1  0.139430  0.922670  0.287670  1.0  0.0537
  H  H61  1  0.107930  0.861370  0.411170  1.0  0.0565
  H  H62  1  0.149130  0.906570  0.671070  1.0  0.0663
  H  H63  1  0.209130  0.989770  0.618870  1.0  0.0549
  H  H64  1  0.190330  0.891570  0.207870  1.0  0.0629
  H  H65  1  0.343130  0.979870  0.187070  1.0  0.0647
  H  H66  1  0.340230  0.040470  0.285470  1.0  0.0515
  H  H67  1  0.682900  0.516600  0.646300  1.0  0.0889
  H  H68  1  0.744000  0.550100  0.621000  1.0  0.0519
  H  H69  1  0.805300  0.579900  0.744500  1.0  0.0556
  H  H70  1  0.760100  0.575900  0.004400  1.0  0.0662
  H  H71  1  0.676900  0.552700  0.952200  1.0  0.0554
  H  H72  1  0.775100  0.632100  0.541200  1.0  0.0627
  H  H73  1  0.686800  0.696600  0.520400  1.0  0.0652
  H  H74  1  0.626200  0.633100  0.618800  1.0  0.0525
  H  H75  1  0.349570  0.849930  0.979630  1.0  0.0889
  H  H76  1  0.410670  0.883430  0.954330  1.0  0.0519
  H  H77  1  0.471970  0.913230  0.077830  1.0  0.0556
  H  H78  1  0.426770  0.909230  0.337730  1.0  0.0662
  H  H79  1  0.343570  0.886030  0.285530  1.0  0.0554
  H  H80  1  0.441770  0.965430  0.874530  1.0  0.0629
  H  H81  1  0.353470  0.029930  0.853730  1.0  0.0652
  H  H82  1  0.292870  0.966430  0.952130  1.0  0.0525
  H  H83  1  0.016230  0.183270  0.312970  1.0  0.0883
  H  H84  1  0.077330  0.216770  0.287670  1.0  0.052
  H  H85  1  0.138630  0.246570  0.411170  1.0  0.0556
  H  H86  1  0.093430  0.242570  0.671070  1.0  0.0662
  H  H87  1  0.010230  0.219370  0.618870  1.0  0.0554
  H  H88  1  0.108430  0.298770  0.207870  1.0  0.0627
  H  H89  1  0.020130  0.363270  0.187070  1.0  0.0652
  H  H90  1  0.959530  0.299770  0.285470  1.0  0.0525
  H  H91  1  0.516600  0.833700  0.353700  1.0  0.081
  H  H92  1  0.550100  0.806100  0.379000  1.0  0.0521
  H  H93  1  0.579900  0.774600  0.255500  1.0  0.0573
  H  H94  1  0.575900  0.815800  0.995600  1.0  0.067
  H  H95  1  0.552700  0.875800  0.047800  1.0  0.0548
  H  H96  1  0.632100  0.857000  0.458800  1.0  0.0646
  H  H97  1  0.696600  0.009800  0.479600  1.0  0.0644
  H  H98  1  0.633100  0.006900  0.381200  1.0  0.0522
  H  H99  1  0.183270  0.167030  0.687030  1.0  0.081
  H  H100  1  0.216770  0.139430  0.712330  1.0  0.0521
  H  H101  1  0.246570  0.107930  0.588830  1.0  0.0573
  H  H102  1  0.242570  0.149130  0.328930  1.0  0.067
  H  H103  1  0.219370  0.209130  0.381130  1.0  0.0548
  H  H104  1  0.298770  0.190330  0.792130  1.0  0.0646
  H  H105  1  0.363270  0.343130  0.812930  1.0  0.0644
  H  H106  1  0.299770  0.340230  0.714530  1.0  0.0522
  H  H107  1  0.849930  0.500370  0.020370  1.0  0.081
  H  H108  1  0.883430  0.472770  0.045670  1.0  0.0521
  H  H109  1  0.913230  0.441270  0.922170  1.0  0.0573
  H  H110  1  0.909230  0.482470  0.662270  1.0  0.067
  H  H111  1  0.886030  0.542470  0.714470  1.0  0.0548
  H  H112  1  0.965430  0.523670  0.125470  1.0  0.0645
  H  H113  1  0.029930  0.676470  0.146270  1.0  0.0644
  H  H114  1  0.966430  0.673570  0.047870  1.0  0.0522
  H  H115  1  0.166300  0.682900  0.353700  1.0  0.0862
  H  H116  1  0.193900  0.744000  0.379000  1.0  0.0528
  H  H117  1  0.225400  0.805300  0.255500  1.0  0.0566
  H  H118  1  0.184200  0.760100  0.995600  1.0  0.0667
  H  H119  1  0.124200  0.676900  0.047800  1.0  0.0553
  H  H120  1  0.143000  0.775100  0.458800  1.0  0.0632
  H  H121  1  0.990200  0.686800  0.479600  1.0  0.0643
  H  H122  1  0.993100  0.626200  0.381200  1.0  0.0515
  H  H123  1  0.832970  0.016230  0.687030  1.0  0.0864
  H  H124  1  0.860570  0.077330  0.712330  1.0  0.0528
  H  H125  1  0.892070  0.138630  0.588830  1.0  0.0566
  H  H126  1  0.850870  0.093430  0.328930  1.0  0.0667
  H  H127  1  0.790870  0.010230  0.381130  1.0  0.0553
  H  H128  1  0.809670  0.108430  0.792130  1.0  0.0632
  H  H129  1  0.656870  0.020130  0.812930  1.0  0.0643
  H  H130  1  0.659770  0.959530  0.714530  1.0  0.0515
  H  H131  1  0.499630  0.349570  0.020370  1.0  0.0862
  H  H132  1  0.527230  0.410670  0.045670  1.0  0.0528
  H  H133  1  0.558730  0.471970  0.922170  1.0  0.0566
  H  H134  1  0.517530  0.426770  0.662270  1.0  0.0667
  H  H135  1  0.457530  0.343570  0.714470  1.0  0.0553
  H  H136  1  0.476330  0.441770  0.125470  1.0  0.0632
  H  H137  1  0.323530  0.353470  0.146270  1.0  0.0643
  H  H138  1  0.326430  0.292870  0.047870  1.0  0.0516
  H  H139  1  0.317100  0.483400  0.353700  1.0  0.087
  H  H140  1  0.256000  0.449900  0.379000  1.0  0.0505
  H  H141  1  0.194700  0.420100  0.255500  1.0  0.0557
  H  H142  1  0.239900  0.424100  0.995600  1.0  0.0669
  H  H143  1  0.323100  0.447300  0.047800  1.0  0.0551
  H  H144  1  0.224900  0.367900  0.458800  1.0  0.0628
  H  H145  1  0.313200  0.303400  0.479600  1.0  0.0656
  H  H146  1  0.373800  0.366900  0.381200  1.0  0.0522
  H  H147  1  0.983770  0.816730  0.687030  1.0  0.0867
  H  H148  1  0.922670  0.783230  0.712330  1.0  0.0506
  H  H149  1  0.861370  0.753430  0.588830  1.0  0.0557
  H  H150  1  0.906570  0.757430  0.328930  1.0  0.0669
  H  H151  1  0.989770  0.780630  0.381130  1.0  0.0551
  H  H152  1  0.891570  0.701230  0.792130  1.0  0.0628
  H  H153  1  0.979870  0.636730  0.812930  1.0  0.0656
  H  H154  1  0.040470  0.700230  0.714530  1.0  0.0522
  H  H155  1  0.650430  0.150070  0.020370  1.0  0.087
  H  H156  1  0.589330  0.116570  0.045670  1.0  0.0505
  H  H157  1  0.528030  0.086770  0.922170  1.0  0.0557
  H  H158  1  0.573230  0.090770  0.662270  1.0  0.0669
  H  H159  1  0.656430  0.113970  0.714470  1.0  0.0551
  H  H160  1  0.558230  0.034570  0.125470  1.0  0.0629
  H  H161  1  0.646530  0.970070  0.146270  1.0  0.0656
  H  H162  1  0.707130  0.033570  0.047870  1.0  0.0522
  C  C163  1  0.449100  0.164300  0.655300  1.0  -0.3741
  C  C164  1  0.440900  0.169000  0.756700  1.0  0.3044
  C  C165  1  0.426500  0.205300  0.789100  1.0  0.0853
  C  C166  1  0.428600  0.181400  0.939100  1.0  0.0824
  C  C167  1  0.442200  0.145300  0.907800  1.0  0.0939
  C  C168  1  0.406300  0.113100  0.615200  1.0  0.2561
  C  C169  1  0.367700  0.111400  0.555300  1.0  0.077
  C  C170  1  0.330200  0.023000  0.543300  1.0  0.0751
  C  C171  1  0.368000  0.024900  0.602600  1.0  0.0945
  C  C172  1  0.115770  0.497630  0.988630  1.0  -0.3741
  C  C173  1  0.107570  0.502330  0.090030  1.0  0.3045
  C  C174  1  0.093170  0.538630  0.122430  1.0  0.0854
  C  C175  1  0.095270  0.514730  0.272430  1.0  0.0824
  C  C176  1  0.108870  0.478630  0.241130  1.0  0.0939
  C  C177  1  0.072970  0.446430  0.948530  1.0  0.2558
  C  C178  1  0.034370  0.444730  0.888630  1.0  0.077
  C  C179  1  0.996870  0.356330  0.876630  1.0  0.0751
  C  C180  1  0.034670  0.358230  0.935930  1.0  0.0945
  C  C181  1  0.782430  0.830970  0.321970  1.0  -0.3741
  C  C182  1  0.774230  0.835670  0.423370  1.0  0.3045
  C  C183  1  0.759830  0.871970  0.455770  1.0  0.085
  C  C184  1  0.761930  0.848070  0.605770  1.0  0.0823
  C  C185  1  0.775530  0.811970  0.574470  1.0  0.0939
  C  C186  1  0.739630  0.779770  0.281870  1.0  0.2561
  C  C187  1  0.701030  0.778070  0.221970  1.0  0.077
  C  C188  1  0.663530  0.689670  0.209970  1.0  0.0751
  C  C189  1  0.701330  0.691570  0.269270  1.0  0.0945
  C  C190  1  0.835700  0.284800  0.655300  1.0  -0.3737
  C  C191  1  0.831000  0.271900  0.756700  1.0  0.3054
  C  C192  1  0.794700  0.221200  0.789100  1.0  0.0855
  C  C193  1  0.818600  0.247200  0.939100  1.0  0.0841
  C  C194  1  0.854700  0.296900  0.907800  1.0  0.0915
  C  C195  1  0.886900  0.293200  0.615200  1.0  0.2553
  C  C196  1  0.888600  0.256300  0.555300  1.0  0.0784
  C  C197  1  0.977000  0.307200  0.543300  1.0  0.0764
  C  C198  1  0.975100  0.343100  0.602600  1.0  0.0958
  C  C199  1  0.502370  0.618130  0.988630  1.0  -0.3737
  C  C200  1  0.497670  0.605230  0.090030  1.0  0.3054
  C  C201  1  0.461370  0.554530  0.122430  1.0  0.0852
  C  C202  1  0.485270  0.580530  0.272430  1.0  0.0841
  C  C203  1  0.521370  0.630230  0.241130  1.0  0.0915
  C  C204  1  0.553570  0.626530  0.948530  1.0  0.2553
  C  C205  1  0.555270  0.589630  0.888630  1.0  0.0784
  C  C206  1  0.643670  0.640530  0.876630  1.0  0.0764
  C  C207  1  0.641770  0.676430  0.935930  1.0  0.0958
  C  C208  1  0.169030  0.951470  0.321970  1.0  -0.3737
  C  C209  1  0.164330  0.938570  0.423370  1.0  0.3053
  C  C210  1  0.128030  0.887870  0.455770  1.0  0.0855
  C  C211  1  0.151930  0.913870  0.605770  1.0  0.0839
  C  C212  1  0.188030  0.963570  0.574470  1.0  0.0915
  C  C213  1  0.220230  0.959870  0.281870  1.0  0.2553
  C  C214  1  0.221930  0.922970  0.221970  1.0  0.0784
  C  C215  1  0.310330  0.973870  0.209970  1.0  0.0764
  C  C216  1  0.308430  0.009770  0.269270  1.0  0.0958
  C  C217  1  0.715200  0.550900  0.655300  1.0  -0.3731
  C  C218  1  0.728100  0.559100  0.756700  1.0  0.3043
  C  C219  1  0.778800  0.573500  0.789100  1.0  0.084
  C  C220  1  0.752800  0.571400  0.939100  1.0  0.0851
  C  C221  1  0.703100  0.557800  0.907800  1.0  0.0941
  C  C222  1  0.706800  0.593700  0.615200  1.0  0.2554
  C  C223  1  0.743700  0.632300  0.555300  1.0  0.0781
  C  C224  1  0.692800  0.669800  0.543300  1.0  0.0776
  C  C225  1  0.656900  0.632000  0.602600  1.0  0.0972
  C  C226  1  0.381870  0.884230  0.988630  1.0  -0.3731
  C  C227  1  0.394770  0.892430  0.090030  1.0  0.3043
  C  C228  1  0.445470  0.906830  0.122430  1.0  0.084
  C  C229  1  0.419470  0.904730  0.272430  1.0  0.0851
  C  C230  1  0.369770  0.891130  0.241130  1.0  0.0941
  C  C231  1  0.373470  0.927030  0.948530  1.0  0.2557
  C  C232  1  0.410370  0.965630  0.888630  1.0  0.0781
  C  C233  1  0.359470  0.003130  0.876630  1.0  0.0776
  C  C234  1  0.323570  0.965330  0.935930  1.0  0.0972
  C  C235  1  0.048530  0.217570  0.321970  1.0  -0.3731
  C  C236  1  0.061430  0.225770  0.423370  1.0  0.3043
  C  C237  1  0.112130  0.240170  0.455770  1.0  0.0843
  C  C238  1  0.086130  0.238070  0.605770  1.0  0.0851
  C  C239  1  0.036430  0.224470  0.574470  1.0  0.0941
  C  C240  1  0.040130  0.260370  0.281870  1.0  0.2554
  C  C241  1  0.077030  0.298970  0.221970  1.0  0.0781
  C  C242  1  0.026130  0.336470  0.209970  1.0  0.0776
  C  C243  1  0.990230  0.298670  0.269270  1.0  0.0972
  C  C244  1  0.550900  0.835700  0.344700  1.0  -0.3726
  C  C245  1  0.559100  0.831000  0.243300  1.0  0.3049
  C  C246  1  0.573500  0.794700  0.210900  1.0  0.0851
  C  C247  1  0.571400  0.818600  0.060900  1.0  0.0841
  C  C248  1  0.557800  0.854700  0.092200  1.0  0.092
  C  C249  1  0.593700  0.886900  0.384800  1.0  0.2561
  C  C250  1  0.632300  0.888600  0.444700  1.0  0.0774
  C  C251  1  0.669800  0.977000  0.456700  1.0  0.0766
  C  C252  1  0.632000  0.975100  0.397400  1.0  0.0959
  C  C253  1  0.217570  0.169030  0.678030  1.0  -0.3726
  C  C254  1  0.225770  0.164330  0.576630  1.0  0.3049
  C  C255  1  0.240170  0.128030  0.544230  1.0  0.0848
  C  C256  1  0.238070  0.151930  0.394230  1.0  0.0841
  C  C257  1  0.224470  0.188030  0.425530  1.0  0.092
  C  C258  1  0.260370  0.220230  0.718130  1.0  0.2561
  C  C259  1  0.298970  0.221930  0.778030  1.0  0.0774
  C  C260  1  0.336470  0.310330  0.790030  1.0  0.0766
  C  C261  1  0.298670  0.308430  0.730730  1.0  0.0959
  C  C262  1  0.884230  0.502370  0.011370  1.0  -0.3726
  C  C263  1  0.892430  0.497670  0.909970  1.0  0.3049
  C  C264  1  0.906830  0.461370  0.877570  1.0  0.0852
  C  C265  1  0.904730  0.485270  0.727570  1.0  0.0841
  C  C266  1  0.891130  0.521370  0.758870  1.0  0.092
  C  C267  1  0.927030  0.553570  0.051470  1.0  0.2559
  C  C268  1  0.965630  0.555270  0.111370  1.0  0.0774
  C  C269  1  0.003130  0.643670  0.123370  1.0  0.0766
  C  C270  1  0.965330  0.641770  0.064070  1.0  0.0959
  C  C271  1  0.164300  0.715200  0.344700  1.0  -0.3756
  C  C272  1  0.169000  0.728100  0.243300  1.0  0.3044
  C  C273  1  0.205300  0.778800  0.210900  1.0  0.0837
  C  C274  1  0.181400  0.752800  0.060900  1.0  0.0836
  C  C275  1  0.145300  0.703100  0.092200  1.0  0.0891
  C  C276  1  0.113100  0.706800  0.384800  1.0  0.2564
  C  C277  1  0.111400  0.743700  0.444700  1.0  0.0763
  C  C278  1  0.023000  0.692800  0.456700  1.0  0.0773
  C  C279  1  0.024900  0.656900  0.397400  1.0  0.098
  C  C280  1  0.830970  0.048530  0.678030  1.0  -0.3756
  C  C281  1  0.835670  0.061430  0.576630  1.0  0.3044
  C  C282  1  0.871970  0.112130  0.544230  1.0  0.0836
  C  C283  1  0.848070  0.086130  0.394230  1.0  0.0834
  C  C284  1  0.811970  0.036430  0.425530  1.0  0.0891
  C  C285  1  0.779770  0.040130  0.718130  1.0  0.2564
  C  C286  1  0.778070  0.077030  0.778030  1.0  0.0763
  C  C287  1  0.689670  0.026130  0.790030  1.0  0.0773
  C  C288  1  0.691570  0.990230  0.730730  1.0  0.0981
  C  C289  1  0.497630  0.381870  0.011370  1.0  -0.3756
  C  C290  1  0.502330  0.394770  0.909970  1.0  0.3044
  C  C291  1  0.538630  0.445470  0.877570  1.0  0.0833
  C  C292  1  0.514730  0.419470  0.727570  1.0  0.0836
  C  C293  1  0.478630  0.369770  0.758870  1.0  0.0891
  C  C294  1  0.446430  0.373470  0.051470  1.0  0.2564
  C  C295  1  0.444730  0.410370  0.111370  1.0  0.0763
  C  C296  1  0.356330  0.359470  0.123370  1.0  0.0773
  C  C297  1  0.358230  0.323570  0.064070  1.0  0.098
  C  C298  1  0.284800  0.449100  0.344700  1.0  -0.3744
  C  C299  1  0.271900  0.440900  0.243300  1.0  0.3052
  C  C300  1  0.221200  0.426500  0.210900  1.0  0.0839
  C  C301  1  0.247200  0.428600  0.060900  1.0  0.0839
  C  C302  1  0.296900  0.442200  0.092200  1.0  0.0928
  C  C303  1  0.293200  0.406300  0.384800  1.0  0.2559
  C  C304  1  0.256300  0.367700  0.444700  1.0  0.0769
  C  C305  1  0.307200  0.330200  0.456700  1.0  0.0779
  C  C306  1  0.343100  0.368000  0.397400  1.0  0.0967
  C  C307  1  0.951470  0.782430  0.678030  1.0  -0.3744
  C  C308  1  0.938570  0.774230  0.576630  1.0  0.3052
  C  C309  1  0.887870  0.759830  0.544230  1.0  0.0843
  C  C310  1  0.913870  0.761930  0.394230  1.0  0.0839
  C  C311  1  0.963570  0.775530  0.425530  1.0  0.0928
  C  C312  1  0.959870  0.739630  0.718130  1.0  0.2559
  C  C313  1  0.922970  0.701030  0.778030  1.0  0.0769
  C  C314  1  0.973870  0.663530  0.790030  1.0  0.0779
  C  C315  1  0.009770  0.701330  0.730730  1.0  0.0967
  C  C316  1  0.618130  0.115770  0.011370  1.0  -0.3744
  C  C317  1  0.605230  0.107570  0.909970  1.0  0.3052
  C  C318  1  0.554530  0.093170  0.877570  1.0  0.0839
  C  C319  1  0.580530  0.095270  0.727570  1.0  0.0839
  C  C320  1  0.630230  0.108870  0.758870  1.0  0.0928
  C  C321  1  0.626530  0.072970  0.051470  1.0  0.2561
  C  C322  1  0.589630  0.034370  0.111370  1.0  0.0769
  C  C323  1  0.640530  0.996870  0.123370  1.0  0.0779
  C  C324  1  0.676430  0.034670  0.064070  1.0  0.0967
  N  N325  1  0.448400  0.139500  0.816800  1.0  -0.3577
  N  N326  1  0.421500  0.212300  0.880200  1.0  -0.3332
  N  N327  1  0.405800  0.069200  0.637800  1.0  -0.3695
  N  N328  1  0.330900  0.067000  0.517800  1.0  -0.3717
  N  N329  1  0.115070  0.472830  0.150130  1.0  -0.3577
  N  N330  1  0.088170  0.545630  0.213530  1.0  -0.3332
  N  N331  1  0.072470  0.402530  0.971130  1.0  -0.3695
  N  N332  1  0.997570  0.400330  0.851130  1.0  -0.3717
  N  N333  1  0.781730  0.806170  0.483470  1.0  -0.3577
  N  N334  1  0.754830  0.878970  0.546870  1.0  -0.3335
  N  N335  1  0.739130  0.735870  0.304470  1.0  -0.3695
  N  N336  1  0.664230  0.733670  0.184470  1.0  -0.3717
  N  N337  1  0.860500  0.308900  0.816800  1.0  -0.3579
  N  N338  1  0.787700  0.209200  0.880200  1.0  -0.3337
  N  N339  1  0.930800  0.336600  0.637800  1.0  -0.3695
  N  N340  1  0.933000  0.263900  0.517800  1.0  -0.3757
  N  N341  1  0.527170  0.642230  0.150130  1.0  -0.3579
  N  N342  1  0.454370  0.542530  0.213530  1.0  -0.3337
  N  N343  1  0.597470  0.669930  0.971130  1.0  -0.3695
  N  N344  1  0.599670  0.597230  0.851130  1.0  -0.3757
  N  N345  1  0.193830  0.975570  0.483470  1.0  -0.3579
  N  N346  1  0.121030  0.875870  0.546870  1.0  -0.3335
  N  N347  1  0.264130  0.003270  0.304470  1.0  -0.3695
  N  N348  1  0.266330  0.930570  0.184470  1.0  -0.3758
  N  N349  1  0.691100  0.551600  0.816800  1.0  -0.3564
  N  N350  1  0.790800  0.578500  0.880200  1.0  -0.3393
  N  N351  1  0.663400  0.594200  0.637800  1.0  -0.37
  N  N352  1  0.736100  0.669100  0.517800  1.0  -0.3745
  N  N353  1  0.357770  0.884930  0.150130  1.0  -0.3564
  N  N354  1  0.457470  0.911830  0.213530  1.0  -0.3393
  N  N355  1  0.330070  0.927530  0.971130  1.0  -0.3701
  N  N356  1  0.402770  0.002430  0.851130  1.0  -0.3745
  N  N357  1  0.024430  0.218270  0.483470  1.0  -0.3564
  N  N358  1  0.124130  0.245170  0.546870  1.0  -0.339
  N  N359  1  0.996730  0.260870  0.304470  1.0  -0.37
  N  N360  1  0.069430  0.335770  0.184470  1.0  -0.3745
  N  N361  1  0.551600  0.860500  0.183200  1.0  -0.3581
  N  N362  1  0.578500  0.787700  0.119800  1.0  -0.3331
  N  N363  1  0.594200  0.930800  0.362200  1.0  -0.3694
  N  N364  1  0.669100  0.933000  0.482200  1.0  -0.3727
  N  N365  1  0.218270  0.193830  0.516530  1.0  -0.3581
  N  N366  1  0.245170  0.121030  0.453130  1.0  -0.3333
  N  N367  1  0.260870  0.264130  0.695530  1.0  -0.3694
  N  N368  1  0.335770  0.266330  0.815530  1.0  -0.3727
  N  N369  1  0.884930  0.527170  0.849870  1.0  -0.3582
  N  N370  1  0.911830  0.454370  0.786470  1.0  -0.3331
  N  N371  1  0.927530  0.597470  0.028870  1.0  -0.3694
  N  N372  1  0.002430  0.599670  0.148870  1.0  -0.3727
  N  N373  1  0.139500  0.691100  0.183200  1.0  -0.3589
  N  N374  1  0.212300  0.790800  0.119800  1.0  -0.3332
  N  N375  1  0.069200  0.663400  0.362200  1.0  -0.3658
  N  N376  1  0.067000  0.736100  0.482200  1.0  -0.3747
  N  N377  1  0.806170  0.024430  0.516530  1.0  -0.3589
  N  N378  1  0.878970  0.124130  0.453130  1.0  -0.3329
  N  N379  1  0.735870  0.996730  0.695530  1.0  -0.3658
  N  N380  1  0.733670  0.069430  0.815530  1.0  -0.3747
  N  N381  1  0.472830  0.357770  0.849870  1.0  -0.3588
  N  N382  1  0.545630  0.457470  0.786470  1.0  -0.3332
  N  N383  1  0.402530  0.330070  0.028870  1.0  -0.3658
  N  N384  1  0.400330  0.402770  0.148870  1.0  -0.3747
  N  N385  1  0.308900  0.448400  0.183200  1.0  -0.3607
  N  N386  1  0.209200  0.421500  0.119800  1.0  -0.3348
  N  N387  1  0.336600  0.405800  0.362200  1.0  -0.3689
  N  N388  1  0.263900  0.330900  0.482200  1.0  -0.3733
  N  N389  1  0.975570  0.781730  0.516530  1.0  -0.3607
  N  N390  1  0.875870  0.754830  0.453130  1.0  -0.3345
  N  N391  1  0.003270  0.739130  0.695530  1.0  -0.3689
  N  N392  1  0.930570  0.664230  0.815530  1.0  -0.3733
  N  N393  1  0.642230  0.115070  0.849870  1.0  -0.3608
  N  N394  1  0.542530  0.088170  0.786470  1.0  -0.3348
  N  N395  1  0.669930  0.072470  0.028870  1.0  -0.369
  N  N396  1  0.597230  0.997570  0.148870  1.0  -0.3733
