# generated using pymatgen
data_AgH8C9N4
_symmetry_space_group_name_H-M   'P 1'
_cell_length_a   29.05400000
_cell_length_b   29.05400000
_cell_length_c   12.66380000
_cell_angle_alpha   90.00000000
_cell_angle_beta   90.00000000
_cell_angle_gamma   120.00000000
_symmetry_Int_Tables_number   1
_chemical_formula_structural   AgH8C9N4
_chemical_formula_sum   'Ag18 H144 C162 N72'
_cell_volume   9257.77324417
_cell_formula_units_Z   18
loop_
 _symmetry_equiv_pos_site_id
 _symmetry_equiv_pos_as_xyz
  1  'x, y, z'
loop_
 _atom_site_type_symbol
 _atom_site_label
 _atom_site_symmetry_multiplicity
 _atom_site_fract_x
 _atom_site_fract_y
 _atom_site_fract_z
 _atom_site_occupancy
 _atom_site_charge
  Ag  Ag1  1  0.470700  0.070520  0.213220  1.0  0.2993
  Ag  Ag2  1  0.137370  0.403850  0.546550  1.0  0.2993
  Ag  Ag3  1  0.804030  0.737190  0.879890  1.0  0.2992
  Ag  Ag4  1  0.929480  0.400180  0.213220  1.0  0.2927
  Ag  Ag5  1  0.596150  0.733510  0.546550  1.0  0.2927
  Ag  Ag6  1  0.262810  0.066850  0.879890  1.0  0.2937
  Ag  Ag7  1  0.599820  0.529300  0.213220  1.0  0.297
  Ag  Ag8  1  0.266490  0.862630  0.546550  1.0  0.2977
  Ag  Ag9  1  0.933150  0.195970  0.879890  1.0  0.297
  Ag  Ag10  1  0.529300  0.929480  0.786780  1.0  0.3017
  Ag  Ag11  1  0.195970  0.262810  0.120110  1.0  0.3015
  Ag  Ag12  1  0.862630  0.596150  0.453450  1.0  0.3016
  Ag  Ag13  1  0.070520  0.599820  0.786780  1.0  0.3009
  Ag  Ag14  1  0.737190  0.933150  0.120110  1.0  0.3017
  Ag  Ag15  1  0.403850  0.266490  0.453450  1.0  0.3009
  Ag  Ag16  1  0.400180  0.470700  0.786780  1.0  0.3
  Ag  Ag17  1  0.066850  0.804030  0.120110  1.0  0.3
  Ag  Ag18  1  0.733510  0.137370  0.453450  1.0  0.3006
  H  H19  1  0.374800  0.151600  0.004400  1.0  0.0623
  H  H20  1  0.396600  0.006600  0.016800  1.0  0.0584
  H  H21  1  0.330300  0.004900  0.914900  1.0  0.0562
  H  H22  1  0.403800  0.158200  0.512900  1.0  0.0699
  H  H23  1  0.427100  0.100400  0.443700  1.0  0.0546
  H  H24  1  0.430700  0.231300  0.241200  1.0  0.0805
  H  H25  1  0.493900  0.175200  0.121700  1.0  0.0809
  H  H26  1  0.459900  0.203000  0.092700  1.0  0.0686
  H  H27  1  0.041470  0.484930  0.337730  1.0  0.0622
  H  H28  1  0.063270  0.339930  0.350130  1.0  0.0585
  H  H29  1  0.996970  0.338230  0.248230  1.0  0.0562
  H  H30  1  0.070470  0.491530  0.846230  1.0  0.07
  H  H31  1  0.093770  0.433730  0.777030  1.0  0.0546
  H  H32  1  0.097370  0.564630  0.574530  1.0  0.0805
  H  H33  1  0.160570  0.508530  0.455030  1.0  0.0809
  H  H34  1  0.126570  0.536330  0.426030  1.0  0.0686
  H  H35  1  0.708130  0.818270  0.671070  1.0  0.0623
  H  H36  1  0.729930  0.673270  0.683470  1.0  0.0585
  H  H37  1  0.663630  0.671570  0.581570  1.0  0.0561
  H  H38  1  0.737130  0.824870  0.179570  1.0  0.07
  H  H39  1  0.760430  0.767070  0.110370  1.0  0.0546
  H  H40  1  0.764030  0.897970  0.907870  1.0  0.0805
  H  H41  1  0.827230  0.841870  0.788370  1.0  0.0809
  H  H42  1  0.793230  0.869670  0.759370  1.0  0.0685
  H  H43  1  0.848400  0.223200  0.004400  1.0  0.0622
  H  H44  1  0.993400  0.390000  0.016800  1.0  0.0603
  H  H45  1  0.995100  0.325400  0.914900  1.0  0.0559
  H  H46  1  0.841800  0.245600  0.512900  1.0  0.0699
  H  H47  1  0.899600  0.326700  0.443700  1.0  0.0547
  H  H48  1  0.768700  0.199400  0.241200  1.0  0.0799
  H  H49  1  0.824800  0.318700  0.121700  1.0  0.0877
  H  H50  1  0.797000  0.256900  0.092700  1.0  0.0703
  H  H51  1  0.515070  0.556530  0.337730  1.0  0.0622
  H  H52  1  0.660070  0.723330  0.350130  1.0  0.0603
  H  H53  1  0.661770  0.658730  0.248230  1.0  0.0559
  H  H54  1  0.508470  0.578930  0.846230  1.0  0.0699
  H  H55  1  0.566270  0.660030  0.777030  1.0  0.0547
  H  H56  1  0.435370  0.532730  0.574530  1.0  0.0799
  H  H57  1  0.491470  0.652030  0.455030  1.0  0.0877
  H  H58  1  0.463670  0.590230  0.426030  1.0  0.0702
  H  H59  1  0.181730  0.889870  0.671070  1.0  0.0622
  H  H60  1  0.326730  0.056670  0.683470  1.0  0.0601
  H  H61  1  0.328430  0.992070  0.581570  1.0  0.056
  H  H62  1  0.175130  0.912270  0.179570  1.0  0.0698
  H  H63  1  0.232930  0.993370  0.110370  1.0  0.0547
  H  H64  1  0.102030  0.866070  0.907870  1.0  0.0799
  H  H65  1  0.158130  0.985370  0.788370  1.0  0.0876
  H  H66  1  0.130330  0.923570  0.759370  1.0  0.0703
  H  H67  1  0.776800  0.625200  0.004400  1.0  0.0625
  H  H68  1  0.610000  0.603400  0.016800  1.0  0.058
  H  H69  1  0.674600  0.669700  0.914900  1.0  0.0555
  H  H70  1  0.754400  0.596200  0.512900  1.0  0.0696
  H  H71  1  0.673300  0.572900  0.443700  1.0  0.0553
  H  H72  1  0.800600  0.569300  0.241200  1.0  0.0797
  H  H73  1  0.681300  0.506100  0.121700  1.0  0.0927
  H  H74  1  0.743100  0.540100  0.092700  1.0  0.0652
  H  H75  1  0.443470  0.958530  0.337730  1.0  0.0625
  H  H76  1  0.276670  0.936730  0.350130  1.0  0.0578
  H  H77  1  0.341270  0.003030  0.248230  1.0  0.0555
  H  H78  1  0.421070  0.929530  0.846230  1.0  0.0696
  H  H79  1  0.339970  0.906230  0.777030  1.0  0.0553
  H  H80  1  0.467270  0.902630  0.574530  1.0  0.0798
  H  H81  1  0.347970  0.839430  0.455030  1.0  0.0927
  H  H82  1  0.409770  0.873430  0.426030  1.0  0.0652
  H  H83  1  0.110130  0.291870  0.671070  1.0  0.0625
  H  H84  1  0.943330  0.270070  0.683470  1.0  0.058
  H  H85  1  0.007930  0.336370  0.581570  1.0  0.0555
  H  H86  1  0.087730  0.262870  0.179570  1.0  0.0696
  H  H87  1  0.006630  0.239570  0.110370  1.0  0.0552
  H  H88  1  0.133930  0.235970  0.907870  1.0  0.0798
  H  H89  1  0.014630  0.172770  0.788370  1.0  0.0885
  H  H90  1  0.076430  0.206770  0.759370  1.0  0.0651
  H  H91  1  0.625200  0.848400  0.995600  1.0  0.0617
  H  H92  1  0.603400  0.993400  0.983200  1.0  0.0592
  H  H93  1  0.669700  0.995100  0.085100  1.0  0.0563
  H  H94  1  0.596200  0.841800  0.487100  1.0  0.0694
  H  H95  1  0.572900  0.899600  0.556300  1.0  0.0546
  H  H96  1  0.569300  0.768700  0.758800  1.0  0.08
  H  H97  1  0.506100  0.824800  0.878300  1.0  0.0821
  H  H98  1  0.540100  0.797000  0.907300  1.0  0.0689
  H  H99  1  0.291870  0.181730  0.328930  1.0  0.0616
  H  H100  1  0.270070  0.326730  0.316530  1.0  0.0593
  H  H101  1  0.336370  0.328430  0.418430  1.0  0.0562
  H  H102  1  0.262870  0.175130  0.820430  1.0  0.0695
  H  H103  1  0.239570  0.232930  0.889630  1.0  0.0546
  H  H104  1  0.235970  0.102030  0.092130  1.0  0.0799
  H  H105  1  0.172770  0.158130  0.211630  1.0  0.0821
  H  H106  1  0.206770  0.130330  0.240630  1.0  0.0688
  H  H107  1  0.958530  0.515070  0.662270  1.0  0.0616
  H  H108  1  0.936730  0.660070  0.649870  1.0  0.0593
  H  H109  1  0.003030  0.661770  0.751770  1.0  0.0563
  H  H110  1  0.929530  0.508470  0.153770  1.0  0.0695
  H  H111  1  0.906230  0.566270  0.222970  1.0  0.0546
  H  H112  1  0.902630  0.435370  0.425470  1.0  0.08
  H  H113  1  0.839430  0.491470  0.544970  1.0  0.0821
  H  H114  1  0.873430  0.463670  0.573970  1.0  0.0689
  H  H115  1  0.151600  0.776800  0.995600  1.0  0.0624
  H  H116  1  0.006600  0.610000  0.983200  1.0  0.0602
  H  H117  1  0.004900  0.674600  0.085100  1.0  0.0561
  H  H118  1  0.158200  0.754400  0.487100  1.0  0.069
  H  H119  1  0.100400  0.673300  0.556300  1.0  0.0558
  H  H120  1  0.231300  0.800600  0.758800  1.0  0.0795
  H  H121  1  0.175200  0.681300  0.878300  1.0  0.086
  H  H122  1  0.203000  0.743100  0.907300  1.0  0.0687
  H  H123  1  0.818270  0.110130  0.328930  1.0  0.0624
  H  H124  1  0.673270  0.943330  0.316530  1.0  0.0601
  H  H125  1  0.671570  0.007930  0.418430  1.0  0.0562
  H  H126  1  0.824870  0.087730  0.820430  1.0  0.069
  H  H127  1  0.767070  0.006630  0.889630  1.0  0.0558
  H  H128  1  0.897970  0.133930  0.092130  1.0  0.0795
  H  H129  1  0.841870  0.014630  0.211630  1.0  0.086
  H  H130  1  0.869670  0.076430  0.240630  1.0  0.0688
  H  H131  1  0.484930  0.443470  0.662270  1.0  0.0624
  H  H132  1  0.339930  0.276670  0.649870  1.0  0.0602
  H  H133  1  0.338230  0.341270  0.751770  1.0  0.0561
  H  H134  1  0.491530  0.421070  0.153770  1.0  0.069
  H  H135  1  0.433730  0.339970  0.222970  1.0  0.0558
  H  H136  1  0.564630  0.467270  0.425470  1.0  0.0795
  H  H137  1  0.508530  0.347970  0.544970  1.0  0.086
  H  H138  1  0.536330  0.409770  0.573970  1.0  0.0687
  H  H139  1  0.223200  0.374800  0.995600  1.0  0.0634
  H  H140  1  0.390000  0.396600  0.983200  1.0  0.0581
  H  H141  1  0.325400  0.330300  0.085100  1.0  0.0557
  H  H142  1  0.245600  0.403800  0.487100  1.0  0.0693
  H  H143  1  0.326700  0.427100  0.556300  1.0  0.0555
  H  H144  1  0.199400  0.430700  0.758800  1.0  0.0793
  H  H145  1  0.318700  0.493900  0.878300  1.0  0.0901
  H  H146  1  0.256900  0.459900  0.907300  1.0  0.0646
  H  H147  1  0.889870  0.708130  0.328930  1.0  0.0634
  H  H148  1  0.056670  0.729930  0.316530  1.0  0.0581
  H  H149  1  0.992070  0.663630  0.418430  1.0  0.0556
  H  H150  1  0.912270  0.737130  0.820430  1.0  0.0693
  H  H151  1  0.993370  0.760430  0.889630  1.0  0.0555
  H  H152  1  0.866070  0.764030  0.092130  1.0  0.0793
  H  H153  1  0.985370  0.827230  0.211630  1.0  0.0866
  H  H154  1  0.923570  0.793230  0.240630  1.0  0.0645
  H  H155  1  0.556530  0.041470  0.662270  1.0  0.0634
  H  H156  1  0.723330  0.063270  0.649870  1.0  0.0579
  H  H157  1  0.658730  0.996970  0.751770  1.0  0.0557
  H  H158  1  0.578930  0.070470  0.153770  1.0  0.0693
  H  H159  1  0.660030  0.093770  0.222970  1.0  0.0555
  H  H160  1  0.532730  0.097370  0.425470  1.0  0.0793
  H  H161  1  0.652030  0.160570  0.544970  1.0  0.0901
  H  H162  1  0.590230  0.126570  0.573970  1.0  0.0646
  C  C163  1  0.443200  0.169300  0.239900  1.0  0.2565
  C  C164  1  0.378400  0.120900  0.005800  1.0  0.114
  C  C165  1  0.392500  0.037000  0.015100  1.0  0.0873
  C  C166  1  0.419400  0.122300  0.064700  1.0  0.2708
  C  C167  1  0.352600  0.035900  0.954900  1.0  0.0817
  C  C168  1  0.415300  0.162500  0.441600  1.0  0.1028
  C  C169  1  0.428600  0.127700  0.399900  1.0  0.0984
  C  C170  1  0.430500  0.204400  0.284100  1.0  0.0875
  C  C171  1  0.458100  0.171300  0.126000  1.0  -0.4329
  C  C172  1  0.109870  0.502630  0.573230  1.0  0.2565
  C  C173  1  0.045070  0.454230  0.339130  1.0  0.114
  C  C174  1  0.059170  0.370330  0.348430  1.0  0.0873
  C  C175  1  0.086070  0.455630  0.398030  1.0  0.2708
  C  C176  1  0.019270  0.369230  0.288230  1.0  0.0816
  C  C177  1  0.081970  0.495830  0.774930  1.0  0.1027
  C  C178  1  0.095270  0.461030  0.733230  1.0  0.0985
  C  C179  1  0.097170  0.537730  0.617430  1.0  0.0876
  C  C180  1  0.124770  0.504630  0.459330  1.0  -0.4329
  C  C181  1  0.776530  0.835970  0.906570  1.0  0.2565
  C  C182  1  0.711730  0.787570  0.672470  1.0  0.114
  C  C183  1  0.725830  0.703670  0.681770  1.0  0.0873
  C  C184  1  0.752730  0.788970  0.731370  1.0  0.2708
  C  C185  1  0.685930  0.702570  0.621570  1.0  0.0817
  C  C186  1  0.748630  0.829170  0.108270  1.0  0.1028
  C  C187  1  0.761930  0.794370  0.066570  1.0  0.0984
  C  C188  1  0.763830  0.871070  0.950770  1.0  0.0875
  C  C189  1  0.791430  0.837970  0.792670  1.0  -0.4329
  C  C190  1  0.830700  0.273900  0.239900  1.0  0.2563
  C  C191  1  0.879100  0.257500  0.005800  1.0  0.1106
  C  C192  1  0.963000  0.355500  0.015100  1.0  0.0862
  C  C193  1  0.877700  0.297100  0.064700  1.0  0.2705
  C  C194  1  0.964100  0.316700  0.954900  1.0  0.0821
  C  C195  1  0.837500  0.252800  0.441600  1.0  0.1038
  C  C196  1  0.872300  0.300900  0.399900  1.0  0.0927
  C  C197  1  0.795600  0.226100  0.284100  1.0  0.0884
  C  C198  1  0.828700  0.286800  0.126000  1.0  -0.4331
  C  C199  1  0.497370  0.607230  0.573230  1.0  0.2563
  C  C200  1  0.545770  0.590830  0.339130  1.0  0.1106
  C  C201  1  0.629670  0.688830  0.348430  1.0  0.0862
  C  C202  1  0.544370  0.630430  0.398030  1.0  0.2705
  C  C203  1  0.630770  0.650030  0.288230  1.0  0.0821
  C  C204  1  0.504170  0.586130  0.774930  1.0  0.1038
  C  C205  1  0.538970  0.634230  0.733230  1.0  0.0927
  C  C206  1  0.462270  0.559430  0.617430  1.0  0.0885
  C  C207  1  0.495370  0.620130  0.459330  1.0  -0.4331
  C  C208  1  0.164030  0.940570  0.906570  1.0  0.2563
  C  C209  1  0.212430  0.924170  0.672470  1.0  0.1107
  C  C210  1  0.296330  0.022170  0.681770  1.0  0.0862
  C  C211  1  0.211030  0.963770  0.731370  1.0  0.2705
  C  C212  1  0.297430  0.983370  0.621570  1.0  0.0821
  C  C213  1  0.170830  0.919470  0.108270  1.0  0.1038
  C  C214  1  0.205630  0.967570  0.066570  1.0  0.0927
  C  C215  1  0.128930  0.892770  0.950770  1.0  0.0885
  C  C216  1  0.162030  0.953470  0.792670  1.0  -0.4331
  C  C217  1  0.726100  0.556800  0.239900  1.0  0.2571
  C  C218  1  0.742500  0.621600  0.005800  1.0  0.1114
  C  C219  1  0.644500  0.607500  0.015100  1.0  0.0875
  C  C220  1  0.702900  0.580600  0.064700  1.0  0.2712
  C  C221  1  0.683300  0.647400  0.954900  1.0  0.0825
  C  C222  1  0.747200  0.584700  0.441600  1.0  0.1038
  C  C223  1  0.699100  0.571400  0.399900  1.0  0.0977
  C  C224  1  0.773900  0.569500  0.284100  1.0  0.0874
  C  C225  1  0.713200  0.541900  0.126000  1.0  -0.4317
  C  C226  1  0.392770  0.890130  0.573230  1.0  0.2571
  C  C227  1  0.409170  0.954930  0.339130  1.0  0.1114
  C  C228  1  0.311170  0.940830  0.348430  1.0  0.0875
  C  C229  1  0.369570  0.913930  0.398030  1.0  0.2713
  C  C230  1  0.349970  0.980730  0.288230  1.0  0.0826
  C  C231  1  0.413870  0.918030  0.774930  1.0  0.1038
  C  C232  1  0.365770  0.904730  0.733230  1.0  0.0977
  C  C233  1  0.440570  0.902830  0.617430  1.0  0.0874
  C  C234  1  0.379870  0.875230  0.459330  1.0  -0.4317
  C  C235  1  0.059430  0.223470  0.906570  1.0  0.2571
  C  C236  1  0.075830  0.288270  0.672470  1.0  0.1114
  C  C237  1  0.977830  0.274170  0.681770  1.0  0.0875
  C  C238  1  0.036230  0.247270  0.731370  1.0  0.2712
  C  C239  1  0.016630  0.314070  0.621570  1.0  0.0825
  C  C240  1  0.080530  0.251370  0.108270  1.0  0.1038
  C  C241  1  0.032430  0.238070  0.066570  1.0  0.0977
  C  C242  1  0.107230  0.236170  0.950770  1.0  0.0874
  C  C243  1  0.046530  0.208570  0.792670  1.0  -0.4317
  C  C244  1  0.556800  0.830700  0.760100  1.0  0.2561
  C  C245  1  0.621600  0.879100  0.994200  1.0  0.1134
  C  C246  1  0.607500  0.963000  0.984900  1.0  0.0865
  C  C247  1  0.580600  0.877700  0.935300  1.0  0.2704
  C  C248  1  0.647400  0.964100  0.045100  1.0  0.0824
  C  C249  1  0.584700  0.837500  0.558400  1.0  0.1022
  C  C250  1  0.571400  0.872300  0.600100  1.0  0.0969
  C  C251  1  0.569500  0.795600  0.715900  1.0  0.0863
  C  C252  1  0.541900  0.828700  0.874000  1.0  -0.4318
  C  C253  1  0.223470  0.164030  0.093430  1.0  0.256
  C  C254  1  0.288270  0.212430  0.327530  1.0  0.1134
  C  C255  1  0.274170  0.296330  0.318230  1.0  0.0865
  C  C256  1  0.247270  0.211030  0.268630  1.0  0.2704
  C  C257  1  0.314070  0.297430  0.378430  1.0  0.0824
  C  C258  1  0.251370  0.170830  0.891730  1.0  0.1022
  C  C259  1  0.238070  0.205630  0.933430  1.0  0.0969
  C  C260  1  0.236170  0.128930  0.049230  1.0  0.0863
  C  C261  1  0.208570  0.162030  0.207330  1.0  -0.4318
  C  C262  1  0.890130  0.497370  0.426770  1.0  0.2561
  C  C263  1  0.954930  0.545770  0.660870  1.0  0.1134
  C  C264  1  0.940830  0.629670  0.651570  1.0  0.0865
  C  C265  1  0.913930  0.544370  0.601970  1.0  0.2704
  C  C266  1  0.980730  0.630770  0.711770  1.0  0.0823
  C  C267  1  0.918030  0.504170  0.225070  1.0  0.1021
  C  C268  1  0.904730  0.538970  0.266770  1.0  0.0969
  C  C269  1  0.902830  0.462270  0.382570  1.0  0.0864
  C  C270  1  0.875230  0.495370  0.540670  1.0  -0.4318
  C  C271  1  0.169300  0.726100  0.760100  1.0  0.2576
  C  C272  1  0.120900  0.742500  0.994200  1.0  0.108
  C  C273  1  0.037000  0.644500  0.984900  1.0  0.085
  C  C274  1  0.122300  0.702900  0.935300  1.0  0.2715
  C  C275  1  0.035900  0.683300  0.045100  1.0  0.0822
  C  C276  1  0.162500  0.747200  0.558400  1.0  0.1025
  C  C277  1  0.127700  0.699100  0.600100  1.0  0.0941
  C  C278  1  0.204400  0.773900  0.715900  1.0  0.086
  C  C279  1  0.171300  0.713200  0.874000  1.0  -0.4339
  C  C280  1  0.835970  0.059430  0.093430  1.0  0.2576
  C  C281  1  0.787570  0.075830  0.327530  1.0  0.1081
  C  C282  1  0.703670  0.977830  0.318230  1.0  0.085
  C  C283  1  0.788970  0.036230  0.268630  1.0  0.2715
  C  C284  1  0.702570  0.016630  0.378430  1.0  0.0823
  C  C285  1  0.829170  0.080530  0.891730  1.0  0.1025
  C  C286  1  0.794370  0.032430  0.933430  1.0  0.0941
  C  C287  1  0.871070  0.107230  0.049230  1.0  0.086
  C  C288  1  0.837970  0.046530  0.207330  1.0  -0.4339
  C  C289  1  0.502630  0.392770  0.426770  1.0  0.2576
  C  C290  1  0.454230  0.409170  0.660870  1.0  0.108
  C  C291  1  0.370330  0.311170  0.651570  1.0  0.085
  C  C292  1  0.455630  0.369570  0.601970  1.0  0.2715
  C  C293  1  0.369230  0.349970  0.711770  1.0  0.0822
  C  C294  1  0.495830  0.413870  0.225070  1.0  0.1025
  C  C295  1  0.461030  0.365770  0.266770  1.0  0.0941
  C  C296  1  0.537730  0.440570  0.382570  1.0  0.086
  C  C297  1  0.504630  0.379870  0.540670  1.0  -0.4339
  C  C298  1  0.273900  0.443200  0.760100  1.0  0.2566
  C  C299  1  0.257500  0.378400  0.994200  1.0  0.1124
  C  C300  1  0.355500  0.392500  0.984900  1.0  0.087
  C  C301  1  0.297100  0.419400  0.935300  1.0  0.2702
  C  C302  1  0.316700  0.352600  0.045100  1.0  0.0833
  C  C303  1  0.252800  0.415300  0.558400  1.0  0.1029
  C  C304  1  0.300900  0.428600  0.600100  1.0  0.0999
  C  C305  1  0.226100  0.430500  0.715900  1.0  0.0884
  C  C306  1  0.286800  0.458100  0.874000  1.0  -0.4325
  C  C307  1  0.940570  0.776530  0.093430  1.0  0.2566
  C  C308  1  0.924170  0.711730  0.327530  1.0  0.1124
  C  C309  1  0.022170  0.725830  0.318230  1.0  0.087
  C  C310  1  0.963770  0.752730  0.268630  1.0  0.2702
  C  C311  1  0.983370  0.685930  0.378430  1.0  0.0833
  C  C312  1  0.919470  0.748630  0.891730  1.0  0.1029
  C  C313  1  0.967570  0.761930  0.933430  1.0  0.1
  C  C314  1  0.892770  0.763830  0.049230  1.0  0.0884
  C  C315  1  0.953470  0.791430  0.207330  1.0  -0.4325
  C  C316  1  0.607230  0.109870  0.426770  1.0  0.2566
  C  C317  1  0.590830  0.045070  0.660870  1.0  0.1124
  C  C318  1  0.688830  0.059170  0.651570  1.0  0.087
  C  C319  1  0.630430  0.086070  0.601970  1.0  0.2702
  C  C320  1  0.650030  0.019270  0.711770  1.0  0.0833
  C  C321  1  0.586130  0.081970  0.225070  1.0  0.1029
  C  C322  1  0.634230  0.095270  0.266770  1.0  0.0998
  C  C323  1  0.559430  0.097170  0.382570  1.0  0.0884
  C  C324  1  0.620130  0.124770  0.540670  1.0  -0.4325
  N  N325  1  0.444000  0.130400  0.298200  1.0  -0.4101
  N  N326  1  0.418000  0.201800  0.386500  1.0  -0.3282
  N  N327  1  0.344000  0.078200  0.951100  1.0  -0.3878
  N  N328  1  0.425600  0.079600  0.071200  1.0  -0.3701
  N  N329  1  0.110670  0.463730  0.631530  1.0  -0.4103
  N  N330  1  0.084670  0.535130  0.719830  1.0  -0.3282
  N  N331  1  0.010670  0.411530  0.284430  1.0  -0.3878
  N  N332  1  0.092270  0.412930  0.404530  1.0  -0.3701
  N  N333  1  0.777330  0.797070  0.964870  1.0  -0.4102
  N  N334  1  0.751330  0.868470  0.053170  1.0  -0.3282
  N  N335  1  0.677330  0.744870  0.617770  1.0  -0.388
  N  N336  1  0.758930  0.746270  0.737870  1.0  -0.3701
  N  N337  1  0.869600  0.313600  0.298200  1.0  -0.4107
  N  N338  1  0.798200  0.216200  0.386500  1.0  -0.3291
  N  N339  1  0.921800  0.265800  0.951100  1.0  -0.3851
  N  N340  1  0.920400  0.346000  0.071200  1.0  -0.3689
  N  N341  1  0.536270  0.646930  0.631530  1.0  -0.4107
  N  N342  1  0.464870  0.549530  0.719830  1.0  -0.3291
  N  N343  1  0.588470  0.599130  0.284430  1.0  -0.3851
  N  N344  1  0.587070  0.679330  0.404530  1.0  -0.3679
  N  N345  1  0.202930  0.980270  0.964870  1.0  -0.4107
  N  N346  1  0.131530  0.882870  0.053170  1.0  -0.3291
  N  N347  1  0.255130  0.932470  0.617770  1.0  -0.385
  N  N348  1  0.253730  0.012670  0.737870  1.0  -0.3689
  N  N349  1  0.686400  0.556000  0.298200  1.0  -0.4111
  N  N350  1  0.783800  0.582000  0.386500  1.0  -0.3321
  N  N351  1  0.734200  0.656000  0.951100  1.0  -0.3865
  N  N352  1  0.654000  0.574400  0.071200  1.0  -0.3688
  N  N353  1  0.353070  0.889330  0.631530  1.0  -0.4111
  N  N354  1  0.450470  0.915330  0.719830  1.0  -0.3321
  N  N355  1  0.400870  0.989330  0.284430  1.0  -0.3865
  N  N356  1  0.320670  0.907730  0.404530  1.0  -0.3697
  N  N357  1  0.019730  0.222670  0.964870  1.0  -0.4113
  N  N358  1  0.117130  0.248670  0.053170  1.0  -0.332
  N  N359  1  0.067530  0.322670  0.617770  1.0  -0.3866
  N  N360  1  0.987330  0.241070  0.737870  1.0  -0.3688
  N  N361  1  0.556000  0.869600  0.701800  1.0  -0.4112
  N  N362  1  0.582000  0.798200  0.613500  1.0  -0.3291
  N  N363  1  0.656000  0.921800  0.048900  1.0  -0.3883
  N  N364  1  0.574400  0.920400  0.928800  1.0  -0.37
  N  N365  1  0.222670  0.202930  0.035130  1.0  -0.4113
  N  N366  1  0.248670  0.131530  0.946830  1.0  -0.3292
  N  N367  1  0.322670  0.255130  0.382230  1.0  -0.3885
  N  N368  1  0.241070  0.253730  0.262130  1.0  -0.37
  N  N369  1  0.889330  0.536270  0.368470  1.0  -0.4115
  N  N370  1  0.915330  0.464870  0.280170  1.0  -0.3291
  N  N371  1  0.989330  0.588470  0.715570  1.0  -0.3883
  N  N372  1  0.907730  0.587070  0.595470  1.0  -0.37
  N  N373  1  0.130400  0.686400  0.701800  1.0  -0.4105
  N  N374  1  0.201800  0.783800  0.613500  1.0  -0.331
  N  N375  1  0.078200  0.734200  0.048900  1.0  -0.3875
  N  N376  1  0.079600  0.654000  0.928800  1.0  -0.3653
  N  N377  1  0.797070  0.019730  0.035130  1.0  -0.4105
  N  N378  1  0.868470  0.117130  0.946830  1.0  -0.331
  N  N379  1  0.744870  0.067530  0.382230  1.0  -0.3874
  N  N380  1  0.746270  0.987330  0.262130  1.0  -0.3653
  N  N381  1  0.463730  0.353070  0.368470  1.0  -0.4105
  N  N382  1  0.535130  0.450470  0.280170  1.0  -0.331
  N  N383  1  0.411530  0.400870  0.715570  1.0  -0.3874
  N  N384  1  0.412930  0.320670  0.595470  1.0  -0.3643
  N  N385  1  0.313600  0.444000  0.701800  1.0  -0.4113
  N  N386  1  0.216200  0.418000  0.613500  1.0  -0.331
  N  N387  1  0.265800  0.344000  0.048900  1.0  -0.3859
  N  N388  1  0.346000  0.425600  0.928800  1.0  -0.3703
  N  N389  1  0.980270  0.777330  0.035130  1.0  -0.4115
  N  N390  1  0.882870  0.751330  0.946830  1.0  -0.3309
  N  N391  1  0.932470  0.677330  0.382230  1.0  -0.3861
  N  N392  1  0.012670  0.758930  0.262130  1.0  -0.3703
  N  N393  1  0.646930  0.110670  0.368470  1.0  -0.4113
  N  N394  1  0.549530  0.084670  0.280170  1.0  -0.331
  N  N395  1  0.599130  0.010670  0.715570  1.0  -0.3859
  N  N396  1  0.679330  0.092270  0.595470  1.0  -0.3712
