# generated using pymatgen
data_AgH8C9N4
_symmetry_space_group_name_H-M   'P 1'
_cell_length_a   28.91050000
_cell_length_b   28.91050000
_cell_length_c   14.38630000
_cell_angle_alpha   90.00000000
_cell_angle_beta   90.00000000
_cell_angle_gamma   120.00000000
_symmetry_Int_Tables_number   1
_chemical_formula_structural   AgH8C9N4
_chemical_formula_sum   'Ag18 H144 C162 N72'
_cell_volume   10413.36160754
_cell_formula_units_Z   18
loop_
 _symmetry_equiv_pos_site_id
 _symmetry_equiv_pos_as_xyz
  1  'x, y, z'
loop_
 _atom_site_type_symbol
 _atom_site_label
 _atom_site_symmetry_multiplicity
 _atom_site_fract_x
 _atom_site_fract_y
 _atom_site_fract_z
 _atom_site_occupancy
 _atom_site_charge
  Ag  Ag1  1  0.802070  0.065800  0.392950  1.0  0.3198
  Ag  Ag2  1  0.468740  0.399130  0.726280  1.0  0.3193
  Ag  Ag3  1  0.135400  0.732470  0.059620  1.0  0.3198
  Ag  Ag4  1  0.934200  0.736270  0.392950  1.0  0.3191
  Ag  Ag5  1  0.600870  0.069600  0.726280  1.0  0.3195
  Ag  Ag6  1  0.267530  0.402940  0.059620  1.0  0.3191
  Ag  Ag7  1  0.263730  0.197930  0.392950  1.0  0.3195
  Ag  Ag8  1  0.930400  0.531260  0.726280  1.0  0.3191
  Ag  Ag9  1  0.597060  0.864600  0.059620  1.0  0.3195
  Ag  Ag10  1  0.197930  0.934200  0.607050  1.0  0.3265
  Ag  Ag11  1  0.864600  0.267530  0.940380  1.0  0.3265
  Ag  Ag12  1  0.531260  0.600870  0.273720  1.0  0.3261
  Ag  Ag13  1  0.065800  0.263730  0.607050  1.0  0.3253
  Ag  Ag14  1  0.732470  0.597060  0.940380  1.0  0.3253
  Ag  Ag15  1  0.399130  0.930400  0.273720  1.0  0.3258
  Ag  Ag16  1  0.736270  0.802070  0.607050  1.0  0.3248
  Ag  Ag17  1  0.402940  0.135400  0.940380  1.0  0.3248
  Ag  Ag18  1  0.069600  0.468740  0.273720  1.0  0.3244
  H  H19  1  0.765000  0.922700  0.666200  1.0  0.0788
  H  H20  1  0.782400  0.917800  0.283100  1.0  0.0686
  H  H21  1  0.817300  0.981100  0.297300  1.0  0.0857
  H  H22  1  0.747200  0.861200  0.416000  1.0  0.0558
  H  H23  1  0.631100  0.970800  0.172300  1.0  0.0478
  H  H24  1  0.706100  0.888900  0.189900  1.0  0.0704
  H  H25  1  0.798400  0.006400  0.600600  1.0  0.0457
  H  H26  1  0.689100  0.031400  0.280000  1.0  0.0641
  H  H27  1  0.431670  0.256030  0.999530  1.0  0.0788
  H  H28  1  0.449070  0.251130  0.616430  1.0  0.0686
  H  H29  1  0.483970  0.314430  0.630630  1.0  0.0862
  H  H30  1  0.413870  0.194530  0.749330  1.0  0.0558
  H  H31  1  0.297770  0.304130  0.505630  1.0  0.0478
  H  H32  1  0.372770  0.222230  0.523230  1.0  0.0704
  H  H33  1  0.465070  0.339730  0.933930  1.0  0.0457
  H  H34  1  0.355770  0.364730  0.613330  1.0  0.0641
  H  H35  1  0.098330  0.589370  0.332870  1.0  0.0788
  H  H36  1  0.115730  0.584470  0.949770  1.0  0.0695
  H  H37  1  0.150630  0.647770  0.963970  1.0  0.0861
  H  H38  1  0.080530  0.527870  0.082670  1.0  0.0559
  H  H39  1  0.964430  0.637470  0.838970  1.0  0.0478
  H  H40  1  0.039430  0.555570  0.856570  1.0  0.0705
  H  H41  1  0.131730  0.673070  0.267270  1.0  0.0457
  H  H42  1  0.022430  0.698070  0.946670  1.0  0.0642
  H  H43  1  0.077300  0.842300  0.666200  1.0  0.0776
  H  H44  1  0.082200  0.864600  0.283100  1.0  0.0673
  H  H45  1  0.018900  0.836200  0.297300  1.0  0.0782
  H  H46  1  0.138800  0.886000  0.416000  1.0  0.0563
  H  H47  1  0.029200  0.660300  0.172300  1.0  0.0476
  H  H48  1  0.111100  0.817200  0.189900  1.0  0.0708
  H  H49  1  0.993600  0.792000  0.600600  1.0  0.0475
  H  H50  1  0.968600  0.657700  0.280000  1.0  0.0645
  H  H51  1  0.743970  0.175630  0.999530  1.0  0.0776
  H  H52  1  0.748870  0.197930  0.616430  1.0  0.0673
  H  H53  1  0.685570  0.169530  0.630630  1.0  0.0782
  H  H54  1  0.805470  0.219330  0.749330  1.0  0.0563
  H  H55  1  0.695870  0.993630  0.505630  1.0  0.0476
  H  H56  1  0.777770  0.150530  0.523230  1.0  0.0708
  H  H57  1  0.660270  0.125330  0.933930  1.0  0.0475
  H  H58  1  0.635270  0.991030  0.613330  1.0  0.0646
  H  H59  1  0.410630  0.508970  0.332870  1.0  0.0776
  H  H60  1  0.415530  0.531270  0.949770  1.0  0.0673
  H  H61  1  0.352230  0.502870  0.963970  1.0  0.0782
  H  H62  1  0.472130  0.552670  0.082670  1.0  0.0563
  H  H63  1  0.362530  0.326970  0.838970  1.0  0.0476
  H  H64  1  0.444430  0.483870  0.856570  1.0  0.0708
  H  H65  1  0.326930  0.458670  0.267270  1.0  0.0475
  H  H66  1  0.301930  0.324370  0.946670  1.0  0.0646
  H  H67  1  0.157700  0.235000  0.666200  1.0  0.0785
  H  H68  1  0.135400  0.217600  0.283100  1.0  0.0635
  H  H69  1  0.163800  0.182700  0.297300  1.0  0.0861
  H  H70  1  0.114000  0.252800  0.416000  1.0  0.0562
  H  H71  1  0.339700  0.368900  0.172300  1.0  0.0475
  H  H72  1  0.182800  0.293900  0.189900  1.0  0.0719
  H  H73  1  0.208000  0.201600  0.600600  1.0  0.0473
  H  H74  1  0.342300  0.310900  0.280000  1.0  0.0625
  H  H75  1  0.824370  0.568330  0.999530  1.0  0.0785
  H  H76  1  0.802070  0.550930  0.616430  1.0  0.0635
  H  H77  1  0.830470  0.516030  0.630630  1.0  0.0861
  H  H78  1  0.780670  0.586130  0.749330  1.0  0.0562
  H  H79  1  0.006370  0.702230  0.505630  1.0  0.0475
  H  H80  1  0.849470  0.627230  0.523230  1.0  0.0719
  H  H81  1  0.874670  0.534930  0.933930  1.0  0.0473
  H  H82  1  0.008970  0.644230  0.613330  1.0  0.0625
  H  H83  1  0.491030  0.901670  0.332870  1.0  0.0785
  H  H84  1  0.468730  0.884270  0.949770  1.0  0.0635
  H  H85  1  0.497130  0.849370  0.963970  1.0  0.0862
  H  H86  1  0.447330  0.919470  0.082670  1.0  0.0562
  H  H87  1  0.673030  0.035570  0.838970  1.0  0.0475
  H  H88  1  0.516130  0.960570  0.856570  1.0  0.0719
  H  H89  1  0.541330  0.868270  0.267270  1.0  0.0473
  H  H90  1  0.675630  0.977570  0.946670  1.0  0.0624
  H  H91  1  0.235000  0.077300  0.333800  1.0  0.0763
  H  H92  1  0.217600  0.082200  0.716900  1.0  0.0695
  H  H93  1  0.182700  0.018900  0.702700  1.0  0.0854
  H  H94  1  0.252800  0.138800  0.584000  1.0  0.0562
  H  H95  1  0.368900  0.029200  0.827700  1.0  0.0474
  H  H96  1  0.293900  0.111100  0.810100  1.0  0.0725
  H  H97  1  0.201600  0.993600  0.399400  1.0  0.0465
  H  H98  1  0.310900  0.968600  0.720000  1.0  0.0643
  H  H99  1  0.901670  0.410630  0.667130  1.0  0.0763
  H  H100  1  0.884270  0.415530  0.050230  1.0  0.0695
  H  H101  1  0.849370  0.352230  0.036030  1.0  0.0854
  H  H102  1  0.919470  0.472130  0.917330  1.0  0.0562
  H  H103  1  0.035570  0.362530  0.161030  1.0  0.0474
  H  H104  1  0.960570  0.444430  0.143430  1.0  0.0725
  H  H105  1  0.868270  0.326930  0.732730  1.0  0.0465
  H  H106  1  0.977570  0.301930  0.053330  1.0  0.0644
  H  H107  1  0.568330  0.743970  0.000470  1.0  0.0763
  H  H108  1  0.550930  0.748870  0.383570  1.0  0.0695
  H  H109  1  0.516030  0.685570  0.369370  1.0  0.0854
  H  H110  1  0.586130  0.805470  0.250670  1.0  0.0562
  H  H111  1  0.702230  0.695870  0.494370  1.0  0.0474
  H  H112  1  0.627230  0.777770  0.476770  1.0  0.0725
  H  H113  1  0.534930  0.660270  0.066070  1.0  0.0465
  H  H114  1  0.644230  0.635270  0.386670  1.0  0.0643
  H  H115  1  0.922700  0.157700  0.333800  1.0  0.0789
  H  H116  1  0.917800  0.135400  0.716900  1.0  0.0696
  H  H117  1  0.981100  0.163800  0.702700  1.0  0.0796
  H  H118  1  0.861200  0.114000  0.584000  1.0  0.0566
  H  H119  1  0.970800  0.339700  0.827700  1.0  0.049
  H  H120  1  0.888900  0.182800  0.810100  1.0  0.0728
  H  H121  1  0.006400  0.208000  0.399400  1.0  0.0475
  H  H122  1  0.031400  0.342300  0.720000  1.0  0.0647
  H  H123  1  0.589370  0.491030  0.667130  1.0  0.0789
  H  H124  1  0.584470  0.468730  0.050230  1.0  0.0698
  H  H125  1  0.647770  0.497130  0.036030  1.0  0.08
  H  H126  1  0.527870  0.447330  0.917330  1.0  0.0565
  H  H127  1  0.637470  0.673030  0.161030  1.0  0.0491
  H  H128  1  0.555570  0.516130  0.143430  1.0  0.0728
  H  H129  1  0.673070  0.541330  0.732730  1.0  0.0475
  H  H130  1  0.698070  0.675630  0.053330  1.0  0.0648
  H  H131  1  0.256030  0.824370  0.000470  1.0  0.0789
  H  H132  1  0.251130  0.802070  0.383570  1.0  0.0696
  H  H133  1  0.314430  0.830470  0.369370  1.0  0.0796
  H  H134  1  0.194530  0.780670  0.250670  1.0  0.0566
  H  H135  1  0.304130  0.006370  0.494370  1.0  0.049
  H  H136  1  0.222230  0.849470  0.476770  1.0  0.0728
  H  H137  1  0.339730  0.874670  0.066070  1.0  0.0475
  H  H138  1  0.364730  0.008970  0.386670  1.0  0.0648
  H  H139  1  0.842300  0.765000  0.333800  1.0  0.0761
  H  H140  1  0.864600  0.782400  0.716900  1.0  0.0608
  H  H141  1  0.836200  0.817300  0.702700  1.0  0.0857
  H  H142  1  0.886000  0.747200  0.584000  1.0  0.0537
  H  H143  1  0.660300  0.631100  0.827700  1.0  0.048
  H  H144  1  0.817200  0.706100  0.810100  1.0  0.069
  H  H145  1  0.792000  0.798400  0.399400  1.0  0.0468
  H  H146  1  0.657700  0.689100  0.720000  1.0  0.0625
  H  H147  1  0.508970  0.098330  0.667130  1.0  0.0761
  H  H148  1  0.531270  0.115730  0.050230  1.0  0.0608
  H  H149  1  0.502870  0.150630  0.036030  1.0  0.0857
  H  H150  1  0.552670  0.080530  0.917330  1.0  0.0537
  H  H151  1  0.326970  0.964430  0.161030  1.0  0.048
  H  H152  1  0.483870  0.039430  0.143430  1.0  0.069
  H  H153  1  0.458670  0.131730  0.732730  1.0  0.0467
  H  H154  1  0.324370  0.022430  0.053330  1.0  0.0625
  H  H155  1  0.175630  0.431670  0.000470  1.0  0.0761
  H  H156  1  0.197930  0.449070  0.383570  1.0  0.0608
  H  H157  1  0.169530  0.483970  0.369370  1.0  0.0857
  H  H158  1  0.219330  0.413870  0.250670  1.0  0.0537
  H  H159  1  0.993630  0.297770  0.494370  1.0  0.048
  H  H160  1  0.150530  0.372770  0.476770  1.0  0.069
  H  H161  1  0.125330  0.465070  0.066070  1.0  0.0467
  H  H162  1  0.991030  0.355770  0.386670  1.0  0.0625
  C  C163  1  0.768400  0.926600  0.600600  1.0  0.0795
  C  C164  1  0.738000  0.955220  0.271400  1.0  0.216
  C  C165  1  0.777750  0.941390  0.415700  1.0  0.296
  C  C166  1  0.782670  0.949000  0.312100  1.0  -0.3822
  C  C167  1  0.758200  0.891280  0.455500  1.0  0.0953
  C  C168  1  0.658700  0.965900  0.197200  1.0  0.0936
  C  C169  1  0.702300  0.918600  0.207100  1.0  0.0825
  C  C170  1  0.787900  0.976500  0.561000  1.0  0.1072
  C  C171  1  0.693500  0.002300  0.261600  1.0  0.0944
  C  C172  1  0.435070  0.259930  0.933930  1.0  0.0795
  C  C173  1  0.404670  0.288550  0.604730  1.0  0.216
  C  C174  1  0.444420  0.274720  0.749030  1.0  0.296
  C  C175  1  0.449340  0.282330  0.645430  1.0  -0.3822
  C  C176  1  0.424870  0.224610  0.788830  1.0  0.0953
  C  C177  1  0.325370  0.299230  0.530530  1.0  0.0936
  C  C178  1  0.368970  0.251930  0.540430  1.0  0.0825
  C  C179  1  0.454570  0.309830  0.894330  1.0  0.1072
  C  C180  1  0.360170  0.335630  0.594930  1.0  0.0944
  C  C181  1  0.101730  0.593270  0.267270  1.0  0.0795
  C  C182  1  0.071330  0.621890  0.938070  1.0  0.2146
  C  C183  1  0.111080  0.608060  0.082370  1.0  0.296
  C  C184  1  0.116000  0.615670  0.978770  1.0  -0.3822
  C  C185  1  0.091530  0.557950  0.122170  1.0  0.0953
  C  C186  1  0.992030  0.632570  0.863870  1.0  0.0936
  C  C187  1  0.035630  0.585270  0.873770  1.0  0.0825
  C  C188  1  0.121230  0.643170  0.227670  1.0  0.1072
  C  C189  1  0.026830  0.668970  0.928270  1.0  0.0939
  C  C190  1  0.073400  0.841800  0.600600  1.0  0.0787
  C  C191  1  0.044780  0.782780  0.271400  1.0  0.2131
  C  C192  1  0.058610  0.836360  0.415700  1.0  0.2968
  C  C193  1  0.051000  0.833670  0.312100  1.0  -0.3777
  C  C194  1  0.108720  0.866920  0.455500  1.0  0.0949
  C  C195  1  0.034100  0.692800  0.197200  1.0  0.0929
  C  C196  1  0.081400  0.783700  0.207100  1.0  0.0766
  C  C197  1  0.023500  0.811400  0.561000  1.0  0.1091
  C  C198  1  0.997700  0.691200  0.261600  1.0  0.0942
  C  C199  1  0.740070  0.175130  0.933930  1.0  0.0789
  C  C200  1  0.711450  0.116110  0.604730  1.0  0.2131
  C  C201  1  0.725280  0.169690  0.749030  1.0  0.2968
  C  C202  1  0.717670  0.167000  0.645430  1.0  -0.3777
  C  C203  1  0.775390  0.200250  0.788830  1.0  0.0949
  C  C204  1  0.700770  0.026130  0.530530  1.0  0.0929
  C  C205  1  0.748070  0.117030  0.540430  1.0  0.0768
  C  C206  1  0.690170  0.144730  0.894330  1.0  0.1091
  C  C207  1  0.664370  0.024530  0.594930  1.0  0.0942
  C  C208  1  0.406730  0.508470  0.267270  1.0  0.0788
  C  C209  1  0.378110  0.449450  0.938070  1.0  0.2131
  C  C210  1  0.391940  0.503030  0.082370  1.0  0.2968
  C  C211  1  0.384330  0.500340  0.978770  1.0  -0.3777
  C  C212  1  0.442050  0.533590  0.122170  1.0  0.0952
  C  C213  1  0.367430  0.359470  0.863870  1.0  0.0935
  C  C214  1  0.414730  0.450370  0.873770  1.0  0.0768
  C  C215  1  0.356830  0.478070  0.227670  1.0  0.1091
  C  C216  1  0.331030  0.357870  0.928270  1.0  0.0942
  C  C217  1  0.158200  0.231600  0.600600  1.0  0.0781
  C  C218  1  0.217220  0.262000  0.271400  1.0  0.2226
  C  C219  1  0.163640  0.222250  0.415700  1.0  0.2974
  C  C220  1  0.166330  0.217330  0.312100  1.0  -0.3782
  C  C221  1  0.133080  0.241800  0.455500  1.0  0.097
  C  C222  1  0.307200  0.341300  0.197200  1.0  0.0936
  C  C223  1  0.216300  0.297700  0.207100  1.0  0.078
  C  C224  1  0.188600  0.212100  0.561000  1.0  0.1084
  C  C225  1  0.308800  0.306500  0.261600  1.0  0.0896
  C  C226  1  0.824870  0.564930  0.933930  1.0  0.0779
  C  C227  1  0.883890  0.595330  0.604730  1.0  0.2226
  C  C228  1  0.830310  0.555580  0.749030  1.0  0.2974
  C  C229  1  0.833000  0.550660  0.645430  1.0  -0.3782
  C  C230  1  0.799750  0.575130  0.788830  1.0  0.097
  C  C231  1  0.973870  0.674630  0.530530  1.0  0.0936
  C  C232  1  0.882970  0.631030  0.540430  1.0  0.078
  C  C233  1  0.855270  0.545430  0.894330  1.0  0.1084
  C  C234  1  0.975470  0.639830  0.594930  1.0  0.0892
  C  C235  1  0.491530  0.898270  0.267270  1.0  0.078
  C  C236  1  0.550550  0.928670  0.938070  1.0  0.2226
  C  C237  1  0.496970  0.888920  0.082370  1.0  0.2974
  C  C238  1  0.499660  0.884000  0.978770  1.0  -0.3782
  C  C239  1  0.466410  0.908470  0.122170  1.0  0.0971
  C  C240  1  0.640530  0.007970  0.863870  1.0  0.0936
  C  C241  1  0.549630  0.964370  0.873770  1.0  0.0781
  C  C242  1  0.521930  0.878770  0.227670  1.0  0.1084
  C  C243  1  0.642130  0.973170  0.928270  1.0  0.0896
  C  C244  1  0.231600  0.073400  0.399400  1.0  0.0804
  C  C245  1  0.262000  0.044780  0.728600  1.0  0.2211
  C  C246  1  0.222250  0.058610  0.584300  1.0  0.306
  C  C247  1  0.217330  0.051000  0.687900  1.0  -0.3842
  C  C248  1  0.241800  0.108720  0.544500  1.0  0.0936
  C  C249  1  0.341300  0.034100  0.802800  1.0  0.0937
  C  C250  1  0.297700  0.081400  0.792900  1.0  0.0753
  C  C251  1  0.212100  0.023500  0.439000  1.0  0.1083
  C  C252  1  0.306500  0.997700  0.738400  1.0  0.0877
  C  C253  1  0.898270  0.406730  0.732730  1.0  0.0806
  C  C254  1  0.928670  0.378110  0.061930  1.0  0.2211
  C  C255  1  0.888920  0.391940  0.917630  1.0  0.306
  C  C256  1  0.884000  0.384330  0.021230  1.0  -0.3842
  C  C257  1  0.908470  0.442050  0.877830  1.0  0.0936
  C  C258  1  0.007970  0.367430  0.136130  1.0  0.0937
  C  C259  1  0.964370  0.414730  0.126230  1.0  0.0753
  C  C260  1  0.878770  0.356830  0.772330  1.0  0.1083
  C  C261  1  0.973170  0.331030  0.071730  1.0  0.0877
  C  C262  1  0.564930  0.740070  0.066070  1.0  0.0804
  C  C263  1  0.595330  0.711450  0.395270  1.0  0.2211
  C  C264  1  0.555580  0.725280  0.250970  1.0  0.306
  C  C265  1  0.550660  0.717670  0.354570  1.0  -0.3842
  C  C266  1  0.575130  0.775390  0.211170  1.0  0.0936
  C  C267  1  0.674630  0.700770  0.469470  1.0  0.0937
  C  C268  1  0.631030  0.748070  0.459570  1.0  0.0753
  C  C269  1  0.545430  0.690170  0.105670  1.0  0.1083
  C  C270  1  0.639830  0.664370  0.405070  1.0  0.0877
  C  C271  1  0.926600  0.158200  0.399400  1.0  0.0793
  C  C272  1  0.955220  0.217220  0.728600  1.0  0.2224
  C  C273  1  0.941390  0.163640  0.584300  1.0  0.2974
  C  C274  1  0.949000  0.166330  0.687900  1.0  -0.381
  C  C275  1  0.891280  0.133080  0.544500  1.0  0.0953
  C  C276  1  0.965900  0.307200  0.802800  1.0  0.0922
  C  C277  1  0.918600  0.216300  0.792900  1.0  0.0832
  C  C278  1  0.976500  0.188600  0.439000  1.0  0.1082
  C  C279  1  0.002300  0.308800  0.738400  1.0  0.0893
  C  C280  1  0.593270  0.491530  0.732730  1.0  0.0793
  C  C281  1  0.621890  0.550550  0.061930  1.0  0.2224
  C  C282  1  0.608060  0.496970  0.917630  1.0  0.2974
  C  C283  1  0.615670  0.499660  0.021230  1.0  -0.381
  C  C284  1  0.557950  0.466410  0.877830  1.0  0.0963
  C  C285  1  0.632570  0.640530  0.136130  1.0  0.0929
  C  C286  1  0.585270  0.549630  0.126230  1.0  0.0817
  C  C287  1  0.643170  0.521930  0.772330  1.0  0.1082
  C  C288  1  0.668970  0.642130  0.071730  1.0  0.0893
  C  C289  1  0.259930  0.824870  0.066070  1.0  0.0796
  C  C290  1  0.288550  0.883890  0.395270  1.0  0.2224
  C  C291  1  0.274720  0.830310  0.250970  1.0  0.2974
  C  C292  1  0.282330  0.833000  0.354570  1.0  -0.381
  C  C293  1  0.224610  0.799750  0.211170  1.0  0.0953
  C  C294  1  0.299230  0.973870  0.469470  1.0  0.0922
  C  C295  1  0.251930  0.882970  0.459570  1.0  0.0815
  C  C296  1  0.309830  0.855270  0.105670  1.0  0.1082
  C  C297  1  0.335630  0.975470  0.405070  1.0  0.0893
  C  C298  1  0.841800  0.768400  0.399400  1.0  0.0786
  C  C299  1  0.782780  0.738000  0.728600  1.0  0.214
  C  C300  1  0.836360  0.777750  0.584300  1.0  0.3062
  C  C301  1  0.833670  0.782670  0.687900  1.0  -0.3819
  C  C302  1  0.866920  0.758200  0.544500  1.0  0.093
  C  C303  1  0.692800  0.658700  0.802800  1.0  0.0939
  C  C304  1  0.783700  0.702300  0.792900  1.0  0.0773
  C  C305  1  0.811400  0.787900  0.439000  1.0  0.1074
  C  C306  1  0.691200  0.693500  0.738400  1.0  0.0962
  C  C307  1  0.508470  0.101730  0.732730  1.0  0.0786
  C  C308  1  0.449450  0.071330  0.061930  1.0  0.2135
  C  C309  1  0.503030  0.111080  0.917630  1.0  0.3062
  C  C310  1  0.500340  0.116000  0.021230  1.0  -0.3819
  C  C311  1  0.533590  0.091530  0.877830  1.0  0.0932
  C  C312  1  0.359470  0.992030  0.136130  1.0  0.0939
  C  C313  1  0.450370  0.035630  0.126230  1.0  0.0775
  C  C314  1  0.478070  0.121230  0.772330  1.0  0.1074
  C  C315  1  0.357870  0.026830  0.071730  1.0  0.0962
  C  C316  1  0.175130  0.435070  0.066070  1.0  0.0784
  C  C317  1  0.116110  0.404670  0.395270  1.0  0.214
  C  C318  1  0.169690  0.444420  0.250970  1.0  0.3062
  C  C319  1  0.167000  0.449340  0.354570  1.0  -0.3819
  C  C320  1  0.200250  0.424870  0.211170  1.0  0.0931
  C  C321  1  0.026130  0.325370  0.469470  1.0  0.0939
  C  C322  1  0.117030  0.368970  0.459570  1.0  0.0773
  C  C323  1  0.144730  0.454570  0.105670  1.0  0.1074
  C  C324  1  0.024530  0.360170  0.405070  1.0  0.0962
  N  N325  1  0.732930  0.997030  0.298100  1.0  -0.3979
  N  N326  1  0.792500  0.984330  0.468500  1.0  -0.381
  N  N327  1  0.754290  0.883830  0.547200  1.0  -0.3584
  N  N328  1  0.662700  0.923980  0.168800  1.0  -0.3799
  N  N329  1  0.399600  0.330360  0.631430  1.0  -0.3979
  N  N330  1  0.459170  0.317660  0.801830  1.0  -0.381
  N  N331  1  0.420960  0.217160  0.880530  1.0  -0.3584
  N  N332  1  0.329370  0.257310  0.502130  1.0  -0.3799
  N  N333  1  0.066260  0.663700  0.964770  1.0  -0.3979
  N  N334  1  0.125830  0.651000  0.135170  1.0  -0.3791
  N  N335  1  0.087620  0.550500  0.213870  1.0  -0.3584
  N  N336  1  0.996030  0.590650  0.835470  1.0  -0.3797
  N  N337  1  0.002970  0.735900  0.298100  1.0  -0.4017
  N  N338  1  0.015670  0.808170  0.468500  1.0  -0.3793
  N  N339  1  0.116170  0.870460  0.547200  1.0  -0.3621
  N  N340  1  0.076020  0.738720  0.168800  1.0  -0.378
  N  N341  1  0.669640  0.069230  0.631430  1.0  -0.4069
  N  N342  1  0.682340  0.141500  0.801830  1.0  -0.3793
  N  N343  1  0.782840  0.203790  0.880530  1.0  -0.3622
  N  N344  1  0.742690  0.072050  0.502130  1.0  -0.378
  N  N345  1  0.336300  0.402570  0.964770  1.0  -0.4002
  N  N346  1  0.349000  0.474840  0.135170  1.0  -0.3795
  N  N347  1  0.449500  0.537130  0.213870  1.0  -0.3622
  N  N348  1  0.409350  0.405390  0.835470  1.0  -0.378
  N  N349  1  0.264100  0.267070  0.298100  1.0  -0.405
  N  N350  1  0.191830  0.207500  0.468500  1.0  -0.3804
  N  N351  1  0.129540  0.245710  0.547200  1.0  -0.3599
  N  N352  1  0.261280  0.337300  0.168800  1.0  -0.3775
  N  N353  1  0.930770  0.600400  0.631430  1.0  -0.4056
  N  N354  1  0.858500  0.540830  0.801830  1.0  -0.3804
  N  N355  1  0.796210  0.579040  0.880530  1.0  -0.3599
  N  N356  1  0.927950  0.670630  0.502130  1.0  -0.3778
  N  N357  1  0.597430  0.933740  0.964770  1.0  -0.405
  N  N358  1  0.525160  0.874170  0.135170  1.0  -0.3804
  N  N359  1  0.462870  0.912380  0.213870  1.0  -0.3598
  N  N360  1  0.594610  0.003970  0.835470  1.0  -0.3775
  N  N361  1  0.267070  0.002970  0.701900  1.0  -0.3966
  N  N362  1  0.207500  0.015670  0.531500  1.0  -0.3786
  N  N363  1  0.245710  0.116170  0.452800  1.0  -0.3584
  N  N364  1  0.337300  0.076020  0.831200  1.0  -0.3806
  N  N365  1  0.933740  0.336300  0.035230  1.0  -0.3966
  N  N366  1  0.874170  0.349000  0.864830  1.0  -0.3804
  N  N367  1  0.912380  0.449500  0.786130  1.0  -0.3584
  N  N368  1  0.003970  0.409350  0.164530  1.0  -0.3804
  N  N369  1  0.600400  0.669640  0.368570  1.0  -0.3967
  N  N370  1  0.540830  0.682340  0.198170  1.0  -0.3786
  N  N371  1  0.579040  0.782840  0.119470  1.0  -0.3584
  N  N372  1  0.670630  0.742690  0.497870  1.0  -0.3806
  N  N373  1  0.997030  0.264100  0.701900  1.0  -0.3983
  N  N374  1  0.984330  0.191830  0.531500  1.0  -0.3823
  N  N375  1  0.883830  0.129540  0.452800  1.0  -0.3603
  N  N376  1  0.923980  0.261280  0.831200  1.0  -0.3792
  N  N377  1  0.663700  0.597430  0.035230  1.0  -0.3981
  N  N378  1  0.651000  0.525160  0.864830  1.0  -0.384
  N  N379  1  0.550500  0.462870  0.786130  1.0  -0.3604
  N  N380  1  0.590650  0.594610  0.164530  1.0  -0.379
  N  N381  1  0.330360  0.930770  0.368570  1.0  -0.3978
  N  N382  1  0.317660  0.858500  0.198170  1.0  -0.3823
  N  N383  1  0.217160  0.796210  0.119470  1.0  -0.3603
  N  N384  1  0.257310  0.927950  0.497870  1.0  -0.377
  N  N385  1  0.735900  0.732930  0.701900  1.0  -0.3973
  N  N386  1  0.808170  0.792500  0.531500  1.0  -0.3799
  N  N387  1  0.870460  0.754290  0.452800  1.0  -0.3636
  N  N388  1  0.738720  0.662700  0.831200  1.0  -0.3771
  N  N389  1  0.402570  0.066260  0.035230  1.0  -0.3973
  N  N390  1  0.474840  0.125830  0.864830  1.0  -0.3817
  N  N391  1  0.537130  0.087620  0.786130  1.0  -0.3636
  N  N392  1  0.405390  0.996030  0.164530  1.0  -0.3771
  N  N393  1  0.069230  0.399600  0.368570  1.0  -0.3973
  N  N394  1  0.141500  0.459170  0.198170  1.0  -0.3799
  N  N395  1  0.203790  0.420960  0.119470  1.0  -0.3636
  N  N396  1  0.072050  0.329370  0.497870  1.0  -0.3771
