# generated using pymatgen
data_AgH8C9N4
_symmetry_space_group_name_H-M   'P 1'
_cell_length_a   28.15900000
_cell_length_b   28.15900000
_cell_length_c   11.93650000
_cell_angle_alpha   90.00000000
_cell_angle_beta   90.00000000
_cell_angle_gamma   120.00000000
_symmetry_Int_Tables_number   1
_chemical_formula_structural   AgH8C9N4
_chemical_formula_sum   'Ag18 H144 C162 N72'
_cell_volume   8196.75755581
_cell_formula_units_Z   18
loop_
 _symmetry_equiv_pos_site_id
 _symmetry_equiv_pos_as_xyz
  1  'x, y, z'
loop_
 _atom_site_type_symbol
 _atom_site_label
 _atom_site_symmetry_multiplicity
 _atom_site_fract_x
 _atom_site_fract_y
 _atom_site_fract_z
 _atom_site_occupancy
 _atom_site_charge
  Ag  Ag1  1  0.589050  0.068010  0.190370  1.0  0.3136
  Ag  Ag2  1  0.255720  0.401340  0.523700  1.0  0.3136
  Ag  Ag3  1  0.922380  0.734680  0.857040  1.0  0.3139
  Ag  Ag4  1  0.931990  0.521040  0.190370  1.0  0.3192
  Ag  Ag5  1  0.598660  0.854370  0.523700  1.0  0.319
  Ag  Ag6  1  0.265320  0.187710  0.857040  1.0  0.3191
  Ag  Ag7  1  0.478960  0.410950  0.190370  1.0  0.3184
  Ag  Ag8  1  0.145630  0.744280  0.523700  1.0  0.3183
  Ag  Ag9  1  0.812290  0.077620  0.857040  1.0  0.3181
  Ag  Ag10  1  0.410950  0.931990  0.809630  1.0  0.3163
  Ag  Ag11  1  0.077620  0.265320  0.142960  1.0  0.3166
  Ag  Ag12  1  0.744280  0.598660  0.476300  1.0  0.3163
  Ag  Ag13  1  0.068010  0.478960  0.809630  1.0  0.316
  Ag  Ag14  1  0.734680  0.812290  0.142960  1.0  0.316
  Ag  Ag15  1  0.401340  0.145630  0.476300  1.0  0.3159
  Ag  Ag16  1  0.521040  0.589050  0.809630  1.0  0.3171
  Ag  Ag17  1  0.187710  0.922380  0.142960  1.0  0.3167
  Ag  Ag18  1  0.854370  0.255720  0.476300  1.0  0.317
  H  H19  1  0.609900  0.004200  0.989800  1.0  0.0704
  H  H20  1  0.794300  0.227900  0.245400  1.0  0.0619
  H  H21  1  0.654600  0.091000  0.438800  1.0  0.0536
  H  H22  1  0.683400  0.008400  0.890500  1.0  0.0436
  H  H23  1  0.777200  0.158600  0.989600  1.0  0.042
  H  H24  1  0.736500  0.149200  0.530000  1.0  0.0829
  H  H25  1  0.673900  0.176400  0.108300  1.0  0.0762
  H  H26  1  0.738600  0.207300  0.086200  1.0  0.0466
  H  H27  1  0.276570  0.337530  0.323130  1.0  0.0701
  H  H28  1  0.460970  0.561230  0.578730  1.0  0.0619
  H  H29  1  0.321270  0.424330  0.772130  1.0  0.0535
  H  H30  1  0.350070  0.341730  0.223830  1.0  0.0436
  H  H31  1  0.443870  0.491930  0.322930  1.0  0.042
  H  H32  1  0.403170  0.482530  0.863330  1.0  0.0829
  H  H33  1  0.340570  0.509730  0.441630  1.0  0.0762
  H  H34  1  0.405270  0.540630  0.419530  1.0  0.0466
  H  H35  1  0.943230  0.670870  0.656470  1.0  0.0703
  H  H36  1  0.127630  0.894570  0.912070  1.0  0.0619
  H  H37  1  0.987930  0.757670  0.105470  1.0  0.0535
  H  H38  1  0.016730  0.675070  0.557170  1.0  0.0431
  H  H39  1  0.110530  0.825270  0.656270  1.0  0.0419
  H  H40  1  0.069830  0.815870  0.196670  1.0  0.083
  H  H41  1  0.007230  0.843070  0.774970  1.0  0.0778
  H  H42  1  0.071930  0.873970  0.752870  1.0  0.0466
  H  H43  1  0.995800  0.605700  0.989800  1.0  0.072
  H  H44  1  0.772100  0.566400  0.245400  1.0  0.062
  H  H45  1  0.909000  0.563600  0.438800  1.0  0.0536
  H  H46  1  0.991600  0.675000  0.890500  1.0  0.0425
  H  H47  1  0.841400  0.618600  0.989600  1.0  0.043
  H  H48  1  0.850800  0.587300  0.530000  1.0  0.0815
  H  H49  1  0.823600  0.497500  0.108300  1.0  0.0851
  H  H50  1  0.792700  0.531300  0.086200  1.0  0.0462
  H  H51  1  0.662470  0.939030  0.323130  1.0  0.0718
  H  H52  1  0.438770  0.899730  0.578730  1.0  0.062
  H  H53  1  0.575670  0.896930  0.772130  1.0  0.0536
  H  H54  1  0.658270  0.008330  0.223830  1.0  0.0424
  H  H55  1  0.508070  0.951930  0.322930  1.0  0.0429
  H  H56  1  0.517470  0.920630  0.863330  1.0  0.0815
  H  H57  1  0.490270  0.830830  0.441630  1.0  0.0851
  H  H58  1  0.459370  0.864630  0.419530  1.0  0.0462
  H  H59  1  0.329130  0.272370  0.656470  1.0  0.0718
  H  H60  1  0.105430  0.233070  0.912070  1.0  0.062
  H  H61  1  0.242330  0.230270  0.105470  1.0  0.0536
  H  H62  1  0.324930  0.341670  0.557170  1.0  0.0429
  H  H63  1  0.174730  0.285270  0.656270  1.0  0.043
  H  H64  1  0.184130  0.253970  0.196670  1.0  0.0815
  H  H65  1  0.156930  0.164170  0.774970  1.0  0.0851
  H  H66  1  0.126030  0.197970  0.752870  1.0  0.0462
  H  H67  1  0.394300  0.390100  0.989800  1.0  0.0712
  H  H68  1  0.433600  0.205700  0.245400  1.0  0.0621
  H  H69  1  0.436400  0.345400  0.438800  1.0  0.0542
  H  H70  1  0.325000  0.316600  0.890500  1.0  0.0431
  H  H71  1  0.381400  0.222800  0.989600  1.0  0.0422
  H  H72  1  0.412700  0.263500  0.530000  1.0  0.0822
  H  H73  1  0.502500  0.326100  0.108300  1.0  0.087
  H  H74  1  0.468700  0.261400  0.086200  1.0  0.0499
  H  H75  1  0.060970  0.723430  0.323130  1.0  0.0713
  H  H76  1  0.100270  0.539030  0.578730  1.0  0.0621
  H  H77  1  0.103070  0.678730  0.772130  1.0  0.0542
  H  H78  1  0.991670  0.649930  0.223830  1.0  0.0431
  H  H79  1  0.048070  0.556130  0.322930  1.0  0.0422
  H  H80  1  0.079370  0.596830  0.863330  1.0  0.0822
  H  H81  1  0.169170  0.659430  0.441630  1.0  0.087
  H  H82  1  0.135370  0.594730  0.419530  1.0  0.0499
  H  H83  1  0.727630  0.056770  0.656470  1.0  0.071
  H  H84  1  0.766930  0.872370  0.912070  1.0  0.062
  H  H85  1  0.769730  0.012070  0.105470  1.0  0.0543
  H  H86  1  0.658330  0.983270  0.557170  1.0  0.0437
  H  H87  1  0.714730  0.889470  0.656270  1.0  0.0422
  H  H88  1  0.746030  0.930170  0.196670  1.0  0.0822
  H  H89  1  0.835830  0.992770  0.774970  1.0  0.0839
  H  H90  1  0.802030  0.928070  0.752870  1.0  0.0499
  H  H91  1  0.390100  0.995800  0.010200  1.0  0.0709
  H  H92  1  0.205700  0.772100  0.754600  1.0  0.062
  H  H93  1  0.345400  0.909000  0.561200  1.0  0.0533
  H  H94  1  0.316600  0.991600  0.109500  1.0  0.0444
  H  H95  1  0.222800  0.841400  0.010400  1.0  0.0421
  H  H96  1  0.263500  0.850800  0.470000  1.0  0.0821
  H  H97  1  0.326100  0.823600  0.891700  1.0  0.0752
  H  H98  1  0.261400  0.792700  0.913800  1.0  0.0481
  H  H99  1  0.056770  0.329130  0.343530  1.0  0.0708
  H  H100  1  0.872370  0.105430  0.087930  1.0  0.062
  H  H101  1  0.012070  0.242330  0.894530  1.0  0.0533
  H  H102  1  0.983270  0.324930  0.442830  1.0  0.044
  H  H103  1  0.889470  0.174730  0.343730  1.0  0.0421
  H  H104  1  0.930170  0.184130  0.803330  1.0  0.0821
  H  H105  1  0.992770  0.156930  0.225030  1.0  0.0767
  H  H106  1  0.928070  0.126030  0.247130  1.0  0.0481
  H  H107  1  0.723430  0.662470  0.676870  1.0  0.0707
  H  H108  1  0.539030  0.438770  0.421270  1.0  0.062
  H  H109  1  0.678730  0.575670  0.227870  1.0  0.0533
  H  H110  1  0.649930  0.658270  0.776170  1.0  0.0444
  H  H111  1  0.556130  0.508070  0.677070  1.0  0.0422
  H  H112  1  0.596830  0.517470  0.136670  1.0  0.0821
  H  H113  1  0.659430  0.490270  0.558370  1.0  0.0752
  H  H114  1  0.594730  0.459370  0.580470  1.0  0.0481
  H  H115  1  0.004200  0.394300  0.010200  1.0  0.0736
  H  H116  1  0.227900  0.433600  0.754600  1.0  0.0622
  H  H117  1  0.091000  0.436400  0.561200  1.0  0.0531
  H  H118  1  0.008400  0.325000  0.109500  1.0  0.0434
  H  H119  1  0.158600  0.381400  0.010400  1.0  0.0414
  H  H120  1  0.149200  0.412700  0.470000  1.0  0.0814
  H  H121  1  0.176400  0.502500  0.891700  1.0  0.0837
  H  H122  1  0.207300  0.468700  0.913800  1.0  0.0443
  H  H123  1  0.670870  0.727630  0.343530  1.0  0.0734
  H  H124  1  0.894570  0.766930  0.087930  1.0  0.0622
  H  H125  1  0.757670  0.769730  0.894530  1.0  0.0532
  H  H126  1  0.675070  0.658330  0.442830  1.0  0.0439
  H  H127  1  0.825270  0.714730  0.343730  1.0  0.0414
  H  H128  1  0.815870  0.746030  0.803330  1.0  0.0814
  H  H129  1  0.843070  0.835830  0.225030  1.0  0.0838
  H  H130  1  0.873970  0.802030  0.247130  1.0  0.0443
  H  H131  1  0.337530  0.060970  0.676870  1.0  0.0734
  H  H132  1  0.561230  0.100270  0.421270  1.0  0.0622
  H  H133  1  0.424330  0.103070  0.227870  1.0  0.0532
  H  H134  1  0.341730  0.991670  0.776170  1.0  0.0433
  H  H135  1  0.491930  0.048070  0.677070  1.0  0.0413
  H  H136  1  0.482530  0.079370  0.136670  1.0  0.0814
  H  H137  1  0.509730  0.169170  0.558370  1.0  0.0837
  H  H138  1  0.540630  0.135370  0.580470  1.0  0.0443
  H  H139  1  0.605700  0.609900  0.010200  1.0  0.071
  H  H140  1  0.566400  0.794300  0.754600  1.0  0.0623
  H  H141  1  0.563600  0.654600  0.561200  1.0  0.0535
  H  H142  1  0.675000  0.683400  0.109500  1.0  0.0433
  H  H143  1  0.618600  0.777200  0.010400  1.0  0.0424
  H  H144  1  0.587300  0.736500  0.470000  1.0  0.0815
  H  H145  1  0.497500  0.673900  0.891700  1.0  0.0871
  H  H146  1  0.531300  0.738600  0.913800  1.0  0.0498
  H  H147  1  0.272370  0.943230  0.343530  1.0  0.0708
  H  H148  1  0.233070  0.127630  0.087930  1.0  0.0622
  H  H149  1  0.230270  0.987930  0.894530  1.0  0.0535
  H  H150  1  0.341670  0.016730  0.442830  1.0  0.0432
  H  H151  1  0.285270  0.110530  0.343730  1.0  0.0423
  H  H152  1  0.253970  0.069830  0.803330  1.0  0.0815
  H  H153  1  0.164170  0.007230  0.225030  1.0  0.0836
  H  H154  1  0.197970  0.071930  0.247130  1.0  0.0498
  H  H155  1  0.939030  0.276570  0.676870  1.0  0.0711
  H  H156  1  0.899730  0.460970  0.421270  1.0  0.0623
  H  H157  1  0.896930  0.321270  0.227870  1.0  0.0535
  H  H158  1  0.008330  0.350070  0.776170  1.0  0.0434
  H  H159  1  0.951930  0.443870  0.677070  1.0  0.0424
  H  H160  1  0.920630  0.403170  0.136670  1.0  0.0815
  H  H161  1  0.830830  0.340570  0.558370  1.0  0.0871
  H  H162  1  0.864630  0.405270  0.580470  1.0  0.0498
  C  C163  1  0.644500  0.036900  0.990900  1.0  0.1008
  C  C164  1  0.765400  0.200400  0.289000  1.0  0.07
  C  C165  1  0.717000  0.166900  0.239500  1.0  0.2848
  C  C166  1  0.683400  0.120300  0.398200  1.0  0.1052
  C  C167  1  0.688800  0.039500  0.932100  1.0  0.0847
  C  C168  1  0.700400  0.126000  0.048700  1.0  0.2277
  C  C169  1  0.742500  0.125900  0.989500  1.0  0.12
  C  C170  1  0.732200  0.154500  0.452900  1.0  0.0549
  C  C171  1  0.707200  0.173200  0.115700  1.0  -0.3665
  C  C172  1  0.311170  0.370230  0.324230  1.0  0.1008
  C  C173  1  0.432070  0.533730  0.622330  1.0  0.07
  C  C174  1  0.383670  0.500230  0.572830  1.0  0.2848
  C  C175  1  0.350070  0.453630  0.731530  1.0  0.1052
  C  C176  1  0.355470  0.372830  0.265430  1.0  0.0847
  C  C177  1  0.367070  0.459330  0.382030  1.0  0.2277
  C  C178  1  0.409170  0.459230  0.322830  1.0  0.12
  C  C179  1  0.398870  0.487830  0.786230  1.0  0.0545
  C  C180  1  0.373870  0.506530  0.449030  1.0  -0.3665
  C  C181  1  0.977830  0.703570  0.657570  1.0  0.1008
  C  C182  1  0.098730  0.867070  0.955670  1.0  0.07
  C  C183  1  0.050330  0.833570  0.906170  1.0  0.2849
  C  C184  1  0.016730  0.786970  0.064870  1.0  0.1052
  C  C185  1  0.022130  0.706170  0.598770  1.0  0.0845
  C  C186  1  0.033730  0.792670  0.715370  1.0  0.2277
  C  C187  1  0.075830  0.792570  0.656170  1.0  0.12
  C  C188  1  0.065530  0.821170  0.119570  1.0  0.0551
  C  C189  1  0.040530  0.839870  0.782370  1.0  -0.3665
  C  C190  1  0.963100  0.607600  0.990900  1.0  0.0994
  C  C191  1  0.799600  0.565000  0.289000  1.0  0.0724
  C  C192  1  0.833100  0.550100  0.239500  1.0  0.2847
  C  C193  1  0.879700  0.563100  0.398200  1.0  0.1084
  C  C194  1  0.960500  0.649300  0.932100  1.0  0.0856
  C  C195  1  0.874000  0.574400  0.048700  1.0  0.2289
  C  C196  1  0.874100  0.616600  0.989500  1.0  0.1225
  C  C197  1  0.845500  0.577700  0.452900  1.0  0.0527
  C  C198  1  0.826800  0.534000  0.115700  1.0  -0.3679
  C  C199  1  0.629770  0.940930  0.324230  1.0  0.0994
  C  C200  1  0.466270  0.898330  0.622330  1.0  0.0724
  C  C201  1  0.499770  0.883430  0.572830  1.0  0.2847
  C  C202  1  0.546370  0.896430  0.731530  1.0  0.1083
  C  C203  1  0.627170  0.982630  0.265430  1.0  0.0856
  C  C204  1  0.540670  0.907730  0.382030  1.0  0.2289
  C  C205  1  0.540770  0.949930  0.322830  1.0  0.1225
  C  C206  1  0.512170  0.911030  0.786230  1.0  0.0526
  C  C207  1  0.493470  0.867330  0.449030  1.0  -0.3679
  C  C208  1  0.296430  0.274270  0.657570  1.0  0.0996
  C  C209  1  0.132930  0.231670  0.955670  1.0  0.0724
  C  C210  1  0.166430  0.216770  0.906170  1.0  0.2847
  C  C211  1  0.213030  0.229770  0.064870  1.0  0.1084
  C  C212  1  0.293830  0.315970  0.598770  1.0  0.0857
  C  C213  1  0.207330  0.241070  0.715370  1.0  0.2289
  C  C214  1  0.207430  0.283270  0.656170  1.0  0.1225
  C  C215  1  0.178830  0.244370  0.119570  1.0  0.0527
  C  C216  1  0.160130  0.200670  0.782370  1.0  -0.3679
  C  C217  1  0.392400  0.355500  0.990900  1.0  0.0998
  C  C218  1  0.435000  0.234600  0.289000  1.0  0.0705
  C  C219  1  0.449900  0.283000  0.239500  1.0  0.2838
  C  C220  1  0.436900  0.316600  0.398200  1.0  0.1046
  C  C221  1  0.350700  0.311200  0.932100  1.0  0.0864
  C  C222  1  0.425600  0.299600  0.048700  1.0  0.2291
  C  C223  1  0.383400  0.257500  0.989500  1.0  0.1188
  C  C224  1  0.422300  0.267800  0.452900  1.0  0.0533
  C  C225  1  0.466000  0.292800  0.115700  1.0  -0.3694
  C  C226  1  0.059070  0.688830  0.324230  1.0  0.0998
  C  C227  1  0.101670  0.567930  0.622330  1.0  0.0705
  C  C228  1  0.116570  0.616330  0.572830  1.0  0.2838
  C  C229  1  0.103570  0.649930  0.731530  1.0  0.1046
  C  C230  1  0.017370  0.644530  0.265430  1.0  0.0863
  C  C231  1  0.092270  0.632930  0.382030  1.0  0.2291
  C  C232  1  0.050070  0.590830  0.322830  1.0  0.1188
  C  C233  1  0.088970  0.601130  0.786230  1.0  0.0538
  C  C234  1  0.132670  0.626130  0.449030  1.0  -0.3694
  C  C235  1  0.725730  0.022170  0.657570  1.0  0.0998
  C  C236  1  0.768330  0.901270  0.955670  1.0  0.0705
  C  C237  1  0.783230  0.949670  0.906170  1.0  0.2838
  C  C238  1  0.770230  0.983270  0.064870  1.0  0.1045
  C  C239  1  0.684030  0.977870  0.598770  1.0  0.0864
  C  C240  1  0.758930  0.966270  0.715370  1.0  0.2291
  C  C241  1  0.716730  0.924170  0.656170  1.0  0.1188
  C  C242  1  0.755630  0.934470  0.119570  1.0  0.0535
  C  C243  1  0.799330  0.959470  0.782370  1.0  -0.3694
  C  C244  1  0.355500  0.963100  0.009100  1.0  0.1006
  C  C245  1  0.234600  0.799600  0.711000  1.0  0.0711
  C  C246  1  0.283000  0.833100  0.760500  1.0  0.2853
  C  C247  1  0.316600  0.879700  0.601800  1.0  0.1035
  C  C248  1  0.311200  0.960500  0.067900  1.0  0.0841
  C  C249  1  0.299600  0.874000  0.951300  1.0  0.2275
  C  C250  1  0.257500  0.874100  0.010500  1.0  0.1204
  C  C251  1  0.267800  0.845500  0.547100  1.0  0.0565
  C  C252  1  0.292800  0.826800  0.884300  1.0  -0.367
  C  C253  1  0.022170  0.296430  0.342430  1.0  0.1006
  C  C254  1  0.901270  0.132930  0.044330  1.0  0.0711
  C  C255  1  0.949670  0.166430  0.093830  1.0  0.2854
  C  C256  1  0.983270  0.213030  0.935130  1.0  0.1035
  C  C257  1  0.977870  0.293830  0.401230  1.0  0.0838
  C  C258  1  0.966270  0.207330  0.284630  1.0  0.2275
  C  C259  1  0.924170  0.207430  0.343830  1.0  0.1204
  C  C260  1  0.934470  0.178830  0.880430  1.0  0.0568
  C  C261  1  0.959470  0.160130  0.217630  1.0  -0.367
  C  C262  1  0.688830  0.629770  0.675770  1.0  0.1006
  C  C263  1  0.567930  0.466270  0.377670  1.0  0.0711
  C  C264  1  0.616330  0.499770  0.427170  1.0  0.2852
  C  C265  1  0.649930  0.546370  0.268470  1.0  0.1035
  C  C266  1  0.644530  0.627170  0.734570  1.0  0.0841
  C  C267  1  0.632930  0.540670  0.617970  1.0  0.2275
  C  C268  1  0.590830  0.540770  0.677170  1.0  0.1204
  C  C269  1  0.601130  0.512170  0.213770  1.0  0.0561
  C  C270  1  0.626130  0.493470  0.550970  1.0  -0.367
  C  C271  1  0.036900  0.392400  0.009100  1.0  0.1002
  C  C272  1  0.200400  0.435000  0.711000  1.0  0.0724
  C  C273  1  0.166900  0.449900  0.760500  1.0  0.2847
  C  C274  1  0.120300  0.436900  0.601800  1.0  0.106
  C  C275  1  0.039500  0.350700  0.067900  1.0  0.0852
  C  C276  1  0.126000  0.425600  0.951300  1.0  0.2285
  C  C277  1  0.125900  0.383400  0.010500  1.0  0.119
  C  C278  1  0.154500  0.422300  0.547100  1.0  0.0562
  C  C279  1  0.173200  0.466000  0.884300  1.0  -0.371
  C  C280  1  0.703570  0.725730  0.342430  1.0  0.1003
  C  C281  1  0.867070  0.768330  0.044330  1.0  0.0724
  C  C282  1  0.833570  0.783230  0.093830  1.0  0.2846
  C  C283  1  0.786970  0.770230  0.935130  1.0  0.106
  C  C284  1  0.706170  0.684030  0.401230  1.0  0.0853
  C  C285  1  0.792670  0.758930  0.284630  1.0  0.2285
  C  C286  1  0.792570  0.716730  0.343830  1.0  0.119
  C  C287  1  0.821170  0.755630  0.880430  1.0  0.0562
  C  C288  1  0.839870  0.799330  0.217630  1.0  -0.371
  C  C289  1  0.370230  0.059070  0.675770  1.0  0.1002
  C  C290  1  0.533730  0.101670  0.377670  1.0  0.0724
  C  C291  1  0.500230  0.116570  0.427170  1.0  0.2847
  C  C292  1  0.453630  0.103570  0.268470  1.0  0.106
  C  C293  1  0.372830  0.017370  0.734570  1.0  0.0852
  C  C294  1  0.459330  0.092270  0.617970  1.0  0.2285
  C  C295  1  0.459230  0.050070  0.677170  1.0  0.119
  C  C296  1  0.487830  0.088970  0.213770  1.0  0.0561
  C  C297  1  0.506530  0.132670  0.550970  1.0  -0.371
  C  C298  1  0.607600  0.644500  0.009100  1.0  0.0978
  C  C299  1  0.565000  0.765400  0.711000  1.0  0.0703
  C  C300  1  0.550100  0.717000  0.760500  1.0  0.2844
  C  C301  1  0.563100  0.683400  0.601800  1.0  0.1027
  C  C302  1  0.649300  0.688800  0.067900  1.0  0.0866
  C  C303  1  0.574400  0.700400  0.951300  1.0  0.2279
  C  C304  1  0.616600  0.742500  0.010500  1.0  0.1183
  C  C305  1  0.577700  0.732200  0.547100  1.0  0.0556
  C  C306  1  0.534000  0.707200  0.884300  1.0  -0.3689
  C  C307  1  0.274270  0.977830  0.342430  1.0  0.0978
  C  C308  1  0.231670  0.098730  0.044330  1.0  0.0703
  C  C309  1  0.216770  0.050330  0.093830  1.0  0.2844
  C  C310  1  0.229770  0.016730  0.935130  1.0  0.1026
  C  C311  1  0.315970  0.022130  0.401230  1.0  0.0866
  C  C312  1  0.241070  0.033730  0.284630  1.0  0.2279
  C  C313  1  0.283270  0.075830  0.343830  1.0  0.1183
  C  C314  1  0.244370  0.065530  0.880430  1.0  0.0558
  C  C315  1  0.200670  0.040530  0.217630  1.0  -0.3689
  C  C316  1  0.940930  0.311170  0.675770  1.0  0.0978
  C  C317  1  0.898330  0.432070  0.377670  1.0  0.0703
  C  C318  1  0.883430  0.383670  0.427170  1.0  0.2845
  C  C319  1  0.896430  0.350070  0.268470  1.0  0.1027
  C  C320  1  0.982630  0.355470  0.734570  1.0  0.0865
  C  C321  1  0.907730  0.367070  0.617970  1.0  0.2279
  C  C322  1  0.949930  0.409170  0.677170  1.0  0.1183
  C  C323  1  0.911030  0.398870  0.213770  1.0  0.0561
  C  C324  1  0.867330  0.373870  0.550970  1.0  -0.3689
  N  N325  1  0.650900  0.080600  0.048800  1.0  -0.4118
  N  N326  1  0.737700  0.083600  0.932800  1.0  -0.3641
  N  N327  1  0.675800  0.126700  0.294300  1.0  -0.3736
  N  N328  1  0.773900  0.196100  0.394600  1.0  -0.3385
  N  N329  1  0.317570  0.413930  0.382130  1.0  -0.4115
  N  N330  1  0.404370  0.416930  0.266130  1.0  -0.364
  N  N331  1  0.342470  0.460030  0.627630  1.0  -0.3736
  N  N332  1  0.440570  0.529430  0.727930  1.0  -0.3384
  N  N333  1  0.984230  0.747270  0.715470  1.0  -0.4118
  N  N334  1  0.071030  0.750270  0.599470  1.0  -0.3636
  N  N335  1  0.009130  0.793370  0.960970  1.0  -0.3736
  N  N336  1  0.107230  0.862770  0.061270  1.0  -0.3385
  N  N337  1  0.919400  0.570300  0.048800  1.0  -0.4078
  N  N338  1  0.916400  0.654100  0.932800  1.0  -0.3609
  N  N339  1  0.873300  0.549100  0.294300  1.0  -0.3707
  N  N340  1  0.803900  0.577800  0.394600  1.0  -0.3414
  N  N341  1  0.586070  0.903630  0.382130  1.0  -0.4083
  N  N342  1  0.583070  0.987430  0.266130  1.0  -0.3609
  N  N343  1  0.539970  0.882430  0.627630  1.0  -0.3708
  N  N344  1  0.470570  0.911130  0.727930  1.0  -0.3416
  N  N345  1  0.252730  0.236970  0.715470  1.0  -0.4078
  N  N346  1  0.249730  0.320770  0.599470  1.0  -0.3608
  N  N347  1  0.206630  0.215770  0.960970  1.0  -0.3706
  N  N348  1  0.137230  0.244470  0.061270  1.0  -0.3414
  N  N349  1  0.429700  0.349100  0.048800  1.0  -0.4066
  N  N350  1  0.345900  0.262300  0.932800  1.0  -0.3626
  N  N351  1  0.450900  0.324200  0.294300  1.0  -0.3727
  N  N352  1  0.422200  0.226100  0.394600  1.0  -0.3401
  N  N353  1  0.096370  0.682430  0.382130  1.0  -0.4063
  N  N354  1  0.012570  0.595630  0.266130  1.0  -0.3626
  N  N355  1  0.117570  0.657530  0.627630  1.0  -0.3726
  N  N356  1  0.088870  0.559430  0.727930  1.0  -0.3399
  N  N357  1  0.763030  0.015770  0.715470  1.0  -0.4066
  N  N358  1  0.679230  0.928970  0.599470  1.0  -0.3628
  N  N359  1  0.784230  0.990870  0.960970  1.0  -0.3728
  N  N360  1  0.755530  0.892770  0.061270  1.0  -0.3401
  N  N361  1  0.349100  0.919400  0.951200  1.0  -0.407
  N  N362  1  0.262300  0.916400  0.067200  1.0  -0.3611
  N  N363  1  0.324200  0.873300  0.705700  1.0  -0.3718
  N  N364  1  0.226100  0.803900  0.605400  1.0  -0.3404
  N  N365  1  0.015770  0.252730  0.284530  1.0  -0.407
  N  N366  1  0.928970  0.249730  0.400530  1.0  -0.3611
  N  N367  1  0.990870  0.206630  0.039030  1.0  -0.3718
  N  N368  1  0.892770  0.137230  0.938730  1.0  -0.3404
  N  N369  1  0.682430  0.586070  0.617870  1.0  -0.4067
  N  N370  1  0.595630  0.583070  0.733870  1.0  -0.361
  N  N371  1  0.657530  0.539970  0.372370  1.0  -0.3718
  N  N372  1  0.559430  0.470570  0.272070  1.0  -0.3403
  N  N373  1  0.080600  0.429700  0.951200  1.0  -0.4091
  N  N374  1  0.083600  0.345900  0.067200  1.0  -0.3593
  N  N375  1  0.126700  0.450900  0.705700  1.0  -0.3697
  N  N376  1  0.196100  0.422200  0.605400  1.0  -0.3416
  N  N377  1  0.747270  0.763030  0.284530  1.0  -0.4091
  N  N378  1  0.750270  0.679230  0.400530  1.0  -0.3591
  N  N379  1  0.793370  0.784230  0.039030  1.0  -0.3697
  N  N380  1  0.862770  0.755530  0.938730  1.0  -0.3415
  N  N381  1  0.413930  0.096370  0.617870  1.0  -0.4095
  N  N382  1  0.416930  0.012570  0.733870  1.0  -0.3593
  N  N383  1  0.460030  0.117570  0.372370  1.0  -0.3699
  N  N384  1  0.529430  0.088870  0.272070  1.0  -0.3417
  N  N385  1  0.570300  0.650900  0.951200  1.0  -0.4035
  N  N386  1  0.654100  0.737700  0.067200  1.0  -0.3627
  N  N387  1  0.549100  0.675800  0.705700  1.0  -0.3725
  N  N388  1  0.577800  0.773900  0.605400  1.0  -0.3402
  N  N389  1  0.236970  0.984230  0.284530  1.0  -0.4035
  N  N390  1  0.320770  0.071030  0.400530  1.0  -0.3629
  N  N391  1  0.215770  0.009130  0.039030  1.0  -0.3725
  N  N392  1  0.244470  0.107230  0.938730  1.0  -0.3402
  N  N393  1  0.903630  0.317570  0.617870  1.0  -0.4032
  N  N394  1  0.987430  0.404370  0.733870  1.0  -0.3627
  N  N395  1  0.882430  0.342470  0.372370  1.0  -0.3724
  N  N396  1  0.911130  0.440570  0.272070  1.0  -0.34
