# generated using pymatgen
data_AgH8C9N4
_symmetry_space_group_name_H-M   'P 1'
_cell_length_a   15.17900000
_cell_length_b   16.74600000
_cell_length_c   28.86300000
_cell_angle_alpha   90.00000000
_cell_angle_beta   97.96000000
_cell_angle_gamma   90.00000000
_symmetry_Int_Tables_number   1
_chemical_formula_structural   AgH8C9N4
_chemical_formula_sum   'Ag20 H160 C180 N80'
_cell_volume   7265.92642641
_cell_formula_units_Z   20
loop_
 _symmetry_equiv_pos_site_id
 _symmetry_equiv_pos_as_xyz
  1  'x, y, z'
loop_
 _atom_site_type_symbol
 _atom_site_label
 _atom_site_symmetry_multiplicity
 _atom_site_fract_x
 _atom_site_fract_y
 _atom_site_fract_z
 _atom_site_occupancy
 _atom_site_charge
  Ag  Ag1  1  0.795000  0.094810  0.236920  1.0  0.3469
  Ag  Ag2  1  0.181360  0.086790  0.414450  1.0  0.3392
  Ag  Ag3  1  0.420450  0.370470  0.277520  1.0  0.156
  Ag  Ag4  1  0.052530  0.345230  0.082990  1.0  0.3306
  Ag  Ag5  1  0.603820  0.910630  0.009680  1.0  0.1498
  Ag  Ag6  1  0.705000  0.594810  0.263080  1.0  0.3469
  Ag  Ag7  1  0.318640  0.586790  0.085550  1.0  0.3399
  Ag  Ag8  1  0.079550  0.870470  0.222480  1.0  0.1556
  Ag  Ag9  1  0.447470  0.845230  0.417010  1.0  0.3301
  Ag  Ag10  1  0.896180  0.410630  0.490320  1.0  0.1498
  Ag  Ag11  1  0.205000  0.905190  0.763080  1.0  0.3467
  Ag  Ag12  1  0.818640  0.913210  0.585550  1.0  0.3404
  Ag  Ag13  1  0.579550  0.629530  0.722480  1.0  0.1564
  Ag  Ag14  1  0.947470  0.654770  0.917010  1.0  0.3305
  Ag  Ag15  1  0.396180  0.089370  0.990320  1.0  0.1503
  Ag  Ag16  1  0.295000  0.405190  0.736920  1.0  0.3469
  Ag  Ag17  1  0.681360  0.413210  0.914450  1.0  0.3398
  Ag  Ag18  1  0.920450  0.129530  0.777520  1.0  0.1568
  Ag  Ag19  1  0.552530  0.154770  0.582990  1.0  0.3308
  Ag  Ag20  1  0.103820  0.589370  0.509680  1.0  0.1499
  H  H21  1  0.850400  0.097700  0.346800  1.0  0.0688
  H  H22  1  0.096000  0.391500  0.192300  1.0  0.0525
  H  H23  1  0.999900  0.051300  0.444500  1.0  0.1232
  H  H24  1  0.904600  0.090800  0.428200  1.0  0.1001
  H  H25  1  0.381300  0.364500  0.163200  1.0  0.0758
  H  H26  1  0.455600  0.096500  0.392800  1.0  0.1059
  H  H27  1  0.362400  0.051600  0.380300  1.0  0.122
  H  H28  1  0.726600  0.924600  0.185100  1.0  0.0507
  H  H29  1  0.711600  0.188300  0.150200  1.0  0.1284
  H  H30  1  0.726000  0.191600  0.096400  1.0  0.112
  H  H31  1  0.211100  0.390900  0.253100  1.0  0.0764
  H  H32  1  0.699100  0.878500  0.362800  1.0  0.0518
  H  H33  1  0.236700  0.409100  0.063900  1.0  0.1103
  H  H34  1  0.335000  0.377400  0.081800  1.0  0.103
  H  H35  1  0.078100  0.233700  0.174000  1.0  0.067
  H  H36  1  0.460300  0.220800  0.353600  1.0  0.0723
  H  H37  1  0.788600  0.928000  0.312600  1.0  0.0722
  H  H38  1  0.510800  0.066200  0.228500  1.0  0.0906
  H  H39  1  0.601500  0.059400  0.206500  1.0  0.1174
  H  H40  1  0.466600  0.193900  0.248200  1.0  0.0746
  H  H41  1  0.752400  0.284200  0.261800  1.0  0.0548
  H  H42  1  0.509800  0.127500  0.473100  1.0  0.0709
  H  H43  1  0.636500  0.371200  0.271200  1.0  0.0755
  H  H44  1  0.997100  0.168100  0.225800  1.0  0.0612
  H  H45  1  0.124500  0.036300  0.309900  1.0  0.067
  H  H46  1  0.860600  0.251800  0.082800  1.0  0.0659
  H  H47  1  0.369800  0.257400  0.047800  1.0  0.0765
  H  H48  1  0.003000  0.034100  0.253500  1.0  0.0749
  H  H49  1  0.684100  0.865400  0.114100  1.0  0.0684
  H  H50  1  0.702800  0.073100  0.052400  1.0  0.0723
  H  H51  1  0.253600  0.029100  0.516800  1.0  0.053
  H  H52  1  0.887000  0.227500  0.448600  1.0  0.075
  H  H53  1  0.165400  0.260400  0.361700  1.0  0.0657
  H  H54  1  0.500000  0.009000  0.304000  1.0  0.0772
  H  H55  1  0.188200  0.262500  0.467200  1.0  0.071
  H  H56  1  0.083700  0.172100  0.034000  1.0  0.0684
  H  H57  1  0.374700  0.057000  0.572600  1.0  0.0755
  H  H58  1  0.247300  0.355800  0.328500  1.0  0.072
  H  H59  1  0.095500  0.364500  0.484400  1.0  0.0748
  H  H60  1  0.188900  0.094200  0.008000  1.0  0.0799
  H  H61  1  0.649600  0.597700  0.153200  1.0  0.0692
  H  H62  1  0.404000  0.891500  0.307700  1.0  0.0511
  H  H63  1  0.500100  0.551300  0.055500  1.0  0.123
  H  H64  1  0.595400  0.590800  0.071800  1.0  0.099
  H  H65  1  0.118700  0.864500  0.336800  1.0  0.0759
  H  H66  1  0.044400  0.596500  0.107200  1.0  0.1057
  H  H67  1  0.137600  0.551600  0.119700  1.0  0.122
  H  H68  1  0.773400  0.424600  0.314900  1.0  0.0491
  H  H69  1  0.788400  0.688300  0.349800  1.0  0.1282
  H  H70  1  0.774000  0.691600  0.403600  1.0  0.1092
  H  H71  1  0.288900  0.890900  0.246900  1.0  0.0762
  H  H72  1  0.800900  0.378500  0.137200  1.0  0.051
  H  H73  1  0.263300  0.909100  0.436100  1.0  0.109
  H  H74  1  0.165000  0.877400  0.418200  1.0  0.1028
  H  H75  1  0.421900  0.733700  0.326000  1.0  0.0674
  H  H76  1  0.039700  0.720800  0.146400  1.0  0.0723
  H  H77  1  0.711400  0.428000  0.187400  1.0  0.0728
  H  H78  1  0.989200  0.566200  0.271500  1.0  0.0886
  H  H79  1  0.898500  0.559400  0.293500  1.0  0.1152
  H  H80  1  0.033400  0.693900  0.251800  1.0  0.076
  H  H81  1  0.747600  0.784200  0.238200  1.0  0.0553
  H  H82  1  0.990200  0.627500  0.026900  1.0  0.0704
  H  H83  1  0.863500  0.871200  0.228800  1.0  0.0759
  H  H84  1  0.502900  0.668100  0.274200  1.0  0.0611
  H  H85  1  0.375500  0.536300  0.190100  1.0  0.0666
  H  H86  1  0.639400  0.751800  0.417200  1.0  0.0662
  H  H87  1  0.130200  0.757400  0.452200  1.0  0.0766
  H  H88  1  0.497000  0.534100  0.246500  1.0  0.0753
  H  H89  1  0.815900  0.365400  0.385900  1.0  0.0683
  H  H90  1  0.797200  0.573100  0.447600  1.0  0.0723
  H  H91  1  0.246400  0.529100  0.983200  1.0  0.0536
  H  H92  1  0.613000  0.727500  0.051400  1.0  0.0754
  H  H93  1  0.334600  0.760400  0.138300  1.0  0.065
  H  H94  1  0.000000  0.509000  0.196000  1.0  0.0768
  H  H95  1  0.311800  0.762500  0.032800  1.0  0.0717
  H  H96  1  0.416300  0.672100  0.466000  1.0  0.0676
  H  H97  1  0.125300  0.557000  0.927400  1.0  0.0756
  H  H98  1  0.252700  0.855800  0.171500  1.0  0.0724
  H  H99  1  0.404500  0.864500  0.015600  1.0  0.0749
  H  H100  1  0.311100  0.594200  0.492000  1.0  0.08
  H  H101  1  0.149600  0.902300  0.653200  1.0  0.0688
  H  H102  1  0.904000  0.608500  0.807700  1.0  0.0518
  H  H103  1  0.000100  0.948700  0.555500  1.0  0.1242
  H  H104  1  0.095400  0.909200  0.571800  1.0  0.099
  H  H105  1  0.618700  0.635500  0.836800  1.0  0.0755
  H  H106  1  0.544400  0.903500  0.607200  1.0  0.1058
  H  H107  1  0.637600  0.948400  0.619700  1.0  0.121
  H  H108  1  0.273400  0.075400  0.814900  1.0  0.0511
  H  H109  1  0.288400  0.811700  0.849800  1.0  0.1284
  H  H110  1  0.274000  0.808400  0.903600  1.0  0.1089
  H  H111  1  0.788900  0.609100  0.746900  1.0  0.0762
  H  H112  1  0.300900  0.121500  0.637200  1.0  0.0515
  H  H113  1  0.763300  0.590900  0.936100  1.0  0.1105
  H  H114  1  0.665000  0.622600  0.918200  1.0  0.1033
  H  H115  1  0.921900  0.766300  0.826000  1.0  0.0677
  H  H116  1  0.539700  0.779200  0.646400  1.0  0.0724
  H  H117  1  0.211400  0.072000  0.687400  1.0  0.0728
  H  H118  1  0.489200  0.933800  0.771500  1.0  0.0888
  H  H119  1  0.398500  0.940600  0.793500  1.0  0.1154
  H  H120  1  0.533400  0.806100  0.751800  1.0  0.0759
  H  H121  1  0.247600  0.715800  0.738200  1.0  0.0548
  H  H122  1  0.490200  0.872500  0.526900  1.0  0.0705
  H  H123  1  0.363500  0.628800  0.728800  1.0  0.0758
  H  H124  1  0.002900  0.831900  0.774200  1.0  0.0613
  H  H125  1  0.875500  0.963700  0.690100  1.0  0.0667
  H  H126  1  0.139400  0.748200  0.917200  1.0  0.0662
  H  H127  1  0.630200  0.742600  0.952200  1.0  0.0782
  H  H128  1  0.997000  0.965900  0.746500  1.0  0.0751
  H  H129  1  0.315900  0.134600  0.885900  1.0  0.0686
  H  H130  1  0.297200  0.926900  0.947600  1.0  0.0722
  H  H131  1  0.746400  0.970900  0.483200  1.0  0.0538
  H  H132  1  0.113000  0.772500  0.551400  1.0  0.0761
  H  H133  1  0.834600  0.739600  0.638300  1.0  0.0644
  H  H134  1  0.500000  0.991000  0.696000  1.0  0.0768
  H  H135  1  0.811800  0.737500  0.532800  1.0  0.0717
  H  H136  1  0.916300  0.827900  0.966000  1.0  0.0681
  H  H137  1  0.625300  0.943000  0.427400  1.0  0.0758
  H  H138  1  0.752700  0.644200  0.671500  1.0  0.0717
  H  H139  1  0.904500  0.635500  0.515600  1.0  0.0746
  H  H140  1  0.811100  0.905800  0.992000  1.0  0.0804
  H  H141  1  0.350400  0.402300  0.846800  1.0  0.0687
  H  H142  1  0.596000  0.108500  0.692300  1.0  0.0522
  H  H143  1  0.499900  0.448700  0.944500  1.0  0.1232
  H  H144  1  0.404600  0.409200  0.928200  1.0  0.1001
  H  H145  1  0.881300  0.135500  0.663200  1.0  0.0753
  H  H146  1  0.955600  0.403500  0.892800  1.0  0.1055
  H  H147  1  0.862400  0.448400  0.880300  1.0  0.1218
  H  H148  1  0.226600  0.575400  0.685100  1.0  0.0493
  H  H149  1  0.211600  0.311700  0.650200  1.0  0.1292
  H  H150  1  0.226000  0.308400  0.596400  1.0  0.1119
  H  H151  1  0.711100  0.109100  0.753100  1.0  0.0767
  H  H152  1  0.199100  0.621500  0.862800  1.0  0.0517
  H  H153  1  0.736700  0.090900  0.563900  1.0  0.1108
  H  H154  1  0.835000  0.122600  0.581800  1.0  0.1034
  H  H155  1  0.578100  0.266300  0.674000  1.0  0.0673
  H  H156  1  0.960300  0.279200  0.853600  1.0  0.0725
  H  H157  1  0.288600  0.572000  0.812600  1.0  0.072
  H  H158  1  0.010800  0.433800  0.728500  1.0  0.091
  H  H159  1  0.101500  0.440600  0.706500  1.0  0.1174
  H  H160  1  0.966600  0.306100  0.748200  1.0  0.0745
  H  H161  1  0.252400  0.215800  0.761800  1.0  0.0551
  H  H162  1  0.009800  0.372500  0.973100  1.0  0.0705
  H  H163  1  0.136500  0.128800  0.771200  1.0  0.0762
  H  H164  1  0.497100  0.331900  0.725800  1.0  0.0613
  H  H165  1  0.624500  0.463700  0.809900  1.0  0.067
  H  H166  1  0.360600  0.248200  0.582800  1.0  0.0664
  H  H167  1  0.869800  0.242600  0.547800  1.0  0.0777
  H  H168  1  0.503000  0.465900  0.753500  1.0  0.0746
  H  H169  1  0.184100  0.634600  0.614100  1.0  0.0686
  H  H170  1  0.202800  0.426900  0.552400  1.0  0.0721
  H  H171  1  0.753600  0.470900  0.016800  1.0  0.0529
  H  H172  1  0.387000  0.272500  0.948600  1.0  0.0772
  H  H173  1  0.665400  0.239600  0.861700  1.0  0.0653
  H  H174  1  0.000000  0.491000  0.804000  1.0  0.0772
  H  H175  1  0.688200  0.237500  0.967200  1.0  0.0712
  H  H176  1  0.583700  0.327900  0.534000  1.0  0.0683
  H  H177  1  0.874700  0.443000  0.072600  1.0  0.0753
  H  H178  1  0.747300  0.144200  0.828500  1.0  0.0716
  H  H179  1  0.595500  0.135500  0.984400  1.0  0.0741
  H  H180  1  0.688900  0.405800  0.508000  1.0  0.0801
  C  C181  1  0.906700  0.082200  0.338900  1.0  0.0803
  C  C182  1  0.155100  0.386500  0.185400  1.0  0.1101
  C  C183  1  0.968600  0.093800  0.424800  1.0  -0.3902
  C  C184  1  0.322300  0.371400  0.170100  1.0  0.0531
  C  C185  1  0.392200  0.097700  0.397400  1.0  -0.3414
  C  C186  1  0.721400  0.956700  0.157700  1.0  0.1326
  C  C187  1  0.747200  0.166300  0.126900  1.0  -0.3552
  C  C188  1  0.386000  0.088200  0.449000  1.0  0.1771
  C  C189  1  0.979400  0.078900  0.374500  1.0  0.2166
  C  C190  1  0.350900  0.173600  0.376500  1.0  0.2245
  C  C191  1  0.224200  0.386000  0.222000  1.0  0.1025
  C  C192  1  0.004500  0.173900  0.442100  1.0  0.2095
  C  C193  1  0.675000  0.916700  0.340100  1.0  0.1196
  C  C194  1  0.271000  0.367200  0.082800  1.0  -0.323
  C  C195  1  0.016200  0.224800  0.165300  1.0  0.0971
  C  C196  1  0.252800  0.373400  0.133300  1.0  0.1885
  C  C197  1  0.399000  0.230200  0.355100  1.0  0.0942
  C  C198  1  0.728400  0.945100  0.309600  1.0  0.0945
  C  C199  1  0.576000  0.074000  0.235100  1.0  -0.3635
  C  C200  1  0.594500  0.161100  0.245400  1.0  0.1973
  C  C201  1  0.525800  0.213700  0.251100  1.0  0.0812
  C  C202  1  0.693300  0.264200  0.258600  1.0  0.1035
  C  C203  1  0.456900  0.106900  0.482800  1.0  0.1001
  C  C204  1  0.623800  0.316500  0.264400  1.0  0.1035
  C  C205  1  0.967800  0.183600  0.196000  1.0  0.1034
  C  C206  1  0.730600  0.078000  0.122800  1.0  0.2437
  C  C207  1  0.067500  0.047100  0.318400  1.0  0.1078
  C  C208  1  0.612500  0.019200  0.273600  1.0  0.2253
  C  C209  1  0.843100  0.188600  0.141200  1.0  0.1597
  C  C210  1  0.890400  0.233600  0.112000  1.0  0.0628
  C  C211  1  0.310200  0.238900  0.045000  1.0  0.0797
  C  C212  1  0.246700  0.286600  0.061100  1.0  0.2162
  C  C213  1  0.995300  0.047000  0.284700  1.0  0.087
  C  C214  1  0.695900  0.921100  0.115400  1.0  0.0886
  C  C215  1  0.706300  0.041600  0.080000  1.0  0.1033
  C  C216  1  0.306400  0.049600  0.507000  1.0  0.096
  C  C217  1  0.949500  0.235500  0.452800  1.0  0.0797
  C  C218  1  0.226900  0.251200  0.360700  1.0  0.0859
  C  C219  1  0.559800  0.991100  0.306000  1.0  0.0917
  C  C220  1  0.125700  0.254000  0.463100  1.0  0.0918
  C  C221  1  0.143100  0.191200  0.037000  1.0  0.0996
  C  C222  1  0.378600  0.066800  0.540600  1.0  0.0954
  C  C223  1  0.275900  0.308000  0.340200  1.0  0.1006
  C  C224  1  0.070300  0.314900  0.473600  1.0  0.0888
  C  C225  1  0.205800  0.144500  0.021700  1.0  0.0937
  C  C226  1  0.593300  0.582200  0.161100  1.0  0.0811
  C  C227  1  0.344900  0.886500  0.314600  1.0  0.1101
  C  C228  1  0.531400  0.593800  0.075200  1.0  -0.3912
  C  C229  1  0.177700  0.871400  0.329900  1.0  0.0534
  C  C230  1  0.107800  0.597700  0.102600  1.0  -0.3428
  C  C231  1  0.778600  0.456700  0.342300  1.0  0.1312
  C  C232  1  0.752800  0.666300  0.373100  1.0  -0.3551
  C  C233  1  0.114000  0.588200  0.051000  1.0  0.1773
  C  C234  1  0.520600  0.578900  0.125500  1.0  0.2172
  C  C235  1  0.149100  0.673600  0.123500  1.0  0.2244
  C  C236  1  0.275800  0.886000  0.278000  1.0  0.1032
  C  C237  1  0.495500  0.673900  0.057900  1.0  0.21
  C  C238  1  0.825000  0.416700  0.159900  1.0  0.1196
  C  C239  1  0.229000  0.867200  0.417200  1.0  -0.325
  C  C240  1  0.483800  0.724800  0.334700  1.0  0.0975
  C  C241  1  0.247200  0.873400  0.366700  1.0  0.1878
  C  C242  1  0.101000  0.730200  0.144900  1.0  0.0938
  C  C243  1  0.771600  0.445100  0.190400  1.0  0.0952
  C  C244  1  0.924000  0.574000  0.264900  1.0  -0.3674
  C  C245  1  0.905500  0.661100  0.254600  1.0  0.1968
  C  C246  1  0.974200  0.713700  0.248900  1.0  0.08
  C  C247  1  0.806700  0.764200  0.241400  1.0  0.1026
  C  C248  1  0.043100  0.606900  0.017200  1.0  0.0993
  C  C249  1  0.876200  0.816500  0.235600  1.0  0.1032
  C  C250  1  0.532200  0.683600  0.304000  1.0  0.1023
  C  C251  1  0.769400  0.578000  0.377200  1.0  0.2423
  C  C252  1  0.432500  0.547100  0.181600  1.0  0.106
  C  C253  1  0.887500  0.519200  0.226400  1.0  0.2255
  C  C254  1  0.656900  0.688600  0.358800  1.0  0.1599
  C  C255  1  0.609600  0.733600  0.388000  1.0  0.0645
  C  C256  1  0.189800  0.738900  0.455000  1.0  0.0799
  C  C257  1  0.253300  0.786600  0.438900  1.0  0.2159
  C  C258  1  0.504700  0.547000  0.215300  1.0  0.0877
  C  C259  1  0.804100  0.421100  0.384600  1.0  0.0888
  C  C260  1  0.793700  0.541600  0.420000  1.0  0.1015
  C  C261  1  0.193600  0.549600  0.993000  1.0  0.096
  C  C262  1  0.550500  0.735500  0.047200  1.0  0.0785
  C  C263  1  0.273100  0.751200  0.139300  1.0  0.0868
  C  C264  1  0.940200  0.491100  0.194000  1.0  0.0909
  C  C265  1  0.374300  0.754000  0.036900  1.0  0.0918
  C  C266  1  0.356900  0.691200  0.463000  1.0  0.0998
  C  C267  1  0.121400  0.566800  0.959400  1.0  0.0956
  C  C268  1  0.224100  0.808000  0.159800  1.0  0.1001
  C  C269  1  0.429700  0.814900  0.026400  1.0  0.0891
  C  C270  1  0.294200  0.644500  0.478300  1.0  0.0934
  C  C271  1  0.093300  0.917800  0.661100  1.0  0.0811
  C  C272  1  0.844900  0.613500  0.814600  1.0  0.1098
  C  C273  1  0.031400  0.906200  0.575200  1.0  -0.3907
  C  C274  1  0.677700  0.628600  0.829900  1.0  0.054
  C  C275  1  0.607800  0.902300  0.602600  1.0  -0.3437
  C  C276  1  0.278600  0.043300  0.842300  1.0  0.1319
  C  C277  1  0.252800  0.833700  0.873100  1.0  -0.3558
  C  C278  1  0.614000  0.911800  0.551000  1.0  0.1779
  C  C279  1  0.020600  0.921100  0.625500  1.0  0.2171
  C  C280  1  0.649100  0.826400  0.623500  1.0  0.2248
  C  C281  1  0.775800  0.614000  0.778000  1.0  0.1028
  C  C282  1  0.995500  0.826100  0.557900  1.0  0.2099
  C  C283  1  0.325000  0.083300  0.659900  1.0  0.1195
  C  C284  1  0.729000  0.632800  0.917200  1.0  -0.3234
  C  C285  1  0.983800  0.775200  0.834700  1.0  0.0973
  C  C286  1  0.747200  0.626600  0.866700  1.0  0.1872
  C  C287  1  0.601000  0.769800  0.644900  1.0  0.0946
  C  C288  1  0.271600  0.054900  0.690400  1.0  0.0953
  C  C289  1  0.424000  0.926000  0.764900  1.0  -0.3672
  C  C290  1  0.405500  0.838900  0.754600  1.0  0.1966
  C  C291  1  0.474200  0.786300  0.748900  1.0  0.0799
  C  C292  1  0.306700  0.735800  0.741400  1.0  0.1032
  C  C293  1  0.543100  0.893100  0.517200  1.0  0.0999
  C  C294  1  0.376200  0.683500  0.735600  1.0  0.1035
  C  C295  1  0.032200  0.816400  0.804000  1.0  0.103
  C  C296  1  0.269400  0.922000  0.877200  1.0  0.2422
  C  C297  1  0.932500  0.952900  0.681600  1.0  0.1061
  C  C298  1  0.387500  0.980800  0.726400  1.0  0.2252
  C  C299  1  0.156900  0.811400  0.858800  1.0  0.1594
  C  C300  1  0.109600  0.766400  0.888000  1.0  0.0646
  C  C301  1  0.689800  0.761100  0.955000  1.0  0.0793
  C  C302  1  0.753300  0.713400  0.938900  1.0  0.2157
  C  C303  1  0.004700  0.953000  0.715300  1.0  0.087
  C  C304  1  0.304100  0.078900  0.884600  1.0  0.0883
  C  C305  1  0.293700  0.958400  0.920000  1.0  0.1016
  C  C306  1  0.693600  0.950400  0.493000  1.0  0.0959
  C  C307  1  0.050500  0.764500  0.547200  1.0  0.0784
  C  C308  1  0.773100  0.748800  0.639300  1.0  0.0874
  C  C309  1  0.440200  0.008900  0.694000  1.0  0.0908
  C  C310  1  0.874300  0.746000  0.536900  1.0  0.0918
  C  C311  1  0.856900  0.808800  0.963000  1.0  0.1005
  C  C312  1  0.621400  0.933200  0.459400  1.0  0.0957
  C  C313  1  0.724100  0.692000  0.659800  1.0  0.0999
  C  C314  1  0.929700  0.685100  0.526400  1.0  0.0885
  C  C315  1  0.794200  0.855500  0.978300  1.0  0.0941
  C  C316  1  0.406700  0.417800  0.838900  1.0  0.0806
  C  C317  1  0.655100  0.113500  0.685400  1.0  0.1101
  C  C318  1  0.468600  0.406200  0.924800  1.0  -0.3901
  C  C319  1  0.822300  0.128600  0.670100  1.0  0.0535
  C  C320  1  0.892200  0.402300  0.897400  1.0  -0.342
  C  C321  1  0.221400  0.543300  0.657700  1.0  0.1318
  C  C322  1  0.247200  0.333700  0.626900  1.0  -0.3555
  C  C323  1  0.886000  0.411800  0.949000  1.0  0.1775
  C  C324  1  0.479400  0.421100  0.874500  1.0  0.2165
  C  C325  1  0.850900  0.326400  0.876500  1.0  0.2247
  C  C326  1  0.724200  0.114000  0.722000  1.0  0.1022
  C  C327  1  0.504500  0.326100  0.942100  1.0  0.2094
  C  C328  1  0.175000  0.583300  0.840100  1.0  0.1196
  C  C329  1  0.771000  0.132800  0.582800  1.0  -0.3225
  C  C330  1  0.516200  0.275200  0.665300  1.0  0.097
  C  C331  1  0.752800  0.126600  0.633300  1.0  0.188
  C  C332  1  0.899000  0.269800  0.855100  1.0  0.0944
  C  C333  1  0.228400  0.554900  0.809600  1.0  0.0945
  C  C334  1  0.076000  0.426000  0.735100  1.0  -0.3637
  C  C335  1  0.094500  0.338900  0.745400  1.0  0.1969
  C  C336  1  0.025800  0.286300  0.751100  1.0  0.0812
  C  C337  1  0.193300  0.235800  0.758600  1.0  0.1032
  C  C338  1  0.956900  0.393100  0.982800  1.0  0.1005
  C  C339  1  0.123800  0.183500  0.764400  1.0  0.1042
  C  C340  1  0.467800  0.316400  0.696000  1.0  0.1032
  C  C341  1  0.230600  0.422000  0.622800  1.0  0.2434
  C  C342  1  0.567500  0.452900  0.818400  1.0  0.1077
  C  C343  1  0.112500  0.480800  0.773600  1.0  0.225
  C  C344  1  0.343100  0.311400  0.641200  1.0  0.1592
  C  C345  1  0.390400  0.266400  0.612000  1.0  0.0627
  C  C346  1  0.810200  0.261100  0.545000  1.0  0.08
  C  C347  1  0.746700  0.213400  0.561100  1.0  0.2164
  C  C348  1  0.495300  0.453000  0.784700  1.0  0.0866
  C  C349  1  0.195900  0.578900  0.615400  1.0  0.0882
  C  C350  1  0.206300  0.458400  0.580000  1.0  0.1033
  C  C351  1  0.806400  0.450400  0.007000  1.0  0.0956
  C  C352  1  0.449500  0.264500  0.952800  1.0  0.0805
  C  C353  1  0.726900  0.248800  0.860700  1.0  0.0862
  C  C354  1  0.059800  0.508900  0.806000  1.0  0.0917
  C  C355  1  0.625700  0.246000  0.963100  1.0  0.0923
  C  C356  1  0.643100  0.308800  0.537000  1.0  0.0998
  C  C357  1  0.878600  0.433200  0.040600  1.0  0.0953
  C  C358  1  0.775900  0.192000  0.840200  1.0  0.1003
  C  C359  1  0.570300  0.185100  0.973600  1.0  0.088
  C  C360  1  0.705800  0.355500  0.521700  1.0  0.0941
  N  N361  1  0.697900  0.996800  0.275440  1.0  -0.4879
  N  N362  1  0.913000  0.064700  0.294520  1.0  -0.3546
  N  N363  1  0.739300  0.034900  0.162490  1.0  -0.3915
  N  N364  1  0.060300  0.062200  0.363720  1.0  -0.3687
  N  N365  1  0.168000  0.380300  0.141200  1.0  -0.3704
  N  N366  1  0.161200  0.263800  0.056400  1.0  -0.3816
  N  N367  1  0.540300  0.290800  0.260600  1.0  -0.3618
  N  N368  1  0.679100  0.187100  0.248760  1.0  -0.3939
  N  N369  1  0.882300  0.165800  0.184380  1.0  -0.4142
  N  N370  1  0.309200  0.378900  0.214800  1.0  -0.3335
  N  N371  1  0.092800  0.183100  0.447300  1.0  -0.3909
  N  N372  1  0.264100  0.184300  0.378900  1.0  -0.3798
  N  N373  1  0.687500  0.963500  0.076000  1.0  -0.3487
  N  N374  1  0.308600  0.060900  0.461600  1.0  -0.3528
  N  N375  1  0.591000  0.939600  0.339900  1.0  -0.4206
  N  N376  1  0.361400  0.297800  0.336300  1.0  -0.4105
  N  N377  1  0.982400  0.305800  0.468800  1.0  -0.3133
  N  N378  1  0.453700  0.097100  0.528200  1.0  -0.3505
  N  N379  1  0.975700  0.251500  0.123900  1.0  -0.373
  N  N380  1  0.290200  0.167000  0.025400  1.0  -0.4034
  N  N381  1  0.802100  0.496800  0.224560  1.0  -0.4885
  N  N382  1  0.587000  0.564700  0.205480  1.0  -0.3551
  N  N383  1  0.760700  0.534900  0.337510  1.0  -0.393
  N  N384  1  0.439700  0.562200  0.136280  1.0  -0.3675
  N  N385  1  0.332000  0.880300  0.358800  1.0  -0.3705
  N  N386  1  0.338800  0.763800  0.443600  1.0  -0.3802
  N  N387  1  0.959700  0.790800  0.239400  1.0  -0.3631
  N  N388  1  0.820900  0.687100  0.251240  1.0  -0.3941
  N  N389  1  0.617700  0.665800  0.315620  1.0  -0.4165
  N  N390  1  0.190800  0.878900  0.285200  1.0  -0.3324
  N  N391  1  0.407200  0.683100  0.052700  1.0  -0.3922
  N  N392  1  0.235900  0.684300  0.121100  1.0  -0.3799
  N  N393  1  0.812500  0.463500  0.424000  1.0  -0.3471
  N  N394  1  0.191400  0.560900  0.038400  1.0  -0.3516
  N  N395  1  0.909000  0.439600  0.160100  1.0  -0.4207
  N  N396  1  0.138600  0.797800  0.163700  1.0  -0.4082
  N  N397  1  0.517600  0.805800  0.031200  1.0  -0.3127
  N  N398  1  0.046300  0.597100  0.971800  1.0  -0.3491
  N  N399  1  0.524300  0.751500  0.376100  1.0  -0.373
  N  N400  1  0.209800  0.667000  0.474600  1.0  -0.4042
  N  N401  1  0.302100  0.003200  0.724560  1.0  -0.4883
  N  N402  1  0.087000  0.935300  0.705480  1.0  -0.355
  N  N403  1  0.260700  0.965100  0.837510  1.0  -0.3933
  N  N404  1  0.939700  0.937800  0.636280  1.0  -0.3674
  N  N405  1  0.832000  0.619700  0.858800  1.0  -0.3715
  N  N406  1  0.838800  0.736200  0.943600  1.0  -0.3801
  N  N407  1  0.459700  0.709200  0.739400  1.0  -0.3616
  N  N408  1  0.320900  0.812900  0.751240  1.0  -0.3936
  N  N409  1  0.117700  0.834200  0.815620  1.0  -0.4156
  N  N410  1  0.690800  0.621100  0.785200  1.0  -0.3319
  N  N411  1  0.907200  0.816900  0.552700  1.0  -0.392
  N  N412  1  0.735900  0.815700  0.621100  1.0  -0.3793
  N  N413  1  0.312500  0.036500  0.924000  1.0  -0.3485
  N  N414  1  0.691400  0.939100  0.538400  1.0  -0.3516
  N  N415  1  0.409000  0.060400  0.660100  1.0  -0.4203
  N  N416  1  0.638600  0.702200  0.663700  1.0  -0.4085
  N  N417  1  0.017600  0.694200  0.531200  1.0  -0.3137
  N  N418  1  0.546300  0.902900  0.471800  1.0  -0.3501
  N  N419  1  0.024300  0.748500  0.876100  1.0  -0.3733
  N  N420  1  0.709800  0.833000  0.974600  1.0  -0.4028
  N  N421  1  0.197900  0.503200  0.775440  1.0  -0.4884
  N  N422  1  0.413000  0.435300  0.794520  1.0  -0.3544
  N  N423  1  0.239300  0.465100  0.662490  1.0  -0.3924
  N  N424  1  0.560300  0.437800  0.863720  1.0  -0.3686
  N  N425  1  0.668000  0.119700  0.641200  1.0  -0.3715
  N  N426  1  0.661200  0.236200  0.556400  1.0  -0.3817
  N  N427  1  0.040300  0.209200  0.760600  1.0  -0.3623
  N  N428  1  0.179100  0.312900  0.748760  1.0  -0.394
  N  N429  1  0.382300  0.334200  0.684380  1.0  -0.4147
  N  N430  1  0.809200  0.121100  0.714800  1.0  -0.3331
  N  N431  1  0.592800  0.316900  0.947300  1.0  -0.3916
  N  N432  1  0.764100  0.315700  0.878900  1.0  -0.3796
  N  N433  1  0.187500  0.536500  0.576000  1.0  -0.3472
  N  N434  1  0.808600  0.439100  0.961600  1.0  -0.3522
  N  N435  1  0.091000  0.560400  0.839900  1.0  -0.4209
  N  N436  1  0.861400  0.202200  0.836300  1.0  -0.4102
  N  N437  1  0.482400  0.194200  0.968800  1.0  -0.3153
  N  N438  1  0.953700  0.402900  0.028200  1.0  -0.3501
  N  N439  1  0.475700  0.248500  0.623900  1.0  -0.374
  N  N440  1  0.790200  0.333000  0.525400  1.0  -0.4044
