# generated using pymatgen
data_AgH8C9N4
_symmetry_space_group_name_H-M   'P 1'
_cell_length_a   28.12300000
_cell_length_b   28.12300000
_cell_length_c   14.43600000
_cell_angle_alpha   90.00000000
_cell_angle_beta   90.00000000
_cell_angle_gamma   120.00000000
_symmetry_Int_Tables_number   1
_chemical_formula_structural   AgH8C9N4
_chemical_formula_sum   'Ag18 H144 C162 N72'
_cell_volume   9887.82562297
_cell_formula_units_Z   18
loop_
 _symmetry_equiv_pos_site_id
 _symmetry_equiv_pos_as_xyz
  1  'x, y, z'
loop_
 _atom_site_type_symbol
 _atom_site_label
 _atom_site_symmetry_multiplicity
 _atom_site_fract_x
 _atom_site_fract_y
 _atom_site_fract_z
 _atom_site_occupancy
 _atom_site_charge
  Ag  Ag1  1  0.799600  0.073840  0.396700  1.0  0.2717
  Ag  Ag2  1  0.466270  0.407170  0.730030  1.0  0.2717
  Ag  Ag3  1  0.132930  0.740510  0.063370  1.0  0.2717
  Ag  Ag4  1  0.926160  0.725760  0.396700  1.0  0.2764
  Ag  Ag5  1  0.592830  0.059090  0.730030  1.0  0.2762
  Ag  Ag6  1  0.259490  0.392430  0.063370  1.0  0.2764
  Ag  Ag7  1  0.274240  0.200400  0.396700  1.0  0.2768
  Ag  Ag8  1  0.940910  0.533730  0.730030  1.0  0.2768
  Ag  Ag9  1  0.607570  0.867070  0.063370  1.0  0.2768
  Ag  Ag10  1  0.200400  0.926160  0.603300  1.0  0.2791
  Ag  Ag11  1  0.867070  0.259490  0.936630  1.0  0.2791
  Ag  Ag12  1  0.533730  0.592830  0.269970  1.0  0.2796
  Ag  Ag13  1  0.073840  0.274240  0.603300  1.0  0.2805
  Ag  Ag14  1  0.740510  0.607570  0.936630  1.0  0.2805
  Ag  Ag15  1  0.407170  0.940910  0.269970  1.0  0.2799
  Ag  Ag16  1  0.725760  0.799600  0.603300  1.0  0.2796
  Ag  Ag17  1  0.392430  0.132930  0.936630  1.0  0.2796
  Ag  Ag18  1  0.059090  0.466270  0.269970  1.0  0.2796
  H  H19  1  0.757000  0.863700  0.420200  1.0  0.0729
  H  H20  1  0.736600  0.913500  0.660300  1.0  0.043
  H  H21  1  0.652200  0.988500  0.133800  1.0  0.064
  H  H22  1  0.716900  0.894700  0.196000  1.0  0.0888
  H  H23  1  0.795600  0.927100  0.297700  1.0  0.0556
  H  H24  1  0.828900  0.991500  0.320600  1.0  0.0743
  H  H25  1  0.755900  0.997000  0.600200  1.0  0.0713
  H  H26  1  0.711500  0.054000  0.232500  1.0  0.0631
  H  H27  1  0.423670  0.197030  0.753530  1.0  0.0729
  H  H28  1  0.403270  0.246830  0.993630  1.0  0.043
  H  H29  1  0.318870  0.321830  0.467130  1.0  0.064
  H  H30  1  0.383570  0.228030  0.529330  1.0  0.0888
  H  H31  1  0.462270  0.260430  0.631030  1.0  0.0556
  H  H32  1  0.495570  0.324830  0.653930  1.0  0.0746
  H  H33  1  0.422570  0.330330  0.933530  1.0  0.0713
  H  H34  1  0.378170  0.387330  0.565830  1.0  0.0631
  H  H35  1  0.090330  0.530370  0.086870  1.0  0.0729
  H  H36  1  0.069930  0.580170  0.326970  1.0  0.043
  H  H37  1  0.985530  0.655170  0.800470  1.0  0.064
  H  H38  1  0.050230  0.561370  0.862670  1.0  0.0889
  H  H39  1  0.128930  0.593770  0.964370  1.0  0.0556
  H  H40  1  0.162230  0.658170  0.987270  1.0  0.0746
  H  H41  1  0.089230  0.663670  0.266870  1.0  0.0713
  H  H42  1  0.044830  0.720670  0.899170  1.0  0.0631
  H  H43  1  0.136300  0.893300  0.420200  1.0  0.0735
  H  H44  1  0.086500  0.823100  0.660300  1.0  0.0435
  H  H45  1  0.011500  0.663700  0.133800  1.0  0.0624
  H  H46  1  0.105300  0.822200  0.196000  1.0  0.0903
  H  H47  1  0.072900  0.868500  0.297700  1.0  0.0531
  H  H48  1  0.008500  0.837400  0.320600  1.0  0.0686
  H  H49  1  0.003000  0.758900  0.600200  1.0  0.0711
  H  H50  1  0.946000  0.657500  0.232500  1.0  0.0625
  H  H51  1  0.802970  0.226630  0.753530  1.0  0.0735
  H  H52  1  0.753170  0.156430  0.993630  1.0  0.0435
  H  H53  1  0.678170  0.997030  0.467130  1.0  0.0624
  H  H54  1  0.771970  0.155530  0.529330  1.0  0.0904
  H  H55  1  0.739570  0.201830  0.631030  1.0  0.0531
  H  H56  1  0.675170  0.170730  0.653930  1.0  0.0689
  H  H57  1  0.669670  0.092230  0.933530  1.0  0.0711
  H  H58  1  0.612670  0.990830  0.565830  1.0  0.0625
  H  H59  1  0.469630  0.559970  0.086870  1.0  0.0735
  H  H60  1  0.419830  0.489770  0.326970  1.0  0.0435
  H  H61  1  0.344830  0.330370  0.800470  1.0  0.0624
  H  H62  1  0.438630  0.488870  0.862670  1.0  0.0903
  H  H63  1  0.406230  0.535170  0.964370  1.0  0.0531
  H  H64  1  0.341830  0.504070  0.987270  1.0  0.0689
  H  H65  1  0.336330  0.425570  0.266870  1.0  0.0711
  H  H66  1  0.279330  0.324170  0.899170  1.0  0.0625
  H  H67  1  0.106700  0.243000  0.420200  1.0  0.0731
  H  H68  1  0.176900  0.263400  0.660300  1.0  0.0431
  H  H69  1  0.336300  0.347800  0.133800  1.0  0.0634
  H  H70  1  0.177800  0.283100  0.196000  1.0  0.0892
  H  H71  1  0.131500  0.204400  0.297700  1.0  0.051
  H  H72  1  0.162600  0.171100  0.320600  1.0  0.0763
  H  H73  1  0.241100  0.244100  0.600200  1.0  0.0718
  H  H74  1  0.342500  0.288500  0.232500  1.0  0.0618
  H  H75  1  0.773370  0.576330  0.753530  1.0  0.0731
  H  H76  1  0.843570  0.596730  0.993630  1.0  0.043
  H  H77  1  0.002970  0.681130  0.467130  1.0  0.0634
  H  H78  1  0.844470  0.616430  0.529330  1.0  0.0892
  H  H79  1  0.798170  0.537730  0.631030  1.0  0.051
  H  H80  1  0.829270  0.504430  0.653930  1.0  0.0763
  H  H81  1  0.907770  0.577430  0.933530  1.0  0.0718
  H  H82  1  0.009170  0.621830  0.565830  1.0  0.0619
  H  H83  1  0.440030  0.909670  0.086870  1.0  0.0731
  H  H84  1  0.510230  0.930070  0.326970  1.0  0.043
  H  H85  1  0.669630  0.014470  0.800470  1.0  0.0634
  H  H86  1  0.511130  0.949770  0.862670  1.0  0.0892
  H  H87  1  0.464830  0.871070  0.964370  1.0  0.051
  H  H88  1  0.495930  0.837770  0.987270  1.0  0.0763
  H  H89  1  0.574430  0.910770  0.266870  1.0  0.0718
  H  H90  1  0.675830  0.955170  0.899170  1.0  0.0618
  H  H91  1  0.243000  0.136300  0.579800  1.0  0.0739
  H  H92  1  0.263400  0.086500  0.339700  1.0  0.0434
  H  H93  1  0.347800  0.011500  0.866200  1.0  0.0635
  H  H94  1  0.283100  0.105300  0.804000  1.0  0.089
  H  H95  1  0.204400  0.072900  0.702300  1.0  0.0558
  H  H96  1  0.171100  0.008500  0.679400  1.0  0.0741
  H  H97  1  0.244100  0.003000  0.399800  1.0  0.0723
  H  H98  1  0.288500  0.946000  0.767500  1.0  0.0632
  H  H99  1  0.909670  0.469630  0.913130  1.0  0.0739
  H  H100  1  0.930070  0.419830  0.673030  1.0  0.0434
  H  H101  1  0.014470  0.344830  0.199530  1.0  0.0635
  H  H102  1  0.949770  0.438630  0.137330  1.0  0.0891
  H  H103  1  0.871070  0.406230  0.035630  1.0  0.0558
  H  H104  1  0.837770  0.341830  0.012730  1.0  0.0747
  H  H105  1  0.910770  0.336330  0.733130  1.0  0.0724
  H  H106  1  0.955170  0.279330  0.100830  1.0  0.0632
  H  H107  1  0.576330  0.802970  0.246470  1.0  0.0739
  H  H108  1  0.596730  0.753170  0.006370  1.0  0.0434
  H  H109  1  0.681130  0.678170  0.532870  1.0  0.0635
  H  H110  1  0.616430  0.771970  0.470670  1.0  0.089
  H  H111  1  0.537730  0.739570  0.368970  1.0  0.0558
  H  H112  1  0.504430  0.675170  0.346070  1.0  0.0747
  H  H113  1  0.577430  0.669670  0.066470  1.0  0.0724
  H  H114  1  0.621830  0.612670  0.434170  1.0  0.0632
  H  H115  1  0.863700  0.106700  0.579800  1.0  0.0743
  H  H116  1  0.913500  0.176900  0.339700  1.0  0.0436
  H  H117  1  0.988500  0.336300  0.866200  1.0  0.0635
  H  H118  1  0.894700  0.177800  0.804000  1.0  0.0901
  H  H119  1  0.927100  0.131500  0.702300  1.0  0.053
  H  H120  1  0.991500  0.162600  0.679400  1.0  0.0668
  H  H121  1  0.997000  0.241100  0.399800  1.0  0.0713
  H  H122  1  0.054000  0.342500  0.767500  1.0  0.0627
  H  H123  1  0.530370  0.440030  0.913130  1.0  0.0743
  H  H124  1  0.580170  0.510230  0.673030  1.0  0.0436
  H  H125  1  0.655170  0.669630  0.199530  1.0  0.0635
  H  H126  1  0.561370  0.511130  0.137330  1.0  0.0901
  H  H127  1  0.593770  0.464830  0.035630  1.0  0.053
  H  H128  1  0.658170  0.495930  0.012730  1.0  0.0666
  H  H129  1  0.663670  0.574430  0.733130  1.0  0.0712
  H  H130  1  0.720670  0.675830  0.100830  1.0  0.0627
  H  H131  1  0.197030  0.773370  0.246470  1.0  0.0743
  H  H132  1  0.246830  0.843570  0.006370  1.0  0.0436
  H  H133  1  0.321830  0.002970  0.532870  1.0  0.0635
  H  H134  1  0.228030  0.844470  0.470670  1.0  0.0902
  H  H135  1  0.260430  0.798170  0.368970  1.0  0.053
  H  H136  1  0.324830  0.829270  0.346070  1.0  0.0666
  H  H137  1  0.330330  0.907770  0.066470  1.0  0.0713
  H  H138  1  0.387330  0.009170  0.434170  1.0  0.0627
  H  H139  1  0.893300  0.757000  0.579800  1.0  0.0735
  H  H140  1  0.823100  0.736600  0.339700  1.0  0.0429
  H  H141  1  0.663700  0.652200  0.866200  1.0  0.0636
  H  H142  1  0.822200  0.716900  0.804000  1.0  0.0882
  H  H143  1  0.868500  0.795600  0.702300  1.0  0.052
  H  H144  1  0.837400  0.828900  0.679400  1.0  0.0741
  H  H145  1  0.758900  0.755900  0.399800  1.0  0.072
  H  H146  1  0.657500  0.711500  0.767500  1.0  0.0618
  H  H147  1  0.559970  0.090330  0.913130  1.0  0.0735
  H  H148  1  0.489770  0.069930  0.673030  1.0  0.0429
  H  H149  1  0.330370  0.985530  0.199530  1.0  0.0635
  H  H150  1  0.488870  0.050230  0.137330  1.0  0.0882
  H  H151  1  0.535170  0.128930  0.035630  1.0  0.052
  H  H152  1  0.504070  0.162230  0.012730  1.0  0.0741
  H  H153  1  0.425570  0.089230  0.733130  1.0  0.0721
  H  H154  1  0.324170  0.044830  0.100830  1.0  0.0618
  H  H155  1  0.226630  0.423670  0.246470  1.0  0.0735
  H  H156  1  0.156430  0.403270  0.006370  1.0  0.0429
  H  H157  1  0.997030  0.318870  0.532870  1.0  0.0635
  H  H158  1  0.155530  0.383570  0.470670  1.0  0.0882
  H  H159  1  0.201830  0.462270  0.368970  1.0  0.052
  H  H160  1  0.170730  0.495570  0.346070  1.0  0.0741
  H  H161  1  0.092230  0.422570  0.066470  1.0  0.0721
  H  H162  1  0.990830  0.378170  0.434170  1.0  0.0618
  C  C163  1  0.757900  0.891600  0.458600  1.0  0.0815
  C  C164  1  0.745100  0.920000  0.596200  1.0  0.1389
  C  C165  1  0.677200  0.982100  0.168300  1.0  0.1119
  C  C166  1  0.749000  0.966300  0.265300  1.0  0.1993
  C  C167  1  0.714800  0.927000  0.205200  1.0  0.0994
  C  C168  1  0.775200  0.946100  0.419900  1.0  0.2507
  C  C169  1  0.792400  0.957900  0.324100  1.0  -0.3209
  C  C170  1  0.758600  0.971000  0.561700  1.0  0.0786
  C  C171  1  0.712400  0.020800  0.226800  1.0  0.0731
  C  C172  1  0.424570  0.224930  0.791930  1.0  0.0815
  C  C173  1  0.411770  0.253330  0.929530  1.0  0.1388
  C  C174  1  0.343870  0.315430  0.501630  1.0  0.112
  C  C175  1  0.415670  0.299630  0.598630  1.0  0.1993
  C  C176  1  0.381470  0.260330  0.538530  1.0  0.0994
  C  C177  1  0.441870  0.279430  0.753230  1.0  0.2507
  C  C178  1  0.459070  0.291230  0.657430  1.0  -0.3209
  C  C179  1  0.425270  0.304330  0.895030  1.0  0.0787
  C  C180  1  0.379070  0.354130  0.560130  1.0  0.0731
  C  C181  1  0.091230  0.558270  0.125270  1.0  0.0815
  C  C182  1  0.078430  0.586670  0.262870  1.0  0.1389
  C  C183  1  0.010530  0.648770  0.834970  1.0  0.1119
  C  C184  1  0.082330  0.632970  0.931970  1.0  0.1993
  C  C185  1  0.048130  0.593670  0.871870  1.0  0.0994
  C  C186  1  0.108530  0.612770  0.086570  1.0  0.2507
  C  C187  1  0.125730  0.624570  0.990770  1.0  -0.3209
  C  C188  1  0.091930  0.637670  0.228370  1.0  0.0786
  C  C189  1  0.045730  0.687470  0.893470  1.0  0.0732
  C  C190  1  0.108400  0.866300  0.458600  1.0  0.0794
  C  C191  1  0.080000  0.825100  0.596200  1.0  0.1387
  C  C192  1  0.017900  0.695100  0.168300  1.0  0.1125
  C  C193  1  0.033700  0.782700  0.265300  1.0  0.1984
  C  C194  1  0.073000  0.787800  0.205200  1.0  0.0972
  C  C195  1  0.053900  0.829100  0.419900  1.0  0.251
  C  C196  1  0.042100  0.834500  0.324100  1.0  -0.3145
  C  C197  1  0.029000  0.787600  0.561700  1.0  0.0792
  C  C198  1  0.979200  0.691600  0.226800  1.0  0.0727
  C  C199  1  0.775070  0.199630  0.791930  1.0  0.0794
  C  C200  1  0.746670  0.158430  0.929530  1.0  0.1387
  C  C201  1  0.684570  0.028430  0.501630  1.0  0.1125
  C  C202  1  0.700370  0.116030  0.598630  1.0  0.1984
  C  C203  1  0.739670  0.121130  0.538530  1.0  0.0972
  C  C204  1  0.720570  0.162430  0.753230  1.0  0.2511
  C  C205  1  0.708770  0.167830  0.657430  1.0  -0.3145
  C  C206  1  0.695670  0.120930  0.895030  1.0  0.0792
  C  C207  1  0.645870  0.024930  0.560130  1.0  0.0727
  C  C208  1  0.441730  0.532970  0.125270  1.0  0.0794
  C  C209  1  0.413330  0.491770  0.262870  1.0  0.1385
  C  C210  1  0.351230  0.361770  0.834970  1.0  0.1124
  C  C211  1  0.367030  0.449370  0.931970  1.0  0.1984
  C  C212  1  0.406330  0.454470  0.871870  1.0  0.0972
  C  C213  1  0.387230  0.495770  0.086570  1.0  0.251
  C  C214  1  0.375430  0.501170  0.990770  1.0  -0.3145
  C  C215  1  0.362330  0.454270  0.228370  1.0  0.0792
  C  C216  1  0.312530  0.358270  0.893470  1.0  0.0726
  C  C217  1  0.133700  0.242100  0.458600  1.0  0.0813
  C  C218  1  0.174900  0.254900  0.596200  1.0  0.1366
  C  C219  1  0.304900  0.322800  0.168300  1.0  0.1125
  C  C220  1  0.217300  0.251000  0.265300  1.0  0.1997
  C  C221  1  0.212200  0.285200  0.205200  1.0  0.0992
  C  C222  1  0.170900  0.224800  0.419900  1.0  0.2491
  C  C223  1  0.165500  0.207600  0.324100  1.0  -0.3142
  C  C224  1  0.212400  0.241400  0.561700  1.0  0.08
  C  C225  1  0.308400  0.287600  0.226800  1.0  0.0745
  C  C226  1  0.800370  0.575430  0.791930  1.0  0.0813
  C  C227  1  0.841570  0.588230  0.929530  1.0  0.1368
  C  C228  1  0.971570  0.656130  0.501630  1.0  0.1124
  C  C229  1  0.883970  0.584330  0.598630  1.0  0.1997
  C  C230  1  0.878870  0.618530  0.538530  1.0  0.0992
  C  C231  1  0.837570  0.558130  0.753230  1.0  0.2492
  C  C232  1  0.832170  0.540930  0.657430  1.0  -0.3142
  C  C233  1  0.879070  0.574730  0.895030  1.0  0.0801
  C  C234  1  0.975070  0.620930  0.560130  1.0  0.0745
  C  C235  1  0.467030  0.908770  0.125270  1.0  0.0813
  C  C236  1  0.508230  0.921570  0.262870  1.0  0.1367
  C  C237  1  0.638230  0.989470  0.834970  1.0  0.1125
  C  C238  1  0.550630  0.917670  0.931970  1.0  0.1997
  C  C239  1  0.545530  0.951870  0.871870  1.0  0.0992
  C  C240  1  0.504230  0.891470  0.086570  1.0  0.2492
  C  C241  1  0.498830  0.874270  0.990770  1.0  -0.3142
  C  C242  1  0.545730  0.908070  0.228370  1.0  0.08
  C  C243  1  0.641730  0.954270  0.893470  1.0  0.0746
  C  C244  1  0.242100  0.108400  0.541400  1.0  0.0802
  C  C245  1  0.254900  0.080000  0.403800  1.0  0.1379
  C  C246  1  0.322800  0.017900  0.831700  1.0  0.1124
  C  C247  1  0.251000  0.033700  0.734700  1.0  0.1981
  C  C248  1  0.285200  0.073000  0.794800  1.0  0.0977
  C  C249  1  0.224800  0.053900  0.580100  1.0  0.2522
  C  C250  1  0.207600  0.042100  0.675900  1.0  -0.321
  C  C251  1  0.241400  0.029000  0.438300  1.0  0.0789
  C  C252  1  0.287600  0.979200  0.773200  1.0  0.0742
  C  C253  1  0.908770  0.441730  0.874730  1.0  0.0802
  C  C254  1  0.921570  0.413330  0.737130  1.0  0.1379
  C  C255  1  0.989470  0.351230  0.165030  1.0  0.1124
  C  C256  1  0.917670  0.367030  0.068030  1.0  0.1981
  C  C257  1  0.951870  0.406330  0.128130  1.0  0.0977
  C  C258  1  0.891470  0.387230  0.913430  1.0  0.2524
  C  C259  1  0.874270  0.375430  0.009230  1.0  -0.321
  C  C260  1  0.908070  0.362330  0.771630  1.0  0.0789
  C  C261  1  0.954270  0.312530  0.106530  1.0  0.0742
  C  C262  1  0.575430  0.775070  0.208070  1.0  0.0802
  C  C263  1  0.588230  0.746670  0.070470  1.0  0.1378
  C  C264  1  0.656130  0.684570  0.498370  1.0  0.1125
  C  C265  1  0.584330  0.700370  0.401370  1.0  0.1981
  C  C266  1  0.618530  0.739670  0.461470  1.0  0.0977
  C  C267  1  0.558130  0.720570  0.246770  1.0  0.2522
  C  C268  1  0.540930  0.708770  0.342570  1.0  -0.321
  C  C269  1  0.574730  0.695670  0.104970  1.0  0.0789
  C  C270  1  0.620930  0.645870  0.439870  1.0  0.0742
  C  C271  1  0.891600  0.133700  0.541400  1.0  0.0826
  C  C272  1  0.920000  0.174900  0.403800  1.0  0.1375
  C  C273  1  0.982100  0.304900  0.831700  1.0  0.1127
  C  C274  1  0.966300  0.217300  0.734700  1.0  0.1978
  C  C275  1  0.927000  0.212200  0.794800  1.0  0.0987
  C  C276  1  0.946100  0.170900  0.580100  1.0  0.2503
  C  C277  1  0.957900  0.165500  0.675900  1.0  -0.3142
  C  C278  1  0.971000  0.212400  0.438300  1.0  0.0795
  C  C279  1  0.020800  0.308400  0.773200  1.0  0.0733
  C  C280  1  0.558270  0.467030  0.874730  1.0  0.0826
  C  C281  1  0.586670  0.508230  0.737130  1.0  0.1373
  C  C282  1  0.648770  0.638230  0.165030  1.0  0.1126
  C  C283  1  0.632970  0.550630  0.068030  1.0  0.1978
  C  C284  1  0.593670  0.545530  0.128130  1.0  0.0987
  C  C285  1  0.612770  0.504230  0.913430  1.0  0.2503
  C  C286  1  0.624570  0.498830  0.009230  1.0  -0.3142
  C  C287  1  0.637670  0.545730  0.771630  1.0  0.0795
  C  C288  1  0.687470  0.641730  0.106530  1.0  0.0732
  C  C289  1  0.224930  0.800370  0.208070  1.0  0.0826
  C  C290  1  0.253330  0.841570  0.070470  1.0  0.1375
  C  C291  1  0.315430  0.971570  0.498370  1.0  0.1127
  C  C292  1  0.299630  0.883970  0.401370  1.0  0.1978
  C  C293  1  0.260330  0.878870  0.461470  1.0  0.0987
  C  C294  1  0.279430  0.837570  0.246770  1.0  0.2504
  C  C295  1  0.291230  0.832170  0.342570  1.0  -0.3142
  C  C296  1  0.304330  0.879070  0.104970  1.0  0.0795
  C  C297  1  0.354130  0.975070  0.439870  1.0  0.0733
  C  C298  1  0.866300  0.757900  0.541400  1.0  0.0817
  C  C299  1  0.825100  0.745100  0.403800  1.0  0.1365
  C  C300  1  0.695100  0.677200  0.831700  1.0  0.1126
  C  C301  1  0.782700  0.749000  0.734700  1.0  0.1983
  C  C302  1  0.787800  0.714800  0.794800  1.0  0.0973
  C  C303  1  0.829100  0.775200  0.580100  1.0  0.2507
  C  C304  1  0.834500  0.792400  0.675900  1.0  -0.3167
  C  C305  1  0.787600  0.758600  0.438300  1.0  0.0801
  C  C306  1  0.691600  0.712400  0.773200  1.0  0.0735
  C  C307  1  0.532970  0.091230  0.874730  1.0  0.0817
  C  C308  1  0.491770  0.078430  0.737130  1.0  0.1366
  C  C309  1  0.361770  0.010530  0.165030  1.0  0.1126
  C  C310  1  0.449370  0.082330  0.068030  1.0  0.1983
  C  C311  1  0.454470  0.048130  0.128130  1.0  0.0973
  C  C312  1  0.495770  0.108530  0.913430  1.0  0.2508
  C  C313  1  0.501170  0.125730  0.009230  1.0  -0.3167
  C  C314  1  0.454270  0.091930  0.771630  1.0  0.0801
  C  C315  1  0.358270  0.045730  0.106530  1.0  0.0735
  C  C316  1  0.199630  0.424570  0.208070  1.0  0.0817
  C  C317  1  0.158430  0.411770  0.070470  1.0  0.1366
  C  C318  1  0.028430  0.343870  0.498370  1.0  0.1125
  C  C319  1  0.116030  0.415670  0.401370  1.0  0.1983
  C  C320  1  0.121130  0.381470  0.461470  1.0  0.0973
  C  C321  1  0.162430  0.441870  0.246770  1.0  0.2508
  C  C322  1  0.167830  0.459070  0.342570  1.0  -0.3167
  C  C323  1  0.120930  0.425270  0.104970  1.0  0.0801
  C  C324  1  0.024930  0.379070  0.439870  1.0  0.0734
  N  N325  1  0.743200  0.880800  0.548400  1.0  -0.3492
  N  N326  1  0.751200  0.014000  0.280800  1.0  -0.3957
  N  N327  1  0.676900  0.934900  0.157900  1.0  -0.3667
  N  N328  1  0.775700  0.984000  0.472400  1.0  -0.4108
  N  N329  1  0.409870  0.214130  0.881730  1.0  -0.3491
  N  N330  1  0.417870  0.347330  0.614130  1.0  -0.3957
  N  N331  1  0.343570  0.268230  0.491230  1.0  -0.3667
  N  N332  1  0.442370  0.317330  0.805730  1.0  -0.4108
  N  N333  1  0.076530  0.547470  0.215070  1.0  -0.3491
  N  N334  1  0.084530  0.680670  0.947470  1.0  -0.3957
  N  N335  1  0.010230  0.601570  0.824570  1.0  -0.3667
  N  N336  1  0.109030  0.650670  0.139070  1.0  -0.4108
  N  N337  1  0.119200  0.862400  0.548400  1.0  -0.3502
  N  N338  1  0.986000  0.737200  0.280800  1.0  -0.3953
  N  N339  1  0.065100  0.742000  0.157900  1.0  -0.3662
  N  N340  1  0.016000  0.791700  0.472400  1.0  -0.4113
  N  N341  1  0.785870  0.195730  0.881730  1.0  -0.3502
  N  N342  1  0.652670  0.070530  0.614130  1.0  -0.3953
  N  N343  1  0.731770  0.075330  0.491230  1.0  -0.3662
  N  N344  1  0.682670  0.125030  0.805730  1.0  -0.4113
  N  N345  1  0.452530  0.529070  0.215070  1.0  -0.3502
  N  N346  1  0.319330  0.403870  0.947470  1.0  -0.3953
  N  N347  1  0.398430  0.408670  0.824570  1.0  -0.3666
  N  N348  1  0.349330  0.458370  0.139070  1.0  -0.4113
  N  N349  1  0.137600  0.256800  0.548400  1.0  -0.3513
  N  N350  1  0.262800  0.248800  0.280800  1.0  -0.3972
  N  N351  1  0.258000  0.323100  0.157900  1.0  -0.3639
  N  N352  1  0.208300  0.224300  0.472400  1.0  -0.4095
  N  N353  1  0.804270  0.590130  0.881730  1.0  -0.3513
  N  N354  1  0.929470  0.582130  0.614130  1.0  -0.3972
  N  N355  1  0.924670  0.656430  0.491230  1.0  -0.3639
  N  N356  1  0.874970  0.557630  0.805730  1.0  -0.4095
  N  N357  1  0.470930  0.923470  0.215070  1.0  -0.3513
  N  N358  1  0.596130  0.915470  0.947470  1.0  -0.3972
  N  N359  1  0.591330  0.989770  0.824570  1.0  -0.3638
  N  N360  1  0.541630  0.890970  0.139070  1.0  -0.4095
  N  N361  1  0.256800  0.119200  0.451600  1.0  -0.3486
  N  N362  1  0.248800  0.986000  0.719200  1.0  -0.3966
  N  N363  1  0.323100  0.065100  0.842100  1.0  -0.3651
  N  N364  1  0.224300  0.016000  0.527600  1.0  -0.4111
  N  N365  1  0.923470  0.452530  0.784930  1.0  -0.3486
  N  N366  1  0.915470  0.319330  0.052530  1.0  -0.3966
  N  N367  1  0.989770  0.398430  0.175430  1.0  -0.365
  N  N368  1  0.890970  0.349330  0.860930  1.0  -0.4111
  N  N369  1  0.590130  0.785870  0.118270  1.0  -0.3487
  N  N370  1  0.582130  0.652670  0.385870  1.0  -0.3966
  N  N371  1  0.656430  0.731770  0.508770  1.0  -0.3651
  N  N372  1  0.557630  0.682670  0.194270  1.0  -0.4111
  N  N373  1  0.880800  0.137600  0.451600  1.0  -0.3486
  N  N374  1  0.014000  0.262800  0.719200  1.0  -0.3964
  N  N375  1  0.934900  0.258000  0.842100  1.0  -0.3641
  N  N376  1  0.984000  0.208300  0.527600  1.0  -0.4132
  N  N377  1  0.547470  0.470930  0.784930  1.0  -0.3487
  N  N378  1  0.680670  0.596130  0.052530  1.0  -0.3964
  N  N379  1  0.601570  0.591330  0.175430  1.0  -0.3644
  N  N380  1  0.650670  0.541630  0.860930  1.0  -0.4132
  N  N381  1  0.214130  0.804270  0.118270  1.0  -0.3486
  N  N382  1  0.347330  0.929470  0.385870  1.0  -0.3964
  N  N383  1  0.268230  0.924670  0.508770  1.0  -0.3641
  N  N384  1  0.317330  0.874970  0.194270  1.0  -0.4132
  N  N385  1  0.862400  0.743200  0.451600  1.0  -0.3501
  N  N386  1  0.737200  0.751200  0.719200  1.0  -0.3953
  N  N387  1  0.742000  0.676900  0.842100  1.0  -0.3629
  N  N388  1  0.791700  0.775700  0.527600  1.0  -0.4102
  N  N389  1  0.529070  0.076530  0.784930  1.0  -0.3501
  N  N390  1  0.403870  0.084530  0.052530  1.0  -0.3953
  N  N391  1  0.408670  0.010230  0.175430  1.0  -0.3629
  N  N392  1  0.458370  0.109030  0.860930  1.0  -0.4102
  N  N393  1  0.195730  0.409870  0.118270  1.0  -0.3501
  N  N394  1  0.070530  0.417870  0.385870  1.0  -0.3953
  N  N395  1  0.075330  0.343570  0.508770  1.0  -0.3629
  N  N396  1  0.125030  0.442370  0.194270  1.0  -0.4102
