# generated using pymatgen
data_Cd3H49C66N7O19
_symmetry_space_group_name_H-M   'P 1'
_cell_length_a   26.68200000
_cell_length_b   39.63000000
_cell_length_c   17.09670000
_cell_angle_alpha   90.00000000
_cell_angle_beta   100.95000000
_cell_angle_gamma   90.00000000
_symmetry_Int_Tables_number   1
_chemical_formula_structural   Cd3H49C66N7O19
_chemical_formula_sum   'Cd12 H196 C264 N28 O76'
_cell_volume   17749.03790898
_cell_formula_units_Z   4
loop_
 _symmetry_equiv_pos_site_id
 _symmetry_equiv_pos_as_xyz
  1  'x, y, z'
loop_
 _atom_site_type_symbol
 _atom_site_label
 _atom_site_symmetry_multiplicity
 _atom_site_fract_x
 _atom_site_fract_y
 _atom_site_fract_z
 _atom_site_occupancy
 _atom_site_charge
  Cd  Cd1  1  0.192920  0.168790  0.504220  1.0  1.0208
  Cd  Cd2  1  0.692920  0.668790  0.504220  1.0  1.0208
  Cd  Cd3  1  0.807080  0.168790  0.495780  1.0  1.0214
  Cd  Cd4  1  0.307080  0.668790  0.495780  1.0  1.0214
  Cd  Cd5  1  0.807080  0.831210  0.495780  1.0  1.0214
  Cd  Cd6  1  0.307080  0.331210  0.495780  1.0  1.0214
  Cd  Cd7  1  0.192920  0.831210  0.504220  1.0  1.0211
  Cd  Cd8  1  0.692920  0.331210  0.504220  1.0  1.0211
  Cd  Cd9  1  0.250000  0.250000  0.500000  1.0  1.1183
  Cd  Cd10  1  0.750000  0.250000  0.500000  1.0  1.1183
  Cd  Cd11  1  0.750000  0.750000  0.500000  1.0  1.1183
  Cd  Cd12  1  0.250000  0.750000  0.500000  1.0  1.1183
  H  H13  1  0.491200  0.150000  0.086200  1.0  0.0842
  H  H14  1  0.448000  0.146900  0.009800  1.0  0.0742
  H  H15  1  0.489900  0.228600  0.088600  1.0  0.0639
  H  H16  1  0.451100  0.232500  0.146900  1.0  0.0681
  H  H17  1  0.383400  0.154600  0.105500  1.0  0.0714
  H  H18  1  0.430100  0.158700  0.176700  1.0  0.0744
  H  H19  1  0.383300  0.224000  0.031900  1.0  0.0769
  H  H20  1  0.421700  0.216700  0.974400  1.0  0.0599
  H  H21  1  0.523000  0.266400  0.184100  1.0  0.1264
  H  H22  1  0.578300  0.296600  0.275500  1.0  0.1042
  H  H23  1  0.623300  0.213700  0.400300  1.0  0.1022
  H  H24  1  0.570000  0.180800  0.305500  1.0  0.1307
  H  H25  1  0.345600  0.238200  0.250800  1.0  0.1428
  H  H26  1  0.301300  0.229100  0.351400  1.0  0.094
  H  H27  1  0.307400  0.130500  0.320400  1.0  0.0974
  H  H28  1  0.355000  0.137300  0.222800  1.0  0.1307
  H  H29  1  0.354800  0.237800  0.887500  1.0  0.1256
  H  H30  1  0.310200  0.244500  0.757900  1.0  0.1017
  H  H31  1  0.279300  0.145600  0.746900  1.0  0.1159
  H  H32  1  0.315500  0.141200  0.880100  1.0  0.1128
  H  H33  1  0.195800  0.094200  0.416700  1.0  0.1028
  H  H34  1  0.133100  0.110700  0.603400  1.0  0.1154
  H  H35  1  0.113400  0.050500  0.562200  1.0  0.1496
  H  H36  1  0.159600  0.051300  0.325000  1.0  0.1138
  H  H37  1  0.991200  0.650000  0.086200  1.0  0.0855
  H  H38  1  0.948000  0.646900  0.009800  1.0  0.0714
  H  H39  1  0.989900  0.728600  0.088600  1.0  0.0639
  H  H40  1  0.951100  0.732500  0.146900  1.0  0.0681
  H  H41  1  0.883400  0.654600  0.105500  1.0  0.0714
  H  H42  1  0.930100  0.658700  0.176700  1.0  0.0744
  H  H43  1  0.883300  0.724000  0.031900  1.0  0.0769
  H  H44  1  0.921700  0.716700  0.974400  1.0  0.0599
  H  H45  1  0.023000  0.766400  0.184100  1.0  0.1264
  H  H46  1  0.078300  0.796600  0.275500  1.0  0.1042
  H  H47  1  0.123300  0.713700  0.400300  1.0  0.1022
  H  H48  1  0.070000  0.680800  0.305500  1.0  0.132
  H  H49  1  0.845600  0.738200  0.250800  1.0  0.1428
  H  H50  1  0.801300  0.729100  0.351400  1.0  0.094
  H  H51  1  0.807400  0.630500  0.320400  1.0  0.0974
  H  H52  1  0.855000  0.637300  0.222800  1.0  0.1307
  H  H53  1  0.854800  0.737800  0.887500  1.0  0.1256
  H  H54  1  0.810200  0.744500  0.757900  1.0  0.1017
  H  H55  1  0.779300  0.645600  0.746900  1.0  0.1159
  H  H56  1  0.815500  0.641200  0.880100  1.0  0.1128
  H  H57  1  0.695800  0.594200  0.416700  1.0  0.1028
  H  H58  1  0.633100  0.610700  0.603400  1.0  0.1154
  H  H59  1  0.613400  0.550500  0.562200  1.0  0.1496
  H  H60  1  0.659600  0.551300  0.325000  1.0  0.1138
  H  H61  1  0.508800  0.150000  0.913800  1.0  0.0826
  H  H62  1  0.552000  0.146900  0.990200  1.0  0.0743
  H  H63  1  0.510100  0.228600  0.911400  1.0  0.0631
  H  H64  1  0.548900  0.232500  0.853100  1.0  0.0688
  H  H65  1  0.616600  0.154600  0.894500  1.0  0.0715
  H  H66  1  0.569900  0.158700  0.823300  1.0  0.0732
  H  H67  1  0.616700  0.224000  0.968100  1.0  0.0771
  H  H68  1  0.578300  0.216700  0.025600  1.0  0.0597
  H  H69  1  0.477000  0.266400  0.815900  1.0  0.125
  H  H70  1  0.421700  0.296600  0.724500  1.0  0.1041
  H  H71  1  0.376700  0.213700  0.599700  1.0  0.1021
  H  H72  1  0.430000  0.180800  0.694500  1.0  0.1301
  H  H73  1  0.654400  0.238200  0.749200  1.0  0.1429
  H  H74  1  0.698700  0.229100  0.648600  1.0  0.0938
  H  H75  1  0.692600  0.130500  0.679600  1.0  0.0982
  H  H76  1  0.645000  0.137300  0.777200  1.0  0.131
  H  H77  1  0.645200  0.237800  0.112500  1.0  0.1249
  H  H78  1  0.689800  0.244500  0.242100  1.0  0.1014
  H  H79  1  0.720700  0.145600  0.253100  1.0  0.1161
  H  H80  1  0.684500  0.141200  0.119900  1.0  0.113
  H  H81  1  0.804200  0.094200  0.583300  1.0  0.1031
  H  H82  1  0.866900  0.110700  0.396600  1.0  0.1161
  H  H83  1  0.886600  0.050500  0.437800  1.0  0.1484
  H  H84  1  0.840400  0.051300  0.675000  1.0  0.1134
  H  H85  1  0.008800  0.650000  0.913800  1.0  0.084
  H  H86  1  0.052000  0.646900  0.990200  1.0  0.0712
  H  H87  1  0.010100  0.728600  0.911400  1.0  0.0631
  H  H88  1  0.048900  0.732500  0.853100  1.0  0.0688
  H  H89  1  0.116600  0.654600  0.894500  1.0  0.0715
  H  H90  1  0.069900  0.658700  0.823300  1.0  0.0732
  H  H91  1  0.116700  0.724000  0.968100  1.0  0.0771
  H  H92  1  0.078300  0.716700  0.025600  1.0  0.0597
  H  H93  1  0.977000  0.766400  0.815900  1.0  0.125
  H  H94  1  0.921700  0.796600  0.724500  1.0  0.1041
  H  H95  1  0.876700  0.713700  0.599700  1.0  0.1021
  H  H96  1  0.930000  0.680800  0.694500  1.0  0.1312
  H  H97  1  0.154400  0.738200  0.749200  1.0  0.1429
  H  H98  1  0.198700  0.729100  0.648600  1.0  0.0938
  H  H99  1  0.192600  0.630500  0.679600  1.0  0.0982
  H  H100  1  0.145000  0.637300  0.777200  1.0  0.131
  H  H101  1  0.145200  0.737800  0.112500  1.0  0.1249
  H  H102  1  0.189800  0.744500  0.242100  1.0  0.1014
  H  H103  1  0.220700  0.645600  0.253100  1.0  0.1161
  H  H104  1  0.184500  0.641200  0.119900  1.0  0.113
  H  H105  1  0.304200  0.594200  0.583300  1.0  0.1031
  H  H106  1  0.366900  0.610700  0.396600  1.0  0.1161
  H  H107  1  0.386600  0.550500  0.437800  1.0  0.1484
  H  H108  1  0.340400  0.551300  0.675000  1.0  0.1134
  H  H109  1  0.508800  0.850000  0.913800  1.0  0.0848
  H  H110  1  0.552000  0.853100  0.990200  1.0  0.0747
  H  H111  1  0.510100  0.771400  0.911400  1.0  0.0645
  H  H112  1  0.548900  0.767500  0.853100  1.0  0.0678
  H  H113  1  0.616600  0.845400  0.894500  1.0  0.0719
  H  H114  1  0.569900  0.841300  0.823300  1.0  0.0742
  H  H115  1  0.616700  0.776000  0.968100  1.0  0.0756
  H  H116  1  0.578300  0.783300  0.025600  1.0  0.0599
  H  H117  1  0.477000  0.733600  0.815900  1.0  0.1263
  H  H118  1  0.421700  0.703400  0.724500  1.0  0.1053
  H  H119  1  0.376700  0.786300  0.599700  1.0  0.1021
  H  H120  1  0.430000  0.819200  0.694500  1.0  0.1311
  H  H121  1  0.654400  0.761800  0.749200  1.0  0.1433
  H  H122  1  0.698700  0.770900  0.648600  1.0  0.0936
  H  H123  1  0.692600  0.869500  0.679600  1.0  0.0987
  H  H124  1  0.645000  0.862700  0.777200  1.0  0.1306
  H  H125  1  0.645200  0.762200  0.112500  1.0  0.1237
  H  H126  1  0.689800  0.755500  0.242100  1.0  0.1012
  H  H127  1  0.720700  0.854400  0.253100  1.0  0.1159
  H  H128  1  0.684500  0.858800  0.119900  1.0  0.114
  H  H129  1  0.804200  0.905800  0.583300  1.0  0.1029
  H  H130  1  0.866900  0.889300  0.396600  1.0  0.1161
  H  H131  1  0.886600  0.949500  0.437800  1.0  0.1482
  H  H132  1  0.840400  0.948700  0.675000  1.0  0.114
  H  H133  1  0.008800  0.350000  0.913800  1.0  0.0854
  H  H134  1  0.052000  0.353100  0.990200  1.0  0.0714
  H  H135  1  0.010100  0.271400  0.911400  1.0  0.0645
  H  H136  1  0.048900  0.267500  0.853100  1.0  0.0678
  H  H137  1  0.116600  0.345400  0.894500  1.0  0.0719
  H  H138  1  0.069900  0.341300  0.823300  1.0  0.0742
  H  H139  1  0.116700  0.276000  0.968100  1.0  0.0756
  H  H140  1  0.078300  0.283300  0.025600  1.0  0.0599
  H  H141  1  0.977000  0.233600  0.815900  1.0  0.1263
  H  H142  1  0.921700  0.203400  0.724500  1.0  0.1053
  H  H143  1  0.876700  0.286300  0.599700  1.0  0.1021
  H  H144  1  0.930000  0.319200  0.694500  1.0  0.1321
  H  H145  1  0.154400  0.261800  0.749200  1.0  0.1433
  H  H146  1  0.198700  0.270900  0.648600  1.0  0.0936
  H  H147  1  0.192600  0.369500  0.679600  1.0  0.0987
  H  H148  1  0.145000  0.362700  0.777200  1.0  0.1306
  H  H149  1  0.145200  0.262200  0.112500  1.0  0.1237
  H  H150  1  0.189800  0.255500  0.242100  1.0  0.1012
  H  H151  1  0.220700  0.354400  0.253100  1.0  0.1159
  H  H152  1  0.184500  0.358800  0.119900  1.0  0.1144
  H  H153  1  0.304200  0.405800  0.583300  1.0  0.1029
  H  H154  1  0.366900  0.389300  0.396600  1.0  0.1161
  H  H155  1  0.386600  0.449500  0.437800  1.0  0.1482
  H  H156  1  0.340400  0.448700  0.675000  1.0  0.114
  H  H157  1  0.491200  0.850000  0.086200  1.0  0.0853
  H  H158  1  0.448000  0.853100  0.009800  1.0  0.0756
  H  H159  1  0.489900  0.771400  0.088600  1.0  0.0641
  H  H160  1  0.451100  0.767500  0.146900  1.0  0.0681
  H  H161  1  0.383400  0.845400  0.105500  1.0  0.0729
  H  H162  1  0.430100  0.841300  0.176700  1.0  0.074
  H  H163  1  0.383300  0.776000  0.031900  1.0  0.0765
  H  H164  1  0.421700  0.783300  0.974400  1.0  0.0602
  H  H165  1  0.523000  0.733600  0.184100  1.0  0.1261
  H  H166  1  0.578300  0.703400  0.275500  1.0  0.1044
  H  H167  1  0.623300  0.786300  0.400300  1.0  0.1019
  H  H168  1  0.570000  0.819200  0.305500  1.0  0.1312
  H  H169  1  0.345600  0.761800  0.250800  1.0  0.1432
  H  H170  1  0.301300  0.770900  0.351400  1.0  0.0942
  H  H171  1  0.307400  0.869500  0.320400  1.0  0.0978
  H  H172  1  0.355000  0.862700  0.222800  1.0  0.1302
  H  H173  1  0.354800  0.762200  0.887500  1.0  0.125
  H  H174  1  0.310200  0.755500  0.757900  1.0  0.1012
  H  H175  1  0.279300  0.854400  0.746900  1.0  0.1161
  H  H176  1  0.315500  0.858800  0.880100  1.0  0.1118
  H  H177  1  0.195800  0.905800  0.416700  1.0  0.1027
  H  H178  1  0.133100  0.889300  0.603400  1.0  0.1157
  H  H179  1  0.113400  0.949500  0.562200  1.0  0.1486
  H  H180  1  0.159600  0.948700  0.325000  1.0  0.1141
  H  H181  1  0.991200  0.350000  0.086200  1.0  0.086
  H  H182  1  0.948000  0.353100  0.009800  1.0  0.0723
  H  H183  1  0.989900  0.271400  0.088600  1.0  0.0641
  H  H184  1  0.951100  0.267500  0.146900  1.0  0.0681
  H  H185  1  0.883400  0.345400  0.105500  1.0  0.0729
  H  H186  1  0.930100  0.341300  0.176700  1.0  0.074
  H  H187  1  0.883300  0.276000  0.031900  1.0  0.0765
  H  H188  1  0.921700  0.283300  0.974400  1.0  0.0602
  H  H189  1  0.023000  0.233600  0.184100  1.0  0.1261
  H  H190  1  0.078300  0.203400  0.275500  1.0  0.1044
  H  H191  1  0.123300  0.286300  0.400300  1.0  0.1019
  H  H192  1  0.070000  0.319200  0.305500  1.0  0.1326
  H  H193  1  0.845600  0.261800  0.250800  1.0  0.1432
  H  H194  1  0.801300  0.270900  0.351400  1.0  0.0942
  H  H195  1  0.807400  0.369500  0.320400  1.0  0.0978
  H  H196  1  0.855000  0.362700  0.222800  1.0  0.1302
  H  H197  1  0.854800  0.262200  0.887500  1.0  0.125
  H  H198  1  0.810200  0.255500  0.757900  1.0  0.1012
  H  H199  1  0.779300  0.354400  0.746900  1.0  0.1161
  H  H200  1  0.815500  0.358800  0.880100  1.0  0.1123
  H  H201  1  0.695800  0.405800  0.416700  1.0  0.1027
  H  H202  1  0.633100  0.389300  0.603400  1.0  0.1157
  H  H203  1  0.613400  0.449500  0.562200  1.0  0.1486
  H  H204  1  0.659600  0.448700  0.325000  1.0  0.1141
  H  H205  1  0.152700  0.000000  0.526700  1.0  0.1252
  H  H206  1  0.652700  0.500000  0.526700  1.0  0.1251
  H  H207  1  0.847300  0.000000  0.473300  1.0  0.126
  H  H208  1  0.347300  0.500000  0.473300  1.0  0.1256
  C  C209  1  0.438000  0.188200  0.078500  1.0  -0.0133
  C  C210  1  0.469800  0.162700  0.043900  1.0  0.0753
  C  C211  1  0.471900  0.216500  0.124200  1.0  0.0707
  C  C212  1  0.407400  0.170640  0.134700  1.0  0.078
  C  C213  1  0.402300  0.206500  0.010700  1.0  0.0669
  C  C214  1  0.540000  0.220100  0.236100  1.0  0.2391
  C  C215  1  0.543200  0.255500  0.227000  1.0  -0.306
  C  C216  1  0.576300  0.273400  0.282200  1.0  -0.0013
  C  C217  1  0.606900  0.258900  0.347000  1.0  -0.2036
  C  C218  1  0.603500  0.224000  0.356100  1.0  -0.0338
  C  C219  1  0.570900  0.204100  0.299900  1.0  -0.1612
  C  C220  1  0.641200  0.279200  0.407100  1.0  0.722
  C  C221  1  0.354700  0.188700  0.226500  1.0  0.2669
  C  C222  1  0.338400  0.216400  0.265200  1.0  -0.256
  C  C223  1  0.311800  0.210700  0.324700  1.0  -0.0204
  C  C224  1  0.299700  0.178340  0.346800  1.0  -0.1358
  C  C225  1  0.315800  0.152200  0.306900  1.0  -0.028
  C  C226  1  0.343800  0.156000  0.247700  1.0  -0.2804
  C  C227  1  0.269100  0.173100  0.411000  1.0  0.6908
  C  C228  1  0.342500  0.188400  0.894600  1.0  0.2931
  C  C229  1  0.339000  0.219300  0.859600  1.0  -0.2355
  C  C230  1  0.311900  0.223300  0.781800  1.0  -0.0225
  C  C231  1  0.287500  0.196300  0.739900  1.0  -0.1147
  C  C232  1  0.292300  0.164600  0.775600  1.0  -0.056
  C  C233  1  0.316600  0.161700  0.854000  1.0  -0.1395
  C  C234  1  0.259000  0.200100  0.655100  1.0  0.7286
  C  C235  1  0.177300  0.090900  0.457000  1.0  0.1318
  C  C236  1  0.142200  0.099800  0.560000  1.0  0.0048
  C  C237  1  0.132100  0.066000  0.538500  1.0  -0.0742
  C  C238  1  0.159300  0.030000  0.432600  1.0  0.176
  C  C239  1  0.159400  0.030700  0.351300  1.0  -0.1222
  C  C240  1  0.153500  0.024700  0.182000  1.0  0.1101
  C  C241  1  0.938000  0.688200  0.078500  1.0  -0.0133
  C  C242  1  0.969800  0.662700  0.043900  1.0  0.0753
  C  C243  1  0.971900  0.716500  0.124200  1.0  0.0707
  C  C244  1  0.907400  0.670640  0.134700  1.0  0.078
  C  C245  1  0.902300  0.706500  0.010700  1.0  0.0669
  C  C246  1  0.040000  0.720100  0.236100  1.0  0.2391
  C  C247  1  0.043200  0.755500  0.227000  1.0  -0.306
  C  C248  1  0.076300  0.773400  0.282200  1.0  -0.0013
  C  C249  1  0.106900  0.758900  0.347000  1.0  -0.2036
  C  C250  1  0.103500  0.724000  0.356100  1.0  -0.0338
  C  C251  1  0.070900  0.704100  0.299900  1.0  -0.1612
  C  C252  1  0.141200  0.779200  0.407100  1.0  0.722
  C  C253  1  0.854700  0.688700  0.226500  1.0  0.2669
  C  C254  1  0.838400  0.716400  0.265200  1.0  -0.256
  C  C255  1  0.811800  0.710700  0.324700  1.0  -0.0204
  C  C256  1  0.799700  0.678340  0.346800  1.0  -0.1358
  C  C257  1  0.815800  0.652200  0.306900  1.0  -0.028
  C  C258  1  0.843800  0.656000  0.247700  1.0  -0.2804
  C  C259  1  0.769100  0.673100  0.411000  1.0  0.6908
  C  C260  1  0.842500  0.688400  0.894600  1.0  0.2931
  C  C261  1  0.839000  0.719300  0.859600  1.0  -0.2355
  C  C262  1  0.811900  0.723300  0.781800  1.0  -0.0225
  C  C263  1  0.787500  0.696300  0.739900  1.0  -0.1147
  C  C264  1  0.792300  0.664600  0.775600  1.0  -0.056
  C  C265  1  0.816600  0.661700  0.854000  1.0  -0.1395
  C  C266  1  0.759000  0.700100  0.655100  1.0  0.7286
  C  C267  1  0.677300  0.590900  0.457000  1.0  0.1318
  C  C268  1  0.642200  0.599800  0.560000  1.0  0.0048
  C  C269  1  0.632100  0.566000  0.538500  1.0  -0.0742
  C  C270  1  0.659300  0.530000  0.432600  1.0  0.176
  C  C271  1  0.659400  0.530700  0.351300  1.0  -0.1222
  C  C272  1  0.653500  0.524700  0.182000  1.0  0.1101
  C  C273  1  0.562000  0.188200  0.921500  1.0  -0.0128
  C  C274  1  0.530200  0.162700  0.956100  1.0  0.0719
  C  C275  1  0.528100  0.216500  0.875800  1.0  0.0707
  C  C276  1  0.592600  0.170640  0.865300  1.0  0.076
  C  C277  1  0.597700  0.206500  0.989300  1.0  0.0664
  C  C278  1  0.460000  0.220100  0.763900  1.0  0.2387
  C  C279  1  0.456800  0.255500  0.773000  1.0  -0.3032
  C  C280  1  0.423700  0.273400  0.717800  1.0  -0.0035
  C  C281  1  0.393100  0.258900  0.653000  1.0  -0.2038
  C  C282  1  0.396500  0.224000  0.643900  1.0  -0.0325
  C  C283  1  0.429100  0.204100  0.700100  1.0  -0.162
  C  C284  1  0.358800  0.279200  0.592900  1.0  0.7226
  C  C285  1  0.645300  0.188700  0.773500  1.0  0.2671
  C  C286  1  0.661600  0.216400  0.734800  1.0  -0.2568
  C  C287  1  0.688200  0.210700  0.675300  1.0  -0.0196
  C  C288  1  0.700300  0.178340  0.653200  1.0  -0.1343
  C  C289  1  0.684200  0.152200  0.693100  1.0  -0.0278
  C  C290  1  0.656200  0.156000  0.752300  1.0  -0.2821
  C  C291  1  0.730900  0.173100  0.589000  1.0  0.6901
  C  C292  1  0.657500  0.188400  0.105400  1.0  0.2929
  C  C293  1  0.661000  0.219300  0.140400  1.0  -0.2371
  C  C294  1  0.688100  0.223300  0.218200  1.0  -0.0233
  C  C295  1  0.712500  0.196300  0.260100  1.0  -0.1148
  C  C296  1  0.707700  0.164600  0.224400  1.0  -0.0567
  C  C297  1  0.683400  0.161700  0.146000  1.0  -0.1392
  C  C298  1  0.741000  0.200100  0.344900  1.0  0.7274
  C  C299  1  0.822700  0.090900  0.543000  1.0  0.1324
  C  C300  1  0.857800  0.099800  0.440000  1.0  0.0068
  C  C301  1  0.867900  0.066000  0.461500  1.0  -0.0737
  C  C302  1  0.840700  0.030000  0.567400  1.0  0.1759
  C  C303  1  0.840600  0.030700  0.648700  1.0  -0.1221
  C  C304  1  0.846500  0.024700  0.818000  1.0  0.1098
  C  C305  1  0.062000  0.688200  0.921500  1.0  -0.0128
  C  C306  1  0.030200  0.662700  0.956100  1.0  0.0719
  C  C307  1  0.028100  0.716500  0.875800  1.0  0.0707
  C  C308  1  0.092600  0.670640  0.865300  1.0  0.076
  C  C309  1  0.097700  0.706500  0.989300  1.0  0.0664
  C  C310  1  0.960000  0.720100  0.763900  1.0  0.2387
  C  C311  1  0.956800  0.755500  0.773000  1.0  -0.3032
  C  C312  1  0.923700  0.773400  0.717800  1.0  -0.0035
  C  C313  1  0.893100  0.758900  0.653000  1.0  -0.2038
  C  C314  1  0.896500  0.724000  0.643900  1.0  -0.0325
  C  C315  1  0.929100  0.704100  0.700100  1.0  -0.162
  C  C316  1  0.858800  0.779200  0.592900  1.0  0.7226
  C  C317  1  0.145300  0.688700  0.773500  1.0  0.2671
  C  C318  1  0.161600  0.716400  0.734800  1.0  -0.2568
  C  C319  1  0.188200  0.710700  0.675300  1.0  -0.0196
  C  C320  1  0.200300  0.678340  0.653200  1.0  -0.1343
  C  C321  1  0.184200  0.652200  0.693100  1.0  -0.0278
  C  C322  1  0.156200  0.656000  0.752300  1.0  -0.2821
  C  C323  1  0.230900  0.673100  0.589000  1.0  0.6901
  C  C324  1  0.157500  0.688400  0.105400  1.0  0.2929
  C  C325  1  0.161000  0.719300  0.140400  1.0  -0.2371
  C  C326  1  0.188100  0.723300  0.218200  1.0  -0.0233
  C  C327  1  0.212500  0.696300  0.260100  1.0  -0.1148
  C  C328  1  0.207700  0.664600  0.224400  1.0  -0.0567
  C  C329  1  0.183400  0.661700  0.146000  1.0  -0.1392
  C  C330  1  0.241000  0.700100  0.344900  1.0  0.7274
  C  C331  1  0.322700  0.590900  0.543000  1.0  0.1324
  C  C332  1  0.357800  0.599800  0.440000  1.0  0.0068
  C  C333  1  0.367900  0.566000  0.461500  1.0  -0.0737
  C  C334  1  0.340700  0.530000  0.567400  1.0  0.1759
  C  C335  1  0.340600  0.530700  0.648700  1.0  -0.1221
  C  C336  1  0.346500  0.524700  0.818000  1.0  0.1098
  C  C337  1  0.562000  0.811800  0.921500  1.0  -0.0135
  C  C338  1  0.530200  0.837300  0.956100  1.0  0.0729
  C  C339  1  0.528100  0.783500  0.875800  1.0  0.0727
  C  C340  1  0.592600  0.829360  0.865300  1.0  0.0743
  C  C341  1  0.597700  0.793500  0.989300  1.0  0.0679
  C  C342  1  0.460000  0.779900  0.763900  1.0  0.2378
  C  C343  1  0.456800  0.744500  0.773000  1.0  -0.3043
  C  C344  1  0.423700  0.726600  0.717800  1.0  -0.0062
  C  C345  1  0.393100  0.741100  0.653000  1.0  -0.2044
  C  C346  1  0.396500  0.776000  0.643900  1.0  -0.0331
  C  C347  1  0.429100  0.795900  0.700100  1.0  -0.1636
  C  C348  1  0.358800  0.720800  0.592900  1.0  0.7223
  C  C349  1  0.645300  0.811300  0.773500  1.0  0.2672
  C  C350  1  0.661600  0.783600  0.734800  1.0  -0.255
  C  C351  1  0.688200  0.789300  0.675300  1.0  -0.0186
  C  C352  1  0.700300  0.821660  0.653200  1.0  -0.1343
  C  C353  1  0.684200  0.847800  0.693100  1.0  -0.0282
  C  C354  1  0.656200  0.844000  0.752300  1.0  -0.2826
  C  C355  1  0.730900  0.826900  0.589000  1.0  0.6908
  C  C356  1  0.657500  0.811600  0.105400  1.0  0.2934
  C  C357  1  0.661000  0.780700  0.140400  1.0  -0.2373
  C  C358  1  0.688100  0.776700  0.218200  1.0  -0.0229
  C  C359  1  0.712500  0.803700  0.260100  1.0  -0.1146
  C  C360  1  0.707700  0.835400  0.224400  1.0  -0.0557
  C  C361  1  0.683400  0.838300  0.146000  1.0  -0.1384
  C  C362  1  0.741000  0.799900  0.344900  1.0  0.7266
  C  C363  1  0.822700  0.909100  0.543000  1.0  0.1321
  C  C364  1  0.857800  0.900200  0.440000  1.0  0.0064
  C  C365  1  0.867900  0.934000  0.461500  1.0  -0.0736
  C  C366  1  0.840700  0.970000  0.567400  1.0  0.1763
  C  C367  1  0.840600  0.969300  0.648700  1.0  -0.1222
  C  C368  1  0.846500  0.975300  0.818000  1.0  0.108
  C  C369  1  0.062000  0.311800  0.921500  1.0  -0.0135
  C  C370  1  0.030200  0.337300  0.956100  1.0  0.0729
  C  C371  1  0.028100  0.283500  0.875800  1.0  0.0727
  C  C372  1  0.092600  0.329360  0.865300  1.0  0.0743
  C  C373  1  0.097700  0.293500  0.989300  1.0  0.0679
  C  C374  1  0.960000  0.279900  0.763900  1.0  0.2378
  C  C375  1  0.956800  0.244500  0.773000  1.0  -0.3043
  C  C376  1  0.923700  0.226600  0.717800  1.0  -0.0062
  C  C377  1  0.893100  0.241100  0.653000  1.0  -0.2044
  C  C378  1  0.896500  0.276000  0.643900  1.0  -0.0331
  C  C379  1  0.929100  0.295900  0.700100  1.0  -0.1636
  C  C380  1  0.858800  0.220800  0.592900  1.0  0.7223
  C  C381  1  0.145300  0.311300  0.773500  1.0  0.2672
  C  C382  1  0.161600  0.283600  0.734800  1.0  -0.255
  C  C383  1  0.188200  0.289300  0.675300  1.0  -0.0186
  C  C384  1  0.200300  0.321660  0.653200  1.0  -0.1343
  C  C385  1  0.184200  0.347800  0.693100  1.0  -0.0282
  C  C386  1  0.156200  0.344000  0.752300  1.0  -0.2826
  C  C387  1  0.230900  0.326900  0.589000  1.0  0.6908
  C  C388  1  0.157500  0.311600  0.105400  1.0  0.2934
  C  C389  1  0.161000  0.280700  0.140400  1.0  -0.2373
  C  C390  1  0.188100  0.276700  0.218200  1.0  -0.0229
  C  C391  1  0.212500  0.303700  0.260100  1.0  -0.1146
  C  C392  1  0.207700  0.335400  0.224400  1.0  -0.0557
  C  C393  1  0.183400  0.338300  0.146000  1.0  -0.1384
  C  C394  1  0.241000  0.299900  0.344900  1.0  0.7266
  C  C395  1  0.322700  0.409100  0.543000  1.0  0.1321
  C  C396  1  0.357800  0.400200  0.440000  1.0  0.0064
  C  C397  1  0.367900  0.434000  0.461500  1.0  -0.0736
  C  C398  1  0.340700  0.470000  0.567400  1.0  0.1763
  C  C399  1  0.340600  0.469300  0.648700  1.0  -0.1222
  C  C400  1  0.346500  0.475300  0.818000  1.0  0.108
  C  C401  1  0.438000  0.811800  0.078500  1.0  -0.0137
  C  C402  1  0.469800  0.837300  0.043900  1.0  0.0699
  C  C403  1  0.471900  0.783500  0.124200  1.0  0.0726
  C  C404  1  0.407400  0.829360  0.134700  1.0  0.0769
  C  C405  1  0.402300  0.793500  0.010700  1.0  0.0651
  C  C406  1  0.540000  0.779900  0.236100  1.0  0.2379
  C  C407  1  0.543200  0.744500  0.227000  1.0  -0.3064
  C  C408  1  0.576300  0.726600  0.282200  1.0  -0.0055
  C  C409  1  0.606900  0.741100  0.347000  1.0  -0.2037
  C  C410  1  0.603500  0.776000  0.356100  1.0  -0.0337
  C  C411  1  0.570900  0.795900  0.299900  1.0  -0.1628
  C  C412  1  0.641200  0.720800  0.407100  1.0  0.7224
  C  C413  1  0.354700  0.811300  0.226500  1.0  0.267
  C  C414  1  0.338400  0.783600  0.265200  1.0  -0.2544
  C  C415  1  0.311800  0.789300  0.324700  1.0  -0.0191
  C  C416  1  0.299700  0.821660  0.346800  1.0  -0.1352
  C  C417  1  0.315800  0.847800  0.306900  1.0  -0.028
  C  C418  1  0.343800  0.844000  0.247700  1.0  -0.2814
  C  C419  1  0.269100  0.826900  0.411000  1.0  0.6909
  C  C420  1  0.342500  0.811600  0.894600  1.0  0.2933
  C  C421  1  0.339000  0.780700  0.859600  1.0  -0.2368
  C  C422  1  0.311900  0.776700  0.781800  1.0  -0.0226
  C  C423  1  0.287500  0.803700  0.739900  1.0  -0.1145
  C  C424  1  0.292300  0.835400  0.775600  1.0  -0.0553
  C  C425  1  0.316600  0.838300  0.854000  1.0  -0.138
  C  C426  1  0.259000  0.799900  0.655100  1.0  0.729
  C  C427  1  0.177300  0.909100  0.457000  1.0  0.1311
  C  C428  1  0.142200  0.900200  0.560000  1.0  0.0054
  C  C429  1  0.132100  0.934000  0.538500  1.0  -0.0743
  C  C430  1  0.159300  0.970000  0.432600  1.0  0.1764
  C  C431  1  0.159400  0.969300  0.351300  1.0  -0.1218
  C  C432  1  0.153500  0.975300  0.182000  1.0  0.1092
  C  C433  1  0.938000  0.311800  0.078500  1.0  -0.0137
  C  C434  1  0.969800  0.337300  0.043900  1.0  0.0699
  C  C435  1  0.971900  0.283500  0.124200  1.0  0.0726
  C  C436  1  0.907400  0.329360  0.134700  1.0  0.0769
  C  C437  1  0.902300  0.293500  0.010700  1.0  0.0651
  C  C438  1  0.040000  0.279900  0.236100  1.0  0.2379
  C  C439  1  0.043200  0.244500  0.227000  1.0  -0.3064
  C  C440  1  0.076300  0.226600  0.282200  1.0  -0.0055
  C  C441  1  0.106900  0.241100  0.347000  1.0  -0.2037
  C  C442  1  0.103500  0.276000  0.356100  1.0  -0.0337
  C  C443  1  0.070900  0.295900  0.299900  1.0  -0.1628
  C  C444  1  0.141200  0.220800  0.407100  1.0  0.7224
  C  C445  1  0.854700  0.311300  0.226500  1.0  0.267
  C  C446  1  0.838400  0.283600  0.265200  1.0  -0.2544
  C  C447  1  0.811800  0.289300  0.324700  1.0  -0.0191
  C  C448  1  0.799700  0.321660  0.346800  1.0  -0.1352
  C  C449  1  0.815800  0.347800  0.306900  1.0  -0.028
  C  C450  1  0.843800  0.344000  0.247700  1.0  -0.2814
  C  C451  1  0.769100  0.326900  0.411000  1.0  0.6909
  C  C452  1  0.842500  0.311600  0.894600  1.0  0.2933
  C  C453  1  0.839000  0.280700  0.859600  1.0  -0.2368
  C  C454  1  0.811900  0.276700  0.781800  1.0  -0.0226
  C  C455  1  0.787500  0.303700  0.739900  1.0  -0.1145
  C  C456  1  0.792300  0.335400  0.775600  1.0  -0.0553
  C  C457  1  0.816600  0.338300  0.854000  1.0  -0.138
  C  C458  1  0.759000  0.299900  0.655100  1.0  0.729
  C  C459  1  0.677300  0.409100  0.457000  1.0  0.1311
  C  C460  1  0.642200  0.400200  0.560000  1.0  0.0054
  C  C461  1  0.632100  0.434000  0.538500  1.0  -0.0743
  C  C462  1  0.659300  0.470000  0.432600  1.0  0.1764
  C  C463  1  0.659400  0.469300  0.351300  1.0  -0.1218
  C  C464  1  0.653500  0.475300  0.182000  1.0  0.1092
  C  C465  1  0.159200  0.000000  0.308600  1.0  0.0883
  C  C466  1  0.156400  0.000000  0.473700  1.0  -0.1553
  C  C467  1  0.659200  0.500000  0.308600  1.0  0.0883
  C  C468  1  0.656400  0.500000  0.473700  1.0  -0.1615
  C  C469  1  0.840800  0.000000  0.691400  1.0  0.0859
  C  C470  1  0.843600  0.000000  0.526300  1.0  -0.1559
  C  C471  1  0.340800  0.500000  0.691400  1.0  0.0859
  C  C472  1  0.343600  0.500000  0.526300  1.0  -0.1616
  N  N473  1  0.168100  0.114140  0.505300  1.0  -0.2726
  N  N474  1  0.156500  0.060660  0.472700  1.0  -0.0463
  N  N475  1  0.158400  0.015700  0.104900  1.0  -0.3165
  N  N476  1  0.668100  0.614140  0.505300  1.0  -0.2726
  N  N477  1  0.656500  0.560660  0.472700  1.0  -0.0463
  N  N478  1  0.658400  0.515700  0.104900  1.0  -0.3165
  N  N479  1  0.831900  0.114140  0.494700  1.0  -0.271
  N  N480  1  0.843500  0.060660  0.527300  1.0  -0.0465
  N  N481  1  0.841600  0.015700  0.895100  1.0  -0.3111
  N  N482  1  0.331900  0.614140  0.494700  1.0  -0.271
  N  N483  1  0.343500  0.560660  0.527300  1.0  -0.0465
  N  N484  1  0.341600  0.515700  0.895100  1.0  -0.3111
  N  N485  1  0.831900  0.885860  0.494700  1.0  -0.2714
  N  N486  1  0.843500  0.939340  0.527300  1.0  -0.0466
  N  N487  1  0.841600  0.984300  0.895100  1.0  -0.3092
  N  N488  1  0.331900  0.385860  0.494700  1.0  -0.2714
  N  N489  1  0.343500  0.439340  0.527300  1.0  -0.0466
  N  N490  1  0.341600  0.484300  0.895100  1.0  -0.3092
  N  N491  1  0.168100  0.885860  0.505300  1.0  -0.2723
  N  N492  1  0.156500  0.939340  0.472700  1.0  -0.0464
  N  N493  1  0.158400  0.984300  0.104900  1.0  -0.3124
  N  N494  1  0.668100  0.385860  0.505300  1.0  -0.2723
  N  N495  1  0.656500  0.439340  0.472700  1.0  -0.0464
  N  N496  1  0.658400  0.484300  0.104900  1.0  -0.3124
  N  N497  1  0.157300  0.000000  0.227600  1.0  0.1404
  N  N498  1  0.657300  0.500000  0.227600  1.0  0.1404
  N  N499  1  0.842700  0.000000  0.772400  1.0  0.1415
  N  N500  1  0.342700  0.500000  0.772400  1.0  0.1415
  O  O501  1  0.507510  0.199920  0.186400  1.0  -0.2717
  O  O502  1  0.380900  0.196780  0.167200  1.0  -0.2629
  O  O503  1  0.368200  0.181330  0.970200  1.0  -0.2653
  O  O504  1  0.643000  0.310580  0.394100  1.0  -0.5807
  O  O505  1  0.665810  0.265630  0.469300  1.0  -0.7072
  O  O506  1  0.262300  0.197070  0.455600  1.0  -0.7439
  O  O507  1  0.249100  0.144590  0.416900  1.0  -0.6833
  O  O508  1  0.259100  0.228140  0.623200  1.0  -0.6458
  O  O509  1  0.238500  0.173750  0.624200  1.0  -0.615
  O  O510  1  0.007510  0.699920  0.186400  1.0  -0.2717
  O  O511  1  0.880900  0.696780  0.167200  1.0  -0.2629
  O  O512  1  0.868200  0.681330  0.970200  1.0  -0.2653
  O  O513  1  0.143000  0.810580  0.394100  1.0  -0.5807
  O  O514  1  0.165810  0.765630  0.469300  1.0  -0.7072
  O  O515  1  0.762300  0.697070  0.455600  1.0  -0.7439
  O  O516  1  0.749100  0.644590  0.416900  1.0  -0.6833
  O  O517  1  0.759100  0.728140  0.623200  1.0  -0.6458
  O  O518  1  0.738500  0.673750  0.624200  1.0  -0.615
  O  O519  1  0.492490  0.199920  0.813600  1.0  -0.272
  O  O520  1  0.619100  0.196780  0.832800  1.0  -0.2629
  O  O521  1  0.631800  0.181330  0.029800  1.0  -0.266
  O  O522  1  0.357000  0.310580  0.605900  1.0  -0.5799
  O  O523  1  0.334190  0.265630  0.530700  1.0  -0.7081
  O  O524  1  0.737700  0.197070  0.544400  1.0  -0.7439
  O  O525  1  0.750900  0.144590  0.583100  1.0  -0.6842
  O  O526  1  0.740900  0.228140  0.376800  1.0  -0.645
  O  O527  1  0.761500  0.173750  0.375800  1.0  -0.6151
  O  O528  1  0.992490  0.699920  0.813600  1.0  -0.272
  O  O529  1  0.119100  0.696780  0.832800  1.0  -0.2629
  O  O530  1  0.131800  0.681330  0.029800  1.0  -0.266
  O  O531  1  0.857000  0.810580  0.605900  1.0  -0.5799
  O  O532  1  0.834190  0.765630  0.530700  1.0  -0.7081
  O  O533  1  0.237700  0.697070  0.544400  1.0  -0.7439
  O  O534  1  0.250900  0.644590  0.583100  1.0  -0.6842
  O  O535  1  0.240900  0.728140  0.376800  1.0  -0.645
  O  O536  1  0.261500  0.673750  0.375800  1.0  -0.6151
  O  O537  1  0.492490  0.800080  0.813600  1.0  -0.2711
  O  O538  1  0.619100  0.803220  0.832800  1.0  -0.2651
  O  O539  1  0.631800  0.818670  0.029800  1.0  -0.2644
  O  O540  1  0.357000  0.689420  0.605900  1.0  -0.5815
  O  O541  1  0.334190  0.734370  0.530700  1.0  -0.7078
  O  O542  1  0.737700  0.802930  0.544400  1.0  -0.7444
  O  O543  1  0.750900  0.855410  0.583100  1.0  -0.6849
  O  O544  1  0.740900  0.771860  0.376800  1.0  -0.6439
  O  O545  1  0.761500  0.826250  0.375800  1.0  -0.6157
  O  O546  1  0.992490  0.300080  0.813600  1.0  -0.2711
  O  O547  1  0.119100  0.303220  0.832800  1.0  -0.2651
  O  O548  1  0.131800  0.318670  0.029800  1.0  -0.2644
  O  O549  1  0.857000  0.189420  0.605900  1.0  -0.5815
  O  O550  1  0.834190  0.234370  0.530700  1.0  -0.7078
  O  O551  1  0.237700  0.302930  0.544400  1.0  -0.7444
  O  O552  1  0.250900  0.355410  0.583100  1.0  -0.6849
  O  O553  1  0.240900  0.271860  0.376800  1.0  -0.6439
  O  O554  1  0.261500  0.326250  0.375800  1.0  -0.6157
  O  O555  1  0.507510  0.800080  0.186400  1.0  -0.2722
  O  O556  1  0.380900  0.803220  0.167200  1.0  -0.2635
  O  O557  1  0.368200  0.818670  0.970200  1.0  -0.2651
  O  O558  1  0.643000  0.689420  0.394100  1.0  -0.5782
  O  O559  1  0.665810  0.734370  0.469300  1.0  -0.7065
  O  O560  1  0.262300  0.802930  0.455600  1.0  -0.7446
  O  O561  1  0.249100  0.855410  0.416900  1.0  -0.6835
  O  O562  1  0.259100  0.771860  0.623200  1.0  -0.6447
  O  O563  1  0.238500  0.826250  0.624200  1.0  -0.6152
  O  O564  1  0.007510  0.300080  0.186400  1.0  -0.2722
  O  O565  1  0.880900  0.303220  0.167200  1.0  -0.2635
  O  O566  1  0.868200  0.318670  0.970200  1.0  -0.2651
  O  O567  1  0.143000  0.189420  0.394100  1.0  -0.5782
  O  O568  1  0.165810  0.234370  0.469300  1.0  -0.7065
  O  O569  1  0.762300  0.302930  0.455600  1.0  -0.7446
  O  O570  1  0.749100  0.355410  0.416900  1.0  -0.6835
  O  O571  1  0.759100  0.271860  0.623200  1.0  -0.6447
  O  O572  1  0.738500  0.326250  0.624200  1.0  -0.6152
  O  O573  1  0.500000  0.180600  0.000000  1.0  -0.3057
  O  O574  1  0.000000  0.680600  0.000000  1.0  -0.3057
  O  O575  1  0.500000  0.819400  0.000000  1.0  -0.3042
  O  O576  1  0.000000  0.319400  0.000000  1.0  -0.3042
