# generated using pymatgen
data_CaC8(OF)4
_symmetry_space_group_name_H-M   'P 1'
_cell_length_a   14.23840000
_cell_length_b   16.38620000
_cell_length_c   6.84500000
_cell_angle_alpha   90.00000000
_cell_angle_beta   90.00000000
_cell_angle_gamma   90.00000000
_symmetry_Int_Tables_number   1
_chemical_formula_structural   CaC8(OF)4
_chemical_formula_sum   'Ca4 C32 O16 F16'
_cell_volume   1597.02933370
_cell_formula_units_Z   4
loop_
 _symmetry_equiv_pos_site_id
 _symmetry_equiv_pos_as_xyz
  1  'x, y, z'
loop_
 _atom_site_type_symbol
 _atom_site_label
 _atom_site_symmetry_multiplicity
 _atom_site_fract_x
 _atom_site_fract_y
 _atom_site_fract_z
 _atom_site_occupancy
 _atom_site_charge
  Ca  Ca1  1  0.431290  0.969480  0.612800  1.0  1.5862
  Ca  Ca2  1  0.568710  0.030520  0.112800  1.0  1.5872
  Ca  Ca3  1  0.931290  0.530520  0.612800  1.0  1.5868
  Ca  Ca4  1  0.068710  0.469480  0.112800  1.0  1.5868
  C  C5  1  0.420890  0.907230  0.110400  1.0  0.6827
  C  C6  1  0.359090  0.831140  0.105800  1.0  -0.2005
  C  C7  1  0.267700  0.831880  0.177100  1.0  0.2056
  C  C8  1  0.212200  0.762070  0.174600  1.0  0.2251
  C  C9  1  0.245310  0.688410  0.102000  1.0  -0.2037
  C  C10  1  0.184690  0.611640  0.101500  1.0  0.6689
  C  C11  1  0.337330  0.687610  0.033000  1.0  0.1664
  C  C12  1  0.392500  0.757430  0.032400  1.0  0.2173
  C  C13  1  0.579110  0.092770  0.610400  1.0  0.6836
  C  C14  1  0.640910  0.168860  0.605800  1.0  -0.2008
  C  C15  1  0.732300  0.168120  0.677100  1.0  0.2065
  C  C16  1  0.787800  0.237930  0.674600  1.0  0.225
  C  C17  1  0.754690  0.311590  0.602000  1.0  -0.2028
  C  C18  1  0.815310  0.388360  0.601500  1.0  0.6684
  C  C19  1  0.662670  0.312390  0.533000  1.0  0.1674
  C  C20  1  0.607500  0.242570  0.532400  1.0  0.2179
  C  C21  1  0.920890  0.592770  0.110400  1.0  0.6829
  C  C22  1  0.859090  0.668860  0.105800  1.0  -0.2007
  C  C23  1  0.767700  0.668120  0.177100  1.0  0.2068
  C  C24  1  0.712200  0.737930  0.174600  1.0  0.2254
  C  C25  1  0.745310  0.811590  0.102000  1.0  -0.2036
  C  C26  1  0.684690  0.888360  0.101500  1.0  0.6687
  C  C27  1  0.837330  0.812390  0.033000  1.0  0.1668
  C  C28  1  0.892500  0.742570  0.032400  1.0  0.2176
  C  C29  1  0.079110  0.407230  0.610400  1.0  0.6835
  C  C30  1  0.140910  0.331140  0.605800  1.0  -0.2007
  C  C31  1  0.232300  0.331880  0.677100  1.0  0.2052
  C  C32  1  0.287800  0.262070  0.674600  1.0  0.2245
  C  C33  1  0.254690  0.188410  0.602000  1.0  -0.203
  C  C34  1  0.315310  0.111640  0.601500  1.0  0.6686
  C  C35  1  0.162670  0.187610  0.533000  1.0  0.167
  C  C36  1  0.107500  0.257430  0.532400  1.0  0.2175
  O  O37  1  0.450020  0.934870  0.950600  1.0  -0.7771
  O  O38  1  0.441350  0.936560  0.272600  1.0  -0.7823
  O  O39  1  0.153380  0.587760  0.262600  1.0  -0.6264
  O  O40  1  0.170470  0.577060  0.941500  1.0  -0.6212
  O  O41  1  0.549980  0.065130  0.450600  1.0  -0.7804
  O  O42  1  0.558650  0.063440  0.772600  1.0  -0.783
  O  O43  1  0.846620  0.412240  0.762600  1.0  -0.6272
  O  O44  1  0.829530  0.422940  0.441500  1.0  -0.6206
  O  O45  1  0.950020  0.565130  0.950600  1.0  -0.7781
  O  O46  1  0.941350  0.563440  0.272600  1.0  -0.7821
  O  O47  1  0.653380  0.912240  0.262600  1.0  -0.6277
  O  O48  1  0.670470  0.922940  0.941500  1.0  -0.621
  O  O49  1  0.049980  0.434870  0.450600  1.0  -0.7792
  O  O50  1  0.058650  0.436560  0.772600  1.0  -0.7832
  O  O51  1  0.346620  0.087760  0.762600  1.0  -0.6277
  O  O52  1  0.329530  0.077060  0.441500  1.0  -0.6211
  F  F53  1  0.231140  0.901320  0.249600  1.0  -0.1396
  F  F54  1  0.123940  0.767370  0.244300  1.0  -0.1325
  F  F55  1  0.375510  0.617110  0.969200  1.0  -0.1418
  F  F56  1  0.480970  0.752640  0.962600  1.0  -0.1272
  F  F57  1  0.768860  0.098680  0.749600  1.0  -0.1369
  F  F58  1  0.876060  0.232630  0.744300  1.0  -0.1319
  F  F59  1  0.624490  0.382890  0.469200  1.0  -0.1442
  F  F60  1  0.519030  0.247360  0.462600  1.0  -0.1277
  F  F61  1  0.731140  0.598680  0.249600  1.0  -0.137
  F  F62  1  0.623940  0.732630  0.244300  1.0  -0.1326
  F  F63  1  0.875510  0.882890  0.969200  1.0  -0.1433
  F  F64  1  0.980970  0.747360  0.962600  1.0  -0.1273
  F  F65  1  0.268860  0.401320  0.749600  1.0  -0.139
  F  F66  1  0.376060  0.267370  0.744300  1.0  -0.1314
  F  F67  1  0.124490  0.117110  0.469200  1.0  -0.1421
  F  F68  1  0.019030  0.252640  0.462600  1.0  -0.1273
