# generated using pymatgen
data_SrC8NO7F4
_symmetry_space_group_name_H-M   'P 1'
_cell_length_a   14.26860000
_cell_length_b   16.73260000
_cell_length_c   7.01810000
_cell_angle_alpha   90.00000000
_cell_angle_beta   90.00000000
_cell_angle_gamma   90.00000000
_symmetry_Int_Tables_number   1
_chemical_formula_structural   SrC8NO7F4
_chemical_formula_sum   'Sr4 C32 N4 O28 F16'
_cell_volume   1675.57682357
_cell_formula_units_Z   4
loop_
 _symmetry_equiv_pos_site_id
 _symmetry_equiv_pos_as_xyz
  1  'x, y, z'
loop_
 _atom_site_type_symbol
 _atom_site_label
 _atom_site_symmetry_multiplicity
 _atom_site_fract_x
 _atom_site_fract_y
 _atom_site_fract_z
 _atom_site_occupancy
 _atom_site_charge
  Sr  Sr1  1  0.427250  0.532100  0.966860  1.0  1.6497
  Sr  Sr2  1  0.572750  0.467900  0.466860  1.0  1.649
  Sr  Sr3  1  0.927250  0.967900  0.966860  1.0  1.6491
  Sr  Sr4  1  0.072750  0.032100  0.466860  1.0  1.6497
  C  C5  1  0.420000  0.594300  0.469000  1.0  0.7584
  C  C6  1  0.359800  0.669100  0.472200  1.0  -0.1668
  C  C7  1  0.392500  0.740400  0.546000  1.0  0.2098
  C  C8  1  0.338300  0.808900  0.545800  1.0  0.1892
  C  C9  1  0.247400  0.808900  0.475700  1.0  -0.2003
  C  C10  1  0.187700  0.884200  0.475600  1.0  0.7375
  C  C11  1  0.214400  0.737000  0.401300  1.0  0.2295
  C  C12  1  0.269600  0.668700  0.400600  1.0  0.2192
  C  C13  1  0.580000  0.405700  0.969000  1.0  0.7583
  C  C14  1  0.640200  0.330900  0.972200  1.0  -0.1663
  C  C15  1  0.607500  0.259600  0.046000  1.0  0.2104
  C  C16  1  0.661700  0.191100  0.045800  1.0  0.1913
  C  C17  1  0.752600  0.191100  0.975700  1.0  -0.2011
  C  C18  1  0.812300  0.115800  0.975600  1.0  0.7373
  C  C19  1  0.785600  0.263000  0.901300  1.0  0.2286
  C  C20  1  0.730400  0.331300  0.900600  1.0  0.2207
  C  C21  1  0.920000  0.905700  0.469000  1.0  0.7587
  C  C22  1  0.859800  0.830900  0.472200  1.0  -0.1665
  C  C23  1  0.892500  0.759600  0.546000  1.0  0.2097
  C  C24  1  0.838300  0.691100  0.545800  1.0  0.1906
  C  C25  1  0.747400  0.691100  0.475700  1.0  -0.2025
  C  C26  1  0.687700  0.615800  0.475600  1.0  0.7381
  C  C27  1  0.714400  0.763000  0.401300  1.0  0.2296
  C  C28  1  0.769600  0.831300  0.400600  1.0  0.2206
  C  C29  1  0.080000  0.094300  0.969000  1.0  0.7581
  C  C30  1  0.140200  0.169100  0.972200  1.0  -0.1668
  C  C31  1  0.107500  0.240400  0.046000  1.0  0.2107
  C  C32  1  0.161700  0.308900  0.045800  1.0  0.19
  C  C33  1  0.252600  0.308900  0.975700  1.0  -0.1994
  C  C34  1  0.312300  0.384200  0.975600  1.0  0.7366
  C  C35  1  0.285600  0.237000  0.901300  1.0  0.2284
  C  C36  1  0.230400  0.168700  0.900600  1.0  0.2195
  N  N37  1  0.268600  0.659100  0.918400  1.0  0.8773
  N  N38  1  0.731400  0.340900  0.418400  1.0  0.8774
  N  N39  1  0.768600  0.840900  0.918400  1.0  0.8774
  N  N40  1  0.231400  0.159100  0.418400  1.0  0.8773
  O  O41  1  0.440000  0.565300  0.311900  1.0  -0.7266
  O  O42  1  0.448300  0.568200  0.625700  1.0  -0.7047
  O  O43  1  0.171900  0.916500  0.631500  1.0  -0.5797
  O  O44  1  0.160500  0.909130  0.316400  1.0  -0.6012
  O  O45  1  0.211800  0.714000  0.908600  1.0  -0.3579
  O  O46  1  0.249900  0.588320  0.876500  1.0  -0.5943
  O  O47  1  0.352100  0.673430  0.974800  1.0  -0.614
  O  O48  1  0.560000  0.434700  0.811900  1.0  -0.7271
  O  O49  1  0.551700  0.431800  0.125700  1.0  -0.7078
  O  O50  1  0.828100  0.083500  0.131500  1.0  -0.5785
  O  O51  1  0.839500  0.090870  0.816400  1.0  -0.6018
  O  O52  1  0.788200  0.286000  0.408600  1.0  -0.359
  O  O53  1  0.750100  0.411680  0.376500  1.0  -0.5942
  O  O54  1  0.647900  0.326570  0.474800  1.0  -0.615
  O  O55  1  0.940000  0.934700  0.311900  1.0  -0.7261
  O  O56  1  0.948300  0.931800  0.625700  1.0  -0.7066
  O  O57  1  0.671900  0.583500  0.631500  1.0  -0.5802
  O  O58  1  0.660500  0.590870  0.316400  1.0  -0.6013
  O  O59  1  0.711800  0.786000  0.908600  1.0  -0.3574
  O  O60  1  0.749900  0.911680  0.876500  1.0  -0.5976
  O  O61  1  0.852100  0.826570  0.974800  1.0  -0.6156
  O  O62  1  0.060000  0.065300  0.811900  1.0  -0.7279
  O  O63  1  0.051700  0.068200  0.125700  1.0  -0.7054
  O  O64  1  0.328100  0.416500  0.131500  1.0  -0.5788
  O  O65  1  0.339500  0.409130  0.816400  1.0  -0.602
  O  O66  1  0.288200  0.214000  0.408600  1.0  -0.36
  O  O67  1  0.250100  0.088320  0.376500  1.0  -0.5978
  O  O68  1  0.147900  0.173430  0.474800  1.0  -0.6139
  F  F69  1  0.480530  0.744900  0.616900  1.0  -0.0864
  F  F70  1  0.375750  0.877510  0.612100  1.0  -0.0891
  F  F71  1  0.127030  0.732590  0.332300  1.0  -0.074
  F  F72  1  0.233310  0.601040  0.328400  1.0  -0.0715
  F  F73  1  0.519470  0.255100  0.116900  1.0  -0.0865
  F  F74  1  0.624250  0.122490  0.112100  1.0  -0.0859
  F  F75  1  0.872970  0.267410  0.832300  1.0  -0.0734
  F  F76  1  0.766690  0.398960  0.828400  1.0  -0.0752
  F  F77  1  0.980530  0.755100  0.616900  1.0  -0.0863
  F  F78  1  0.875750  0.622490  0.612100  1.0  -0.0846
  F  F79  1  0.627030  0.767410  0.332300  1.0  -0.0735
  F  F80  1  0.733310  0.898960  0.328400  1.0  -0.0745
  F  F81  1  0.019470  0.244900  0.116900  1.0  -0.0867
  F  F82  1  0.124250  0.377510  0.112100  1.0  -0.0897
  F  F83  1  0.372970  0.232590  0.832300  1.0  -0.0739
  F  F84  1  0.266690  0.101040  0.828400  1.0  -0.0745
