# generated using pymatgen
data_UH7(CO)6
_symmetry_space_group_name_H-M   'P 1'
_cell_length_a   19.09130000
_cell_length_b   19.09130000
_cell_length_c   11.79290000
_cell_angle_alpha   90.00000000
_cell_angle_beta   90.00000000
_cell_angle_gamma   120.00000000
_symmetry_Int_Tables_number   1
_chemical_formula_structural   UH7(CO)6
_chemical_formula_sum   'U12 H84 C72 O72'
_cell_volume   3722.39324947
_cell_formula_units_Z   12
loop_
 _symmetry_equiv_pos_site_id
 _symmetry_equiv_pos_as_xyz
  1  'x, y, z'
loop_
 _atom_site_type_symbol
 _atom_site_label
 _atom_site_symmetry_multiplicity
 _atom_site_fract_x
 _atom_site_fract_y
 _atom_site_fract_z
 _atom_site_occupancy
 _atom_site_charge
  U  U1  1  0.511800  0.667580  0.851050  1.0  1.7855
  U  U2  1  0.678820  0.506070  0.182160  1.0  1.8358
  U  U3  1  0.835080  0.828710  0.466760  1.0  1.7581
  U  U4  1  0.667540  0.989660  0.174760  1.0  1.6962
  U  U5  1  0.332420  0.844220  0.517720  1.0  1.7865
  U  U6  1  0.493930  0.172750  0.848830  1.0  1.8372
  U  U7  1  0.171290  0.006370  0.133430  1.0  1.7573
  U  U8  1  0.010340  0.677880  0.841430  1.0  1.6958
  U  U9  1  0.155780  0.488200  0.184380  1.0  1.7869
  U  U10  1  0.827250  0.321180  0.515490  1.0  1.8375
  U  U11  1  0.993630  0.164920  0.800090  1.0  1.7568
  U  U12  1  0.322120  0.332460  0.508090  1.0  1.6961
  H  H13  1  0.370400  0.751700  0.142500  1.0  0.136
  H  H14  1  0.342800  0.679500  0.227600  1.0  0.1409
  H  H15  1  0.474400  0.730700  0.288400  1.0  0.1354
  H  H16  1  0.466600  0.711700  0.159000  1.0  0.1247
  H  H17  1  0.378500  0.463600  0.135500  1.0  0.1458
  H  H18  1  0.376400  0.537900  0.185900  1.0  0.1395
  H  H19  1  0.491800  0.577700  0.290600  1.0  0.1601
  H  H20  1  0.439200  0.484400  0.309200  1.0  0.1542
  H  H21  1  0.746100  0.262600  0.139600  1.0  0.1307
  H  H22  1  0.715500  0.321800  0.172800  1.0  0.1505
  H  H23  1  0.593300  0.200800  0.248400  1.0  0.151
  H  H24  1  0.601000  0.205500  0.114200  1.0  0.1366
  H  H25  1  0.915400  0.607100  0.386100  1.0  0.109
  H  H26  1  0.867600  0.521000  0.443800  1.0  0.1077
  H  H27  1  0.886700  0.618300  0.579200  1.0  0.1346
  H  H28  1  0.794000  0.565700  0.552600  1.0  0.1193
  H  H29  1  0.873900  0.910600  0.099300  1.0  0.1699
  H  H30  1  0.965500  0.959900  0.129600  1.0  0.1613
  H  H31  1  0.946000  0.070900  0.194100  1.0  0.1226
  H  H32  1  0.928800  0.053500  0.063600  1.0  0.1146
  H  H33  1  0.711900  0.918600  0.709700  1.0  0.1217
  H  H34  1  0.802000  0.970200  0.745300  1.0  0.1323
  H  H35  1  0.774200  0.863500  0.881400  1.0  0.1155
  H  H36  1  0.737500  0.919500  0.908300  1.0  0.1152
  H  H37  1  0.480800  0.886700  0.207100  1.0  0.2068
  H  H38  1  0.557100  0.620300  0.056900  1.0  0.2114
  H  H39  1  0.836600  0.694100  0.337100  1.0  0.1129
  H  H40  1  0.808500  0.468400  0.253200  1.0  0.1143
  H  H41  1  0.248300  0.618700  0.809170  1.0  0.1359
  H  H42  1  0.320500  0.663300  0.894270  1.0  0.1271
  H  H43  1  0.269300  0.743700  0.955070  1.0  0.1374
  H  H44  1  0.288300  0.754900  0.825670  1.0  0.1245
  H  H45  1  0.536400  0.914900  0.802170  1.0  0.1389
  H  H46  1  0.462100  0.838500  0.852570  1.0  0.1387
  H  H47  1  0.422300  0.914100  0.957270  1.0  0.1636
  H  H48  1  0.515600  0.954800  0.975870  1.0  0.1554
  H  H49  1  0.737400  0.483500  0.806270  1.0  0.1303
  H  H50  1  0.678200  0.393700  0.839470  1.0  0.1498
  H  H51  1  0.799200  0.392500  0.915070  1.0  0.1509
  H  H52  1  0.794500  0.395500  0.780870  1.0  0.1378
  H  H53  1  0.392900  0.308300  0.052770  1.0  0.1021
  H  H54  1  0.479000  0.346600  0.110470  1.0  0.1063
  H  H55  1  0.381700  0.268400  0.245870  1.0  0.1347
  H  H56  1  0.434300  0.228300  0.219270  1.0  0.1157
  H  H57  1  0.089400  0.963300  0.765970  1.0  0.1692
  H  H58  1  0.040100  0.005600  0.796270  1.0  0.1652
  H  H59  1  0.929100  0.875100  0.860770  1.0  0.1229
  H  H60  1  0.946500  0.875300  0.730270  1.0  0.1149
  H  H61  1  0.081400  0.793300  0.376370  1.0  0.1244
  H  H62  1  0.029800  0.831800  0.411970  1.0  0.1285
  H  H63  1  0.136500  0.910700  0.548070  1.0  0.1159
  H  H64  1  0.080500  0.818000  0.574970  1.0  0.1165
  H  H65  1  0.113300  0.594100  0.873770  1.0  0.2046
  H  H66  1  0.379700  0.936800  0.723570  1.0  0.2108
  H  H67  1  0.305900  0.142500  0.003770  1.0  0.1118
  H  H68  1  0.531600  0.340100  0.919870  1.0  0.1136
  H  H69  1  0.381300  0.629600  0.475830  1.0  0.1362
  H  H70  1  0.336700  0.657200  0.560930  1.0  0.1369
  H  H71  1  0.256300  0.525600  0.621730  1.0  0.1358
  H  H72  1  0.245100  0.533400  0.492330  1.0  0.125
  H  H73  1  0.085100  0.621500  0.468830  1.0  0.147
  H  H74  1  0.161500  0.623600  0.519230  1.0  0.1414
  H  H75  1  0.085900  0.508200  0.623930  1.0  0.1606
  H  H76  1  0.045200  0.560800  0.642530  1.0  0.1547
  H  H77  1  0.516500  0.253900  0.472930  1.0  0.1301
  H  H78  1  0.606300  0.284500  0.506130  1.0  0.1433
  H  H79  1  0.607500  0.406700  0.581730  1.0  0.1519
  H  H80  1  0.604500  0.399000  0.447530  1.0  0.1371
  H  H81  1  0.691700  0.084600  0.719430  1.0  0.1063
  H  H82  1  0.653400  0.132400  0.777130  1.0  0.1037
  H  H83  1  0.731600  0.113300  0.912530  1.0  0.1345
  H  H84  1  0.771700  0.206000  0.885930  1.0  0.1185
  H  H85  1  0.036700  0.126100  0.432630  1.0  0.1683
  H  H86  1  0.994400  0.034500  0.462930  1.0  0.1672
  H  H87  1  0.124900  0.054000  0.527430  1.0  0.1218
  H  H88  1  0.124700  0.071200  0.396930  1.0  0.1155
  H  H89  1  0.206700  0.288100  0.043030  1.0  0.1279
  H  H90  1  0.168200  0.198000  0.078630  1.0  0.1334
  H  H91  1  0.089300  0.225800  0.214730  1.0  0.1179
  H  H92  1  0.182000  0.262500  0.241630  1.0  0.1161
  H  H93  1  0.405900  0.519200  0.540430  1.0  0.2047
  H  H94  1  0.063200  0.442900  0.390230  1.0  0.2096
  H  H95  1  0.857500  0.163400  0.670430  1.0  0.1116
  H  H96  1  0.659900  0.191500  0.586530  1.0  0.1133
  C  C97  1  0.369600  0.784700  0.305600  1.0  0.4692
  C  C98  1  0.381400  0.736400  0.216000  1.0  -0.1985
  C  C99  1  0.465700  0.748300  0.215200  1.0  -0.2283
  C  C100  1  0.535600  0.828800  0.193000  1.0  0.6742
  C  C101  1  0.442300  0.562700  0.050400  1.0  0.2591
  C  C102  1  0.412100  0.520400  0.154400  1.0  -0.3614
  C  C103  1  0.470900  0.525700  0.253600  1.0  -0.3212
  C  C104  1  0.541600  0.515900  0.220200  1.0  0.6655
  C  C105  1  0.755000  0.286300  0.305900  1.0  0.6656
  C  C106  1  0.714100  0.272200  0.194800  1.0  -0.3427
  C  C107  1  0.626100  0.202800  0.184400  1.0  -0.296
  C  C108  1  0.643400  0.133000  0.185200  1.0  0.4645
  C  C109  1  0.796000  0.546500  0.344900  1.0  0.5995
  C  C110  1  0.864700  0.568400  0.421500  1.0  -0.1201
  C  C111  1  0.846000  0.605000  0.521100  1.0  -0.2415
  C  C112  1  0.843700  0.684200  0.487300  1.0  0.6294
  C  C113  1  0.894600  0.905400  0.268600  1.0  0.6699
  C  C114  1  0.912300  0.948900  0.153200  1.0  -0.3585
  C  C115  1  0.910500  0.031400  0.138900  1.0  -0.2324
  C  C116  1  0.828500  0.013600  0.156000  1.0  0.6309
  C  C117  1  0.781000  0.879300  0.645200  1.0  0.6063
  C  C118  1  0.757900  0.915100  0.737000  1.0  -0.2481
  C  C119  1  0.736400  0.880000  0.855600  1.0  -0.2249
  C  C120  1  0.652900  0.808500  0.846900  1.0  0.5578
  C  C121  1  0.215300  0.584900  0.972270  1.0  0.4688
  C  C122  1  0.263600  0.645000  0.882670  1.0  -0.1983
  C  C123  1  0.251700  0.717400  0.881870  1.0  -0.2293
  C  C124  1  0.171200  0.706800  0.859670  1.0  0.6778
  C  C125  1  0.437300  0.879600  0.717070  1.0  0.258
  C  C126  1  0.479600  0.891700  0.821070  1.0  -0.3587
  C  C127  1  0.474300  0.945200  0.920270  1.0  -0.3225
  C  C128  1  0.484100  0.025700  0.886870  1.0  0.6693
  C  C129  1  0.713700  0.468700  0.972570  1.0  0.6623
  C  C130  1  0.727800  0.441900  0.861470  1.0  -0.341
  C  C131  1  0.797200  0.423300  0.851070  1.0  -0.3017
  C  C132  1  0.867000  0.510400  0.851870  1.0  0.4643
  C  C133  1  0.453500  0.249500  0.011570  1.0  0.6017
  C  C134  1  0.431600  0.296300  0.088170  1.0  -0.1217
  C  C135  1  0.395000  0.241000  0.187770  1.0  -0.2392
  C  C136  1  0.315800  0.159500  0.153970  1.0  0.6295
  C  C137  1  0.094600  0.989200  0.935270  1.0  0.6706
  C  C138  1  0.051100  0.963400  0.819870  1.0  -0.3586
  C  C139  1  0.968600  0.879100  0.805570  1.0  -0.2332
  C  C140  1  0.986400  0.814900  0.822670  1.0  0.6271
  C  C141  1  0.120700  0.901700  0.311870  1.0  0.6059
  C  C142  1  0.084900  0.842800  0.403670  1.0  -0.2514
  C  C143  1  0.120000  0.856400  0.522270  1.0  -0.2271
  C  C144  1  0.191500  0.844400  0.513570  1.0  0.5584
  C  C145  1  0.415100  0.630400  0.638930  1.0  0.4654
  C  C146  1  0.355000  0.618600  0.549330  1.0  -0.2027
  C  C147  1  0.282600  0.534300  0.548530  1.0  -0.2289
  C  C148  1  0.293200  0.464400  0.526330  1.0  0.6801
  C  C149  1  0.120400  0.557700  0.383730  1.0  0.2547
  C  C150  1  0.108300  0.587900  0.487730  1.0  -0.3609
  C  C151  1  0.054800  0.529100  0.586930  1.0  -0.3217
  C  C152  1  0.974300  0.458400  0.553530  1.0  0.6664
  C  C153  1  0.531300  0.245000  0.639230  1.0  0.6646
  C  C154  1  0.558100  0.285900  0.528130  1.0  -0.3422
  C  C155  1  0.576700  0.373900  0.517730  1.0  -0.2991
  C  C156  1  0.489600  0.356600  0.518530  1.0  0.4673
  C  C157  1  0.750500  0.204000  0.678230  1.0  0.5994
  C  C158  1  0.703700  0.135300  0.754830  1.0  -0.1201
  C  C159  1  0.759000  0.154000  0.854430  1.0  -0.24
  C  C160  1  0.840500  0.156300  0.820630  1.0  0.6327
  C  C161  1  0.010800  0.105400  0.601930  1.0  0.6698
  C  C162  1  0.036600  0.087700  0.486530  1.0  -0.357
  C  C163  1  0.120900  0.089500  0.472230  1.0  -0.2299
  C  C164  1  0.185100  0.171500  0.489330  1.0  0.6266
  C  C165  1  0.098300  0.219000  0.978530  1.0  0.6044
  C  C166  1  0.157200  0.242100  0.070330  1.0  -0.2488
  C  C167  1  0.143600  0.263600  0.188930  1.0  -0.2254
  C  C168  1  0.155600  0.347100  0.180230  1.0  0.5608
  O  O169  1  0.410100  0.814300  0.390400  1.0  -0.594
  O  O170  1  0.306600  0.798600  0.319800  1.0  -0.6662
  O  O171  1  0.608300  0.845300  0.202600  1.0  -0.6171
  O  O172  1  0.517200  0.880700  0.155900  1.0  -0.5693
  O  O173  1  0.411600  0.555300  0.961000  1.0  -0.5711
  O  O174  1  0.512100  0.629100  0.041800  1.0  -0.6528
  O  O175  1  0.550900  0.494300  0.115900  1.0  -0.6088
  O  O176  1  0.590100  0.533400  0.299000  1.0  -0.6197
  O  O177  1  0.818400  0.351900  0.312100  1.0  -0.5995
  O  O178  1  0.718900  0.239000  0.396100  1.0  -0.5934
  O  O179  1  0.707800  0.135000  0.172300  1.0  -0.6108
  O  O180  1  0.584800  0.061700  0.166000  1.0  -0.6354
  O  O181  1  0.735400  0.546600  0.369900  1.0  -0.5944
  O  O182  1  0.808100  0.519000  0.250100  1.0  -0.5903
  O  O183  1  0.815100  0.702700  0.569000  1.0  -0.6117
  O  O184  1  0.867700  0.723600  0.403100  1.0  -0.631
  O  O185  1  0.873900  0.835800  0.270900  1.0  -0.5707
  O  O186  1  0.881600  0.943000  0.353100  1.0  -0.6285
  O  O187  1  0.765600  0.946200  0.181900  1.0  -0.6332
  O  O188  1  0.816100  0.073000  0.154900  1.0  -0.6494
  O  O189  1  0.789900  0.916100  0.558000  1.0  -0.6
  O  O190  1  0.793900  0.820200  0.672300  1.0  -0.6082
  O  O191  1  0.616400  0.789700  0.762700  1.0  -0.5449
  O  O192  1  0.644900  0.763400  0.935700  1.0  -0.6557
  O  O193  1  0.185700  0.595800  0.057070  1.0  -0.5942
  O  O194  1  0.201400  0.508000  0.986470  1.0  -0.6706
  O  O195  1  0.154700  0.763000  0.869270  1.0  -0.615
  O  O196  1  0.119300  0.636500  0.822570  1.0  -0.5695
  O  O197  1  0.444700  0.856300  0.627670  1.0  -0.5721
  O  O198  1  0.370900  0.883000  0.708470  1.0  -0.6537
  O  O199  1  0.505700  0.056600  0.782570  1.0  -0.6061
  O  O200  1  0.466600  0.056700  0.965670  1.0  -0.6212
  O  O201  1  0.648100  0.466500  0.978770  1.0  -0.5988
  O  O202  1  0.761000  0.479900  0.062770  1.0  -0.5932
  O  O203  1  0.865000  0.572800  0.838970  1.0  -0.6091
  O  O204  1  0.938300  0.523100  0.832670  1.0  -0.6349
  O  O205  1  0.453400  0.188800  0.036570  1.0  -0.5902
  O  O206  1  0.481000  0.289100  0.916770  1.0  -0.5896
  O  O207  1  0.297300  0.112400  0.235670  1.0  -0.6101
  O  O208  1  0.276400  0.144100  0.069770  1.0  -0.6333
  O  O209  1  0.164200  0.038100  0.937570  1.0  -0.5697
  O  O210  1  0.057000  0.938600  0.019770  1.0  -0.6286
  O  O211  1  0.053800  0.819400  0.848570  1.0  -0.6338
  O  O212  1  0.927000  0.743100  0.821570  1.0  -0.6474
  O  O213  1  0.083900  0.873800  0.224670  1.0  -0.6013
  O  O214  1  0.179800  0.973700  0.338970  1.0  -0.608
  O  O215  1  0.210300  0.826700  0.429370  1.0  -0.5477
  O  O216  1  0.236600  0.881500  0.602370  1.0  -0.6553
  O  O217  1  0.404200  0.589900  0.723730  1.0  -0.5959
  O  O218  1  0.492000  0.693400  0.653130  1.0  -0.673
  O  O219  1  0.237000  0.391700  0.535930  1.0  -0.6101
  O  O220  1  0.363500  0.482800  0.489230  1.0  -0.5702
  O  O221  1  0.143700  0.588400  0.294330  1.0  -0.5724
  O  O222  1  0.117000  0.487900  0.375130  1.0  -0.6558
  O  O223  1  0.943400  0.449100  0.449230  1.0  -0.609
  O  O224  1  0.943300  0.409900  0.632330  1.0  -0.6201
  O  O225  1  0.533500  0.181600  0.645430  1.0  -0.5961
  O  O226  1  0.520100  0.281100  0.729430  1.0  -0.5946
  O  O227  1  0.427200  0.292200  0.505630  1.0  -0.6097
  O  O228  1  0.476900  0.415200  0.499330  1.0  -0.6343
  O  O229  1  0.811200  0.264600  0.703230  1.0  -0.5929
  O  O230  1  0.710900  0.191900  0.583430  1.0  -0.5918
  O  O231  1  0.887600  0.184900  0.902330  1.0  -0.6104
  O  O232  1  0.855900  0.132300  0.736430  1.0  -0.6318
  O  O233  1  0.961900  0.126100  0.604230  1.0  -0.572
  O  O234  1  0.061400  0.118400  0.686430  1.0  -0.627
  O  O235  1  0.180600  0.234400  0.515230  1.0  -0.6314
  O  O236  1  0.256900  0.183900  0.488230  1.0  -0.6513
  O  O237  1  0.126200  0.210100  0.891330  1.0  -0.5987
  O  O238  1  0.026300  0.206100  0.005630  1.0  -0.6077
  O  O239  1  0.173300  0.383600  0.096030  1.0  -0.5462
  O  O240  1  0.118500  0.355100  0.269030  1.0  -0.6551
