# generated using pymatgen
data_Na7Mn12H125(C7O5)10
_symmetry_space_group_name_H-M   'P 1'
_cell_length_a   12.84320000
_cell_length_b   19.56070000
_cell_length_c   25.69100000
_cell_angle_alpha   79.22400000
_cell_angle_beta   78.86400000
_cell_angle_gamma   71.24400000
_symmetry_Int_Tables_number   1
_chemical_formula_structural   Na7Mn12H125(C7O5)10
_chemical_formula_sum   'Na14 Mn24 H250 C140 O100'
_cell_volume   5941.93226498
_cell_formula_units_Z   2
loop_
 _symmetry_equiv_pos_site_id
 _symmetry_equiv_pos_as_xyz
  1  'x, y, z'
loop_
 _atom_site_type_symbol
 _atom_site_label
 _atom_site_symmetry_multiplicity
 _atom_site_fract_x
 _atom_site_fract_y
 _atom_site_fract_z
 _atom_site_occupancy
 _atom_site_charge
  Na  Na1  1  0.914000  0.288030  0.303700  1.0  0.9493
  Na  Na2  1  0.447800  0.453840  0.466990  1.0  0.9335
  Na  Na3  1  0.578400  0.624900  0.213150  1.0  0.943
  Na  Na4  1  0.058800  0.104010  0.277710  1.0  0.9608
  Na  Na5  1  0.377600  0.026560  0.037590  1.0  0.9324
  Na  Na6  1  0.552800  0.795810  0.254530  1.0  0.9482
  Na  Na7  1  0.583900  0.155580  0.219680  1.0  0.9647
  Na  Na8  1  0.086000  0.711970  0.696300  1.0  0.9499
  Na  Na9  1  0.552200  0.546160  0.533010  1.0  0.9324
  Na  Na10  1  0.421600  0.375100  0.786850  1.0  0.9428
  Na  Na11  1  0.941200  0.895990  0.722290  1.0  0.9576
  Na  Na12  1  0.622400  0.973440  0.962410  1.0  0.9314
  Na  Na13  1  0.447200  0.204190  0.745470  1.0  0.9469
  Na  Na14  1  0.416100  0.844420  0.780320  1.0  0.9646
  Mn  Mn15  1  0.689640  0.374900  0.382880  1.0  0.8663
  Mn  Mn16  1  0.742100  0.451150  0.262760  1.0  0.6934
  Mn  Mn17  1  0.658760  0.310320  0.279850  1.0  0.7335
  Mn  Mn18  1  0.505470  0.464950  0.243210  1.0  0.7055
  Mn  Mn19  1  0.530060  0.529760  0.338250  1.0  0.6614
  Mn  Mn20  1  0.443890  0.390250  0.357930  1.0  0.6849
  Mn  Mn21  1  0.234120  0.057060  0.154450  1.0  0.6539
  Mn  Mn22  1  0.298660  0.963460  0.261360  1.0  0.6958
  Mn  Mn23  1  0.311710  0.118850  0.241380  1.0  0.6485
  Mn  Mn24  1  0.531720  0.986240  0.244110  1.0  0.6849
  Mn  Mn25  1  0.457000  0.922830  0.156630  1.0  0.7005
  Mn  Mn26  1  0.475600  0.088550  0.132680  1.0  0.8215
  Mn  Mn27  1  0.310360  0.625100  0.617120  1.0  0.8674
  Mn  Mn28  1  0.257900  0.548850  0.737240  1.0  0.6952
  Mn  Mn29  1  0.341240  0.689680  0.720150  1.0  0.7322
  Mn  Mn30  1  0.494530  0.535050  0.756790  1.0  0.7054
  Mn  Mn31  1  0.469940  0.470240  0.661750  1.0  0.6608
  Mn  Mn32  1  0.556110  0.609750  0.642070  1.0  0.6836
  Mn  Mn33  1  0.765880  0.942940  0.845550  1.0  0.6536
  Mn  Mn34  1  0.701340  0.036540  0.738640  1.0  0.6959
  Mn  Mn35  1  0.688290  0.881150  0.758620  1.0  0.6489
  Mn  Mn36  1  0.468280  0.013760  0.755890  1.0  0.6844
  Mn  Mn37  1  0.543000  0.077170  0.843370  1.0  0.7021
  Mn  Mn38  1  0.524400  0.911450  0.867320  1.0  0.8225
  H  H39  1  0.720400  0.488700  0.442000  1.0  0.1225
  H  H40  1  0.642900  0.566700  0.420000  1.0  0.1248
  H  H41  1  0.691100  0.623200  0.325800  1.0  0.1278
  H  H42  1  0.797400  0.580800  0.288100  1.0  0.1279
  H  H43  1  0.922200  0.460600  0.323300  1.0  0.1169
  H  H44  1  0.889400  0.422900  0.382300  1.0  0.1049
  H  H45  1  0.900500  0.582300  0.351400  1.0  0.1199
  H  H46  1  0.800600  0.611700  0.396900  1.0  0.1221
  H  H47  1  0.877000  0.507800  0.457400  1.0  0.1346
  H  H48  1  0.961500  0.555000  0.435500  1.0  0.1318
  H  H49  1  0.979200  0.481500  0.411700  1.0  0.1266
  H  H50  1  0.565600  0.388600  0.143500  1.0  0.1268
  H  H51  1  0.642300  0.308500  0.161700  1.0  0.1233
  H  H52  1  0.836500  0.291800  0.181700  1.0  0.1122
  H  H53  1  0.880600  0.361300  0.173800  1.0  0.1225
  H  H54  1  0.763800  0.484300  0.141200  1.0  0.1165
  H  H55  1  0.641200  0.496100  0.129200  1.0  0.1147
  H  H56  1  0.847000  0.383200  0.083800  1.0  0.116
  H  H57  1  0.793900  0.317900  0.092000  1.0  0.1117
  H  H58  1  0.699600  0.463100  0.044400  1.0  0.1434
  H  H59  1  0.628700  0.406500  0.061200  1.0  0.1362
  H  H60  1  0.735700  0.390900  0.016300  1.0  0.1421
  H  H61  1  0.768200  0.210000  0.407600  1.0  0.1134
  H  H62  1  0.754100  0.177700  0.357500  1.0  0.1044
  H  H63  1  0.480600  0.277200  0.458800  1.0  0.1174
  H  H64  1  0.602400  0.271500  0.468500  1.0  0.1368
  H  H65  1  0.563400  0.189300  0.340600  1.0  0.1124
  H  H66  1  0.457300  0.229700  0.379500  1.0  0.1158
  H  H67  1  0.635700  0.148700  0.474100  1.0  0.1159
  H  H68  1  0.530300  0.145200  0.451700  1.0  0.101
  H  H69  1  0.662000  0.079700  0.381600  1.0  0.1267
  H  H70  1  0.660700  0.035200  0.440600  1.0  0.1362
  H  H71  1  0.757300  0.072100  0.416100  1.0  0.1282
  H  H72  1  0.311600  0.607300  0.245200  1.0  0.1218
  H  H73  1  0.324500  0.643600  0.293500  1.0  0.1043
  H  H74  1  0.285400  0.585500  0.387200  1.0  0.0974
  H  H75  1  0.243000  0.515000  0.398700  1.0  0.1146
  H  H76  1  0.217400  0.461600  0.321800  1.0  0.1327
  H  H77  1  0.247000  0.498500  0.262200  1.0  0.1311
  H  H78  1  0.124100  0.613300  0.282600  1.0  0.1225
  H  H79  1  0.092100  0.574100  0.341000  1.0  0.11
  H  H80  1  0.124000  0.665700  0.378900  1.0  0.1312
  H  H81  1  0.029600  0.699700  0.340900  1.0  0.1514
  H  H82  1  0.152600  0.705600  0.320000  1.0  0.1318
  H  H83  1  0.140300  0.440700  0.202700  1.0  0.1667
  H  H84  1  0.048800  0.517800  0.209100  1.0  0.1668
  H  H85  1  0.065200  0.480600  0.156500  1.0  0.175
  H  H86  1  0.921600  0.138300  0.173300  1.0  0.1512
  H  H87  1  0.797700  0.135000  0.176100  1.0  0.1449
  H  H88  1  0.880000  0.076100  0.213400  1.0  0.1515
  H  H89  1  0.145200  0.352500  0.509500  1.0  0.1542
  H  H90  1  0.202000  0.286800  0.474700  1.0  0.1776
  H  H91  1  0.118500  0.360600  0.450000  1.0  0.1605
  H  H92  1  0.474600  0.770000  0.381300  1.0  0.1415
  H  H93  1  0.375500  0.737900  0.411400  1.0  0.1595
  H  H94  1  0.360000  0.793800  0.357300  1.0  0.158
  H  H95  1  0.264700  0.591700  0.124000  1.0  0.1712
  H  H96  1  0.363600  0.536800  0.090400  1.0  0.1756
  H  H97  1  0.356700  0.621100  0.083100  1.0  0.1661
  H  H98  1  0.431500  0.596800  0.445300  1.0  0.4751
  H  H99  1  0.368400  0.611800  0.492000  1.0  0.3727
  H  H100  1  0.310000  0.873200  0.102300  1.0  0.1051
  H  H101  1  0.199300  0.940200  0.098200  1.0  0.1212
  H  H102  1  0.064800  0.973000  0.180200  1.0  0.1283
  H  H103  1  0.089000  0.927000  0.237100  1.0  0.1188
  H  H104  1  0.260900  0.823400  0.244500  1.0  0.1265
  H  H105  1  0.344300  0.798100  0.192200  1.0  0.1183
  H  H106  1  0.103500  0.820700  0.202200  1.0  0.1075
  H  H107  1  0.083200  0.866000  0.144800  1.0  0.1074
  H  H108  1  0.216700  0.785900  0.104000  1.0  0.115
  H  H109  1  0.149800  0.740800  0.148700  1.0  0.1036
  H  H110  1  0.265900  0.746600  0.158300  1.0  0.1166
  H  H111  1  0.406100  0.123800  0.341600  1.0  0.1096
  H  H112  1  0.517800  0.057300  0.341800  1.0  0.1056
  H  H113  1  0.217900  0.014400  0.372200  1.0  0.1132
  H  H114  1  0.220100  0.097000  0.363300  1.0  0.1054
  H  H115  1  0.505900  0.928100  0.363400  1.0  0.1299
  H  H116  1  0.387400  0.914000  0.373600  1.0  0.1133
  H  H117  1  0.330900  0.987700  0.443100  1.0  0.1211
  H  H118  1  0.448100  0.003400  0.432100  1.0  0.12
  H  H119  1  0.353300  0.131100  0.427000  1.0  0.1349
  H  H120  1  0.323900  0.087800  0.484500  1.0  0.1431
  H  H121  1  0.237700  0.112500  0.442200  1.0  0.1274
  H  H122  1  0.209100  0.188300  0.067700  1.0  0.1186
  H  H123  1  0.327600  0.202300  0.058700  1.0  0.1098
  H  H124  1  0.380200  0.253300  0.127700  1.0  0.1181
  H  H125  1  0.297100  0.270400  0.181700  1.0  0.1292
  H  H126  1  0.115000  0.244800  0.197300  1.0  0.1127
  H  H127  1  0.082000  0.211000  0.153100  1.0  0.1246
  H  H128  1  0.114700  0.308500  0.085600  1.0  0.1261
  H  H129  1  0.136500  0.340900  0.133600  1.0  0.1195
  H  H130  1  0.272800  0.380000  0.083900  1.0  0.1397
  H  H131  1  0.201500  0.385100  0.038000  1.0  0.1444
  H  H132  1  0.308900  0.316800  0.046700  1.0  0.1309
  H  H133  1  0.758300  0.995900  0.183500  1.0  0.1135
  H  H134  1  0.725900  0.046600  0.129100  1.0  0.1131
  H  H135  1  0.701800  0.838900  0.156600  1.0  0.1061
  H  H136  1  0.740000  0.869200  0.201100  1.0  0.1221
  H  H137  1  0.665600  0.998900  0.059800  1.0  0.1152
  H  H138  1  0.658400  0.917500  0.069900  1.0  0.1062
  H  H139  1  0.854800  0.951600  0.077200  1.0  0.0994
  H  H140  1  0.885900  0.914300  0.135200  1.0  0.0894
  H  H141  1  0.863300  0.807200  0.119700  1.0  0.1152
  H  H142  1  0.957100  0.831500  0.076500  1.0  0.1163
  H  H143  1  0.836700  0.844900  0.060900  1.0  0.1167
  H  H144  1  0.126700  0.853200  0.402900  1.0  0.1692
  H  H145  1  0.087600  0.833300  0.353600  1.0  0.1521
  H  H146  1  0.002600  0.891700  0.389800  1.0  0.1641
  H  H147  1  0.966500  0.165600  0.038200  1.0  0.1611
  H  H148  1  0.939000  0.095000  0.073200  1.0  0.1672
  H  H149  1  0.995900  0.092300  0.012100  1.0  0.1617
  H  H150  1  0.143600  0.337900  0.313800  1.0  0.156
  H  H151  1  0.216200  0.281600  0.356400  1.0  0.1644
  H  H152  1  0.084000  0.298200  0.365600  1.0  0.1583
  H  H153  1  0.607300  0.266900  0.016000  1.0  0.1689
  H  H154  1  0.691400  0.190500  0.001100  1.0  0.1617
  H  H155  1  0.724100  0.235400  0.038200  1.0  0.1686
  H  H156  1  0.606500  0.748200  0.049100  1.0  0.1566
  H  H157  1  0.550000  0.691000  0.086900  1.0  0.1633
  H  H158  1  0.675000  0.686600  0.090600  1.0  0.17
  H  H159  1  0.866100  0.904000  0.297900  1.0  0.1395
  H  H160  1  0.801800  0.927800  0.354600  1.0  0.1473
  H  H161  1  0.869800  0.977500  0.315400  1.0  0.1524
  H  H162  1  0.534700  0.100900  0.011100  1.0  0.4817
  H  H163  1  0.492200  0.121000  0.965000  1.0  0.4378
  H  H164  1  0.279600  0.511300  0.558000  1.0  0.1229
  H  H165  1  0.357100  0.433300  0.580000  1.0  0.1237
  H  H166  1  0.308900  0.376800  0.674200  1.0  0.1262
  H  H167  1  0.202600  0.419200  0.711900  1.0  0.1292
  H  H168  1  0.077800  0.539400  0.676700  1.0  0.1162
  H  H169  1  0.110600  0.577100  0.617700  1.0  0.1051
  H  H170  1  0.099500  0.417700  0.648600  1.0  0.1203
  H  H171  1  0.199400  0.388300  0.603100  1.0  0.1197
  H  H172  1  0.123000  0.492200  0.542600  1.0  0.1341
  H  H173  1  0.038500  0.445000  0.564500  1.0  0.1322
  H  H174  1  0.020800  0.518500  0.588300  1.0  0.1253
  H  H175  1  0.434400  0.611400  0.856500  1.0  0.1265
  H  H176  1  0.357700  0.691500  0.838300  1.0  0.1236
  H  H177  1  0.163500  0.708200  0.818300  1.0  0.1122
  H  H178  1  0.119400  0.638700  0.826200  1.0  0.1204
  H  H179  1  0.236200  0.515700  0.858800  1.0  0.1176
  H  H180  1  0.358800  0.503900  0.870800  1.0  0.1165
  H  H181  1  0.153000  0.616800  0.916200  1.0  0.1169
  H  H182  1  0.206100  0.682100  0.908000  1.0  0.1134
  H  H183  1  0.300400  0.536900  0.955600  1.0  0.1418
  H  H184  1  0.371300  0.593500  0.938800  1.0  0.135
  H  H185  1  0.264300  0.609100  0.983700  1.0  0.142
  H  H186  1  0.231800  0.790000  0.592400  1.0  0.1136
  H  H187  1  0.245900  0.822300  0.642500  1.0  0.1024
  H  H188  1  0.519400  0.722800  0.541200  1.0  0.1193
  H  H189  1  0.397600  0.728500  0.531500  1.0  0.1353
  H  H190  1  0.436600  0.810700  0.659400  1.0  0.111
  H  H191  1  0.542700  0.770300  0.620500  1.0  0.1167
  H  H192  1  0.364300  0.851300  0.525900  1.0  0.1177
  H  H193  1  0.469700  0.854800  0.548300  1.0  0.1002
  H  H194  1  0.338000  0.920300  0.618400  1.0  0.1248
  H  H195  1  0.339300  0.964800  0.559400  1.0  0.1364
  H  H196  1  0.242700  0.927900  0.583900  1.0  0.1285
  H  H197  1  0.688400  0.392700  0.754800  1.0  0.12
  H  H198  1  0.675500  0.356400  0.706500  1.0  0.1047
  H  H199  1  0.714600  0.414500  0.612800  1.0  0.0994
  H  H200  1  0.757000  0.485000  0.601300  1.0  0.115
  H  H201  1  0.782600  0.538400  0.678200  1.0  0.1332
  H  H202  1  0.753000  0.501500  0.737800  1.0  0.1312
  H  H203  1  0.875900  0.386700  0.717400  1.0  0.1213
  H  H204  1  0.907900  0.425900  0.659000  1.0  0.1116
  H  H205  1  0.876000  0.334300  0.621100  1.0  0.1324
  H  H206  1  0.970400  0.300300  0.659100  1.0  0.1517
  H  H207  1  0.847400  0.294400  0.680000  1.0  0.1334
  H  H208  1  0.859700  0.559300  0.797300  1.0  0.1667
  H  H209  1  0.951200  0.482200  0.790900  1.0  0.1681
  H  H210  1  0.934800  0.519400  0.843500  1.0  0.1755
  H  H211  1  0.078400  0.861700  0.826700  1.0  0.1504
  H  H212  1  0.202300  0.865000  0.823900  1.0  0.1449
  H  H213  1  0.120000  0.923900  0.786600  1.0  0.152
  H  H214  1  0.854800  0.647500  0.490500  1.0  0.1559
  H  H215  1  0.798000  0.713200  0.525300  1.0  0.1779
  H  H216  1  0.881500  0.639400  0.550000  1.0  0.1605
  H  H217  1  0.525400  0.230000  0.618700  1.0  0.1449
  H  H218  1  0.624500  0.262100  0.588600  1.0  0.1591
  H  H219  1  0.640000  0.206200  0.642700  1.0  0.158
  H  H220  1  0.735300  0.408300  0.876000  1.0  0.1717
  H  H221  1  0.636400  0.463200  0.909600  1.0  0.1747
  H  H222  1  0.643300  0.378900  0.916900  1.0  0.1661
  H  H223  1  0.568500  0.403200  0.554700  1.0  0.4725
  H  H224  1  0.631600  0.388200  0.508000  1.0  0.3708
  H  H225  1  0.690000  0.126800  0.897700  1.0  0.1054
  H  H226  1  0.800700  0.059800  0.901800  1.0  0.1211
  H  H227  1  0.935200  0.027000  0.819800  1.0  0.1277
  H  H228  1  0.911000  0.073000  0.762900  1.0  0.1174
  H  H229  1  0.739100  0.176600  0.755500  1.0  0.1247
  H  H230  1  0.655700  0.201900  0.807800  1.0  0.118
  H  H231  1  0.896500  0.179300  0.797800  1.0  0.1074
  H  H232  1  0.916800  0.134000  0.855200  1.0  0.1068
  H  H233  1  0.783300  0.214100  0.896000  1.0  0.115
  H  H234  1  0.850200  0.259200  0.851300  1.0  0.105
  H  H235  1  0.734100  0.253400  0.841700  1.0  0.1181
  H  H236  1  0.593900  0.876200  0.658400  1.0  0.1094
  H  H237  1  0.482200  0.942700  0.658200  1.0  0.1056
  H  H238  1  0.782100  0.985600  0.627800  1.0  0.1135
  H  H239  1  0.779900  0.903000  0.636700  1.0  0.1054
  H  H240  1  0.494100  0.071900  0.636600  1.0  0.13
  H  H241  1  0.612600  0.086000  0.626400  1.0  0.1125
  H  H242  1  0.669100  0.012300  0.556900  1.0  0.1194
  H  H243  1  0.551900  0.996600  0.567900  1.0  0.1186
  H  H244  1  0.646700  0.868900  0.573000  1.0  0.1365
  H  H245  1  0.676100  0.912200  0.515500  1.0  0.1426
  H  H246  1  0.762300  0.887500  0.557800  1.0  0.1265
  H  H247  1  0.790900  0.811700  0.932300  1.0  0.1192
  H  H248  1  0.672400  0.797700  0.941300  1.0  0.1095
  H  H249  1  0.619800  0.746700  0.872300  1.0  0.1192
  H  H250  1  0.702900  0.729600  0.818300  1.0  0.1302
  H  H251  1  0.885000  0.755200  0.802700  1.0  0.1129
  H  H252  1  0.918000  0.789000  0.846900  1.0  0.1239
  H  H253  1  0.885300  0.691500  0.914400  1.0  0.1231
  H  H254  1  0.863500  0.659100  0.866400  1.0  0.1178
  H  H255  1  0.727200  0.620000  0.916100  1.0  0.138
  H  H256  1  0.798500  0.614900  0.962000  1.0  0.1463
  H  H257  1  0.691100  0.683200  0.953300  1.0  0.1333
  H  H258  1  0.241700  0.004100  0.816500  1.0  0.1125
  H  H259  1  0.274100  0.953400  0.870900  1.0  0.1139
  H  H260  1  0.298200  0.161100  0.843400  1.0  0.1054
  H  H261  1  0.260000  0.130800  0.798900  1.0  0.1234
  H  H262  1  0.334400  0.001100  0.940200  1.0  0.1145
  H  H263  1  0.341600  0.082500  0.930100  1.0  0.1047
  H  H264  1  0.145200  0.048400  0.922800  1.0  0.0991
  H  H265  1  0.114100  0.085700  0.864800  1.0  0.0913
  H  H266  1  0.136700  0.192800  0.880300  1.0  0.1171
  H  H267  1  0.042900  0.168500  0.923500  1.0  0.1191
  H  H268  1  0.163300  0.155100  0.939100  1.0  0.117
  H  H269  1  0.873300  0.146800  0.597100  1.0  0.1706
  H  H270  1  0.912400  0.166700  0.646400  1.0  0.1537
  H  H271  1  0.997400  0.108300  0.610200  1.0  0.166
  H  H272  1  0.033500  0.834400  0.961800  1.0  0.162
  H  H273  1  0.061000  0.905000  0.926800  1.0  0.168
  H  H274  1  0.004100  0.907700  0.987900  1.0  0.1618
  H  H275  1  0.856400  0.662100  0.686200  1.0  0.1561
  H  H276  1  0.783800  0.718400  0.643600  1.0  0.1651
  H  H277  1  0.916000  0.701800  0.634400  1.0  0.1597
  H  H278  1  0.392700  0.733100  0.984000  1.0  0.1689
  H  H279  1  0.308600  0.809500  0.998900  1.0  0.1597
  H  H280  1  0.275900  0.764600  0.961800  1.0  0.1687
  H  H281  1  0.393500  0.251800  0.950900  1.0  0.1557
  H  H282  1  0.450000  0.309000  0.913100  1.0  0.1635
  H  H283  1  0.325000  0.313400  0.909400  1.0  0.1693
  H  H284  1  0.133900  0.096000  0.702100  1.0  0.1402
  H  H285  1  0.198200  0.072200  0.645400  1.0  0.1472
  H  H286  1  0.130200  0.022500  0.684600  1.0  0.1517
  H  H287  1  0.465300  0.899100  0.988900  1.0  0.4803
  H  H288  1  0.507800  0.879000  0.035000  1.0  0.4372
  C  C289  1  0.781100  0.526700  0.364600  1.0  0.0683
  C  C290  1  0.687100  0.517900  0.410200  1.0  -0.0387
  C  C291  1  0.734800  0.574500  0.315800  1.0  -0.0674
  C  C292  1  0.859000  0.452300  0.349900  1.0  -0.0313
  C  C293  1  0.851700  0.567000  0.383100  1.0  -0.0941
  C  C294  1  0.923700  0.524000  0.425700  1.0  -0.3044
  C  C295  1  0.724400  0.386900  0.151200  1.0  0.0621
  C  C296  1  0.621300  0.360200  0.167200  1.0  -0.0639
  C  C297  1  0.814400  0.343900  0.186300  1.0  -0.0072
  C  C298  1  0.695700  0.469100  0.153900  1.0  -0.0458
  C  C299  1  0.776200  0.370800  0.092900  1.0  -0.0932
  C  C300  1  0.703600  0.411400  0.049900  1.0  -0.3221
  C  C301  1  0.604600  0.220500  0.403800  1.0  0.0505
  C  C302  1  0.722500  0.218900  0.378700  1.0  -0.0175
  C  C303  1  0.554300  0.280800  0.440500  1.0  -0.0762
  C  C304  1  0.532500  0.230700  0.361600  1.0  1e-04
  C  C305  1  0.607500  0.147600  0.441200  1.0  -0.135
  C  C306  1  0.678300  0.077200  0.417700  1.0  -0.3102
  C  C307  1  0.263400  0.554900  0.319800  1.0  0.0814
  C  C308  1  0.336000  0.596600  0.280900  1.0  -0.0159
  C  C309  1  0.294800  0.538800  0.374400  1.0  -0.0144
  C  C310  1  0.270600  0.484800  0.298100  1.0  -0.0171
  C  C311  1  0.140500  0.602900  0.319800  1.0  -0.1038
  C  C312  1  0.108900  0.674900  0.341800  1.0  -0.2877
  C  C313  1  0.982000  0.433400  0.221800  1.0  0.7283
  C  C314  1  0.066300  0.471400  0.195200  1.0  -0.4574
  C  C315  1  0.818200  0.176000  0.240000  1.0  0.764
  C  C316  1  0.857800  0.127100  0.196900  1.0  -0.3704
  C  C317  1  0.272200  0.370500  0.451800  1.0  0.7557
  C  C318  1  0.176100  0.339900  0.473400  1.0  -0.4372
  C  C319  1  0.457500  0.690800  0.344100  1.0  0.7431
  C  C320  1  0.413000  0.753600  0.376300  1.0  -0.4145
  C  C321  1  0.414300  0.564000  0.153500  1.0  0.7356
  C  C322  1  0.343500  0.579800  0.108700  1.0  -0.4485
  C  C323  1  0.208800  0.885600  0.174800  1.0  0.0792
  C  C324  1  0.259400  0.914700  0.120300  1.0  -0.0205
  C  C325  1  0.124000  0.948100  0.202800  1.0  -0.0223
  C  C326  1  0.297800  0.841300  0.209500  1.0  -0.0239
  C  C327  1  0.141700  0.835700  0.166600  1.0  -0.0984
  C  C328  1  0.197700  0.772500  0.142600  1.0  -0.3055
  C  C329  1  0.375700  0.023300  0.363100  1.0  0.0678
  C  C330  1  0.442300  0.074400  0.331400  1.0  -0.0256
  C  C331  1  0.257500  0.048700  0.351100  1.0  -0.0259
  C  C332  1  0.431600  0.945100  0.351800  1.0  -0.041
  C  C333  1  0.371000  0.022600  0.423700  1.0  -0.1172
  C  C334  1  0.316600  0.095000  0.446400  1.0  -0.3009
  C  C335  1  0.232100  0.233400  0.129500  1.0  0.0433
  C  C336  1  0.272800  0.184300  0.085700  1.0  -0.0207
  C  C337  1  0.326900  0.235100  0.155600  1.0  -0.0421
  C  C338  1  0.144400  0.209500  0.171100  1.0  -0.007
  C  C339  1  0.173600  0.311300  0.104200  1.0  -0.1176
  C  C340  1  0.245600  0.351900  0.064700  1.0  -0.3289
  C  C341  1  0.717700  0.942100  0.132000  1.0  0.0752
  C  C342  1  0.705100  0.009400  0.157400  1.0  -0.009
  C  C343  1  0.689000  0.882600  0.174000  1.0  -0.0334
  C  C344  1  0.643300  0.961500  0.087300  1.0  -0.0175
  C  C345  1  0.840000  0.915400  0.108000  1.0  -0.1153
  C  C346  1  0.877400  0.843800  0.089800  1.0  -0.2998
  C  C347  1  0.117100  0.931500  0.338300  1.0  0.7177
  C  C348  1  0.080400  0.872500  0.374200  1.0  -0.4558
  C  C349  1  0.106900  0.086800  0.063000  1.0  0.7384
  C  C350  1  0.991700  0.112200  0.045000  1.0  -0.3812
  C  C351  1  0.162300  0.231400  0.308200  1.0  0.7373
  C  C352  1  0.150500  0.292600  0.338600  1.0  -0.4168
  C  C353  1  0.610100  0.183800  0.077900  1.0  0.7621
  C  C354  1  0.662800  0.222500  0.029100  1.0  -0.4156
  C  C355  1  0.559100  0.770400  0.127000  1.0  0.7373
  C  C356  1  0.601400  0.719600  0.084600  1.0  -0.4288
  C  C357  1  0.724200  0.986300  0.292300  1.0  0.7354
  C  C358  1  0.823700  0.945500  0.317100  1.0  -0.4103
  C  C359  1  0.218900  0.473300  0.635400  1.0  0.0691
  C  C360  1  0.312900  0.482100  0.589800  1.0  -0.0371
  C  C361  1  0.265200  0.425500  0.684200  1.0  -0.0661
  C  C362  1  0.141000  0.547700  0.650100  1.0  -0.0308
  C  C363  1  0.148300  0.433000  0.616900  1.0  -0.0921
  C  C364  1  0.076300  0.476000  0.574300  1.0  -0.3038
  C  C365  1  0.275600  0.613100  0.848800  1.0  0.0651
  C  C366  1  0.378700  0.639800  0.832800  1.0  -0.0629
  C  C367  1  0.185600  0.656100  0.813700  1.0  -0.005
  C  C368  1  0.304300  0.530900  0.846100  1.0  -0.0458
  C  C369  1  0.223800  0.629200  0.907100  1.0  -0.0949
  C  C370  1  0.296400  0.588600  0.950100  1.0  -0.323
  C  C371  1  0.395400  0.779500  0.596200  1.0  0.049
  C  C372  1  0.277500  0.781100  0.621300  1.0  -0.0165
  C  C373  1  0.445700  0.719200  0.559500  1.0  -0.0748
  C  C374  1  0.467500  0.769300  0.638400  1.0  -0.0014
  C  C375  1  0.392500  0.852400  0.558800  1.0  -0.1331
  C  C376  1  0.321700  0.922800  0.582300  1.0  -0.307
  C  C377  1  0.736600  0.445100  0.680200  1.0  0.0813
  C  C378  1  0.664000  0.403400  0.719100  1.0  -0.0164
  C  C379  1  0.705200  0.461200  0.625600  1.0  -0.0116
  C  C380  1  0.729400  0.515200  0.701900  1.0  -0.0178
  C  C381  1  0.859500  0.397100  0.680200  1.0  -0.1042
  C  C382  1  0.891100  0.325100  0.658200  1.0  -0.288
  C  C383  1  0.018000  0.566600  0.778200  1.0  0.7277
  C  C384  1  0.933700  0.528600  0.804800  1.0  -0.4554
  C  C385  1  0.181800  0.824000  0.760000  1.0  0.7645
  C  C386  1  0.142200  0.872900  0.803100  1.0  -0.3707
  C  C387  1  0.727800  0.629500  0.548200  1.0  0.7555
  C  C388  1  0.823900  0.660100  0.526600  1.0  -0.4384
  C  C389  1  0.542500  0.309200  0.655900  1.0  0.7436
  C  C390  1  0.587000  0.246400  0.623700  1.0  -0.413
  C  C391  1  0.585700  0.436000  0.846500  1.0  0.733
  C  C392  1  0.656500  0.420200  0.891300  1.0  -0.4528
  C  C393  1  0.791200  0.114400  0.825200  1.0  0.0788
  C  C394  1  0.740600  0.085300  0.879700  1.0  -0.0239
  C  C395  1  0.876000  0.051900  0.797200  1.0  -0.0209
  C  C396  1  0.702200  0.158700  0.790500  1.0  -0.0238
  C  C397  1  0.858300  0.164300  0.833400  1.0  -0.0955
  C  C398  1  0.802300  0.227500  0.857400  1.0  -0.3028
  C  C399  1  0.624300  0.976700  0.636900  1.0  0.0654
  C  C400  1  0.557700  0.925600  0.668600  1.0  -0.0246
  C  C401  1  0.742500  0.951300  0.648900  1.0  -0.0277
  C  C402  1  0.568400  0.054900  0.648200  1.0  -0.0396
  C  C403  1  0.629000  0.977400  0.576300  1.0  -0.1168
  C  C404  1  0.683400  0.905000  0.553600  1.0  -0.3023
  C  C405  1  0.767900  0.766600  0.870500  1.0  0.0455
  C  C406  1  0.727200  0.815700  0.914300  1.0  -0.0216
  C  C407  1  0.673100  0.764900  0.844400  1.0  -0.0426
  C  C408  1  0.855600  0.790500  0.828900  1.0  -0.0074
  C  C409  1  0.826400  0.688700  0.895800  1.0  -0.1159
  C  C410  1  0.754400  0.648100  0.935300  1.0  -0.3267
  C  C411  1  0.282300  0.057900  0.868000  1.0  0.0757
  C  C412  1  0.294900  0.990600  0.842600  1.0  -0.0075
  C  C413  1  0.311000  0.117400  0.826000  1.0  -0.0355
  C  C414  1  0.356700  0.038500  0.912700  1.0  -0.0173
  C  C415  1  0.160000  0.084600  0.892000  1.0  -0.1153
  C  C416  1  0.122600  0.156200  0.910200  1.0  -0.3005
  C  C417  1  0.882900  0.068500  0.661700  1.0  0.718
  C  C418  1  0.919600  0.127500  0.625800  1.0  -0.4573
  C  C419  1  0.893100  0.913200  0.937000  1.0  0.7371
  C  C420  1  0.008300  0.887800  0.955000  1.0  -0.3812
  C  C421  1  0.837700  0.768600  0.691800  1.0  0.7381
  C  C422  1  0.849500  0.707400  0.661400  1.0  -0.4177
  C  C423  1  0.389900  0.816200  0.922100  1.0  0.762
  C  C424  1  0.337200  0.777500  0.970900  1.0  -0.4154
  C  C425  1  0.440900  0.229600  0.873000  1.0  0.737
  C  C426  1  0.398600  0.280400  0.915400  1.0  -0.4281
  C  C427  1  0.275800  0.013700  0.707700  1.0  0.7364
  C  C428  1  0.176300  0.054500  0.682900  1.0  -0.4102
  O  O429  1  0.589000  0.426200  0.306470  1.0  -0.7874
  O  O430  1  0.613500  0.483500  0.396910  1.0  -0.7115
  O  O431  1  0.664300  0.546000  0.292970  1.0  -0.6963
  O  O432  1  0.806000  0.411400  0.328280  1.0  -0.7075
  O  O433  1  0.571000  0.366900  0.222510  1.0  -0.6539
  O  O434  1  0.780300  0.350400  0.242460  1.0  -0.6884
  O  O435  1  0.651300  0.488900  0.205810  1.0  -0.7213
  O  O436  1  0.730200  0.284400  0.344750  1.0  -0.6891
  O  O437  1  0.541400  0.353700  0.413740  1.0  -0.7032
  O  O438  1  0.522900  0.297000  0.326000  1.0  -0.6008
  O  O439  1  0.453500  0.557300  0.275570  1.0  -0.7043
  O  O440  1  0.406400  0.493100  0.377950  1.0  -0.6841
  O  O441  1  0.377100  0.433000  0.294200  1.0  -0.6375
  O  O442  1  0.007800  0.370100  0.241400  1.0  -0.5927
  O  O443  1  0.880200  0.474900  0.220600  1.0  -0.575
  O  O444  1  0.887600  0.181600  0.266200  1.0  -0.6209
  O  O445  1  0.715400  0.212400  0.246340  1.0  -0.6331
  O  O446  1  0.305400  0.400800  0.480000  1.0  -0.5852
  O  O447  1  0.312100  0.362300  0.402700  1.0  -0.5727
  O  O448  1  0.489600  0.701100  0.295800  1.0  -0.5724
  O  O449  1  0.463700  0.627300  0.370450  1.0  -0.5896
  O  O450  1  0.460400  0.610400  0.156600  1.0  -0.6305
  O  O451  1  0.423300  0.502600  0.183700  1.0  -0.5711
  O  O452  1  0.415700  0.578200  0.476800  1.0  -0.8534
  O  O453  1  0.375400  0.019100  0.204650  1.0  -0.7494
  O  O454  1  0.320600  0.964400  0.122620  1.0  -0.6903
  O  O455  1  0.169600  0.001300  0.213400  1.0  -0.7157
  O  O456  1  0.369300  0.880000  0.218770  1.0  -0.6791
  O  O457  1  0.451800  0.078500  0.275180  1.0  -0.6917
  O  O458  1  0.247300  0.054400  0.295400  1.0  -0.6852
  O  O459  1  0.444200  0.935500  0.296490  1.0  -0.6951
  O  O460  1  0.323000  0.108900  0.103960  1.0  -0.74
  O  O461  1  0.386000  0.166400  0.182530  1.0  -0.6965
  O  O462  1  0.184400  0.138100  0.199250  1.0  -0.6771
  O  O463  1  0.595100  0.041600  0.184340  1.0  -0.7298
  O  O464  1  0.576000  0.902600  0.200820  1.0  -0.6929
  O  O465  1  0.527000  0.987600  0.103940  1.0  -0.7131
  O  O466  1  0.056200  0.993700  0.331300  1.0  -0.5792
  O  O467  1  0.221200  0.909600  0.315600  1.0  -0.5715
  O  O468  1  0.190100  0.065900  0.030400  1.0  -0.5756
  O  O469  1  0.104900  0.086200  0.112710  1.0  -0.5687
  O  O470  1  0.259500  0.206400  0.282100  1.0  -0.5683
  O  O471  1  0.084800  0.206400  0.309550  1.0  -0.5919
  O  O472  1  0.553200  0.144900  0.068860  1.0  -0.6184
  O  O473  1  0.623300  0.190000  0.122500  1.0  -0.594
  O  O474  1  0.561500  0.746600  0.174930  1.0  -0.6158
  O  O475  1  0.521600  0.838500  0.109120  1.0  -0.5885
  O  O476  1  0.664500  0.947800  0.284160  1.0  -0.5666
  O  O477  1  0.699100  0.053300  0.279100  1.0  -0.6153
  O  O478  1  0.508300  0.086300  0.989530  1.0  -0.8532
  O  O479  1  0.411000  0.573800  0.693530  1.0  -0.7879
  O  O480  1  0.386500  0.516500  0.603090  1.0  -0.7128
  O  O481  1  0.335700  0.454000  0.707030  1.0  -0.6971
  O  O482  1  0.194000  0.588600  0.671720  1.0  -0.7085
  O  O483  1  0.429000  0.633100  0.777490  1.0  -0.6497
  O  O484  1  0.219700  0.649600  0.757540  1.0  -0.6885
  O  O485  1  0.348700  0.511100  0.794190  1.0  -0.7221
  O  O486  1  0.269800  0.715600  0.655250  1.0  -0.6906
  O  O487  1  0.458600  0.646300  0.586260  1.0  -0.7043
  O  O488  1  0.477100  0.703000  0.674000  1.0  -0.6007
  O  O489  1  0.546500  0.442700  0.724430  1.0  -0.7057
  O  O490  1  0.593600  0.506900  0.622050  1.0  -0.684
  O  O491  1  0.622900  0.567000  0.705800  1.0  -0.6411
  O  O492  1  0.992200  0.629900  0.758600  1.0  -0.594
  O  O493  1  0.119800  0.525100  0.779400  1.0  -0.5735
  O  O494  1  0.112400  0.818400  0.733800  1.0  -0.6238
  O  O495  1  0.284600  0.787600  0.753660  1.0  -0.6329
  O  O496  1  0.694600  0.599200  0.520000  1.0  -0.5835
  O  O497  1  0.687900  0.637700  0.597300  1.0  -0.5716
  O  O498  1  0.510400  0.298900  0.704200  1.0  -0.5739
  O  O499  1  0.536300  0.372700  0.629550  1.0  -0.591
  O  O500  1  0.539600  0.389600  0.843400  1.0  -0.6306
  O  O501  1  0.576700  0.497400  0.816300  1.0  -0.5695
  O  O502  1  0.584300  0.421800  0.523200  1.0  -0.8554
  O  O503  1  0.624600  0.980900  0.795350  1.0  -0.7476
  O  O504  1  0.679400  0.035600  0.877380  1.0  -0.6912
  O  O505  1  0.830400  0.998700  0.786600  1.0  -0.7115
  O  O506  1  0.630700  0.120000  0.781230  1.0  -0.6804
  O  O507  1  0.548200  0.921500  0.724820  1.0  -0.6896
  O  O508  1  0.752700  0.945600  0.704600  1.0  -0.684
  O  O509  1  0.555800  0.064500  0.703510  1.0  -0.6973
  O  O510  1  0.677000  0.891100  0.896040  1.0  -0.7383
  O  O511  1  0.614000  0.833600  0.817470  1.0  -0.6953
  O  O512  1  0.815600  0.861900  0.800750  1.0  -0.6754
  O  O513  1  0.404900  0.958400  0.815660  1.0  -0.7287
  O  O514  1  0.424000  0.097400  0.799180  1.0  -0.695
  O  O515  1  0.473000  0.012400  0.896060  1.0  -0.7131
  O  O516  1  0.943800  0.006300  0.668700  1.0  -0.579
  O  O517  1  0.778800  0.090400  0.684400  1.0  -0.5698
  O  O518  1  0.809900  0.934100  0.969600  1.0  -0.5747
  O  O519  1  0.895100  0.913800  0.887290  1.0  -0.5679
  O  O520  1  0.740500  0.793600  0.717900  1.0  -0.5684
  O  O521  1  0.915200  0.793600  0.690450  1.0  -0.5902
  O  O522  1  0.446800  0.855100  0.931140  1.0  -0.6198
  O  O523  1  0.376700  0.810000  0.877500  1.0  -0.5935
  O  O524  1  0.438500  0.253400  0.825070  1.0  -0.6172
  O  O525  1  0.478400  0.161500  0.890880  1.0  -0.5898
  O  O526  1  0.335500  0.052200  0.715840  1.0  -0.5676
  O  O527  1  0.300900  0.946700  0.720900  1.0  -0.6181
  O  O528  1  0.491700  0.913700  0.010470  1.0  -0.8525
