# generated using pymatgen
data_Cd3H16C12(N8Cl)2
_symmetry_space_group_name_H-M   'P 1'
_cell_length_a   7.87240000
_cell_length_b   9.28840000
_cell_length_c   9.46070000
_cell_angle_alpha   93.36080000
_cell_angle_beta   114.58600000
_cell_angle_gamma   81.89990000
_symmetry_Int_Tables_number   1
_chemical_formula_structural   Cd3H16C12(N8Cl)2
_chemical_formula_sum   'Cd3 H16 C12 N16 Cl2'
_cell_volume   622.79059031
_cell_formula_units_Z   1
loop_
 _symmetry_equiv_pos_site_id
 _symmetry_equiv_pos_as_xyz
  1  'x, y, z'
loop_
 _atom_site_type_symbol
 _atom_site_label
 _atom_site_symmetry_multiplicity
 _atom_site_fract_x
 _atom_site_fract_y
 _atom_site_fract_z
 _atom_site_occupancy
 _atom_site_charge
  Cd  Cd1  1  0.000000  0.500000  0.500000  1.0  0.7197
  Cd  Cd2  1  0.500000  0.500000  0.500000  1.0  0.7197
  Cd  Cd3  1  0.500000  0.000000  0.000000  1.0  0.9808
  H  H4  1  0.056800  0.223000  0.248800  1.0  0.1027
  H  H5  1  0.944600  0.102600  0.140600  1.0  0.0933
  H  H6  1  0.114400  0.078900  0.470000  1.0  0.0767
  H  H7  1  0.014600  0.956900  0.357400  1.0  0.0706
  H  H8  1  0.192000  0.777000  0.248800  1.0  0.1083
  H  H9  1  0.196000  0.897400  0.140600  1.0  0.0919
  H  H10  1  0.355600  0.921100  0.470000  1.0  0.0762
  H  H11  1  0.342800  0.043100  0.357400  1.0  0.0709
  H  H12  1  0.943200  0.777000  0.751200  1.0  0.1043
  H  H13  1  0.055400  0.897400  0.859400  1.0  0.0929
  H  H14  1  0.885600  0.921100  0.530000  1.0  0.0769
  H  H15  1  0.985400  0.043100  0.642600  1.0  0.0712
  H  H16  1  0.808000  0.223000  0.751200  1.0  0.1061
  H  H17  1  0.804000  0.102600  0.859400  1.0  0.0908
  H  H18  1  0.644400  0.078900  0.530000  1.0  0.0775
  H  H19  1  0.657200  0.956900  0.642600  1.0  0.0702
  C  C20  1  0.806800  0.213400  0.262800  1.0  0.3899
  C  C21  1  0.979700  0.147900  0.242000  1.0  -0.2628
  C  C22  1  0.091300  0.033700  0.369800  1.0  -0.0977
  C  C23  1  0.456000  0.786600  0.262800  1.0  0.3899
  C  C24  1  0.262300  0.852100  0.242000  1.0  -0.2557
  C  C25  1  0.278500  0.966300  0.369800  1.0  -0.094
  C  C26  1  0.193200  0.786600  0.737200  1.0  0.3909
  C  C27  1  0.020300  0.852100  0.758000  1.0  -0.2628
  C  C28  1  0.908700  0.966300  0.630200  1.0  -0.0996
  C  C29  1  0.544000  0.213400  0.737200  1.0  0.3932
  C  C30  1  0.737700  0.147900  0.758000  1.0  -0.2581
  C  C31  1  0.721500  0.033700  0.630200  1.0  -0.0939
  N  N32  1  0.622700  0.336300  0.353200  1.0  0.0095
  N  N33  1  0.525300  0.245200  0.251600  1.0  -0.1236
  N  N34  1  0.638700  0.166300  0.193000  1.0  -0.3369
  N  N35  1  0.802000  0.319600  0.364000  1.0  -0.3148
  N  N36  1  0.730500  0.663700  0.353200  1.0  0.0136
  N  N37  1  0.726300  0.754800  0.251600  1.0  -0.1224
  N  N38  1  0.554300  0.833700  0.193000  1.0  -0.3302
  N  N39  1  0.562000  0.680400  0.364000  1.0  -0.3179
  N  N40  1  0.377300  0.663700  0.646800  1.0  0.011
  N  N41  1  0.474700  0.754800  0.748400  1.0  -0.1234
  N  N42  1  0.361300  0.833700  0.807000  1.0  -0.3377
  N  N43  1  0.198000  0.680400  0.636000  1.0  -0.3158
  N  N44  1  0.269500  0.336300  0.646800  1.0  0.0112
  N  N45  1  0.273700  0.245200  0.748400  1.0  -0.1238
  N  N46  1  0.445700  0.166300  0.807000  1.0  -0.3279
  N  N47  1  0.438000  0.319600  0.636000  1.0  -0.3162
  Cl  Cl48  1  0.149030  0.500000  0.298060  1.0  -0.446
  Cl  Cl49  1  0.850970  0.500000  0.701940  1.0  -0.4486
