# generated using pymatgen
data_Cu2H11C23O9
_symmetry_space_group_name_H-M   'P 1'
_cell_length_a   17.92570000
_cell_length_b   17.92570000
_cell_length_c   28.06270000
_cell_angle_alpha   90.00000000
_cell_angle_beta   90.00000000
_cell_angle_gamma   90.00000000
_symmetry_Int_Tables_number   1
_chemical_formula_structural   Cu2H11C23O9
_chemical_formula_sum   'Cu16 H88 C184 O72'
_cell_volume   9017.40760989
_cell_formula_units_Z   8
loop_
 _symmetry_equiv_pos_site_id
 _symmetry_equiv_pos_as_xyz
  1  'x, y, z'
loop_
 _atom_site_type_symbol
 _atom_site_label
 _atom_site_symmetry_multiplicity
 _atom_site_fract_x
 _atom_site_fract_y
 _atom_site_fract_z
 _atom_site_occupancy
 _atom_site_charge
  Cu  Cu1  1  0.459440  0.540560  0.470320  1.0  0.8957
  Cu  Cu2  1  0.040560  0.959440  0.470320  1.0  0.895
  Cu  Cu3  1  0.959440  0.459440  0.970320  1.0  0.8957
  Cu  Cu4  1  0.540560  0.040560  0.970320  1.0  0.8948
  Cu  Cu5  1  0.040560  0.540560  0.029680  1.0  0.8958
  Cu  Cu6  1  0.459440  0.959440  0.029680  1.0  0.8958
  Cu  Cu7  1  0.540560  0.459440  0.529680  1.0  0.8963
  Cu  Cu8  1  0.959440  0.040560  0.529680  1.0  0.8952
  Cu  Cu9  1  0.675680  0.750000  0.250000  1.0  0.8967
  Cu  Cu10  1  0.824320  0.750000  0.250000  1.0  0.8961
  Cu  Cu11  1  0.750000  0.675680  0.750000  1.0  0.899
  Cu  Cu12  1  0.750000  0.824320  0.750000  1.0  0.8967
  Cu  Cu13  1  0.324320  0.250000  0.750000  1.0  0.8961
  Cu  Cu14  1  0.175680  0.250000  0.750000  1.0  0.8967
  Cu  Cu15  1  0.250000  0.324320  0.250000  1.0  0.8967
  Cu  Cu16  1  0.250000  0.175680  0.250000  1.0  0.899
  H  H17  1  0.853300  0.566100  0.347300  1.0  0.1142
  H  H18  1  0.747700  0.469000  0.457400  1.0  0.111
  H  H19  1  0.634900  0.609600  0.370600  1.0  0.1117
  H  H20  1  0.893800  0.553200  0.473000  1.0  0.1162
  H  H21  1  0.847800  0.285000  0.389800  1.0  0.1007
  H  H22  1  0.646700  0.933900  0.347300  1.0  0.1145
  H  H23  1  0.752300  0.031000  0.457400  1.0  0.1106
  H  H24  1  0.865100  0.890400  0.370600  1.0  0.1115
  H  H25  1  0.606200  0.946800  0.473000  1.0  0.1161
  H  H26  1  0.652200  0.215000  0.389800  1.0  0.1011
  H  H27  1  0.933900  0.853300  0.847300  1.0  0.114
  H  H28  1  0.031000  0.747700  0.957400  1.0  0.1116
  H  H29  1  0.890400  0.634900  0.870600  1.0  0.1118
  H  H30  1  0.946800  0.893800  0.973000  1.0  0.1159
  H  H31  1  0.215000  0.847800  0.889800  1.0  0.0996
  H  H32  1  0.566100  0.646700  0.847300  1.0  0.1142
  H  H33  1  0.469000  0.752300  0.957400  1.0  0.1115
  H  H34  1  0.609600  0.865100  0.870600  1.0  0.1116
  H  H35  1  0.553200  0.606200  0.973000  1.0  0.1155
  H  H36  1  0.285000  0.652200  0.889800  1.0  0.0995
  H  H37  1  0.646700  0.566100  0.152700  1.0  0.1146
  H  H38  1  0.752300  0.469000  0.042600  1.0  0.1103
  H  H39  1  0.865100  0.609600  0.129400  1.0  0.1117
  H  H40  1  0.606200  0.553200  0.027000  1.0  0.1157
  H  H41  1  0.652200  0.285000  0.110200  1.0  0.1014
  H  H42  1  0.853300  0.933900  0.152700  1.0  0.1141
  H  H43  1  0.747700  0.031000  0.042600  1.0  0.1102
  H  H44  1  0.634900  0.890400  0.129400  1.0  0.112
  H  H45  1  0.893800  0.946800  0.027000  1.0  0.1156
  H  H46  1  0.847800  0.215000  0.110200  1.0  0.1009
  H  H47  1  0.566100  0.853300  0.652700  1.0  0.1139
  H  H48  1  0.469000  0.747700  0.542600  1.0  0.111
  H  H49  1  0.609600  0.634900  0.629400  1.0  0.1122
  H  H50  1  0.553200  0.893800  0.527000  1.0  0.1153
  H  H51  1  0.285000  0.847800  0.610200  1.0  0.1005
  H  H52  1  0.933900  0.646700  0.652700  1.0  0.1146
  H  H53  1  0.031000  0.752300  0.542600  1.0  0.1113
  H  H54  1  0.890400  0.865100  0.629400  1.0  0.112
  H  H55  1  0.946800  0.606200  0.527000  1.0  0.1155
  H  H56  1  0.215000  0.652200  0.610200  1.0  0.1004
  H  H57  1  0.146700  0.433900  0.652700  1.0  0.1149
  H  H58  1  0.252300  0.531000  0.542600  1.0  0.1103
  H  H59  1  0.365100  0.390400  0.629400  1.0  0.1118
  H  H60  1  0.106200  0.446800  0.527000  1.0  0.1158
  H  H61  1  0.152200  0.715000  0.610200  1.0  0.102
  H  H62  1  0.353300  0.066100  0.652700  1.0  0.1138
  H  H63  1  0.247700  0.969000  0.542600  1.0  0.1103
  H  H64  1  0.134900  0.109600  0.629400  1.0  0.1117
  H  H65  1  0.393800  0.053200  0.527000  1.0  0.1164
  H  H66  1  0.347800  0.785000  0.610200  1.0  0.1008
  H  H67  1  0.066100  0.146700  0.152700  1.0  0.1146
  H  H68  1  0.969000  0.252300  0.042600  1.0  0.1111
  H  H69  1  0.109600  0.365100  0.129400  1.0  0.1118
  H  H70  1  0.053200  0.106200  0.027000  1.0  0.1155
  H  H71  1  0.785000  0.152200  0.110200  1.0  0.1004
  H  H72  1  0.433900  0.353300  0.152700  1.0  0.1142
  H  H73  1  0.531000  0.247700  0.042600  1.0  0.1112
  H  H74  1  0.390400  0.134900  0.129400  1.0  0.1121
  H  H75  1  0.446800  0.393800  0.027000  1.0  0.1155
  H  H76  1  0.715000  0.347800  0.110200  1.0  0.1004
  H  H77  1  0.353300  0.433900  0.847300  1.0  0.1142
  H  H78  1  0.247700  0.531000  0.957400  1.0  0.1109
  H  H79  1  0.134900  0.390400  0.870600  1.0  0.1117
  H  H80  1  0.393800  0.446800  0.973000  1.0  0.1159
  H  H81  1  0.347800  0.715000  0.889800  1.0  0.1002
  H  H82  1  0.146700  0.066100  0.847300  1.0  0.1145
  H  H83  1  0.252300  0.969000  0.957400  1.0  0.1106
  H  H84  1  0.365100  0.109600  0.870600  1.0  0.1117
  H  H85  1  0.106200  0.053200  0.973000  1.0  0.1156
  H  H86  1  0.152200  0.785000  0.889800  1.0  0.1011
  H  H87  1  0.433900  0.146700  0.347300  1.0  0.1141
  H  H88  1  0.531000  0.252300  0.457400  1.0  0.1114
  H  H89  1  0.390400  0.365100  0.370600  1.0  0.1119
  H  H90  1  0.446800  0.106200  0.473000  1.0  0.1155
  H  H91  1  0.715000  0.152200  0.389800  1.0  0.0996
  H  H92  1  0.066100  0.353300  0.347300  1.0  0.1137
  H  H93  1  0.969000  0.247700  0.457400  1.0  0.1114
  H  H94  1  0.109600  0.134900  0.370600  1.0  0.1119
  H  H95  1  0.053200  0.393800  0.473000  1.0  0.1156
  H  H96  1  0.785000  0.347800  0.389800  1.0  0.0995
  H  H97  1  0.805600  0.305600  0.341100  1.0  0.111
  H  H98  1  0.694400  0.194400  0.341100  1.0  0.1114
  H  H99  1  0.194400  0.805600  0.841100  1.0  0.1115
  H  H100  1  0.305600  0.694400  0.841100  1.0  0.1108
  H  H101  1  0.694400  0.305600  0.158900  1.0  0.112
  H  H102  1  0.805600  0.194400  0.158900  1.0  0.1114
  H  H103  1  0.305600  0.805600  0.658900  1.0  0.1116
  H  H104  1  0.194400  0.694400  0.658900  1.0  0.1116
  C  C105  1  0.745150  0.652540  0.313530  1.0  0.687
  C  C106  1  0.744280  0.596460  0.353390  1.0  -0.1537
  C  C107  1  0.809460  0.558820  0.365680  1.0  -0.0749
  C  C108  1  0.811140  0.511290  0.404160  1.0  0.01
  C  C109  1  0.746710  0.501250  0.430510  1.0  -0.0781
  C  C110  1  0.679940  0.537410  0.418610  1.0  -0.1673
  C  C111  1  0.679640  0.584890  0.379510  1.0  0.0098
  C  C112  1  0.612050  0.525960  0.448660  1.0  0.6809
  C  C113  1  0.882300  0.476430  0.421270  1.0  0.0248
  C  C114  1  0.915780  0.509770  0.459530  1.0  -0.1273
  C  C115  1  0.754850  0.847460  0.313530  1.0  0.6871
  C  C116  1  0.755720  0.903540  0.353390  1.0  -0.1552
  C  C117  1  0.690540  0.941180  0.365680  1.0  -0.0755
  C  C118  1  0.688860  0.988710  0.404160  1.0  0.0093
  C  C119  1  0.753290  0.998750  0.430510  1.0  -0.0777
  C  C120  1  0.820060  0.962590  0.418610  1.0  -0.1664
  C  C121  1  0.820360  0.915110  0.379510  1.0  0.0095
  C  C122  1  0.887950  0.974040  0.448660  1.0  0.681
  C  C123  1  0.617700  0.023570  0.421270  1.0  0.0245
  C  C124  1  0.584220  0.990230  0.459530  1.0  -0.1262
  C  C125  1  0.847460  0.745150  0.813530  1.0  0.6861
  C  C126  1  0.903540  0.744280  0.853390  1.0  -0.1548
  C  C127  1  0.941180  0.809460  0.865680  1.0  -0.0758
  C  C128  1  0.988710  0.811140  0.904160  1.0  0.0094
  C  C129  1  0.998750  0.746710  0.930510  1.0  -0.0774
  C  C130  1  0.962590  0.679940  0.918610  1.0  -0.1678
  C  C131  1  0.915110  0.679640  0.879510  1.0  0.0088
  C  C132  1  0.974040  0.612050  0.948660  1.0  0.6802
  C  C133  1  0.023570  0.882300  0.921270  1.0  0.0235
  C  C134  1  0.990230  0.915780  0.959530  1.0  -0.127
  C  C135  1  0.652540  0.754850  0.813530  1.0  0.686
  C  C136  1  0.596460  0.755720  0.853390  1.0  -0.1546
  C  C137  1  0.558820  0.690540  0.865680  1.0  -0.0758
  C  C138  1  0.511290  0.688860  0.904160  1.0  0.0093
  C  C139  1  0.501250  0.753290  0.930510  1.0  -0.078
  C  C140  1  0.537410  0.820060  0.918610  1.0  -0.1669
  C  C141  1  0.584890  0.820360  0.879510  1.0  0.0088
  C  C142  1  0.525960  0.887950  0.948660  1.0  0.6799
  C  C143  1  0.476430  0.617700  0.921270  1.0  0.024
  C  C144  1  0.509770  0.584220  0.959530  1.0  -0.1261
  C  C145  1  0.754850  0.652540  0.186470  1.0  0.6873
  C  C146  1  0.755720  0.596460  0.146610  1.0  -0.1562
  C  C147  1  0.690540  0.558820  0.134320  1.0  -0.0762
  C  C148  1  0.688860  0.511290  0.095840  1.0  0.0099
  C  C149  1  0.753290  0.501250  0.069490  1.0  -0.0775
  C  C150  1  0.820060  0.537410  0.081390  1.0  -0.1656
  C  C151  1  0.820360  0.584890  0.120490  1.0  0.0094
  C  C152  1  0.887950  0.525960  0.051340  1.0  0.6805
  C  C153  1  0.617700  0.476430  0.078730  1.0  0.025
  C  C154  1  0.584220  0.509770  0.040470  1.0  -0.1245
  C  C155  1  0.745150  0.847460  0.186470  1.0  0.687
  C  C156  1  0.744280  0.903540  0.146610  1.0  -0.1552
  C  C157  1  0.809460  0.941180  0.134320  1.0  -0.0749
  C  C158  1  0.811140  0.988710  0.095840  1.0  0.01
  C  C159  1  0.746710  0.998750  0.069490  1.0  -0.0771
  C  C160  1  0.679940  0.962590  0.081390  1.0  -0.1674
  C  C161  1  0.679640  0.915110  0.120490  1.0  0.0093
  C  C162  1  0.612050  0.974040  0.051340  1.0  0.6811
  C  C163  1  0.882300  0.023570  0.078730  1.0  0.0248
  C  C164  1  0.915780  0.990230  0.040470  1.0  -0.1259
  C  C165  1  0.652540  0.745150  0.686470  1.0  0.6861
  C  C166  1  0.596460  0.744280  0.646610  1.0  -0.1561
  C  C167  1  0.558820  0.809460  0.634320  1.0  -0.0752
  C  C168  1  0.511290  0.811140  0.595840  1.0  0.0097
  C  C169  1  0.501250  0.746710  0.569490  1.0  -0.0777
  C  C170  1  0.537410  0.679940  0.581390  1.0  -0.167
  C  C171  1  0.584890  0.679640  0.620490  1.0  0.0079
  C  C172  1  0.525960  0.612050  0.551340  1.0  0.6798
  C  C173  1  0.476430  0.882300  0.578730  1.0  0.0247
  C  C174  1  0.509770  0.915780  0.540470  1.0  -0.1246
  C  C175  1  0.847460  0.754850  0.686470  1.0  0.6863
  C  C176  1  0.903540  0.755720  0.646610  1.0  -0.156
  C  C177  1  0.941180  0.690540  0.634320  1.0  -0.0768
  C  C178  1  0.988710  0.688860  0.595840  1.0  0.0097
  C  C179  1  0.998750  0.753290  0.569490  1.0  -0.0771
  C  C180  1  0.962590  0.820060  0.581390  1.0  -0.1668
  C  C181  1  0.915110  0.820360  0.620490  1.0  0.0088
  C  C182  1  0.974040  0.887950  0.551340  1.0  0.68
  C  C183  1  0.023570  0.617700  0.578730  1.0  0.0238
  C  C184  1  0.990230  0.584220  0.540470  1.0  -0.1255
  C  C185  1  0.254850  0.347460  0.686470  1.0  0.6872
  C  C186  1  0.255720  0.403540  0.646610  1.0  -0.1559
  C  C187  1  0.190540  0.441180  0.634320  1.0  -0.0761
  C  C188  1  0.188860  0.488710  0.595840  1.0  0.0096
  C  C189  1  0.253290  0.498750  0.569490  1.0  -0.0776
  C  C190  1  0.320060  0.462590  0.581390  1.0  -0.1657
  C  C191  1  0.320360  0.415110  0.620490  1.0  0.0093
  C  C192  1  0.387950  0.474040  0.551340  1.0  0.6808
  C  C193  1  0.117700  0.523570  0.578730  1.0  0.0247
  C  C194  1  0.084220  0.490230  0.540470  1.0  -0.1247
  C  C195  1  0.245150  0.152540  0.686470  1.0  0.6872
  C  C196  1  0.244280  0.096460  0.646610  1.0  -0.1554
  C  C197  1  0.309460  0.058820  0.634320  1.0  -0.075
  C  C198  1  0.311140  0.011290  0.595840  1.0  0.0102
  C  C199  1  0.246710  0.001250  0.569490  1.0  -0.0772
  C  C200  1  0.179940  0.037410  0.581390  1.0  -0.1671
  C  C201  1  0.179640  0.084890  0.620490  1.0  0.0095
  C  C202  1  0.112050  0.025960  0.551340  1.0  0.6809
  C  C203  1  0.382300  0.976430  0.578730  1.0  0.0254
  C  C204  1  0.415780  0.009770  0.540470  1.0  -0.1248
  C  C205  1  0.152540  0.254850  0.186470  1.0  0.6861
  C  C206  1  0.096460  0.255720  0.146610  1.0  -0.1562
  C  C207  1  0.058820  0.190540  0.134320  1.0  -0.0758
  C  C208  1  0.011290  0.188860  0.095840  1.0  0.0097
  C  C209  1  0.001250  0.253290  0.069490  1.0  -0.0776
  C  C210  1  0.037410  0.320060  0.081390  1.0  -0.1664
  C  C211  1  0.084890  0.320360  0.120490  1.0  0.0081
  C  C212  1  0.025960  0.387950  0.051340  1.0  0.6799
  C  C213  1  0.976430  0.117700  0.078730  1.0  0.0243
  C  C214  1  0.009770  0.084220  0.040470  1.0  -0.1243
  C  C215  1  0.347460  0.245150  0.186470  1.0  0.6862
  C  C216  1  0.403540  0.244280  0.146610  1.0  -0.1559
  C  C217  1  0.441180  0.309460  0.134320  1.0  -0.0764
  C  C218  1  0.488710  0.311140  0.095840  1.0  0.0096
  C  C219  1  0.498750  0.246710  0.069490  1.0  -0.0776
  C  C220  1  0.462590  0.179940  0.081390  1.0  -0.1675
  C  C221  1  0.415110  0.179640  0.120490  1.0  0.0089
  C  C222  1  0.474040  0.112050  0.051340  1.0  0.6801
  C  C223  1  0.523570  0.382300  0.078730  1.0  0.0243
  C  C224  1  0.490230  0.415780  0.040470  1.0  -0.1252
  C  C225  1  0.245150  0.347460  0.813530  1.0  0.6869
  C  C226  1  0.244280  0.403540  0.853390  1.0  -0.1543
  C  C227  1  0.309460  0.441180  0.865680  1.0  -0.0751
  C  C228  1  0.311140  0.488710  0.904160  1.0  0.0098
  C  C229  1  0.246710  0.498750  0.930510  1.0  -0.0779
  C  C230  1  0.179940  0.462590  0.918610  1.0  -0.1675
  C  C231  1  0.179640  0.415110  0.879510  1.0  0.0093
  C  C232  1  0.112050  0.474040  0.948660  1.0  0.6811
  C  C233  1  0.382300  0.523570  0.921270  1.0  0.0246
  C  C234  1  0.415780  0.490230  0.959530  1.0  -0.1269
  C  C235  1  0.254850  0.152540  0.813530  1.0  0.6872
  C  C236  1  0.255720  0.096460  0.853390  1.0  -0.1546
  C  C237  1  0.190540  0.058820  0.865680  1.0  -0.0754
  C  C238  1  0.188860  0.011290  0.904160  1.0  0.0096
  C  C239  1  0.253290  0.001250  0.930510  1.0  -0.0777
  C  C240  1  0.320060  0.037410  0.918610  1.0  -0.1664
  C  C241  1  0.320360  0.084890  0.879510  1.0  0.0098
  C  C242  1  0.387950  0.025960  0.948660  1.0  0.6807
  C  C243  1  0.117700  0.976430  0.921270  1.0  0.0245
  C  C244  1  0.084220  0.009770  0.959530  1.0  -0.1256
  C  C245  1  0.347460  0.254850  0.313530  1.0  0.6862
  C  C246  1  0.403540  0.255720  0.353390  1.0  -0.1546
  C  C247  1  0.441180  0.190540  0.365680  1.0  -0.0762
  C  C248  1  0.488710  0.188860  0.404160  1.0  0.0096
  C  C249  1  0.498750  0.253290  0.430510  1.0  -0.0772
  C  C250  1  0.462590  0.320060  0.418610  1.0  -0.1672
  C  C251  1  0.415110  0.320360  0.379510  1.0  0.0093
  C  C252  1  0.474040  0.387950  0.448660  1.0  0.68
  C  C253  1  0.523570  0.117700  0.421270  1.0  0.0229
  C  C254  1  0.490230  0.084220  0.459530  1.0  -0.1266
  C  C255  1  0.152540  0.245150  0.313530  1.0  0.6859
  C  C256  1  0.096460  0.244280  0.353390  1.0  -0.1547
  C  C257  1  0.058820  0.309460  0.365680  1.0  -0.0754
  C  C258  1  0.011290  0.311140  0.404160  1.0  0.0093
  C  C259  1  0.001250  0.246710  0.430510  1.0  -0.0779
  C  C260  1  0.037410  0.179940  0.418610  1.0  -0.1674
  C  C261  1  0.084890  0.179640  0.379510  1.0  0.0082
  C  C262  1  0.025960  0.112050  0.448660  1.0  0.68
  C  C263  1  0.976430  0.382300  0.421270  1.0  0.0244
  C  C264  1  0.009770  0.415780  0.459530  1.0  -0.1256
  C  C265  1  0.981660  0.481660  0.479460  1.0  0.0211
  C  C266  1  0.913050  0.413050  0.401430  1.0  0.1995
  C  C267  1  0.825400  0.325400  0.371100  1.0  -0.0126
  C  C268  1  0.518340  0.018340  0.479460  1.0  0.0226
  C  C269  1  0.586950  0.086950  0.401430  1.0  0.1989
  C  C270  1  0.674600  0.174600  0.371100  1.0  -0.0148
  C  C271  1  0.018340  0.981660  0.979460  1.0  0.0222
  C  C272  1  0.086950  0.913050  0.901430  1.0  0.1995
  C  C273  1  0.174600  0.825400  0.871100  1.0  -0.0133
  C  C274  1  0.481660  0.518340  0.979460  1.0  0.0217
  C  C275  1  0.413050  0.586950  0.901430  1.0  0.1989
  C  C276  1  0.325400  0.674600  0.871100  1.0  -0.014
  C  C277  1  0.518340  0.481660  0.020540  1.0  0.0222
  C  C278  1  0.586950  0.413050  0.098570  1.0  0.1996
  C  C279  1  0.674600  0.325400  0.128900  1.0  -0.0128
  C  C280  1  0.981660  0.018340  0.020540  1.0  0.0212
  C  C281  1  0.913050  0.086950  0.098570  1.0  0.1995
  C  C282  1  0.825400  0.174600  0.128900  1.0  -0.0136
  C  C283  1  0.481660  0.981660  0.520540  1.0  0.021
  C  C284  1  0.413050  0.913050  0.598570  1.0  0.1997
  C  C285  1  0.325400  0.825400  0.628900  1.0  -0.0125
  C  C286  1  0.018340  0.518340  0.520540  1.0  0.0223
  C  C287  1  0.086950  0.586950  0.598570  1.0  0.1994
  C  C288  1  0.174600  0.674600  0.628900  1.0  -0.014
  O  O289  1  0.683680  0.681580  0.303190  1.0  -0.5559
  O  O290  1  0.807010  0.665710  0.294510  1.0  -0.5678
  O  O291  1  0.551940  0.555850  0.434630  1.0  -0.5721
  O  O292  1  0.620510  0.487950  0.485560  1.0  -0.578
  O  O293  1  0.816320  0.818420  0.303190  1.0  -0.5539
  O  O294  1  0.692990  0.834290  0.294510  1.0  -0.5679
  O  O295  1  0.948060  0.944150  0.434630  1.0  -0.5714
  O  O296  1  0.879490  0.012050  0.485560  1.0  -0.5776
  O  O297  1  0.818420  0.683680  0.803190  1.0  -0.5558
  O  O298  1  0.834290  0.807010  0.794510  1.0  -0.5688
  O  O299  1  0.944150  0.551940  0.934630  1.0  -0.5718
  O  O300  1  0.012050  0.620510  0.985560  1.0  -0.5786
  O  O301  1  0.681580  0.816320  0.803190  1.0  -0.5524
  O  O302  1  0.665710  0.692990  0.794510  1.0  -0.5706
  O  O303  1  0.555850  0.948060  0.934630  1.0  -0.5717
  O  O304  1  0.487950  0.879490  0.985560  1.0  -0.5776
  O  O305  1  0.816320  0.681580  0.196810  1.0  -0.5541
  O  O306  1  0.692990  0.665710  0.205490  1.0  -0.568
  O  O307  1  0.948060  0.555850  0.065370  1.0  -0.572
  O  O308  1  0.879490  0.487950  0.014440  1.0  -0.5776
  O  O309  1  0.683680  0.818420  0.196810  1.0  -0.5552
  O  O310  1  0.807010  0.834290  0.205490  1.0  -0.5686
  O  O311  1  0.551940  0.944150  0.065370  1.0  -0.5736
  O  O312  1  0.620510  0.012050  0.014440  1.0  -0.5773
  O  O313  1  0.681580  0.683680  0.696810  1.0  -0.5548
  O  O314  1  0.665710  0.807010  0.705490  1.0  -0.5692
  O  O315  1  0.555850  0.551940  0.565370  1.0  -0.5736
  O  O316  1  0.487950  0.620510  0.514440  1.0  -0.5771
  O  O317  1  0.818420  0.816320  0.696810  1.0  -0.5528
  O  O318  1  0.834290  0.692990  0.705490  1.0  -0.5707
  O  O319  1  0.944150  0.948060  0.565370  1.0  -0.5731
  O  O320  1  0.012050  0.879490  0.514440  1.0  -0.5781
  O  O321  1  0.316320  0.318420  0.696810  1.0  -0.5542
  O  O322  1  0.192990  0.334290  0.705490  1.0  -0.568
  O  O323  1  0.448060  0.444150  0.565370  1.0  -0.5726
  O  O324  1  0.379490  0.512050  0.514440  1.0  -0.577
  O  O325  1  0.183680  0.181580  0.696810  1.0  -0.5554
  O  O326  1  0.307010  0.165710  0.705490  1.0  -0.5681
  O  O327  1  0.051940  0.055850  0.565370  1.0  -0.5729
  O  O328  1  0.120510  0.987950  0.514440  1.0  -0.5781
  O  O329  1  0.181580  0.316320  0.196810  1.0  -0.5523
  O  O330  1  0.165710  0.192990  0.205490  1.0  -0.5705
  O  O331  1  0.055850  0.448060  0.065370  1.0  -0.5727
  O  O332  1  0.987950  0.379490  0.014440  1.0  -0.5775
  O  O333  1  0.318420  0.183680  0.196810  1.0  -0.5556
  O  O334  1  0.334290  0.307010  0.205490  1.0  -0.5691
  O  O335  1  0.444150  0.051940  0.065370  1.0  -0.5726
  O  O336  1  0.512050  0.120510  0.014440  1.0  -0.5777
  O  O337  1  0.183680  0.318420  0.803190  1.0  -0.5555
  O  O338  1  0.307010  0.334290  0.794510  1.0  -0.5683
  O  O339  1  0.051940  0.444150  0.934630  1.0  -0.572
  O  O340  1  0.120510  0.512050  0.985560  1.0  -0.5778
  O  O341  1  0.316320  0.181580  0.803190  1.0  -0.5541
  O  O342  1  0.192990  0.165710  0.794510  1.0  -0.568
  O  O343  1  0.448060  0.055850  0.934630  1.0  -0.5716
  O  O344  1  0.379490  0.987950  0.985560  1.0  -0.5778
  O  O345  1  0.318420  0.316320  0.303190  1.0  -0.553
  O  O346  1  0.334290  0.192990  0.294510  1.0  -0.5708
  O  O347  1  0.444150  0.448060  0.434630  1.0  -0.5719
  O  O348  1  0.512050  0.379490  0.485560  1.0  -0.5784
  O  O349  1  0.181580  0.183680  0.303190  1.0  -0.555
  O  O350  1  0.165710  0.307010  0.294510  1.0  -0.569
  O  O351  1  0.055850  0.051940  0.434630  1.0  -0.5719
  O  O352  1  0.987950  0.120510  0.485560  1.0  -0.5779
  O  O353  1  0.880400  0.380400  0.361150  1.0  -0.2884
  O  O354  1  0.619600  0.119600  0.361150  1.0  -0.2884
  O  O355  1  0.119600  0.880400  0.861150  1.0  -0.2875
  O  O356  1  0.380400  0.619600  0.861150  1.0  -0.2894
  O  O357  1  0.619600  0.380400  0.138850  1.0  -0.2911
  O  O358  1  0.880400  0.119600  0.138850  1.0  -0.2902
  O  O359  1  0.380400  0.880400  0.638850  1.0  -0.2903
  O  O360  1  0.119600  0.619600  0.638850  1.0  -0.2911
