# generated using pymatgen
data_CuH12(C3N2)4
_symmetry_space_group_name_H-M   'P 1'
_cell_length_a   9.03200000
_cell_length_b   9.03200000
_cell_length_c   31.32200000
_cell_angle_alpha   90.00000000
_cell_angle_beta   90.00000000
_cell_angle_gamma   90.00000000
_symmetry_Int_Tables_number   1
_chemical_formula_structural   CuH12(C3N2)4
_chemical_formula_sum   'Cu4 H48 C48 N32'
_cell_volume   2555.15554573
_cell_formula_units_Z   4
loop_
 _symmetry_equiv_pos_site_id
 _symmetry_equiv_pos_as_xyz
  1  'x, y, z'
loop_
 _atom_site_type_symbol
 _atom_site_label
 _atom_site_symmetry_multiplicity
 _atom_site_fract_x
 _atom_site_fract_y
 _atom_site_fract_z
 _atom_site_occupancy
 _atom_site_charge
  Cu  Cu1  1  0.732620  0.732620  0.000000  1.0  0.4825
  Cu  Cu2  1  0.267380  0.267380  0.500000  1.0  0.4827
  Cu  Cu3  1  0.767380  0.232620  0.750000  1.0  0.4829
  Cu  Cu4  1  0.232620  0.767380  0.250000  1.0  0.4823
  H  H5  1  0.560000  0.778000  0.090300  1.0  0.0881
  H  H6  1  0.634000  0.421000  0.023400  1.0  0.2422
  H  H7  1  0.523000  0.337000  0.082900  1.0  0.2506
  H  H8  1  0.372000  0.341000  0.163500  1.0  0.2301
  H  H9  1  0.289000  0.448000  0.225600  1.0  0.2695
  H  H10  1  0.407000  0.780000  0.161900  1.0  0.076
  H  H11  1  0.440000  0.222000  0.590300  1.0  0.0876
  H  H12  1  0.366000  0.579000  0.523400  1.0  0.2411
  H  H13  1  0.477000  0.663000  0.582900  1.0  0.2515
  H  H14  1  0.628000  0.659000  0.663500  1.0  0.23
  H  H15  1  0.711000  0.552000  0.725600  1.0  0.2701
  H  H16  1  0.593000  0.220000  0.661900  1.0  0.0751
  H  H17  1  0.722000  0.060000  0.840300  1.0  0.0856
  H  H18  1  0.079000  0.134000  0.773400  1.0  0.2414
  H  H19  1  0.163000  0.023000  0.832900  1.0  0.245
  H  H20  1  0.159000  0.872000  0.913500  1.0  0.2321
  H  H21  1  0.052000  0.789000  0.975600  1.0  0.2691
  H  H22  1  0.720000  0.907000  0.911900  1.0  0.0743
  H  H23  1  0.278000  0.940000  0.340300  1.0  0.0846
  H  H24  1  0.921000  0.866000  0.273400  1.0  0.2413
  H  H25  1  0.837000  0.977000  0.332900  1.0  0.2498
  H  H26  1  0.841000  0.128000  0.413500  1.0  0.2323
  H  H27  1  0.948000  0.211000  0.475600  1.0  0.2698
  H  H28  1  0.280000  0.093000  0.411900  1.0  0.074
  H  H29  1  0.940000  0.278000  0.659700  1.0  0.0884
  H  H30  1  0.866000  0.921000  0.726600  1.0  0.2406
  H  H31  1  0.977000  0.837000  0.667100  1.0  0.2493
  H  H32  1  0.128000  0.841000  0.586500  1.0  0.2311
  H  H33  1  0.211000  0.948000  0.524400  1.0  0.2699
  H  H34  1  0.093000  0.280000  0.588100  1.0  0.0763
  H  H35  1  0.060000  0.722000  0.159700  1.0  0.0882
  H  H36  1  0.134000  0.079000  0.226600  1.0  0.2407
  H  H37  1  0.023000  0.163000  0.167100  1.0  0.2527
  H  H38  1  0.872000  0.159000  0.086500  1.0  0.2302
  H  H39  1  0.789000  0.052000  0.024400  1.0  0.2688
  H  H40  1  0.907000  0.720000  0.088100  1.0  0.0753
  H  H41  1  0.778000  0.560000  0.909700  1.0  0.0852
  H  H42  1  0.421000  0.634000  0.976600  1.0  0.2409
  H  H43  1  0.337000  0.523000  0.917100  1.0  0.2503
  H  H44  1  0.341000  0.372000  0.836500  1.0  0.2325
  H  H45  1  0.448000  0.289000  0.774400  1.0  0.2683
  H  H46  1  0.780000  0.407000  0.838100  1.0  0.0734
  H  H47  1  0.222000  0.440000  0.409700  1.0  0.0863
  H  H48  1  0.579000  0.366000  0.476600  1.0  0.2406
  H  H49  1  0.663000  0.477000  0.417100  1.0  0.2461
  H  H50  1  0.659000  0.628000  0.336500  1.0  0.232
  H  H51  1  0.552000  0.711000  0.274400  1.0  0.2687
  H  H52  1  0.220000  0.593000  0.338100  1.0  0.0745
  C  C53  1  0.562300  0.663800  0.081290  1.0  0.1023
  C  C54  1  0.501200  0.544200  0.103540  1.0  -0.1104
  C  C55  1  0.533200  0.423800  0.078700  1.0  0.0016
  C  C56  1  0.394900  0.675300  0.168660  1.0  0.0013
  C  C57  1  0.425800  0.549600  0.144640  1.0  -0.1101
  C  C58  1  0.372300  0.435400  0.169010  1.0  -0.0749
  C  C59  1  0.437700  0.336200  0.581290  1.0  0.103
  C  C60  1  0.498800  0.455800  0.603540  1.0  -0.1104
  C  C61  1  0.466800  0.576200  0.578700  1.0  0.0053
  C  C62  1  0.605100  0.324700  0.668660  1.0  0.0019
  C  C63  1  0.574200  0.450400  0.644640  1.0  -0.1097
  C  C64  1  0.627700  0.564600  0.669010  1.0  -0.0753
  C  C65  1  0.836200  0.062300  0.831290  1.0  0.1007
  C  C66  1  0.955800  0.001200  0.853540  1.0  -0.1097
  C  C67  1  0.076200  0.033200  0.828700  1.0  0.0059
  C  C68  1  0.824700  0.894900  0.918660  1.0  0.0017
  C  C69  1  0.950400  0.925800  0.894640  1.0  -0.1096
  C  C70  1  0.064600  0.872300  0.919010  1.0  -0.0705
  C  C71  1  0.163800  0.937700  0.331290  1.0  0.1029
  C  C72  1  0.044200  0.998800  0.353540  1.0  -0.1097
  C  C73  1  0.923800  0.966800  0.328700  1.0  0.003
  C  C74  1  0.175300  0.105100  0.418660  1.0  0.0041
  C  C75  1  0.049600  0.074200  0.394640  1.0  -0.1104
  C  C76  1  0.935400  0.127700  0.419010  1.0  -0.0752
  C  C77  1  0.937700  0.163800  0.668710  1.0  0.1022
  C  C78  1  0.998800  0.044200  0.646460  1.0  -0.1095
  C  C79  1  0.966800  0.923800  0.671300  1.0  0.0027
  C  C80  1  0.105100  0.175300  0.581340  1.0  0.0011
  C  C81  1  0.074200  0.049600  0.605360  1.0  -0.1104
  C  C82  1  0.127700  0.935400  0.580990  1.0  -0.0762
  C  C83  1  0.062300  0.836200  0.168710  1.0  0.1025
  C  C84  1  0.001200  0.955800  0.146460  1.0  -0.1094
  C  C85  1  0.033200  0.076200  0.171300  1.0  0.0057
  C  C86  1  0.894900  0.824700  0.081340  1.0  0.0025
  C  C87  1  0.925800  0.950400  0.105360  1.0  -0.1105
  C  C88  1  0.872300  0.064600  0.080990  1.0  -0.076
  C  C89  1  0.663800  0.562300  0.918710  1.0  0.1029
  C  C90  1  0.544200  0.501200  0.896460  1.0  -0.109
  C  C91  1  0.423800  0.533200  0.921300  1.0  0.0035
  C  C92  1  0.675300  0.394900  0.831340  1.0  0.0036
  C  C93  1  0.549600  0.425800  0.855360  1.0  -0.1097
  C  C94  1  0.435400  0.372300  0.830990  1.0  -0.0756
  C  C95  1  0.336200  0.437700  0.418710  1.0  0.1001
  C  C96  1  0.455800  0.498800  0.396460  1.0  -0.1087
  C  C97  1  0.576200  0.466800  0.421300  1.0  0.0063
  C  C98  1  0.324700  0.605100  0.331340  1.0  0.0033
  C  C99  1  0.450400  0.574200  0.355360  1.0  -0.1103
  C  C100  1  0.564600  0.627700  0.330990  1.0  -0.0709
  N  N101  1  0.626500  0.618400  0.045150  1.0  -0.3225
  N  N102  1  0.607000  0.471000  0.044270  1.0  -0.233
  N  N103  1  0.326500  0.640600  0.205100  1.0  -0.2852
  N  N104  1  0.314600  0.492100  0.204370  1.0  -0.3675
  N  N105  1  0.373500  0.381600  0.545150  1.0  -0.3239
  N  N106  1  0.393000  0.529000  0.544270  1.0  -0.2298
  N  N107  1  0.673500  0.359400  0.705100  1.0  -0.2866
  N  N108  1  0.685400  0.507900  0.704370  1.0  -0.3675
  N  N109  1  0.881600  0.126500  0.795150  1.0  -0.323
  N  N110  1  0.029000  0.107000  0.794270  1.0  -0.2311
  N  N111  1  0.859400  0.826500  0.955100  1.0  -0.2872
  N  N112  1  0.007900  0.814600  0.954370  1.0  -0.3667
  N  N113  1  0.118400  0.873500  0.295150  1.0  -0.3241
  N  N114  1  0.971000  0.893000  0.294270  1.0  -0.2334
  N  N115  1  0.140600  0.173500  0.455100  1.0  -0.2891
  N  N116  1  0.992100  0.185400  0.454370  1.0  -0.3691
  N  N117  1  0.873500  0.118400  0.704850  1.0  -0.3233
  N  N118  1  0.893000  0.971000  0.705730  1.0  -0.2321
  N  N119  1  0.173500  0.140600  0.544900  1.0  -0.2861
  N  N120  1  0.185400  0.992100  0.545630  1.0  -0.3665
  N  N121  1  0.126500  0.881600  0.204850  1.0  -0.3217
  N  N122  1  0.107000  0.029000  0.205730  1.0  -0.2297
  N  N123  1  0.826500  0.859400  0.044900  1.0  -0.287
  N  N124  1  0.814600  0.007900  0.045630  1.0  -0.3644
  N  N125  1  0.618400  0.626500  0.954850  1.0  -0.3234
  N  N126  1  0.471000  0.607000  0.955730  1.0  -0.2325
  N  N127  1  0.640600  0.326500  0.794900  1.0  -0.2898
  N  N128  1  0.492100  0.314600  0.795630  1.0  -0.3665
  N  N129  1  0.381600  0.373500  0.454850  1.0  -0.3229
  N  N130  1  0.529000  0.393000  0.455730  1.0  -0.2313
  N  N131  1  0.359400  0.673500  0.294900  1.0  -0.2871
  N  N132  1  0.507900  0.685400  0.295630  1.0  -0.3654
