# generated using pymatgen
data_CdH42C42N12(ClO4)2
_symmetry_space_group_name_H-M   'P 1'
_cell_length_a   20.78300000
_cell_length_b   20.78300000
_cell_length_c   23.13500000
_cell_angle_alpha   63.30960000
_cell_angle_beta   63.30970000
_cell_angle_gamma   60.00000000
_symmetry_Int_Tables_number   1
_chemical_formula_structural   CdH42C42N12(ClO4)2
_chemical_formula_sum   'Cd6 H252 C252 N72 Cl12 O48'
_cell_volume   7399.02274423
_cell_formula_units_Z   6
loop_
 _symmetry_equiv_pos_site_id
 _symmetry_equiv_pos_as_xyz
  1  'x, y, z'
loop_
 _atom_site_type_symbol
 _atom_site_label
 _atom_site_symmetry_multiplicity
 _atom_site_fract_x
 _atom_site_fract_y
 _atom_site_fract_z
 _atom_site_occupancy
 _atom_site_charge
  Cd  Cd1  1  0.000000  0.000000  0.000000  1.0  0.9261
  Cd  Cd2  1  0.500000  0.500000  0.500000  1.0  0.7101
  Cd  Cd3  1  0.156550  0.156550  0.530350  1.0  0.699
  Cd  Cd4  1  0.656110  0.656110  0.031670  1.0  0.6779
  Cd  Cd5  1  0.843450  0.843450  0.469650  1.0  0.7025
  Cd  Cd6  1  0.343890  0.343890  0.968330  1.0  0.6758
  H  H7  1  0.822000  0.099100  0.968800  1.0  0.0935
  H  H8  1  0.997800  0.167100  0.863500  1.0  0.107
  H  H9  1  0.889300  0.264300  0.817600  1.0  0.1178
  H  H10  1  0.725200  0.282200  0.893800  1.0  0.1058
  H  H11  1  0.722400  0.200200  0.909700  1.0  0.1002
  H  H12  1  0.815000  0.142900  0.802900  1.0  0.1016
  H  H13  1  0.699000  0.369000  0.789400  1.0  0.0913
  H  H14  1  0.821000  0.169700  0.693100  1.0  0.094
  H  H15  1  0.706900  0.397400  0.678100  1.0  0.1226
  H  H16  1  0.789200  0.347000  0.574000  1.0  0.1003
  H  H17  1  0.803700  0.259200  0.586300  1.0  0.1211
  H  H18  1  0.675400  0.438800  0.526300  1.0  0.099
  H  H19  1  0.652000  0.240800  0.661900  1.0  0.1142
  H  H20  1  0.534500  0.325800  0.624700  1.0  0.1081
  H  H21  1  0.099100  0.110100  0.968800  1.0  0.093
  H  H22  1  0.167100  0.971600  0.863500  1.0  0.1043
  H  H23  1  0.264300  0.028800  0.817600  1.0  0.1169
  H  H24  1  0.282200  0.098800  0.893800  1.0  0.1051
  H  H25  1  0.200200  0.167700  0.909700  1.0  0.0982
  H  H26  1  0.142900  0.239200  0.802900  1.0  0.1032
  H  H27  1  0.369000  0.142600  0.789400  1.0  0.0909
  H  H28  1  0.169700  0.316200  0.693100  1.0  0.0949
  H  H29  1  0.397400  0.217600  0.678100  1.0  0.122
  H  H30  1  0.347000  0.289800  0.574000  1.0  0.0981
  H  H31  1  0.259200  0.350800  0.586300  1.0  0.1208
  H  H32  1  0.438800  0.359500  0.526300  1.0  0.0984
  H  H33  1  0.240800  0.445300  0.661900  1.0  0.1135
  H  H34  1  0.325800  0.515000  0.624700  1.0  0.107
  H  H35  1  0.110100  0.822000  0.968800  1.0  0.0931
  H  H36  1  0.971600  0.997800  0.863500  1.0  0.1021
  H  H37  1  0.028800  0.889300  0.817600  1.0  0.1184
  H  H38  1  0.098800  0.725200  0.893800  1.0  0.1055
  H  H39  1  0.167700  0.722400  0.909700  1.0  0.0995
  H  H40  1  0.239200  0.815000  0.802900  1.0  0.1012
  H  H41  1  0.142600  0.699000  0.789400  1.0  0.0916
  H  H42  1  0.316200  0.821000  0.693100  1.0  0.0948
  H  H43  1  0.217600  0.706900  0.678100  1.0  0.121
  H  H44  1  0.289800  0.789200  0.574000  1.0  0.0977
  H  H45  1  0.350800  0.803700  0.586300  1.0  0.1208
  H  H46  1  0.359500  0.675400  0.526300  1.0  0.0988
  H  H47  1  0.445300  0.652000  0.661900  1.0  0.1153
  H  H48  1  0.515000  0.534500  0.624700  1.0  0.1102
  H  H49  1  0.178000  0.900900  0.031200  1.0  0.0936
  H  H50  1  0.002200  0.832900  0.136500  1.0  0.1074
  H  H51  1  0.110700  0.735700  0.182400  1.0  0.1178
  H  H52  1  0.274800  0.717800  0.106200  1.0  0.1045
  H  H53  1  0.277600  0.799800  0.090300  1.0  0.0999
  H  H54  1  0.185000  0.857100  0.197100  1.0  0.1026
  H  H55  1  0.301000  0.631000  0.210600  1.0  0.0914
  H  H56  1  0.179000  0.830300  0.306900  1.0  0.0944
  H  H57  1  0.293100  0.602600  0.321900  1.0  0.121
  H  H58  1  0.210800  0.653000  0.426000  1.0  0.1003
  H  H59  1  0.196300  0.740800  0.413700  1.0  0.1205
  H  H60  1  0.324600  0.561200  0.473700  1.0  0.0985
  H  H61  1  0.348000  0.759200  0.338100  1.0  0.1138
  H  H62  1  0.465500  0.674200  0.375300  1.0  0.107
  H  H63  1  0.900900  0.889900  0.031200  1.0  0.0922
  H  H64  1  0.832900  0.028400  0.136500  1.0  0.1031
  H  H65  1  0.735700  0.971200  0.182400  1.0  0.1174
  H  H66  1  0.717800  0.901200  0.106200  1.0  0.1055
  H  H67  1  0.799800  0.832300  0.090300  1.0  0.0984
  H  H68  1  0.857100  0.760800  0.197100  1.0  0.1035
  H  H69  1  0.631000  0.857400  0.210600  1.0  0.0916
  H  H70  1  0.830300  0.683800  0.306900  1.0  0.0942
  H  H71  1  0.602600  0.782400  0.321900  1.0  0.1212
  H  H72  1  0.653000  0.710200  0.426000  1.0  0.0995
  H  H73  1  0.740800  0.649200  0.413700  1.0  0.1211
  H  H74  1  0.561200  0.640500  0.473700  1.0  0.0984
  H  H75  1  0.759200  0.554700  0.338100  1.0  0.1127
  H  H76  1  0.674200  0.485000  0.375300  1.0  0.1083
  H  H77  1  0.889900  0.178000  0.031200  1.0  0.0933
  H  H78  1  0.028400  0.002200  0.136500  1.0  0.1025
  H  H79  1  0.971200  0.110700  0.182400  1.0  0.1188
  H  H80  1  0.901200  0.274800  0.106200  1.0  0.1048
  H  H81  1  0.832300  0.277600  0.090300  1.0  0.0991
  H  H82  1  0.760800  0.185000  0.197100  1.0  0.1007
  H  H83  1  0.857400  0.301000  0.210600  1.0  0.0916
  H  H84  1  0.683800  0.179000  0.306900  1.0  0.0944
  H  H85  1  0.782400  0.293100  0.321900  1.0  0.1209
  H  H86  1  0.710200  0.210800  0.426000  1.0  0.098
  H  H87  1  0.649200  0.196300  0.413700  1.0  0.1204
  H  H88  1  0.640500  0.324600  0.473700  1.0  0.0987
  H  H89  1  0.554700  0.348000  0.338100  1.0  0.115
  H  H90  1  0.485000  0.465500  0.375300  1.0  0.111
  H  H91  1  0.984100  0.298200  0.503200  1.0  0.0966
  H  H92  1  0.016000  0.235700  0.350200  1.0  0.1113
  H  H93  1  0.130500  0.157000  0.391900  1.0  0.0946
  H  H94  1  0.873600  0.376000  0.452800  1.0  0.0772
  H  H95  1  0.860700  0.318100  0.434800  1.0  0.0965
  H  H96  1  0.943100  0.464400  0.352300  1.0  0.1207
  H  H97  1  0.843000  0.356700  0.330100  1.0  0.1224
  H  H98  1  0.942900  0.549100  0.244300  1.0  0.0954
  H  H99  1  0.847800  0.440300  0.219100  1.0  0.1099
  H  H100  1  0.913000  0.598100  0.143500  1.0  0.1122
  H  H101  1  0.931200  0.528600  0.118900  1.0  0.1072
  H  H102  1  0.748800  0.659300  0.212800  1.0  0.1194
  H  H103  1  0.833000  0.563400  0.064900  1.0  0.0942
  H  H104  1  0.645300  0.703100  0.161800  1.0  0.1023
  H  H105  1  0.327000  0.007700  0.561400  1.0  0.0926
  H  H106  1  0.199400  0.175400  0.650800  1.0  0.1033
  H  H107  1  0.323100  0.102500  0.680800  1.0  0.1211
  H  H108  1  0.446400  0.937800  0.601600  1.0  0.1123
  H  H109  1  0.466800  0.996600  0.611200  1.0  0.108
  H  H110  1  0.317800  0.923600  0.731800  1.0  0.0822
  H  H111  1  0.532200  0.905700  0.693400  1.0  0.0956
  H  H112  1  0.313400  0.852200  0.842500  1.0  0.1026
  H  H113  1  0.534900  0.818700  0.799900  1.0  0.1071
  H  H114  1  0.388700  0.823600  0.935200  1.0  0.1094
  H  H115  1  0.380800  0.757500  0.924100  1.0  0.1052
  H  H116  1  0.487700  0.769100  0.989300  1.0  0.0989
  H  H117  1  0.547500  0.659000  0.858400  1.0  0.1138
  H  H118  1  0.650800  0.599400  0.911300  1.0  0.0926
  H  H119  1  0.298200  0.214500  0.503200  1.0  0.0963
  H  H120  1  0.235700  0.398100  0.350200  1.0  0.1119
  H  H121  1  0.157000  0.320600  0.391900  1.0  0.1008
  H  H122  1  0.376000  0.297600  0.452800  1.0  0.0778
  H  H123  1  0.318100  0.386400  0.434800  1.0  0.0958
  H  H124  1  0.464400  0.240200  0.352300  1.0  0.1202
  H  H125  1  0.356700  0.470200  0.330100  1.0  0.122
  H  H126  1  0.549100  0.263700  0.244300  1.0  0.0959
  H  H127  1  0.440300  0.492800  0.219100  1.0  0.1111
  H  H128  1  0.598100  0.345400  0.143500  1.0  0.1127
  H  H129  1  0.528600  0.421300  0.118900  1.0  0.1076
  H  H130  1  0.659300  0.379100  0.212800  1.0  0.1202
  H  H131  1  0.563400  0.538700  0.064900  1.0  0.0951
  H  H132  1  0.703100  0.489800  0.161800  1.0  0.1028
  H  H133  1  0.007700  0.103900  0.561400  1.0  0.0914
  H  H134  1  0.175400  0.974400  0.650800  1.0  0.1068
  H  H135  1  0.102500  0.893600  0.680800  1.0  0.1211
  H  H136  1  0.937800  0.014200  0.601600  1.0  0.1151
  H  H137  1  0.996600  0.925400  0.611200  1.0  0.1076
  H  H138  1  0.923600  0.026800  0.731800  1.0  0.081
  H  H139  1  0.905700  0.868700  0.693400  1.0  0.0944
  H  H140  1  0.852200  0.991900  0.842500  1.0  0.1021
  H  H141  1  0.818700  0.846500  0.799900  1.0  0.1082
  H  H142  1  0.823600  0.852500  0.935200  1.0  0.1105
  H  H143  1  0.757500  0.937600  0.924100  1.0  0.1046
  H  H144  1  0.769100  0.753900  0.989300  1.0  0.099
  H  H145  1  0.659000  0.935100  0.858400  1.0  0.1144
  H  H146  1  0.599400  0.838500  0.911300  1.0  0.0961
  H  H147  1  0.214500  0.984100  0.503200  1.0  0.0966
  H  H148  1  0.398100  0.016000  0.350200  1.0  0.1113
  H  H149  1  0.320600  0.130500  0.391900  1.0  0.1023
  H  H150  1  0.297600  0.873600  0.452800  1.0  0.078
  H  H151  1  0.386400  0.860700  0.434800  1.0  0.0959
  H  H152  1  0.240200  0.943100  0.352300  1.0  0.1191
  H  H153  1  0.470200  0.843000  0.330100  1.0  0.1219
  H  H154  1  0.263700  0.942900  0.244300  1.0  0.0956
  H  H155  1  0.492800  0.847800  0.219100  1.0  0.1128
  H  H156  1  0.345400  0.913000  0.143500  1.0  0.1134
  H  H157  1  0.421300  0.931200  0.118900  1.0  0.1091
  H  H158  1  0.379100  0.748800  0.212800  1.0  0.1193
  H  H159  1  0.538700  0.833000  0.064900  1.0  0.0945
  H  H160  1  0.489800  0.645300  0.161800  1.0  0.1047
  H  H161  1  0.103900  0.327000  0.561400  1.0  0.0933
  H  H162  1  0.974400  0.199400  0.650800  1.0  0.1076
  H  H163  1  0.893600  0.323100  0.680800  1.0  0.1204
  H  H164  1  0.014200  0.446400  0.601600  1.0  0.1151
  H  H165  1  0.925400  0.466800  0.611200  1.0  0.1084
  H  H166  1  0.026800  0.317800  0.731800  1.0  0.0819
  H  H167  1  0.868700  0.532200  0.693400  1.0  0.0959
  H  H168  1  0.991900  0.313400  0.842500  1.0  0.1004
  H  H169  1  0.846500  0.534900  0.799900  1.0  0.1079
  H  H170  1  0.852500  0.388700  0.935200  1.0  0.1113
  H  H171  1  0.937600  0.380800  0.924100  1.0  0.1047
  H  H172  1  0.753900  0.487700  0.989300  1.0  0.1006
  H  H173  1  0.935100  0.547500  0.858400  1.0  0.1136
  H  H174  1  0.838500  0.650800  0.911300  1.0  0.0935
  H  H175  1  0.015900  0.701800  0.496800  1.0  0.0971
  H  H176  1  0.984000  0.764300  0.649800  1.0  0.1117
  H  H177  1  0.869500  0.843000  0.608100  1.0  0.0946
  H  H178  1  0.126400  0.624000  0.547200  1.0  0.0769
  H  H179  1  0.139300  0.681900  0.565200  1.0  0.0962
  H  H180  1  0.056900  0.535600  0.647700  1.0  0.1214
  H  H181  1  0.157000  0.643300  0.669900  1.0  0.1222
  H  H182  1  0.057100  0.450900  0.755700  1.0  0.0954
  H  H183  1  0.152200  0.559700  0.780900  1.0  0.109
  H  H184  1  0.087000  0.401900  0.856500  1.0  0.1147
  H  H185  1  0.068800  0.471400  0.881100  1.0  0.1071
  H  H186  1  0.251200  0.340700  0.787200  1.0  0.1196
  H  H187  1  0.167000  0.436600  0.935100  1.0  0.0941
  H  H188  1  0.354700  0.296900  0.838200  1.0  0.1017
  H  H189  1  0.673000  0.992300  0.438600  1.0  0.0933
  H  H190  1  0.800600  0.824600  0.349200  1.0  0.1029
  H  H191  1  0.676900  0.897500  0.319200  1.0  0.1219
  H  H192  1  0.553600  0.062200  0.398400  1.0  0.1134
  H  H193  1  0.533200  0.003400  0.388800  1.0  0.1072
  H  H194  1  0.682200  0.076400  0.268200  1.0  0.0823
  H  H195  1  0.467800  0.094300  0.306600  1.0  0.0956
  H  H196  1  0.686600  0.147800  0.157500  1.0  0.1031
  H  H197  1  0.465100  0.181300  0.200100  1.0  0.1069
  H  H198  1  0.611300  0.176400  0.064800  1.0  0.1102
  H  H199  1  0.619200  0.242500  0.075900  1.0  0.105
  H  H200  1  0.512300  0.230900  0.010700  1.0  0.099
  H  H201  1  0.452500  0.341000  0.141600  1.0  0.1135
  H  H202  1  0.349200  0.400600  0.088700  1.0  0.0922
  H  H203  1  0.701800  0.785500  0.496800  1.0  0.0964
  H  H204  1  0.764300  0.601900  0.649800  1.0  0.1107
  H  H205  1  0.843000  0.679400  0.608100  1.0  0.1001
  H  H206  1  0.624000  0.702400  0.547200  1.0  0.0786
  H  H207  1  0.681900  0.613600  0.565200  1.0  0.0957
  H  H208  1  0.535600  0.759800  0.647700  1.0  0.1203
  H  H209  1  0.643300  0.529800  0.669900  1.0  0.1231
  H  H210  1  0.450900  0.736300  0.755700  1.0  0.0957
  H  H211  1  0.559700  0.507200  0.780900  1.0  0.1109
  H  H212  1  0.401900  0.654600  0.856500  1.0  0.112
  H  H213  1  0.471400  0.578700  0.881100  1.0  0.1069
  H  H214  1  0.340700  0.620900  0.787200  1.0  0.1194
  H  H215  1  0.436600  0.461300  0.935100  1.0  0.0949
  H  H216  1  0.296900  0.510200  0.838200  1.0  0.1022
  H  H217  1  0.992300  0.896100  0.438600  1.0  0.0922
  H  H218  1  0.824600  0.025600  0.349200  1.0  0.1067
  H  H219  1  0.897500  0.106400  0.319200  1.0  0.1206
  H  H220  1  0.062200  0.985800  0.398400  1.0  0.1158
  H  H221  1  0.003400  0.074600  0.388800  1.0  0.1078
  H  H222  1  0.076400  0.973200  0.268200  1.0  0.0812
  H  H223  1  0.094300  0.131300  0.306600  1.0  0.0955
  H  H224  1  0.147800  0.008100  0.157500  1.0  0.1032
  H  H225  1  0.181300  0.153500  0.200100  1.0  0.1084
  H  H226  1  0.176400  0.147500  0.064800  1.0  0.1109
  H  H227  1  0.242500  0.062400  0.075900  1.0  0.1051
  H  H228  1  0.230900  0.246100  0.010700  1.0  0.0991
  H  H229  1  0.341000  0.064900  0.141600  1.0  0.1138
  H  H230  1  0.400600  0.161500  0.088700  1.0  0.0967
  H  H231  1  0.785500  0.015900  0.496800  1.0  0.0968
  H  H232  1  0.601900  0.984000  0.649800  1.0  0.1107
  H  H233  1  0.679400  0.869500  0.608100  1.0  0.1022
  H  H234  1  0.702400  0.126400  0.547200  1.0  0.0801
  H  H235  1  0.613600  0.139300  0.565200  1.0  0.0955
  H  H236  1  0.759800  0.056900  0.647700  1.0  0.1189
  H  H237  1  0.529800  0.157000  0.669900  1.0  0.1219
  H  H238  1  0.736300  0.057100  0.755700  1.0  0.0959
  H  H239  1  0.507200  0.152200  0.780900  1.0  0.1111
  H  H240  1  0.654600  0.087000  0.856500  1.0  0.1143
  H  H241  1  0.578700  0.068800  0.881100  1.0  0.1119
  H  H242  1  0.620900  0.251200  0.787200  1.0  0.1187
  H  H243  1  0.461300  0.167000  0.935100  1.0  0.0943
  H  H244  1  0.510200  0.354700  0.838200  1.0  0.1048
  H  H245  1  0.896100  0.673000  0.438600  1.0  0.0931
  H  H246  1  0.025600  0.800600  0.349200  1.0  0.1079
  H  H247  1  0.106400  0.676900  0.319200  1.0  0.1208
  H  H248  1  0.985800  0.553600  0.398400  1.0  0.1152
  H  H249  1  0.074600  0.533200  0.388800  1.0  0.1088
  H  H250  1  0.973200  0.682200  0.268200  1.0  0.082
  H  H251  1  0.131300  0.467800  0.306600  1.0  0.0957
  H  H252  1  0.008100  0.686600  0.157500  1.0  0.101
  H  H253  1  0.153500  0.465100  0.200100  1.0  0.108
  H  H254  1  0.147500  0.611300  0.064800  1.0  0.1109
  H  H255  1  0.062400  0.619200  0.075900  1.0  0.1057
  H  H256  1  0.246100  0.512300  0.010700  1.0  0.1007
  H  H257  1  0.064900  0.452500  0.141600  1.0  0.1132
  H  H258  1  0.161500  0.349200  0.088700  1.0  0.0928
  C  C259  1  0.853050  0.128650  0.936550  1.0  0.1485
  C  C260  1  0.947700  0.165200  0.880000  1.0  0.0322
  C  C261  1  0.888700  0.218500  0.854200  1.0  -0.1084
  C  C262  1  0.752600  0.233900  0.880300  1.0  -0.0501
  C  C263  1  0.756250  0.253850  0.807550  1.0  0.0904
  C  C264  1  0.792600  0.195000  0.777700  1.0  -0.1584
  C  C265  1  0.724700  0.327900  0.769600  1.0  -0.0994
  C  C266  1  0.796400  0.211000  0.712600  1.0  -0.1344
  C  C267  1  0.728980  0.345180  0.703360  1.0  -0.2041
  C  C268  1  0.765590  0.285590  0.674530  1.0  0.0883
  C  C269  1  0.768250  0.305450  0.602650  1.0  -0.0589
  C  C270  1  0.653690  0.400590  0.556630  1.0  0.1555
  C  C271  1  0.642580  0.291280  0.630460  1.0  -0.1258
  C  C272  1  0.578200  0.338900  0.610000  1.0  0.0567
  C  C273  1  0.128650  0.081750  0.936550  1.0  0.1479
  C  C274  1  0.165200  0.007100  0.880000  1.0  0.0339
  C  C275  1  0.218500  0.038600  0.854200  1.0  -0.1061
  C  C276  1  0.233900  0.133200  0.880300  1.0  -0.0575
  C  C277  1  0.253850  0.182350  0.807550  1.0  0.0892
  C  C278  1  0.195000  0.234700  0.777700  1.0  -0.1605
  C  C279  1  0.327900  0.177800  0.769600  1.0  -0.0996
  C  C280  1  0.211000  0.280000  0.712600  1.0  -0.1355
  C  C281  1  0.345180  0.222480  0.703360  1.0  -0.208
  C  C282  1  0.285590  0.274290  0.674530  1.0  0.089
  C  C283  1  0.305450  0.323650  0.602650  1.0  -0.0621
  C  C284  1  0.400590  0.389090  0.556630  1.0  0.1552
  C  C285  1  0.291280  0.435680  0.630460  1.0  -0.1257
  C  C286  1  0.338900  0.472900  0.610000  1.0  0.0572
  C  C287  1  0.081750  0.853050  0.936550  1.0  0.1491
  C  C288  1  0.007100  0.947700  0.880000  1.0  0.0318
  C  C289  1  0.038600  0.888700  0.854200  1.0  -0.1077
  C  C290  1  0.133200  0.752600  0.880300  1.0  -0.0539
  C  C291  1  0.182350  0.756250  0.807550  1.0  0.0891
  C  C292  1  0.234700  0.792600  0.777700  1.0  -0.16
  C  C293  1  0.177800  0.724700  0.769600  1.0  -0.0999
  C  C294  1  0.280000  0.796400  0.712600  1.0  -0.1354
  C  C295  1  0.222480  0.728980  0.703360  1.0  -0.2036
  C  C296  1  0.274290  0.765590  0.674530  1.0  0.0874
  C  C297  1  0.323650  0.768250  0.602650  1.0  -0.0582
  C  C298  1  0.389090  0.653690  0.556630  1.0  0.1571
  C  C299  1  0.435680  0.642580  0.630460  1.0  -0.1259
  C  C300  1  0.472900  0.578200  0.610000  1.0  0.0558
  C  C301  1  0.146950  0.871350  0.063450  1.0  0.1498
  C  C302  1  0.052300  0.834800  0.120000  1.0  0.0331
  C  C303  1  0.111300  0.781500  0.145800  1.0  -0.1085
  C  C304  1  0.247400  0.766100  0.119700  1.0  -0.0495
  C  C305  1  0.243750  0.746150  0.192450  1.0  0.0908
  C  C306  1  0.207400  0.805000  0.222300  1.0  -0.1594
  C  C307  1  0.275300  0.672100  0.230400  1.0  -0.1002
  C  C308  1  0.203600  0.789000  0.287400  1.0  -0.136
  C  C309  1  0.271020  0.654820  0.296640  1.0  -0.2058
  C  C310  1  0.234410  0.714410  0.325470  1.0  0.0889
  C  C311  1  0.231750  0.694550  0.397350  1.0  -0.0575
  C  C312  1  0.346310  0.599410  0.443370  1.0  0.1556
  C  C313  1  0.357420  0.708720  0.369540  1.0  -0.1258
  C  C314  1  0.421800  0.661100  0.390000  1.0  0.0581
  C  C315  1  0.871350  0.918250  0.063450  1.0  0.1487
  C  C316  1  0.834800  0.992900  0.120000  1.0  0.0329
  C  C317  1  0.781500  0.961400  0.145800  1.0  -0.1052
  C  C318  1  0.766100  0.866800  0.119700  1.0  -0.0543
  C  C319  1  0.746150  0.817650  0.192450  1.0  0.0899
  C  C320  1  0.805000  0.765300  0.222300  1.0  -0.1599
  C  C321  1  0.672100  0.822200  0.230400  1.0  -0.1002
  C  C322  1  0.789000  0.720000  0.287400  1.0  -0.1341
  C  C323  1  0.654820  0.777520  0.296640  1.0  -0.2068
  C  C324  1  0.714410  0.725710  0.325470  1.0  0.0885
  C  C325  1  0.694550  0.676350  0.397350  1.0  -0.0647
  C  C326  1  0.599410  0.610910  0.443370  1.0  0.1564
  C  C327  1  0.708720  0.564320  0.369540  1.0  -0.1245
  C  C328  1  0.661100  0.527100  0.390000  1.0  0.0595
  C  C329  1  0.918250  0.146950  0.063450  1.0  0.1475
  C  C330  1  0.992900  0.052300  0.120000  1.0  0.0316
  C  C331  1  0.961400  0.111300  0.145800  1.0  -0.1061
  C  C332  1  0.866800  0.247400  0.119700  1.0  -0.0538
  C  C333  1  0.817650  0.243750  0.192450  1.0  0.0897
  C  C334  1  0.765300  0.207400  0.222300  1.0  -0.1594
  C  C335  1  0.822200  0.275300  0.230400  1.0  -0.1014
  C  C336  1  0.720000  0.203600  0.287400  1.0  -0.1385
  C  C337  1  0.777520  0.271020  0.296640  1.0  -0.2071
  C  C338  1  0.725710  0.234410  0.325470  1.0  0.0868
  C  C339  1  0.676350  0.231750  0.397350  1.0  -0.0587
  C  C340  1  0.610910  0.346310  0.443370  1.0  0.1572
  C  C341  1  0.564320  0.357420  0.369540  1.0  -0.1254
  C  C342  1  0.527100  0.421800  0.390000  1.0  0.0584
  C  C343  1  0.006440  0.272440  0.469780  1.0  0.158
  C  C344  1  0.023000  0.239300  0.386500  1.0  -0.1173
  C  C345  1  0.085300  0.196100  0.409600  1.0  0.0042
  C  C346  1  0.895030  0.345730  0.420910  1.0  -0.0497
  C  C347  1  0.895490  0.401390  0.349930  1.0  0.0975
  C  C348  1  0.923430  0.459330  0.325210  1.0  -0.1063
  C  C349  1  0.864800  0.395000  0.312100  1.0  -0.0595
  C  C350  1  0.923000  0.509700  0.261100  1.0  -0.1247
  C  C351  1  0.866400  0.445700  0.246700  1.0  -0.0912
  C  C352  1  0.894800  0.504100  0.222100  1.0  0.0731
  C  C353  1  0.894300  0.558200  0.152200  1.0  -0.0842
  C  C354  1  0.753300  0.645200  0.177100  1.0  -0.1282
  C  C355  1  0.798300  0.592700  0.096100  1.0  0.1659
  C  C356  1  0.697060  0.668060  0.149020  1.0  0.0316
  C  C357  1  0.309830  0.040730  0.587710  1.0  0.1507
  C  C358  1  0.241000  0.131800  0.636400  1.0  0.0384
  C  C359  1  0.308500  0.092300  0.653200  1.0  -0.1188
  C  C360  1  0.428420  0.972320  0.628840  1.0  -0.0823
  C  C361  1  0.423100  0.926200  0.700600  1.0  0.0923
  C  C362  1  0.361500  0.906200  0.746200  1.0  -0.1523
  C  C363  1  0.487400  0.893800  0.723100  1.0  -0.1748
  C  C364  1  0.359280  0.861980  0.812260  1.0  -0.1604
  C  C365  1  0.488200  0.844700  0.787300  1.0  -0.1393
  C  C366  1  0.420600  0.832400  0.834700  1.0  0.0878
  C  C367  1  0.414200  0.786800  0.908200  1.0  -0.1389
  C  C368  1  0.516000  0.733500  0.963200  1.0  0.1252
  C  C369  1  0.547900  0.673800  0.891400  1.0  -0.1376
  C  C370  1  0.603700  0.642000  0.920600  1.0  0.0284
  C  C371  1  0.272440  0.251340  0.469780  1.0  0.1606
  C  C372  1  0.239300  0.351200  0.386500  1.0  -0.1188
  C  C373  1  0.196100  0.309000  0.409600  1.0  0.0086
  C  C374  1  0.345730  0.338330  0.420910  1.0  -0.0553
  C  C375  1  0.401390  0.353190  0.349930  1.0  0.096
  C  C376  1  0.459330  0.292030  0.325210  1.0  -0.107
  C  C377  1  0.395000  0.428100  0.312100  1.0  -0.0614
  C  C378  1  0.509700  0.306200  0.261100  1.0  -0.1272
  C  C379  1  0.445700  0.441200  0.246700  1.0  -0.0922
  C  C380  1  0.504100  0.379000  0.222100  1.0  0.0742
  C  C381  1  0.558200  0.395300  0.152200  1.0  -0.0843
  C  C382  1  0.645200  0.424400  0.177100  1.0  -0.1293
  C  C383  1  0.592700  0.512900  0.096100  1.0  0.1662
  C  C384  1  0.668060  0.485860  0.149020  1.0  0.0345
  C  C385  1  0.040730  0.061730  0.587710  1.0  0.1511
  C  C386  1  0.131800  0.990800  0.636400  1.0  0.039
  C  C387  1  0.092300  0.946000  0.653200  1.0  -0.1174
  C  C388  1  0.972320  0.970420  0.628840  1.0  -0.0813
  C  C389  1  0.926200  0.950100  0.700600  1.0  0.0918
  C  C390  1  0.906200  0.986100  0.746200  1.0  -0.1525
  C  C391  1  0.893800  0.895700  0.723100  1.0  -0.1776
  C  C392  1  0.861980  0.966480  0.812260  1.0  -0.1616
  C  C393  1  0.844700  0.879800  0.787300  1.0  -0.1403
  C  C394  1  0.832400  0.912300  0.834700  1.0  0.084
  C  C395  1  0.786800  0.890800  0.908200  1.0  -0.1338
  C  C396  1  0.733500  0.787300  0.963200  1.0  0.1279
  C  C397  1  0.673800  0.886900  0.891400  1.0  -0.1362
  C  C398  1  0.642000  0.833700  0.920600  1.0  0.0288
  C  C399  1  0.251340  0.006440  0.469780  1.0  0.1597
  C  C400  1  0.351200  0.023000  0.386500  1.0  -0.1203
  C  C401  1  0.309000  0.085300  0.409600  1.0  0.0041
  C  C402  1  0.338330  0.895030  0.420910  1.0  -0.0497
  C  C403  1  0.353190  0.895490  0.349930  1.0  0.0976
  C  C404  1  0.292030  0.923430  0.325210  1.0  -0.1056
  C  C405  1  0.428100  0.864800  0.312100  1.0  -0.0604
  C  C406  1  0.306200  0.923000  0.261100  1.0  -0.1264
  C  C407  1  0.441200  0.866400  0.246700  1.0  -0.0881
  C  C408  1  0.379000  0.894800  0.222100  1.0  0.0737
  C  C409  1  0.395300  0.894300  0.152200  1.0  -0.0827
  C  C410  1  0.424400  0.753300  0.177100  1.0  -0.1321
  C  C411  1  0.512900  0.798300  0.096100  1.0  0.1634
  C  C412  1  0.485860  0.697060  0.149020  1.0  0.0316
  C  C413  1  0.061730  0.309830  0.587710  1.0  0.1507
  C  C414  1  0.990800  0.241000  0.636400  1.0  0.0354
  C  C415  1  0.946000  0.308500  0.653200  1.0  -0.1176
  C  C416  1  0.970420  0.428420  0.628840  1.0  -0.0835
  C  C417  1  0.950100  0.423100  0.700600  1.0  0.0927
  C  C418  1  0.986100  0.361500  0.746200  1.0  -0.15
  C  C419  1  0.895700  0.487400  0.723100  1.0  -0.18
  C  C420  1  0.966480  0.359280  0.812260  1.0  -0.1609
  C  C421  1  0.879800  0.488200  0.787300  1.0  -0.1414
  C  C422  1  0.912300  0.420600  0.834700  1.0  0.0848
  C  C423  1  0.890800  0.414200  0.908200  1.0  -0.1365
  C  C424  1  0.787300  0.516000  0.963200  1.0  0.1263
  C  C425  1  0.886900  0.547900  0.891400  1.0  -0.1367
  C  C426  1  0.833700  0.603700  0.920600  1.0  0.0291
  C  C427  1  0.993560  0.727560  0.530220  1.0  0.1576
  C  C428  1  0.977000  0.760700  0.613500  1.0  -0.1169
  C  C429  1  0.914700  0.803900  0.590400  1.0  0.0054
  C  C430  1  0.104970  0.654270  0.579090  1.0  -0.0506
  C  C431  1  0.104510  0.598610  0.650070  1.0  0.0967
  C  C432  1  0.076570  0.540670  0.674790  1.0  -0.1049
  C  C433  1  0.135200  0.605000  0.687900  1.0  -0.0555
  C  C434  1  0.077000  0.490300  0.738900  1.0  -0.1265
  C  C435  1  0.133600  0.554300  0.753300  1.0  -0.091
  C  C436  1  0.105200  0.495900  0.777900  1.0  0.0748
  C  C437  1  0.105700  0.441800  0.847800  1.0  -0.0858
  C  C438  1  0.246700  0.354800  0.822900  1.0  -0.1288
  C  C439  1  0.201700  0.407300  0.903900  1.0  0.1662
  C  C440  1  0.302940  0.331940  0.850980  1.0  0.0322
  C  C441  1  0.690170  0.959270  0.412290  1.0  0.1517
  C  C442  1  0.759000  0.868200  0.363600  1.0  0.0379
  C  C443  1  0.691500  0.907700  0.346800  1.0  -0.12
  C  C444  1  0.571580  0.027680  0.371160  1.0  -0.082
  C  C445  1  0.576900  0.073800  0.299400  1.0  0.0929
  C  C446  1  0.638500  0.093800  0.253800  1.0  -0.1517
  C  C447  1  0.512600  0.106200  0.276900  1.0  -0.1758
  C  C448  1  0.640720  0.138020  0.187740  1.0  -0.1622
  C  C449  1  0.511800  0.155300  0.212700  1.0  -0.1396
  C  C450  1  0.579400  0.167600  0.165300  1.0  0.0859
  C  C451  1  0.585800  0.213200  0.091800  1.0  -0.1383
  C  C452  1  0.484000  0.266500  0.036800  1.0  0.1224
  C  C453  1  0.452100  0.326200  0.108600  1.0  -0.1362
  C  C454  1  0.396300  0.358000  0.079400  1.0  0.0276
  C  C455  1  0.727560  0.748660  0.530220  1.0  0.1608
  C  C456  1  0.760700  0.648800  0.613500  1.0  -0.1191
  C  C457  1  0.803900  0.691000  0.590400  1.0  0.0075
  C  C458  1  0.654270  0.661670  0.579090  1.0  -0.0522
  C  C459  1  0.598610  0.646810  0.650070  1.0  0.0991
  C  C460  1  0.540670  0.707970  0.674790  1.0  -0.107
  C  C461  1  0.605000  0.571900  0.687900  1.0  -0.0635
  C  C462  1  0.490300  0.693800  0.738900  1.0  -0.1291
  C  C463  1  0.554300  0.558800  0.753300  1.0  -0.0919
  C  C464  1  0.495900  0.621000  0.777900  1.0  0.0755
  C  C465  1  0.441800  0.604700  0.847800  1.0  -0.0852
  C  C466  1  0.354800  0.575600  0.822900  1.0  -0.1303
  C  C467  1  0.407300  0.487100  0.903900  1.0  0.1643
  C  C468  1  0.331940  0.514140  0.850980  1.0  0.034
  C  C469  1  0.959270  0.938270  0.412290  1.0  0.1518
  C  C470  1  0.868200  0.009200  0.363600  1.0  0.0387
  C  C471  1  0.907700  0.054000  0.346800  1.0  -0.1176
  C  C472  1  0.027680  0.029580  0.371160  1.0  -0.0815
  C  C473  1  0.073800  0.049900  0.299400  1.0  0.0921
  C  C474  1  0.093800  0.013900  0.253800  1.0  -0.1522
  C  C475  1  0.106200  0.104300  0.276900  1.0  -0.1767
  C  C476  1  0.138020  0.033520  0.187740  1.0  -0.1611
  C  C477  1  0.155300  0.120200  0.212700  1.0  -0.1401
  C  C478  1  0.167600  0.087700  0.165300  1.0  0.0849
  C  C479  1  0.213200  0.109200  0.091800  1.0  -0.1318
  C  C480  1  0.266500  0.212700  0.036800  1.0  0.128
  C  C481  1  0.326200  0.113100  0.108600  1.0  -0.1342
  C  C482  1  0.358000  0.166300  0.079400  1.0  0.0309
  C  C483  1  0.748660  0.993560  0.530220  1.0  0.1599
  C  C484  1  0.648800  0.977000  0.613500  1.0  -0.1195
  C  C485  1  0.691000  0.914700  0.590400  1.0  0.0045
  C  C486  1  0.661670  0.104970  0.579090  1.0  -0.0474
  C  C487  1  0.646810  0.104510  0.650070  1.0  0.0974
  C  C488  1  0.707970  0.076570  0.674790  1.0  -0.1059
  C  C489  1  0.571900  0.135200  0.687900  1.0  -0.0608
  C  C490  1  0.693800  0.077000  0.738900  1.0  -0.1255
  C  C491  1  0.558800  0.133600  0.753300  1.0  -0.0892
  C  C492  1  0.621000  0.105200  0.777900  1.0  0.0737
  C  C493  1  0.604700  0.105700  0.847800  1.0  -0.0832
  C  C494  1  0.575600  0.246700  0.822900  1.0  -0.1321
  C  C495  1  0.487100  0.201700  0.903900  1.0  0.1642
  C  C496  1  0.514140  0.302940  0.850980  1.0  0.0316
  C  C497  1  0.938270  0.690170  0.412290  1.0  0.1502
  C  C498  1  0.009200  0.759000  0.363600  1.0  0.0359
  C  C499  1  0.054000  0.691500  0.346800  1.0  -0.1174
  C  C500  1  0.029580  0.571580  0.371160  1.0  -0.0827
  C  C501  1  0.049900  0.576900  0.299400  1.0  0.0926
  C  C502  1  0.013900  0.638500  0.253800  1.0  -0.1514
  C  C503  1  0.104300  0.512600  0.276900  1.0  -0.1802
  C  C504  1  0.033520  0.640720  0.187740  1.0  -0.1617
  C  C505  1  0.120200  0.511800  0.212700  1.0  -0.1432
  C  C506  1  0.087700  0.579400  0.165300  1.0  0.0862
  C  C507  1  0.109200  0.585800  0.091800  1.0  -0.1363
  C  C508  1  0.212700  0.484000  0.036800  1.0  0.1252
  C  C509  1  0.113100  0.452100  0.108600  1.0  -0.1382
  C  C510  1  0.166300  0.396300  0.079400  1.0  0.0301
  N  N511  1  0.926180  0.108480  0.932560  1.0  -0.4209
  N  N512  1  0.828050  0.195250  0.890050  1.0  0.0582
  N  N513  1  0.691290  0.331190  0.596530  1.0  0.003
  N  N514  1  0.583560  0.407660  0.565720  1.0  -0.3983
  N  N515  1  0.108480  0.032780  0.932560  1.0  -0.4174
  N  N516  1  0.195250  0.086650  0.890050  1.0  0.0575
  N  N517  1  0.331190  0.380990  0.596530  1.0  0.0026
  N  N518  1  0.407660  0.443060  0.565720  1.0  -0.3971
  N  N519  1  0.032780  0.926180  0.932560  1.0  -0.4139
  N  N520  1  0.086650  0.828050  0.890050  1.0  0.0577
  N  N521  1  0.380990  0.691290  0.596530  1.0  0.0045
  N  N522  1  0.443060  0.583560  0.565720  1.0  -0.3891
  N  N523  1  0.073820  0.891520  0.067440  1.0  -0.4191
  N  N524  1  0.171950  0.804750  0.109950  1.0  0.0579
  N  N525  1  0.308710  0.668810  0.403470  1.0  0.0033
  N  N526  1  0.416440  0.592340  0.434280  1.0  -0.3985
  N  N527  1  0.891520  0.967220  0.067440  1.0  -0.4152
  N  N528  1  0.804750  0.913350  0.109950  1.0  0.058
  N  N529  1  0.668810  0.619010  0.403470  1.0  0.0031
  N  N530  1  0.592340  0.556940  0.434280  1.0  -0.3969
  N  N531  1  0.967220  0.073820  0.067440  1.0  -0.4162
  N  N532  1  0.913350  0.171950  0.109950  1.0  0.0581
  N  N533  1  0.619010  0.308710  0.403470  1.0  0.0038
  N  N534  1  0.556940  0.416440  0.434280  1.0  -0.3882
  N  N535  1  0.074230  0.216030  0.462310  1.0  -0.3315
  N  N536  1  0.971350  0.290050  0.424450  1.0  0.0429
  N  N537  1  0.818580  0.596780  0.141160  1.0  0.06
  N  N538  1  0.725720  0.633620  0.099940  1.0  -0.3351
  N  N539  1  0.241680  0.099380  0.595060  1.0  -0.4082
  N  N540  1  0.351380  0.033880  0.622360  1.0  0.0112
  N  N541  1  0.490790  0.731790  0.919930  1.0  0.0354
  N  N542  1  0.583760  0.679960  0.965120  1.0  -0.3562
  N  N543  1  0.216030  0.247430  0.462310  1.0  -0.3371
  N  N544  1  0.290050  0.314150  0.424450  1.0  0.0455
  N  N545  1  0.596780  0.443480  0.141160  1.0  0.0587
  N  N546  1  0.633620  0.540720  0.099940  1.0  -0.3353
  N  N547  1  0.099380  0.063880  0.595060  1.0  -0.4086
  N  N548  1  0.033880  0.992380  0.622360  1.0  0.0103
  N  N549  1  0.731790  0.857490  0.919930  1.0  0.0365
  N  N550  1  0.679960  0.771160  0.965120  1.0  -0.3577
  N  N551  1  0.247430  0.074230  0.462310  1.0  -0.3257
  N  N552  1  0.314150  0.971350  0.424450  1.0  0.0424
  N  N553  1  0.443480  0.818580  0.141160  1.0  0.0589
  N  N554  1  0.540720  0.725720  0.099940  1.0  -0.3272
  N  N555  1  0.063880  0.241680  0.595060  1.0  -0.4021
  N  N556  1  0.992380  0.351380  0.622360  1.0  0.0112
  N  N557  1  0.857490  0.490790  0.919930  1.0  0.0352
  N  N558  1  0.771160  0.583760  0.965120  1.0  -0.3517
  N  N559  1  0.925770  0.783970  0.537690  1.0  -0.3305
  N  N560  1  0.028650  0.709950  0.575550  1.0  0.0431
  N  N561  1  0.181420  0.403220  0.858840  1.0  0.0603
  N  N562  1  0.274280  0.366380  0.900060  1.0  -0.3353
  N  N563  1  0.758320  0.900620  0.404940  1.0  -0.4061
  N  N564  1  0.648620  0.966120  0.377640  1.0  0.0104
  N  N565  1  0.509210  0.268210  0.080070  1.0  0.0358
  N  N566  1  0.416240  0.320040  0.034880  1.0  -0.3545
  N  N567  1  0.783970  0.752570  0.537690  1.0  -0.3354
  N  N568  1  0.709950  0.685850  0.575550  1.0  0.0461
  N  N569  1  0.403220  0.556520  0.858840  1.0  0.0593
  N  N570  1  0.366380  0.459280  0.900060  1.0  -0.3345
  N  N571  1  0.900620  0.936120  0.404940  1.0  -0.4087
  N  N572  1  0.966120  0.007620  0.377640  1.0  0.0105
  N  N573  1  0.268210  0.142510  0.080070  1.0  0.0363
  N  N574  1  0.320040  0.228840  0.034880  1.0  -0.3563
  N  N575  1  0.752570  0.925770  0.537690  1.0  -0.3259
  N  N576  1  0.685850  0.028650  0.575550  1.0  0.0427
  N  N577  1  0.556520  0.181420  0.858840  1.0  0.0575
  N  N578  1  0.459280  0.274280  0.900060  1.0  -0.3247
  N  N579  1  0.936120  0.758320  0.404940  1.0  -0.4032
  N  N580  1  0.007620  0.648620  0.377640  1.0  0.0108
  N  N581  1  0.142510  0.509210  0.080070  1.0  0.0348
  N  N582  1  0.228840  0.416240  0.034880  1.0  -0.3525
  Cl  Cl583  1  0.849590  0.163600  0.485440  1.0  1.5318
  Cl  Cl584  1  0.673550  0.059150  0.992950  1.0  1.4202
  Cl  Cl585  1  0.163600  0.501370  0.485440  1.0  1.5313
  Cl  Cl586  1  0.059150  0.274350  0.992950  1.0  1.4219
  Cl  Cl587  1  0.501370  0.849590  0.485440  1.0  1.5315
  Cl  Cl588  1  0.274350  0.673550  0.992950  1.0  1.4202
  Cl  Cl589  1  0.150410  0.836400  0.514560  1.0  1.5308
  Cl  Cl590  1  0.326450  0.940850  0.007050  1.0  1.418
  Cl  Cl591  1  0.836400  0.498630  0.514560  1.0  1.5318
  Cl  Cl592  1  0.940850  0.725650  0.007050  1.0  1.4192
  Cl  Cl593  1  0.498630  0.150410  0.514560  1.0  1.5323
  Cl  Cl594  1  0.725650  0.326450  0.007050  1.0  1.4206
  O  O595  1  0.883540  0.189440  0.413680  1.0  -0.617
  O  O596  1  0.891980  0.163380  0.520060  1.0  -0.6065
  O  O597  1  0.851220  0.087020  0.503740  1.0  -0.6296
  O  O598  1  0.770990  0.216190  0.503530  1.0  -0.5969
  O  O599  1  0.656300  0.997300  0.007500  1.0  -0.5883
  O  O600  1  0.618900  0.133800  0.973300  1.0  -0.6021
  O  O601  1  0.694400  0.057400  0.042600  1.0  -0.5987
  O  O602  1  0.742300  0.056700  0.934000  1.0  -0.6167
  O  O603  1  0.189440  0.513340  0.413680  1.0  -0.6161
  O  O604  1  0.163380  0.424580  0.520060  1.0  -0.6034
  O  O605  1  0.087020  0.558020  0.503740  1.0  -0.629
  O  O606  1  0.216190  0.509290  0.503530  1.0  -0.5987
  O  O607  1  0.997300  0.338900  0.007500  1.0  -0.595
  O  O608  1  0.133800  0.274000  0.973300  1.0  -0.6052
  O  O609  1  0.057400  0.205600  0.042600  1.0  -0.5974
  O  O610  1  0.056700  0.267000  0.934000  1.0  -0.6155
  O  O611  1  0.513340  0.883540  0.413680  1.0  -0.6154
  O  O612  1  0.424580  0.891980  0.520060  1.0  -0.6071
  O  O613  1  0.558020  0.851220  0.503740  1.0  -0.631
  O  O614  1  0.509290  0.770990  0.503530  1.0  -0.5951
  O  O615  1  0.338900  0.656300  0.007500  1.0  -0.5957
  O  O616  1  0.274000  0.618900  0.973300  1.0  -0.6028
  O  O617  1  0.205600  0.694400  0.042600  1.0  -0.5974
  O  O618  1  0.267000  0.742300  0.934000  1.0  -0.6169
  O  O619  1  0.116460  0.810560  0.586320  1.0  -0.6173
  O  O620  1  0.108020  0.836620  0.479940  1.0  -0.6048
  O  O621  1  0.148780  0.912980  0.496260  1.0  -0.6303
  O  O622  1  0.229010  0.783810  0.496470  1.0  -0.5988
  O  O623  1  0.343700  0.002700  0.992500  1.0  -0.5897
  O  O624  1  0.381100  0.866200  0.026700  1.0  -0.6044
  O  O625  1  0.305600  0.942600  0.957400  1.0  -0.5985
  O  O626  1  0.257700  0.943300  0.066000  1.0  -0.6173
  O  O627  1  0.810560  0.486660  0.586320  1.0  -0.616
  O  O628  1  0.836620  0.575420  0.479940  1.0  -0.6033
  O  O629  1  0.912980  0.441980  0.496260  1.0  -0.6292
  O  O630  1  0.783810  0.490710  0.496470  1.0  -0.5972
  O  O631  1  0.002700  0.661100  0.992500  1.0  -0.5934
  O  O632  1  0.866200  0.726000  0.026700  1.0  -0.603
  O  O633  1  0.942600  0.794400  0.957400  1.0  -0.597
  O  O634  1  0.943300  0.733000  0.066000  1.0  -0.6168
  O  O635  1  0.486660  0.116460  0.586320  1.0  -0.6159
  O  O636  1  0.575420  0.108020  0.479940  1.0  -0.6064
  O  O637  1  0.441980  0.148780  0.496260  1.0  -0.6304
  O  O638  1  0.490710  0.229010  0.496470  1.0  -0.5946
  O  O639  1  0.661100  0.343700  0.992500  1.0  -0.5955
  O  O640  1  0.726000  0.381100  0.026700  1.0  -0.6041
  O  O641  1  0.794400  0.305600  0.957400  1.0  -0.5984
  O  O642  1  0.733000  0.257700  0.066000  1.0  -0.6163
