# generated using pymatgen
data_Cd3H10C24(NO4)3
_symmetry_space_group_name_H-M   'P 1'
_cell_length_a   18.87300000
_cell_length_b   19.32900000
_cell_length_c   25.91100000
_cell_angle_alpha   90.00000000
_cell_angle_beta   101.04000000
_cell_angle_gamma   90.00000000
_symmetry_Int_Tables_number   1
_chemical_formula_structural   Cd3H10C24(NO4)3
_chemical_formula_sum   'Cd24 H80 C192 N24 O96'
_cell_volume   9277.30921168
_cell_formula_units_Z   8
loop_
 _symmetry_equiv_pos_site_id
 _symmetry_equiv_pos_as_xyz
  1  'x, y, z'
loop_
 _atom_site_type_symbol
 _atom_site_label
 _atom_site_symmetry_multiplicity
 _atom_site_fract_x
 _atom_site_fract_y
 _atom_site_fract_z
 _atom_site_occupancy
 _atom_site_charge
  Cd  Cd1  1  0.696540  0.078550  0.570950  1.0  1.0115
  Cd  Cd2  1  0.678110  0.119750  0.706450  1.0  1.1135
  Cd  Cd3  1  0.836460  0.947400  0.562260  1.0  1.0222
  Cd  Cd4  1  0.196540  0.578550  0.570950  1.0  1.0115
  Cd  Cd5  1  0.178110  0.619750  0.706450  1.0  1.1135
  Cd  Cd6  1  0.336460  0.447400  0.562260  1.0  1.0218
  Cd  Cd7  1  0.303460  0.078550  0.929050  1.0  1.0122
  Cd  Cd8  1  0.321890  0.119750  0.793550  1.0  1.112
  Cd  Cd9  1  0.163540  0.947400  0.937740  1.0  1.0238
  Cd  Cd10  1  0.803460  0.578550  0.929050  1.0  1.0122
  Cd  Cd11  1  0.821890  0.619750  0.793550  1.0  1.112
  Cd  Cd12  1  0.663540  0.447400  0.937740  1.0  1.0238
  Cd  Cd13  1  0.303460  0.921450  0.429050  1.0  1.012
  Cd  Cd14  1  0.321890  0.880250  0.293550  1.0  1.112
  Cd  Cd15  1  0.163540  0.052600  0.437740  1.0  1.0252
  Cd  Cd16  1  0.803460  0.421450  0.429050  1.0  1.012
  Cd  Cd17  1  0.821890  0.380250  0.293550  1.0  1.112
  Cd  Cd18  1  0.663540  0.552600  0.437740  1.0  1.0252
  Cd  Cd19  1  0.696540  0.921450  0.070950  1.0  1.0113
  Cd  Cd20  1  0.678110  0.880250  0.206450  1.0  1.1131
  Cd  Cd21  1  0.836460  0.052600  0.062260  1.0  1.0233
  Cd  Cd22  1  0.196540  0.421450  0.070950  1.0  1.0113
  Cd  Cd23  1  0.178110  0.380250  0.206450  1.0  1.1131
  Cd  Cd24  1  0.336460  0.552600  0.062260  1.0  1.0233
  H  H25  1  0.876700  0.932000  0.836900  1.0  0.1365
  H  H26  1  0.497800  0.083900  0.677400  1.0  0.1229
  H  H27  1  0.289400  0.069800  0.610200  1.0  0.124
  H  H28  1  0.717700  0.284600  0.556100  1.0  0.1229
  H  H29  1  0.439700  0.049900  0.522800  1.0  0.1245
  H  H30  1  0.572700  0.433600  0.505600  1.0  0.1343
  H  H31  1  0.540100  0.301300  0.618400  1.0  0.1279
  H  H32  1  0.791100  0.013700  0.800800  1.0  0.1238
  H  H33  1  0.912700  0.881100  0.687100  1.0  0.1305
  H  H34  1  0.926800  0.860800  0.779900  1.0  0.1255
  H  H35  1  0.376700  0.432000  0.836900  1.0  0.1367
  H  H36  1  0.997800  0.583900  0.677400  1.0  0.1242
  H  H37  1  0.789400  0.569800  0.610200  1.0  0.124
  H  H38  1  0.217700  0.784600  0.556100  1.0  0.1229
  H  H39  1  0.939700  0.549900  0.522800  1.0  0.1245
  H  H40  1  0.072700  0.933600  0.505600  1.0  0.1343
  H  H41  1  0.040100  0.801300  0.618400  1.0  0.1279
  H  H42  1  0.291100  0.513700  0.800800  1.0  0.1238
  H  H43  1  0.412700  0.381100  0.687100  1.0  0.1305
  H  H44  1  0.426800  0.360800  0.779900  1.0  0.1255
  H  H45  1  0.123300  0.932000  0.663100  1.0  0.137
  H  H46  1  0.502200  0.083900  0.822600  1.0  0.1225
  H  H47  1  0.710600  0.069800  0.889800  1.0  0.1245
  H  H48  1  0.282300  0.284600  0.943900  1.0  0.1232
  H  H49  1  0.560300  0.049900  0.977200  1.0  0.1247
  H  H50  1  0.427300  0.433600  0.994400  1.0  0.1345
  H  H51  1  0.459900  0.301300  0.881600  1.0  0.1292
  H  H52  1  0.208900  0.013700  0.699200  1.0  0.1246
  H  H53  1  0.087300  0.881100  0.812900  1.0  0.128
  H  H54  1  0.073200  0.860800  0.720100  1.0  0.1254
  H  H55  1  0.623300  0.432000  0.663100  1.0  0.137
  H  H56  1  0.002200  0.583900  0.822600  1.0  0.124
  H  H57  1  0.210600  0.569800  0.889800  1.0  0.1245
  H  H58  1  0.782300  0.784600  0.943900  1.0  0.1232
  H  H59  1  0.060300  0.549900  0.977200  1.0  0.1249
  H  H60  1  0.927300  0.933600  0.994400  1.0  0.1345
  H  H61  1  0.959900  0.801300  0.881600  1.0  0.1292
  H  H62  1  0.708900  0.513700  0.699200  1.0  0.1246
  H  H63  1  0.587300  0.381100  0.812900  1.0  0.128
  H  H64  1  0.573200  0.360800  0.720100  1.0  0.1254
  H  H65  1  0.123300  0.068000  0.163100  1.0  0.1368
  H  H66  1  0.502200  0.916100  0.322600  1.0  0.1221
  H  H67  1  0.710600  0.930200  0.389800  1.0  0.1246
  H  H68  1  0.282300  0.715400  0.443900  1.0  0.1226
  H  H69  1  0.560300  0.950100  0.477200  1.0  0.1259
  H  H70  1  0.427300  0.566400  0.494400  1.0  0.1345
  H  H71  1  0.459900  0.698700  0.381600  1.0  0.1296
  H  H72  1  0.208900  0.986300  0.199200  1.0  0.1252
  H  H73  1  0.087300  0.118900  0.312900  1.0  0.1278
  H  H74  1  0.073200  0.139200  0.220100  1.0  0.1262
  H  H75  1  0.623300  0.568000  0.163100  1.0  0.1368
  H  H76  1  0.002200  0.416100  0.322600  1.0  0.1231
  H  H77  1  0.210600  0.430200  0.389800  1.0  0.1246
  H  H78  1  0.782300  0.215400  0.443900  1.0  0.1226
  H  H79  1  0.060300  0.450100  0.477200  1.0  0.1258
  H  H80  1  0.927300  0.066400  0.494400  1.0  0.1343
  H  H81  1  0.959900  0.198700  0.381600  1.0  0.1296
  H  H82  1  0.708900  0.486300  0.199200  1.0  0.1252
  H  H83  1  0.587300  0.618900  0.312900  1.0  0.1277
  H  H84  1  0.573200  0.639200  0.220100  1.0  0.1262
  H  H85  1  0.876700  0.068000  0.336900  1.0  0.1368
  H  H86  1  0.497800  0.916100  0.177400  1.0  0.123
  H  H87  1  0.289400  0.930200  0.110200  1.0  0.1246
  H  H88  1  0.717700  0.715400  0.056100  1.0  0.1226
  H  H89  1  0.439700  0.950100  0.022800  1.0  0.1251
  H  H90  1  0.572700  0.566400  0.005600  1.0  0.1338
  H  H91  1  0.540100  0.698700  0.118400  1.0  0.1287
  H  H92  1  0.791100  0.986300  0.300800  1.0  0.1244
  H  H93  1  0.912700  0.118900  0.187100  1.0  0.1302
  H  H94  1  0.926800  0.139200  0.279900  1.0  0.1262
  H  H95  1  0.376700  0.568000  0.336900  1.0  0.1368
  H  H96  1  0.997800  0.416100  0.177400  1.0  0.1243
  H  H97  1  0.789400  0.430200  0.110200  1.0  0.1246
  H  H98  1  0.217700  0.215400  0.056100  1.0  0.1226
  H  H99  1  0.939700  0.450100  0.022800  1.0  0.1251
  H  H100  1  0.072700  0.066400  0.005600  1.0  0.1338
  H  H101  1  0.040100  0.198700  0.118400  1.0  0.1287
  H  H102  1  0.291100  0.486300  0.300800  1.0  0.1244
  H  H103  1  0.412700  0.618900  0.187100  1.0  0.1302
  H  H104  1  0.426800  0.639200  0.279900  1.0  0.1262
  C  C105  1  0.296900  0.047500  0.511800  1.0  0.7591
  C  C106  1  0.369700  0.090500  0.703400  1.0  0.7324
  C  C107  1  0.699300  0.390200  0.488500  1.0  0.7503
  C  C108  1  0.472500  0.404600  0.562900  1.0  0.7327
  C  C109  1  0.544800  0.372000  0.562000  1.0  -0.1177
  C  C110  1  0.864600  0.938500  0.800700  1.0  -0.0932
  C  C111  1  0.480900  0.069100  0.598900  1.0  -0.1586
  C  C112  1  0.462000  0.077200  0.647700  1.0  0.0104
  C  C113  1  0.337700  0.067400  0.607300  1.0  0.027
  C  C114  1  0.558900  0.069400  0.595500  1.0  0.7456
  C  C115  1  0.674100  0.306500  0.557200  1.0  0.0224
  C  C116  1  0.654000  0.361900  0.526200  1.0  -0.1395
  C  C117  1  0.630700  0.281800  0.590600  1.0  -0.1371
  C  C118  1  0.354400  0.056100  0.559000  1.0  -0.1544
  C  C119  1  0.652200  0.222100  0.625800  1.0  0.7158
  C  C120  1  0.427000  0.057200  0.555300  1.0  0.0162
  C  C121  1  0.587400  0.396000  0.527400  1.0  0.0319
  C  C122  1  0.567500  0.316000  0.594200  1.0  -0.0216
  C  C123  1  0.390600  0.075500  0.652300  1.0  -0.1423
  C  C124  1  0.838900  0.959300  0.690900  1.0  0.0906
  C  C125  1  0.802100  0.997800  0.721400  1.0  0.1345
  C  C126  1  0.815500  0.987600  0.779600  1.0  -0.0435
  C  C127  1  0.888500  0.906700  0.708700  1.0  -0.0749
  C  C128  1  0.897300  0.897100  0.765200  1.0  -0.0799
  C  C129  1  0.796900  0.547500  0.511800  1.0  0.7591
  C  C130  1  0.869700  0.590500  0.703400  1.0  0.7324
  C  C131  1  0.199300  0.890200  0.488500  1.0  0.7503
  C  C132  1  0.972500  0.904600  0.562900  1.0  0.7327
  C  C133  1  0.044800  0.872000  0.562000  1.0  -0.1177
  C  C134  1  0.364600  0.438500  0.800700  1.0  -0.0932
  C  C135  1  0.980900  0.569100  0.598900  1.0  -0.1586
  C  C136  1  0.962000  0.577200  0.647700  1.0  0.0104
  C  C137  1  0.837700  0.567400  0.607300  1.0  0.027
  C  C138  1  0.058900  0.569400  0.595500  1.0  0.7456
  C  C139  1  0.174100  0.806500  0.557200  1.0  0.0224
  C  C140  1  0.154000  0.861900  0.526200  1.0  -0.1395
  C  C141  1  0.130700  0.781800  0.590600  1.0  -0.1371
  C  C142  1  0.854400  0.556100  0.559000  1.0  -0.1544
  C  C143  1  0.152200  0.722100  0.625800  1.0  0.7158
  C  C144  1  0.927000  0.557200  0.555300  1.0  0.0162
  C  C145  1  0.087400  0.896000  0.527400  1.0  0.0319
  C  C146  1  0.067500  0.816000  0.594200  1.0  -0.0216
  C  C147  1  0.890600  0.575500  0.652300  1.0  -0.1423
  C  C148  1  0.338900  0.459300  0.690900  1.0  0.0889
  C  C149  1  0.302100  0.497800  0.721400  1.0  0.1345
  C  C150  1  0.315500  0.487600  0.779600  1.0  -0.0435
  C  C151  1  0.388500  0.406700  0.708700  1.0  -0.0749
  C  C152  1  0.397300  0.397100  0.765200  1.0  -0.0799
  C  C153  1  0.703100  0.047500  0.988200  1.0  0.7579
  C  C154  1  0.630300  0.090500  0.796600  1.0  0.7303
  C  C155  1  0.300700  0.390200  0.011500  1.0  0.75
  C  C156  1  0.527500  0.404600  0.937100  1.0  0.729
  C  C157  1  0.455200  0.372000  0.938000  1.0  -0.1196
  C  C158  1  0.135400  0.938500  0.699300  1.0  -0.0902
  C  C159  1  0.519100  0.069100  0.901100  1.0  -0.1595
  C  C160  1  0.538000  0.077200  0.852300  1.0  0.0083
  C  C161  1  0.662300  0.067400  0.892700  1.0  0.027
  C  C162  1  0.441100  0.069400  0.904500  1.0  0.7479
  C  C163  1  0.325900  0.306500  0.942800  1.0  0.0219
  C  C164  1  0.346000  0.361900  0.973800  1.0  -0.139
  C  C165  1  0.369300  0.281800  0.909400  1.0  -0.1379
  C  C166  1  0.645600  0.056100  0.941000  1.0  -0.1558
  C  C167  1  0.347800  0.222100  0.874200  1.0  0.7151
  C  C168  1  0.573000  0.057200  0.944700  1.0  0.0187
  C  C169  1  0.412600  0.396000  0.972600  1.0  0.0318
  C  C170  1  0.432500  0.316000  0.905800  1.0  -0.0222
  C  C171  1  0.609400  0.075500  0.847700  1.0  -0.1396
  C  C172  1  0.161100  0.959300  0.809100  1.0  0.0895
  C  C173  1  0.197900  0.997800  0.778600  1.0  0.136
  C  C174  1  0.184500  0.987600  0.720400  1.0  -0.0421
  C  C175  1  0.111500  0.906700  0.791300  1.0  -0.0744
  C  C176  1  0.102700  0.897100  0.734800  1.0  -0.0825
  C  C177  1  0.203100  0.547500  0.988200  1.0  0.7579
  C  C178  1  0.130300  0.590500  0.796600  1.0  0.7303
  C  C179  1  0.800700  0.890200  0.011500  1.0  0.75
  C  C180  1  0.027500  0.904600  0.937100  1.0  0.729
  C  C181  1  0.955200  0.872000  0.938000  1.0  -0.1196
  C  C182  1  0.635400  0.438500  0.699300  1.0  -0.0902
  C  C183  1  0.019100  0.569100  0.901100  1.0  -0.1595
  C  C184  1  0.038000  0.577200  0.852300  1.0  0.0086
  C  C185  1  0.162300  0.567400  0.892700  1.0  0.027
  C  C186  1  0.941100  0.569400  0.904500  1.0  0.7479
  C  C187  1  0.825900  0.806500  0.942800  1.0  0.0219
  C  C188  1  0.846000  0.861900  0.973800  1.0  -0.139
  C  C189  1  0.869300  0.781800  0.909400  1.0  -0.1379
  C  C190  1  0.145600  0.556100  0.941000  1.0  -0.1558
  C  C191  1  0.847800  0.722100  0.874200  1.0  0.7151
  C  C192  1  0.073000  0.557200  0.944700  1.0  0.0187
  C  C193  1  0.912600  0.896000  0.972600  1.0  0.0318
  C  C194  1  0.932500  0.816000  0.905800  1.0  -0.0222
  C  C195  1  0.109400  0.575500  0.847700  1.0  -0.1396
  C  C196  1  0.661100  0.459300  0.809100  1.0  0.0894
  C  C197  1  0.697900  0.497800  0.778600  1.0  0.136
  C  C198  1  0.684500  0.487600  0.720400  1.0  -0.0421
  C  C199  1  0.611500  0.406700  0.791300  1.0  -0.0744
  C  C200  1  0.602700  0.397100  0.734800  1.0  -0.0825
  C  C201  1  0.703100  0.952500  0.488200  1.0  0.7579
  C  C202  1  0.630300  0.909500  0.296600  1.0  0.7299
  C  C203  1  0.300700  0.609800  0.511500  1.0  0.7496
  C  C204  1  0.527500  0.595400  0.437100  1.0  0.7288
  C  C205  1  0.455200  0.628000  0.438000  1.0  -0.1191
  C  C206  1  0.135400  0.061500  0.199300  1.0  -0.0899
  C  C207  1  0.519100  0.930900  0.401100  1.0  -0.1591
  C  C208  1  0.538000  0.922800  0.352300  1.0  0.0095
  C  C209  1  0.662300  0.932600  0.392700  1.0  0.0271
  C  C210  1  0.441100  0.930600  0.404500  1.0  0.7471
  C  C211  1  0.325900  0.693500  0.442800  1.0  0.0213
  C  C212  1  0.346000  0.638100  0.473800  1.0  -0.1385
  C  C213  1  0.369300  0.718200  0.409400  1.0  -0.1367
  C  C214  1  0.645600  0.943900  0.441000  1.0  -0.1562
  C  C215  1  0.347800  0.777900  0.374200  1.0  0.7233
  C  C216  1  0.573000  0.942800  0.444700  1.0  0.0181
  C  C217  1  0.412600  0.604000  0.472600  1.0  0.0314
  C  C218  1  0.432500  0.684000  0.405800  1.0  -0.022
  C  C219  1  0.609400  0.924500  0.347700  1.0  -0.1394
  C  C220  1  0.161100  0.040700  0.309100  1.0  0.0894
  C  C221  1  0.197900  0.002200  0.278600  1.0  0.136
  C  C222  1  0.184500  0.012400  0.220400  1.0  -0.0415
  C  C223  1  0.111500  0.093300  0.291300  1.0  -0.0747
  C  C224  1  0.102700  0.102900  0.234800  1.0  -0.0821
  C  C225  1  0.203100  0.452500  0.488200  1.0  0.7579
  C  C226  1  0.130300  0.409500  0.296600  1.0  0.7299
  C  C227  1  0.800700  0.109800  0.511500  1.0  0.7496
  C  C228  1  0.027500  0.095400  0.437100  1.0  0.7288
  C  C229  1  0.955200  0.128000  0.438000  1.0  -0.1191
  C  C230  1  0.635400  0.561500  0.199300  1.0  -0.0899
  C  C231  1  0.019100  0.430900  0.401100  1.0  -0.1591
  C  C232  1  0.038000  0.422800  0.352300  1.0  0.0104
  C  C233  1  0.162300  0.432600  0.392700  1.0  0.0271
  C  C234  1  0.941100  0.430600  0.404500  1.0  0.7471
  C  C235  1  0.825900  0.193500  0.442800  1.0  0.0213
  C  C236  1  0.846000  0.138100  0.473800  1.0  -0.1385
  C  C237  1  0.869300  0.218200  0.409400  1.0  -0.1367
  C  C238  1  0.145600  0.443900  0.441000  1.0  -0.1562
  C  C239  1  0.847800  0.277900  0.374200  1.0  0.7233
  C  C240  1  0.073000  0.442800  0.444700  1.0  0.0181
  C  C241  1  0.912600  0.104000  0.472600  1.0  0.0314
  C  C242  1  0.932500  0.184000  0.405800  1.0  -0.022
  C  C243  1  0.109400  0.424500  0.347700  1.0  -0.1394
  C  C244  1  0.661100  0.540700  0.309100  1.0  0.0897
  C  C245  1  0.697900  0.502200  0.278600  1.0  0.136
  C  C246  1  0.684500  0.512400  0.220400  1.0  -0.0415
  C  C247  1  0.611500  0.593300  0.291300  1.0  -0.0747
  C  C248  1  0.602700  0.602900  0.234800  1.0  -0.0821
  C  C249  1  0.296900  0.952500  0.011800  1.0  0.7618
  C  C250  1  0.369700  0.909500  0.203400  1.0  0.7327
  C  C251  1  0.699300  0.609800  0.988500  1.0  0.7502
  C  C252  1  0.472500  0.595400  0.062900  1.0  0.7324
  C  C253  1  0.544800  0.628000  0.062000  1.0  -0.1177
  C  C254  1  0.864600  0.061500  0.300700  1.0  -0.0933
  C  C255  1  0.480900  0.930900  0.098900  1.0  -0.1583
  C  C256  1  0.462000  0.922800  0.147700  1.0  0.0123
  C  C257  1  0.337700  0.932600  0.107300  1.0  0.0273
  C  C258  1  0.558900  0.930600  0.095500  1.0  0.7448
  C  C259  1  0.674100  0.693500  0.057200  1.0  0.0225
  C  C260  1  0.654000  0.638100  0.026200  1.0  -0.1391
  C  C261  1  0.630700  0.718200  0.090600  1.0  -0.1367
  C  C262  1  0.354400  0.943900  0.059000  1.0  -0.1544
  C  C263  1  0.652200  0.777900  0.125800  1.0  0.7156
  C  C264  1  0.427000  0.942800  0.055300  1.0  0.0151
  C  C265  1  0.587400  0.604000  0.027400  1.0  0.0319
  C  C266  1  0.567500  0.684000  0.094200  1.0  -0.0217
  C  C267  1  0.390600  0.924500  0.152300  1.0  -0.1424
  C  C268  1  0.838900  0.040700  0.190900  1.0  0.0896
  C  C269  1  0.802100  0.002200  0.221400  1.0  0.1346
  C  C270  1  0.815500  0.012400  0.279600  1.0  -0.043
  C  C271  1  0.888500  0.093300  0.208700  1.0  -0.0743
  C  C272  1  0.897300  0.102900  0.265200  1.0  -0.0798
  C  C273  1  0.796900  0.452500  0.011800  1.0  0.7618
  C  C274  1  0.869700  0.409500  0.203400  1.0  0.7327
  C  C275  1  0.199300  0.109800  0.988500  1.0  0.7502
  C  C276  1  0.972500  0.095400  0.062900  1.0  0.7324
  C  C277  1  0.044800  0.128000  0.062000  1.0  -0.1177
  C  C278  1  0.364600  0.561500  0.300700  1.0  -0.0933
  C  C279  1  0.980900  0.430900  0.098900  1.0  -0.1583
  C  C280  1  0.962000  0.422800  0.147700  1.0  0.0123
  C  C281  1  0.837700  0.432600  0.107300  1.0  0.0273
  C  C282  1  0.058900  0.430600  0.095500  1.0  0.7448
  C  C283  1  0.174100  0.193500  0.057200  1.0  0.0225
  C  C284  1  0.154000  0.138100  0.026200  1.0  -0.1391
  C  C285  1  0.130700  0.218200  0.090600  1.0  -0.1367
  C  C286  1  0.854400  0.443900  0.059000  1.0  -0.1544
  C  C287  1  0.152200  0.277900  0.125800  1.0  0.7156
  C  C288  1  0.927000  0.442800  0.055300  1.0  0.0151
  C  C289  1  0.087400  0.104000  0.027400  1.0  0.0319
  C  C290  1  0.067500  0.184000  0.094200  1.0  -0.0217
  C  C291  1  0.890600  0.424500  0.152300  1.0  -0.1424
  C  C292  1  0.338900  0.540700  0.190900  1.0  0.0897
  C  C293  1  0.302100  0.502200  0.221400  1.0  0.1346
  C  C294  1  0.315500  0.512400  0.279600  1.0  -0.043
  C  C295  1  0.388500  0.593300  0.208700  1.0  -0.0743
  C  C296  1  0.397300  0.602900  0.265200  1.0  -0.0798
  N  N297  1  0.768300  0.028100  0.643600  1.0  -0.0677
  N  N298  1  0.758100  0.041200  0.691700  1.0  -0.2947
  N  N299  1  0.816000  0.981200  0.641800  1.0  -0.2246
  N  N300  1  0.268300  0.528100  0.643600  1.0  -0.0677
  N  N301  1  0.258100  0.541200  0.691700  1.0  -0.2947
  N  N302  1  0.316000  0.481200  0.641800  1.0  -0.2246
  N  N303  1  0.231700  0.028100  0.856400  1.0  -0.0663
  N  N304  1  0.241900  0.041200  0.808300  1.0  -0.2941
  N  N305  1  0.184000  0.981200  0.858200  1.0  -0.2234
  N  N306  1  0.731700  0.528100  0.856400  1.0  -0.0663
  N  N307  1  0.741900  0.541200  0.808300  1.0  -0.2942
  N  N308  1  0.684000  0.481200  0.858200  1.0  -0.2234
  N  N309  1  0.231700  0.971900  0.356400  1.0  -0.0662
  N  N310  1  0.241900  0.958800  0.308300  1.0  -0.2942
  N  N311  1  0.184000  0.018800  0.358200  1.0  -0.2248
  N  N312  1  0.731700  0.471900  0.356400  1.0  -0.0662
  N  N313  1  0.741900  0.458800  0.308300  1.0  -0.2943
  N  N314  1  0.684000  0.518800  0.358200  1.0  -0.2248
  N  N315  1  0.768300  0.971900  0.143600  1.0  -0.0677
  N  N316  1  0.758100  0.958800  0.191700  1.0  -0.2954
  N  N317  1  0.816000  0.018800  0.141800  1.0  -0.2244
  N  N318  1  0.268300  0.471900  0.143600  1.0  -0.0677
  N  N319  1  0.258100  0.458800  0.191700  1.0  -0.2954
  N  N320  1  0.316000  0.518800  0.141800  1.0  -0.2244
  O  O321  1  0.234300  0.059400  0.517300  1.0  -0.5806
  O  O322  1  0.313200  0.029200  0.469500  1.0  -0.7203
  O  O323  1  0.305700  0.081600  0.706500  1.0  -0.6141
  O  O324  1  0.409800  0.110100  0.740900  1.0  -0.5611
  O  O325  1  0.670800  0.431500  0.452400  1.0  -0.7147
  O  O326  1  0.763300  0.369200  0.495500  1.0  -0.5402
  O  O327  1  0.444500  0.394100  0.601100  1.0  -0.5801
  O  O328  1  0.445100  0.442600  0.529700  1.0  -0.5617
  O  O329  1  0.575000  0.085400  0.551500  1.0  -0.57
  O  O330  1  0.703600  0.182900  0.617900  1.0  -0.6925
  O  O331  1  0.619000  0.209800  0.663600  1.0  -0.6184
  O  O332  1  0.605800  0.055300  0.634400  1.0  -0.689
  O  O333  1  0.734300  0.559400  0.517300  1.0  -0.5806
  O  O334  1  0.813200  0.529200  0.469500  1.0  -0.7203
  O  O335  1  0.805700  0.581600  0.706500  1.0  -0.6137
  O  O336  1  0.909800  0.610100  0.740900  1.0  -0.5611
  O  O337  1  0.170800  0.931500  0.452400  1.0  -0.7147
  O  O338  1  0.263300  0.869200  0.495500  1.0  -0.5402
  O  O339  1  0.944500  0.894100  0.601100  1.0  -0.5801
  O  O340  1  0.945100  0.942600  0.529700  1.0  -0.5617
  O  O341  1  0.075000  0.585400  0.551500  1.0  -0.57
  O  O342  1  0.203600  0.682900  0.617900  1.0  -0.6925
  O  O343  1  0.119000  0.709800  0.663600  1.0  -0.6184
  O  O344  1  0.105800  0.555300  0.634400  1.0  -0.6925
  O  O345  1  0.765700  0.059400  0.982700  1.0  -0.5808
  O  O346  1  0.686800  0.029200  0.030500  1.0  -0.7225
  O  O347  1  0.694300  0.081600  0.793500  1.0  -0.611
  O  O348  1  0.590200  0.110100  0.759100  1.0  -0.5606
  O  O349  1  0.329200  0.431500  0.047600  1.0  -0.7139
  O  O350  1  0.236700  0.369200  0.004500  1.0  -0.5409
  O  O351  1  0.555500  0.394100  0.898900  1.0  -0.5819
  O  O352  1  0.554900  0.442600  0.970300  1.0  -0.5605
  O  O353  1  0.425000  0.085400  0.948500  1.0  -0.5723
  O  O354  1  0.296400  0.182900  0.882100  1.0  -0.6906
  O  O355  1  0.381000  0.209800  0.836400  1.0  -0.6209
  O  O356  1  0.394200  0.055300  0.865600  1.0  -0.6895
  O  O357  1  0.265700  0.559400  0.982700  1.0  -0.5808
  O  O358  1  0.186800  0.529200  0.030500  1.0  -0.7225
  O  O359  1  0.194300  0.581600  0.793500  1.0  -0.6108
  O  O360  1  0.090200  0.610100  0.759100  1.0  -0.5606
  O  O361  1  0.829200  0.931500  0.047600  1.0  -0.7139
  O  O362  1  0.736700  0.869200  0.004500  1.0  -0.5409
  O  O363  1  0.055500  0.894100  0.898900  1.0  -0.5819
  O  O364  1  0.054900  0.942600  0.970300  1.0  -0.5605
  O  O365  1  0.925000  0.585400  0.948500  1.0  -0.5725
  O  O366  1  0.796400  0.682900  0.882100  1.0  -0.6906
  O  O367  1  0.881000  0.709800  0.836400  1.0  -0.6209
  O  O368  1  0.894200  0.555300  0.865600  1.0  -0.6916
  O  O369  1  0.765700  0.940600  0.482700  1.0  -0.5803
  O  O370  1  0.686800  0.970800  0.530500  1.0  -0.7201
  O  O371  1  0.694300  0.918400  0.293500  1.0  -0.6109
  O  O372  1  0.590200  0.889900  0.259100  1.0  -0.5602
  O  O373  1  0.329200  0.568500  0.547600  1.0  -0.7145
  O  O374  1  0.236700  0.630800  0.504500  1.0  -0.5409
  O  O375  1  0.555500  0.605900  0.398900  1.0  -0.5823
  O  O376  1  0.554900  0.557400  0.470300  1.0  -0.5607
  O  O377  1  0.425000  0.914600  0.448500  1.0  -0.5717
  O  O378  1  0.296400  0.817100  0.382100  1.0  -0.6904
  O  O379  1  0.381000  0.790200  0.336400  1.0  -0.6209
  O  O380  1  0.394200  0.944700  0.365600  1.0  -0.6881
  O  O381  1  0.265700  0.440600  0.482700  1.0  -0.5803
  O  O382  1  0.186800  0.470800  0.530500  1.0  -0.7201
  O  O383  1  0.194300  0.418400  0.293500  1.0  -0.6109
  O  O384  1  0.090200  0.389900  0.259100  1.0  -0.5602
  O  O385  1  0.829200  0.068500  0.547600  1.0  -0.7145
  O  O386  1  0.736700  0.130800  0.504500  1.0  -0.5409
  O  O387  1  0.055500  0.105900  0.398900  1.0  -0.5823
  O  O388  1  0.054900  0.057400  0.470300  1.0  -0.5607
  O  O389  1  0.925000  0.414600  0.448500  1.0  -0.5719
  O  O390  1  0.796400  0.317100  0.382100  1.0  -0.6904
  O  O391  1  0.881000  0.290200  0.336400  1.0  -0.6209
  O  O392  1  0.894200  0.444700  0.365600  1.0  -0.6906
  O  O393  1  0.234300  0.940600  0.017300  1.0  -0.5798
  O  O394  1  0.313200  0.970800  0.969500  1.0  -0.7192
  O  O395  1  0.305700  0.918400  0.206500  1.0  -0.6124
  O  O396  1  0.409800  0.889900  0.240900  1.0  -0.5607
  O  O397  1  0.670800  0.568500  0.952400  1.0  -0.7153
  O  O398  1  0.763300  0.630800  0.995500  1.0  -0.5403
  O  O399  1  0.444500  0.605900  0.101100  1.0  -0.581
  O  O400  1  0.445100  0.557400  0.029700  1.0  -0.5615
  O  O401  1  0.575000  0.914600  0.051500  1.0  -0.5691
  O  O402  1  0.703600  0.817100  0.117900  1.0  -0.6924
  O  O403  1  0.619000  0.790200  0.163600  1.0  -0.6185
  O  O404  1  0.605800  0.944700  0.134400  1.0  -0.6891
  O  O405  1  0.734300  0.440600  0.017300  1.0  -0.5798
  O  O406  1  0.813200  0.470800  0.969500  1.0  -0.7192
  O  O407  1  0.805700  0.418400  0.206500  1.0  -0.6124
  O  O408  1  0.909800  0.389900  0.240900  1.0  -0.5607
  O  O409  1  0.170800  0.068500  0.952400  1.0  -0.7153
  O  O410  1  0.263300  0.130800  0.995500  1.0  -0.5403
  O  O411  1  0.944500  0.105900  0.101100  1.0  -0.581
  O  O412  1  0.945100  0.057400  0.029700  1.0  -0.5615
  O  O413  1  0.075000  0.414600  0.051500  1.0  -0.5691
  O  O414  1  0.203600  0.317100  0.117900  1.0  -0.6924
  O  O415  1  0.119000  0.290200  0.163600  1.0  -0.6185
  O  O416  1  0.105800  0.444700  0.134400  1.0  -0.6927
