# generated using pymatgen
data_Zn3P4(HO2)8
_symmetry_space_group_name_H-M   'P 1'
_cell_length_a   9.20300000
_cell_length_b   15.77600000
_cell_length_c   31.58700000
_cell_angle_alpha   90.00000000
_cell_angle_beta   90.00000000
_cell_angle_gamma   90.00000000
_symmetry_Int_Tables_number   1
_chemical_formula_structural   Zn3P4(HO2)8
_chemical_formula_sum   'Zn24 P32 H64 O128'
_cell_volume   4586.00685994
_cell_formula_units_Z   8
loop_
 _symmetry_equiv_pos_site_id
 _symmetry_equiv_pos_as_xyz
  1  'x, y, z'
loop_
 _atom_site_type_symbol
 _atom_site_label
 _atom_site_symmetry_multiplicity
 _atom_site_fract_x
 _atom_site_fract_y
 _atom_site_fract_z
 _atom_site_occupancy
 _atom_site_charge
  Zn  Zn1  1  0.875000  0.375000  0.375000  1.0  1.0616
  Zn  Zn2  1  0.875000  0.875000  0.875000  1.0  1.0616
  Zn  Zn3  1  0.375000  0.375000  0.875000  1.0  1.0616
  Zn  Zn4  1  0.375000  0.875000  0.375000  1.0  1.0616
  Zn  Zn5  1  0.125000  0.625000  0.625000  1.0  1.0616
  Zn  Zn6  1  0.125000  0.125000  0.125000  1.0  1.0616
  Zn  Zn7  1  0.625000  0.625000  0.125000  1.0  1.0616
  Zn  Zn8  1  0.625000  0.125000  0.625000  1.0  1.0616
  Zn  Zn9  1  0.875000  0.375000  0.239280  1.0  1.1286
  Zn  Zn10  1  0.875000  0.875000  0.739280  1.0  1.1286
  Zn  Zn11  1  0.375000  0.375000  0.739280  1.0  1.1286
  Zn  Zn12  1  0.375000  0.875000  0.239280  1.0  1.1286
  Zn  Zn13  1  0.875000  0.375000  0.510720  1.0  1.1293
  Zn  Zn14  1  0.875000  0.875000  0.010720  1.0  1.1293
  Zn  Zn15  1  0.375000  0.375000  0.010720  1.0  1.1293
  Zn  Zn16  1  0.375000  0.875000  0.510720  1.0  1.1293
  Zn  Zn17  1  0.125000  0.625000  0.760720  1.0  1.1299
  Zn  Zn18  1  0.125000  0.125000  0.260720  1.0  1.1299
  Zn  Zn19  1  0.625000  0.625000  0.260720  1.0  1.1299
  Zn  Zn20  1  0.625000  0.125000  0.760720  1.0  1.1299
  Zn  Zn21  1  0.125000  0.625000  0.489280  1.0  1.1292
  Zn  Zn22  1  0.125000  0.125000  0.989280  1.0  1.1292
  Zn  Zn23  1  0.625000  0.625000  0.989280  1.0  1.1292
  Zn  Zn24  1  0.625000  0.125000  0.489280  1.0  1.1292
  P  P25  1  0.101850  0.304700  0.308660  1.0  1.7231
  P  P26  1  0.101850  0.804700  0.808660  1.0  1.7231
  P  P27  1  0.601850  0.304700  0.808660  1.0  1.7231
  P  P28  1  0.601850  0.804700  0.308660  1.0  1.7231
  P  P29  1  0.648150  0.445300  0.308660  1.0  1.7228
  P  P30  1  0.648150  0.945300  0.808660  1.0  1.7228
  P  P31  1  0.148150  0.445300  0.808660  1.0  1.7228
  P  P32  1  0.148150  0.945300  0.308660  1.0  1.7228
  P  P33  1  0.648150  0.304700  0.441340  1.0  1.7232
  P  P34  1  0.648150  0.804700  0.941340  1.0  1.7232
  P  P35  1  0.148150  0.304700  0.941340  1.0  1.7232
  P  P36  1  0.148150  0.804700  0.441340  1.0  1.7232
  P  P37  1  0.101850  0.445300  0.441340  1.0  1.7255
  P  P38  1  0.101850  0.945300  0.941340  1.0  1.7255
  P  P39  1  0.601850  0.445300  0.941340  1.0  1.7255
  P  P40  1  0.601850  0.945300  0.441340  1.0  1.7255
  P  P41  1  0.898150  0.695300  0.691340  1.0  1.7241
  P  P42  1  0.898150  0.195300  0.191340  1.0  1.7241
  P  P43  1  0.398150  0.695300  0.191340  1.0  1.7241
  P  P44  1  0.398150  0.195300  0.691340  1.0  1.7241
  P  P45  1  0.351850  0.554700  0.691340  1.0  1.7245
  P  P46  1  0.351850  0.054700  0.191340  1.0  1.7245
  P  P47  1  0.851850  0.554700  0.191340  1.0  1.7245
  P  P48  1  0.851850  0.054700  0.691340  1.0  1.7245
  P  P49  1  0.351850  0.695300  0.558660  1.0  1.7246
  P  P50  1  0.351850  0.195300  0.058660  1.0  1.7246
  P  P51  1  0.851850  0.695300  0.058660  1.0  1.7246
  P  P52  1  0.851850  0.195300  0.558660  1.0  1.7246
  P  P53  1  0.898150  0.554700  0.558660  1.0  1.7217
  P  P54  1  0.898150  0.054700  0.058660  1.0  1.7217
  P  P55  1  0.398150  0.554700  0.058660  1.0  1.7217
  P  P56  1  0.398150  0.054700  0.558660  1.0  1.7217
  H  H57  1  0.319000  0.359000  0.321000  1.0  0.3057
  H  H58  1  0.181000  0.355000  0.355700  1.0  0.2059
  H  H59  1  0.319000  0.859000  0.821000  1.0  0.3057
  H  H60  1  0.181000  0.855000  0.855700  1.0  0.2059
  H  H61  1  0.819000  0.359000  0.821000  1.0  0.3057
  H  H62  1  0.681000  0.355000  0.855700  1.0  0.2059
  H  H63  1  0.819000  0.859000  0.321000  1.0  0.3057
  H  H64  1  0.681000  0.855000  0.355700  1.0  0.2059
  H  H65  1  0.431000  0.391000  0.321000  1.0  0.3071
  H  H66  1  0.569000  0.395000  0.355700  1.0  0.2048
  H  H67  1  0.431000  0.891000  0.821000  1.0  0.3071
  H  H68  1  0.569000  0.895000  0.855700  1.0  0.2048
  H  H69  1  0.931000  0.391000  0.821000  1.0  0.3071
  H  H70  1  0.069000  0.395000  0.855700  1.0  0.2048
  H  H71  1  0.931000  0.891000  0.321000  1.0  0.3071
  H  H72  1  0.069000  0.895000  0.355700  1.0  0.2048
  H  H73  1  0.431000  0.359000  0.429000  1.0  0.3041
  H  H74  1  0.569000  0.355000  0.394300  1.0  0.2063
  H  H75  1  0.431000  0.859000  0.929000  1.0  0.3041
  H  H76  1  0.569000  0.855000  0.894300  1.0  0.2063
  H  H77  1  0.931000  0.359000  0.929000  1.0  0.3041
  H  H78  1  0.069000  0.355000  0.894300  1.0  0.2063
  H  H79  1  0.931000  0.859000  0.429000  1.0  0.3041
  H  H80  1  0.069000  0.855000  0.394300  1.0  0.2063
  H  H81  1  0.319000  0.391000  0.429000  1.0  0.3039
  H  H82  1  0.181000  0.395000  0.394300  1.0  0.2051
  H  H83  1  0.319000  0.891000  0.929000  1.0  0.3039
  H  H84  1  0.181000  0.895000  0.894300  1.0  0.2051
  H  H85  1  0.819000  0.391000  0.929000  1.0  0.3039
  H  H86  1  0.681000  0.395000  0.894300  1.0  0.2051
  H  H87  1  0.819000  0.891000  0.429000  1.0  0.3039
  H  H88  1  0.681000  0.895000  0.394300  1.0  0.2051
  H  H89  1  0.681000  0.641000  0.679000  1.0  0.3033
  H  H90  1  0.819000  0.645000  0.644300  1.0  0.2056
  H  H91  1  0.681000  0.141000  0.179000  1.0  0.3033
  H  H92  1  0.819000  0.145000  0.144300  1.0  0.2056
  H  H93  1  0.181000  0.641000  0.179000  1.0  0.3033
  H  H94  1  0.319000  0.645000  0.144300  1.0  0.2056
  H  H95  1  0.181000  0.141000  0.679000  1.0  0.3033
  H  H96  1  0.319000  0.145000  0.644300  1.0  0.2056
  H  H97  1  0.569000  0.609000  0.679000  1.0  0.3038
  H  H98  1  0.431000  0.605000  0.644300  1.0  0.2059
  H  H99  1  0.569000  0.109000  0.179000  1.0  0.3038
  H  H100  1  0.431000  0.105000  0.144300  1.0  0.2059
  H  H101  1  0.069000  0.609000  0.179000  1.0  0.3038
  H  H102  1  0.931000  0.605000  0.144300  1.0  0.2059
  H  H103  1  0.069000  0.109000  0.679000  1.0  0.3038
  H  H104  1  0.931000  0.105000  0.644300  1.0  0.2059
  H  H105  1  0.569000  0.641000  0.571000  1.0  0.3065
  H  H106  1  0.431000  0.645000  0.605700  1.0  0.2042
  H  H107  1  0.569000  0.141000  0.071000  1.0  0.3065
  H  H108  1  0.431000  0.145000  0.105700  1.0  0.2042
  H  H109  1  0.069000  0.641000  0.071000  1.0  0.3065
  H  H110  1  0.931000  0.645000  0.105700  1.0  0.2042
  H  H111  1  0.069000  0.141000  0.571000  1.0  0.3065
  H  H112  1  0.931000  0.145000  0.605700  1.0  0.2042
  H  H113  1  0.681000  0.609000  0.571000  1.0  0.3072
  H  H114  1  0.819000  0.605000  0.605700  1.0  0.2064
  H  H115  1  0.681000  0.109000  0.071000  1.0  0.3072
  H  H116  1  0.819000  0.105000  0.105700  1.0  0.2064
  H  H117  1  0.181000  0.609000  0.071000  1.0  0.3072
  H  H118  1  0.319000  0.605000  0.105700  1.0  0.2064
  H  H119  1  0.181000  0.109000  0.571000  1.0  0.3072
  H  H120  1  0.319000  0.105000  0.605700  1.0  0.2064
  O  O121  1  0.052500  0.356300  0.271120  1.0  -0.8175
  O  O122  1  0.987200  0.294350  0.342280  1.0  -0.7738
  O  O123  1  0.171300  0.221860  0.296490  1.0  -0.8137
  O  O124  1  0.227900  0.359300  0.331080  1.0  -0.6583
  O  O125  1  0.052500  0.856300  0.771120  1.0  -0.8175
  O  O126  1  0.987200  0.794350  0.842280  1.0  -0.7738
  O  O127  1  0.171300  0.721860  0.796490  1.0  -0.8137
  O  O128  1  0.227900  0.859300  0.831080  1.0  -0.6583
  O  O129  1  0.552500  0.356300  0.771120  1.0  -0.8175
  O  O130  1  0.487200  0.294350  0.842280  1.0  -0.7738
  O  O131  1  0.671300  0.221860  0.796490  1.0  -0.8137
  O  O132  1  0.727900  0.359300  0.831080  1.0  -0.6583
  O  O133  1  0.552500  0.856300  0.271120  1.0  -0.8175
  O  O134  1  0.487200  0.794350  0.342280  1.0  -0.7738
  O  O135  1  0.671300  0.721860  0.296490  1.0  -0.8137
  O  O136  1  0.727900  0.859300  0.331080  1.0  -0.6583
  O  O137  1  0.697500  0.393700  0.271120  1.0  -0.8173
  O  O138  1  0.762800  0.455650  0.342280  1.0  -0.7743
  O  O139  1  0.578700  0.528140  0.296490  1.0  -0.8132
  O  O140  1  0.522100  0.390700  0.331080  1.0  -0.6584
  O  O141  1  0.697500  0.893700  0.771120  1.0  -0.8173
  O  O142  1  0.762800  0.955650  0.842280  1.0  -0.7743
  O  O143  1  0.578700  0.028140  0.796490  1.0  -0.8132
  O  O144  1  0.522100  0.890700  0.831080  1.0  -0.6584
  O  O145  1  0.197500  0.393700  0.771120  1.0  -0.8173
  O  O146  1  0.262800  0.455650  0.842280  1.0  -0.7743
  O  O147  1  0.078700  0.528140  0.796490  1.0  -0.8132
  O  O148  1  0.022100  0.390700  0.831080  1.0  -0.6584
  O  O149  1  0.197500  0.893700  0.271120  1.0  -0.8173
  O  O150  1  0.262800  0.955650  0.342280  1.0  -0.7743
  O  O151  1  0.078700  0.028140  0.296490  1.0  -0.8132
  O  O152  1  0.022100  0.890700  0.331080  1.0  -0.6584
  O  O153  1  0.697500  0.356300  0.478880  1.0  -0.8166
  O  O154  1  0.762800  0.294350  0.407720  1.0  -0.7758
  O  O155  1  0.578700  0.221860  0.453510  1.0  -0.8136
  O  O156  1  0.522100  0.359300  0.418920  1.0  -0.6625
  O  O157  1  0.697500  0.856300  0.978880  1.0  -0.8166
  O  O158  1  0.762800  0.794350  0.907720  1.0  -0.7758
  O  O159  1  0.578700  0.721860  0.953510  1.0  -0.8136
  O  O160  1  0.522100  0.859300  0.918920  1.0  -0.6625
  O  O161  1  0.197500  0.356300  0.978880  1.0  -0.8166
  O  O162  1  0.262800  0.294350  0.907720  1.0  -0.7758
  O  O163  1  0.078700  0.221860  0.953510  1.0  -0.8136
  O  O164  1  0.022100  0.359300  0.918920  1.0  -0.6625
  O  O165  1  0.197500  0.856300  0.478880  1.0  -0.8166
  O  O166  1  0.262800  0.794350  0.407720  1.0  -0.7758
  O  O167  1  0.078700  0.721860  0.453510  1.0  -0.8136
  O  O168  1  0.022100  0.859300  0.418920  1.0  -0.6625
  O  O169  1  0.052500  0.393700  0.478880  1.0  -0.8154
  O  O170  1  0.987200  0.455650  0.407720  1.0  -0.7741
  O  O171  1  0.171300  0.528140  0.453510  1.0  -0.813
  O  O172  1  0.227900  0.390700  0.418920  1.0  -0.6614
  O  O173  1  0.052500  0.893700  0.978880  1.0  -0.8154
  O  O174  1  0.987200  0.955650  0.907720  1.0  -0.7741
  O  O175  1  0.171300  0.028140  0.953510  1.0  -0.813
  O  O176  1  0.227900  0.890700  0.918920  1.0  -0.6614
  O  O177  1  0.552500  0.393700  0.978880  1.0  -0.8154
  O  O178  1  0.487200  0.455650  0.907720  1.0  -0.7741
  O  O179  1  0.671300  0.528140  0.953510  1.0  -0.813
  O  O180  1  0.727900  0.390700  0.918920  1.0  -0.6614
  O  O181  1  0.552500  0.893700  0.478880  1.0  -0.8154
  O  O182  1  0.487200  0.955650  0.407720  1.0  -0.7741
  O  O183  1  0.671300  0.028140  0.453510  1.0  -0.813
  O  O184  1  0.727900  0.890700  0.418920  1.0  -0.6614
  O  O185  1  0.947500  0.643700  0.728880  1.0  -0.8153
  O  O186  1  0.012800  0.705650  0.657720  1.0  -0.7747
  O  O187  1  0.828700  0.778140  0.703510  1.0  -0.8136
  O  O188  1  0.772100  0.640700  0.668920  1.0  -0.6606
  O  O189  1  0.947500  0.143700  0.228880  1.0  -0.8153
  O  O190  1  0.012800  0.205650  0.157720  1.0  -0.7747
  O  O191  1  0.828700  0.278140  0.203510  1.0  -0.8136
  O  O192  1  0.772100  0.140700  0.168920  1.0  -0.6606
  O  O193  1  0.447500  0.643700  0.228880  1.0  -0.8153
  O  O194  1  0.512800  0.705650  0.157720  1.0  -0.7747
  O  O195  1  0.328700  0.778140  0.203510  1.0  -0.8136
  O  O196  1  0.272100  0.640700  0.168920  1.0  -0.6606
  O  O197  1  0.447500  0.143700  0.728880  1.0  -0.8153
  O  O198  1  0.512800  0.205650  0.657720  1.0  -0.7747
  O  O199  1  0.328700  0.278140  0.703510  1.0  -0.8136
  O  O200  1  0.272100  0.140700  0.668920  1.0  -0.6606
  O  O201  1  0.302500  0.606300  0.728880  1.0  -0.8152
  O  O202  1  0.237200  0.544350  0.657720  1.0  -0.7741
  O  O203  1  0.421300  0.471860  0.703510  1.0  -0.8141
  O  O204  1  0.477900  0.609300  0.668920  1.0  -0.6617
  O  O205  1  0.302500  0.106300  0.228880  1.0  -0.8152
  O  O206  1  0.237200  0.044350  0.157720  1.0  -0.7741
  O  O207  1  0.421300  0.971860  0.203510  1.0  -0.8141
  O  O208  1  0.477900  0.109300  0.168920  1.0  -0.6617
  O  O209  1  0.802500  0.606300  0.228880  1.0  -0.8152
  O  O210  1  0.737200  0.544350  0.157720  1.0  -0.7741
  O  O211  1  0.921300  0.471860  0.203510  1.0  -0.8141
  O  O212  1  0.977900  0.609300  0.168920  1.0  -0.6617
  O  O213  1  0.802500  0.106300  0.728880  1.0  -0.8152
  O  O214  1  0.737200  0.044350  0.657720  1.0  -0.7741
  O  O215  1  0.921300  0.971860  0.703510  1.0  -0.8141
  O  O216  1  0.977900  0.109300  0.668920  1.0  -0.6617
  O  O217  1  0.302500  0.643700  0.521120  1.0  -0.8166
  O  O218  1  0.237200  0.705650  0.592280  1.0  -0.7737
  O  O219  1  0.421300  0.778140  0.546490  1.0  -0.8129
  O  O220  1  0.477900  0.640700  0.581080  1.0  -0.659
  O  O221  1  0.302500  0.143700  0.021120  1.0  -0.8166
  O  O222  1  0.237200  0.205650  0.092280  1.0  -0.7737
  O  O223  1  0.421300  0.278140  0.046490  1.0  -0.8129
  O  O224  1  0.477900  0.140700  0.081080  1.0  -0.659
  O  O225  1  0.802500  0.643700  0.021120  1.0  -0.8166
  O  O226  1  0.737200  0.705650  0.092280  1.0  -0.7737
  O  O227  1  0.921300  0.778140  0.046490  1.0  -0.8129
  O  O228  1  0.977900  0.640700  0.081080  1.0  -0.659
  O  O229  1  0.802500  0.143700  0.521120  1.0  -0.8166
  O  O230  1  0.737200  0.205650  0.592280  1.0  -0.7737
  O  O231  1  0.921300  0.278140  0.546490  1.0  -0.8129
  O  O232  1  0.977900  0.140700  0.581080  1.0  -0.659
  O  O233  1  0.947500  0.606300  0.521120  1.0  -0.8167
  O  O234  1  0.012800  0.544350  0.592280  1.0  -0.7757
  O  O235  1  0.828700  0.471860  0.546490  1.0  -0.8133
  O  O236  1  0.772100  0.609300  0.581080  1.0  -0.6594
  O  O237  1  0.947500  0.106300  0.021120  1.0  -0.8167
  O  O238  1  0.012800  0.044350  0.092280  1.0  -0.7757
  O  O239  1  0.828700  0.971860  0.046490  1.0  -0.8133
  O  O240  1  0.772100  0.109300  0.081080  1.0  -0.6594
  O  O241  1  0.447500  0.606300  0.021120  1.0  -0.8167
  O  O242  1  0.512800  0.544350  0.092280  1.0  -0.7757
  O  O243  1  0.328700  0.471860  0.046490  1.0  -0.8133
  O  O244  1  0.272100  0.609300  0.081080  1.0  -0.6594
  O  O245  1  0.447500  0.106300  0.521120  1.0  -0.8167
  O  O246  1  0.512800  0.044350  0.592280  1.0  -0.7757
  O  O247  1  0.328700  0.971860  0.546490  1.0  -0.8133
  O  O248  1  0.272100  0.109300  0.581080  1.0  -0.6594
