# generated using pymatgen
data_CoH24(C5N3)6
_symmetry_space_group_name_H-M   'P 1'
_cell_length_a   13.71700000
_cell_length_b   13.71700000
_cell_length_c   58.97000000
_cell_angle_alpha   90.00000000
_cell_angle_beta   90.00000000
_cell_angle_gamma   120.00000000
_symmetry_Int_Tables_number   1
_chemical_formula_structural   CoH24(C5N3)6
_chemical_formula_sum   'Co6 H144 C180 N108'
_cell_volume   9609.04078550
_cell_formula_units_Z   6
loop_
 _symmetry_equiv_pos_site_id
 _symmetry_equiv_pos_as_xyz
  1  'x, y, z'
loop_
 _atom_site_type_symbol
 _atom_site_label
 _atom_site_symmetry_multiplicity
 _atom_site_fract_x
 _atom_site_fract_y
 _atom_site_fract_z
 _atom_site_occupancy
 _atom_site_charge
  Co  Co1  1  0.000000  0.000000  0.000000  1.0  0.647
  Co  Co2  1  0.666667  0.333333  0.333333  1.0  0.649
  Co  Co3  1  0.333333  0.666667  0.666667  1.0  0.649
  Co  Co4  1  0.000000  0.000000  0.500000  1.0  0.647
  Co  Co5  1  0.666667  0.333333  0.833330  1.0  0.6491
  Co  Co6  1  0.333333  0.666667  0.166670  1.0  0.6489
  H  H7  1  0.841400  0.951900  0.045500  1.0  0.0788
  H  H8  1  0.945900  0.211400  0.005700  1.0  0.0808
  H  H9  1  0.825500  0.226500  0.034100  1.0  0.1048
  H  H10  1  0.725400  0.191300  0.067900  1.0  0.0987
  H  H11  1  0.508070  0.285230  0.378830  1.0  0.0788
  H  H12  1  0.612570  0.544730  0.339030  1.0  0.0808
  H  H13  1  0.492170  0.559830  0.367430  1.0  0.1048
  H  H14  1  0.392070  0.524630  0.401230  1.0  0.0987
  H  H15  1  0.174730  0.618570  0.712170  1.0  0.0788
  H  H16  1  0.279230  0.878070  0.672370  1.0  0.0811
  H  H17  1  0.158830  0.893170  0.700770  1.0  0.1048
  H  H18  1  0.058730  0.857970  0.734570  1.0  0.0978
  H  H19  1  0.048100  0.889500  0.045500  1.0  0.0763
  H  H20  1  0.788600  0.734500  0.005700  1.0  0.0839
  H  H21  1  0.773500  0.599000  0.034100  1.0  0.1052
  H  H22  1  0.808700  0.534100  0.067900  1.0  0.0965
  H  H23  1  0.714770  0.222830  0.378830  1.0  0.0763
  H  H24  1  0.455270  0.067830  0.339030  1.0  0.0839
  H  H25  1  0.440170  0.932330  0.367430  1.0  0.1052
  H  H26  1  0.475370  0.867430  0.401230  1.0  0.0965
  H  H27  1  0.381430  0.556170  0.712170  1.0  0.0763
  H  H28  1  0.121930  0.401170  0.672370  1.0  0.084
  H  H29  1  0.106830  0.265670  0.700770  1.0  0.1054
  H  H30  1  0.142030  0.200770  0.734570  1.0  0.0979
  H  H31  1  0.110500  0.158600  0.045500  1.0  0.0766
  H  H32  1  0.265500  0.054100  0.005700  1.0  0.0807
  H  H33  1  0.401000  0.174500  0.034100  1.0  0.1036
  H  H34  1  0.465900  0.274600  0.067900  1.0  0.0966
  H  H35  1  0.777170  0.491930  0.378830  1.0  0.0766
  H  H36  1  0.932170  0.387430  0.339030  1.0  0.0807
  H  H37  1  0.067670  0.507830  0.367430  1.0  0.1036
  H  H38  1  0.132570  0.607930  0.401230  1.0  0.0966
  H  H39  1  0.443830  0.825270  0.712170  1.0  0.0766
  H  H40  1  0.598830  0.720770  0.672370  1.0  0.0809
  H  H41  1  0.734330  0.841170  0.700770  1.0  0.1036
  H  H42  1  0.799230  0.941270  0.734570  1.0  0.0968
  H  H43  1  0.951900  0.841400  0.454500  1.0  0.0765
  H  H44  1  0.211400  0.945900  0.494300  1.0  0.0798
  H  H45  1  0.226500  0.825500  0.465900  1.0  0.1032
  H  H46  1  0.191300  0.725400  0.432100  1.0  0.0984
  H  H47  1  0.618570  0.174730  0.787830  1.0  0.0765
  H  H48  1  0.878070  0.279230  0.827630  1.0  0.08
  H  H49  1  0.893170  0.158830  0.799230  1.0  0.1032
  H  H50  1  0.857970  0.058730  0.765430  1.0  0.0974
  H  H51  1  0.285230  0.508070  0.121170  1.0  0.0765
  H  H52  1  0.544730  0.612570  0.160970  1.0  0.0798
  H  H53  1  0.559830  0.492170  0.132570  1.0  0.1032
  H  H54  1  0.524630  0.392070  0.098770  1.0  0.0984
  H  H55  1  0.889500  0.048100  0.454500  1.0  0.0779
  H  H56  1  0.734500  0.788600  0.494300  1.0  0.0806
  H  H57  1  0.599000  0.773500  0.465900  1.0  0.1044
  H  H58  1  0.534100  0.808700  0.432100  1.0  0.0974
  H  H59  1  0.556170  0.381430  0.787830  1.0  0.0779
  H  H60  1  0.401170  0.121930  0.827630  1.0  0.0807
  H  H61  1  0.265670  0.106830  0.799230  1.0  0.1046
  H  H62  1  0.200770  0.142030  0.765430  1.0  0.0991
  H  H63  1  0.222830  0.714770  0.121170  1.0  0.0779
  H  H64  1  0.067830  0.455270  0.160970  1.0  0.0806
  H  H65  1  0.932330  0.440170  0.132570  1.0  0.1044
  H  H66  1  0.867430  0.475370  0.098770  1.0  0.0974
  H  H67  1  0.158600  0.110500  0.454500  1.0  0.0769
  H  H68  1  0.054100  0.265500  0.494300  1.0  0.0854
  H  H69  1  0.174500  0.401000  0.465900  1.0  0.1049
  H  H70  1  0.274600  0.465900  0.432100  1.0  0.0969
  H  H71  1  0.825270  0.443830  0.787830  1.0  0.0769
  H  H72  1  0.720770  0.598830  0.827630  1.0  0.0855
  H  H73  1  0.841170  0.734330  0.799230  1.0  0.1049
  H  H74  1  0.941270  0.799230  0.765430  1.0  0.0975
  H  H75  1  0.491930  0.777170  0.121170  1.0  0.0769
  H  H76  1  0.387430  0.932170  0.160970  1.0  0.0854
  H  H77  1  0.507830  0.067670  0.132570  1.0  0.1049
  H  H78  1  0.607930  0.132570  0.098770  1.0  0.0969
  H  H79  1  0.158600  0.048100  0.954500  1.0  0.078
  H  H80  1  0.054100  0.788600  0.994300  1.0  0.0792
  H  H81  1  0.174500  0.773500  0.965900  1.0  0.1045
  H  H82  1  0.274600  0.808700  0.932100  1.0  0.0991
  H  H83  1  0.825270  0.381430  0.287830  1.0  0.078
  H  H84  1  0.720770  0.121930  0.327630  1.0  0.0794
  H  H85  1  0.841170  0.106830  0.299230  1.0  0.1047
  H  H86  1  0.941270  0.142030  0.265430  1.0  0.0981
  H  H87  1  0.491930  0.714770  0.621170  1.0  0.078
  H  H88  1  0.387430  0.455270  0.660970  1.0  0.0792
  H  H89  1  0.507830  0.440170  0.632570  1.0  0.1045
  H  H90  1  0.607930  0.475370  0.598770  1.0  0.0991
  H  H91  1  0.951900  0.110500  0.954500  1.0  0.0764
  H  H92  1  0.211400  0.265500  0.994300  1.0  0.0852
  H  H93  1  0.226500  0.401000  0.965900  1.0  0.1045
  H  H94  1  0.191300  0.465900  0.932100  1.0  0.0969
  H  H95  1  0.618570  0.443830  0.287830  1.0  0.0764
  H  H96  1  0.878070  0.598830  0.327630  1.0  0.0853
  H  H97  1  0.893170  0.734330  0.299230  1.0  0.1045
  H  H98  1  0.857970  0.799230  0.265430  1.0  0.0988
  H  H99  1  0.285230  0.777170  0.621170  1.0  0.0764
  H  H100  1  0.544730  0.932170  0.660970  1.0  0.0852
  H  H101  1  0.559830  0.067670  0.632570  1.0  0.1045
  H  H102  1  0.524630  0.132570  0.598770  1.0  0.0969
  H  H103  1  0.889500  0.841400  0.954500  1.0  0.0759
  H  H104  1  0.734500  0.945900  0.994300  1.0  0.08
  H  H105  1  0.599000  0.825500  0.965900  1.0  0.1037
  H  H106  1  0.534100  0.725400  0.932100  1.0  0.0968
  H  H107  1  0.556170  0.174730  0.287830  1.0  0.0759
  H  H108  1  0.401170  0.279230  0.327630  1.0  0.0801
  H  H109  1  0.265670  0.158830  0.299230  1.0  0.1037
  H  H110  1  0.200770  0.058730  0.265430  1.0  0.0977
  H  H111  1  0.222830  0.508070  0.621170  1.0  0.0759
  H  H112  1  0.067830  0.612570  0.660970  1.0  0.08
  H  H113  1  0.932330  0.492170  0.632570  1.0  0.1037
  H  H114  1  0.867430  0.392070  0.598770  1.0  0.0968
  H  H115  1  0.048100  0.158600  0.545500  1.0  0.0764
  H  H116  1  0.788600  0.054100  0.505700  1.0  0.0805
  H  H117  1  0.773500  0.174500  0.534100  1.0  0.1039
  H  H118  1  0.808700  0.274600  0.567900  1.0  0.0988
  H  H119  1  0.714770  0.491930  0.878830  1.0  0.0764
  H  H120  1  0.455270  0.387430  0.839030  1.0  0.0805
  H  H121  1  0.440170  0.507830  0.867430  1.0  0.1039
  H  H122  1  0.475370  0.607930  0.901230  1.0  0.0988
  H  H123  1  0.381430  0.825270  0.212170  1.0  0.0764
  H  H124  1  0.121930  0.720770  0.172370  1.0  0.0807
  H  H125  1  0.106830  0.841170  0.200770  1.0  0.1039
  H  H126  1  0.142030  0.941270  0.234570  1.0  0.0979
  H  H127  1  0.110500  0.951900  0.545500  1.0  0.0783
  H  H128  1  0.265500  0.211400  0.505700  1.0  0.0801
  H  H129  1  0.401000  0.226500  0.534100  1.0  0.1047
  H  H130  1  0.465900  0.191300  0.567900  1.0  0.0967
  H  H131  1  0.777170  0.285230  0.878830  1.0  0.0783
  H  H132  1  0.932170  0.544730  0.839030  1.0  0.0801
  H  H133  1  0.067670  0.559830  0.867430  1.0  0.1047
  H  H134  1  0.132570  0.524630  0.901230  1.0  0.0967
  H  H135  1  0.443830  0.618570  0.212170  1.0  0.0783
  H  H136  1  0.598830  0.878070  0.172370  1.0  0.0803
  H  H137  1  0.734330  0.893170  0.200770  1.0  0.1047
  H  H138  1  0.799230  0.857970  0.234570  1.0  0.0985
  H  H139  1  0.841400  0.889500  0.545500  1.0  0.0768
  H  H140  1  0.945900  0.734500  0.505700  1.0  0.0839
  H  H141  1  0.825500  0.599000  0.534100  1.0  0.1056
  H  H142  1  0.725400  0.534100  0.567900  1.0  0.0973
  H  H143  1  0.508070  0.222830  0.878830  1.0  0.0768
  H  H144  1  0.612570  0.067830  0.839030  1.0  0.0839
  H  H145  1  0.492170  0.932330  0.867430  1.0  0.1056
  H  H146  1  0.392070  0.867430  0.901230  1.0  0.0973
  H  H147  1  0.174730  0.556170  0.212170  1.0  0.0768
  H  H148  1  0.279230  0.401170  0.172370  1.0  0.0841
  H  H149  1  0.158830  0.265670  0.200770  1.0  0.1056
  H  H150  1  0.058730  0.200770  0.234570  1.0  0.0974
  C  C151  1  0.853300  0.018800  0.039030  1.0  0.1151
  C  C152  1  0.910000  0.160300  0.017420  1.0  -0.006
  C  C153  1  0.843200  0.169500  0.032950  1.0  -0.1583
  C  C154  1  0.733500  0.051000  0.065840  1.0  0.3548
  C  C155  1  0.701000  0.120900  0.074310  1.0  -0.156
  C  C156  1  0.519970  0.352130  0.372360  1.0  0.1151
  C  C157  1  0.576670  0.493630  0.350750  1.0  -0.006
  C  C158  1  0.509870  0.502830  0.366280  1.0  -0.1583
  C  C159  1  0.400170  0.384330  0.399170  1.0  0.3548
  C  C160  1  0.367670  0.454230  0.407640  1.0  -0.156
  C  C161  1  0.186630  0.685470  0.705700  1.0  0.1151
  C  C162  1  0.243330  0.826970  0.684090  1.0  -0.006
  C  C163  1  0.176530  0.836170  0.699620  1.0  -0.1583
  C  C164  1  0.066830  0.717670  0.732510  1.0  0.3552
  C  C165  1  0.034330  0.787570  0.740980  1.0  -0.1576
  C  C166  1  0.981200  0.834500  0.039030  1.0  0.1135
  C  C167  1  0.839700  0.749700  0.017420  1.0  -0.0068
  C  C168  1  0.830500  0.673700  0.032950  1.0  -0.1543
  C  C169  1  0.949000  0.682500  0.065840  1.0  0.3529
  C  C170  1  0.879100  0.580100  0.074310  1.0  -0.1565
  C  C171  1  0.647870  0.167830  0.372360  1.0  0.1135
  C  C172  1  0.506370  0.083030  0.350750  1.0  -0.0068
  C  C173  1  0.497170  0.007030  0.366280  1.0  -0.1543
  C  C174  1  0.615670  0.015830  0.399170  1.0  0.3529
  C  C175  1  0.545770  0.913430  0.407640  1.0  -0.1565
  C  C176  1  0.314530  0.501170  0.705700  1.0  0.1135
  C  C177  1  0.173030  0.416370  0.684090  1.0  -0.0067
  C  C178  1  0.163830  0.340370  0.699620  1.0  -0.1543
  C  C179  1  0.282330  0.349170  0.732510  1.0  0.3533
  C  C180  1  0.212430  0.246770  0.740980  1.0  -0.1563
  C  C181  1  0.165500  0.146700  0.039030  1.0  0.1133
  C  C182  1  0.250300  0.090000  0.017420  1.0  -0.0069
  C  C183  1  0.326300  0.156800  0.032950  1.0  -0.1546
  C  C184  1  0.317500  0.266500  0.065840  1.0  0.3555
  C  C185  1  0.419900  0.299000  0.074310  1.0  -0.1559
  C  C186  1  0.832170  0.480030  0.372360  1.0  0.1133
  C  C187  1  0.916970  0.423330  0.350750  1.0  -0.0069
  C  C188  1  0.992970  0.490130  0.366280  1.0  -0.1546
  C  C189  1  0.984170  0.599830  0.399170  1.0  0.3555
  C  C190  1  0.086570  0.632330  0.407640  1.0  -0.1559
  C  C191  1  0.498830  0.813370  0.705700  1.0  0.1133
  C  C192  1  0.583630  0.756670  0.684090  1.0  -0.0069
  C  C193  1  0.659630  0.823470  0.699620  1.0  -0.1546
  C  C194  1  0.650830  0.933170  0.732510  1.0  0.3547
  C  C195  1  0.753230  0.965670  0.740980  1.0  -0.1594
  C  C196  1  0.018800  0.853300  0.460970  1.0  0.1122
  C  C197  1  0.160300  0.910000  0.482580  1.0  -0.0054
  C  C198  1  0.169500  0.843200  0.467050  1.0  -0.1547
  C  C199  1  0.051000  0.733500  0.434160  1.0  0.3546
  C  C200  1  0.120900  0.701000  0.425690  1.0  -0.1548
  C  C201  1  0.685470  0.186630  0.794300  1.0  0.1122
  C  C202  1  0.826970  0.243330  0.815910  1.0  -0.0054
  C  C203  1  0.836170  0.176530  0.800380  1.0  -0.1547
  C  C204  1  0.717670  0.066830  0.767490  1.0  0.3549
  C  C205  1  0.787570  0.034330  0.759020  1.0  -0.1565
  C  C206  1  0.352130  0.519970  0.127640  1.0  0.1122
  C  C207  1  0.493630  0.576670  0.149250  1.0  -0.0054
  C  C208  1  0.502830  0.509870  0.133720  1.0  -0.1547
  C  C209  1  0.384330  0.400170  0.100830  1.0  0.3546
  C  C210  1  0.454230  0.367670  0.092360  1.0  -0.1548
  C  C211  1  0.834500  0.981200  0.460970  1.0  0.1139
  C  C212  1  0.749700  0.839700  0.482580  1.0  -0.0064
  C  C213  1  0.673700  0.830500  0.467050  1.0  -0.1572
  C  C214  1  0.682500  0.949000  0.434160  1.0  0.3543
  C  C215  1  0.580100  0.879100  0.425690  1.0  -0.1564
  C  C216  1  0.501170  0.314530  0.794300  1.0  0.1139
  C  C217  1  0.416370  0.173030  0.815910  1.0  -0.0064
  C  C218  1  0.340370  0.163830  0.800380  1.0  -0.1572
  C  C219  1  0.349170  0.282330  0.767490  1.0  0.3546
  C  C220  1  0.246770  0.212430  0.759020  1.0  -0.1564
  C  C221  1  0.167830  0.647870  0.127640  1.0  0.1139
  C  C222  1  0.083030  0.506370  0.149250  1.0  -0.0064
  C  C223  1  0.007030  0.497170  0.133720  1.0  -0.1572
  C  C224  1  0.015830  0.615670  0.100830  1.0  0.3543
  C  C225  1  0.913430  0.545770  0.092360  1.0  -0.1564
  C  C226  1  0.146700  0.165500  0.460970  1.0  0.1127
  C  C227  1  0.090000  0.250300  0.482580  1.0  -0.0087
  C  C228  1  0.156800  0.326300  0.467050  1.0  -0.158
  C  C229  1  0.266500  0.317500  0.434160  1.0  0.3554
  C  C230  1  0.299000  0.419900  0.425690  1.0  -0.1572
  C  C231  1  0.813370  0.498830  0.794300  1.0  0.1127
  C  C232  1  0.756670  0.583630  0.815910  1.0  -0.0087
  C  C233  1  0.823470  0.659630  0.800380  1.0  -0.158
  C  C234  1  0.933170  0.650830  0.767490  1.0  0.3546
  C  C235  1  0.965670  0.753230  0.759020  1.0  -0.161
  C  C236  1  0.480030  0.832170  0.127640  1.0  0.1127
  C  C237  1  0.423330  0.916970  0.149250  1.0  -0.0087
  C  C238  1  0.490130  0.992970  0.133720  1.0  -0.158
  C  C239  1  0.599830  0.984170  0.100830  1.0  0.3554
  C  C240  1  0.632330  0.086570  0.092360  1.0  -0.1572
  C  C241  1  0.146700  0.981200  0.960970  1.0  0.1127
  C  C242  1  0.090000  0.839700  0.982580  1.0  -0.0062
  C  C243  1  0.156800  0.830500  0.967050  1.0  -0.1563
  C  C244  1  0.266500  0.949000  0.934160  1.0  0.3542
  C  C245  1  0.299000  0.879100  0.925690  1.0  -0.1569
  C  C246  1  0.813370  0.314530  0.294300  1.0  0.1127
  C  C247  1  0.756670  0.173030  0.315910  1.0  -0.0062
  C  C248  1  0.823470  0.163830  0.300380  1.0  -0.1563
  C  C249  1  0.933170  0.282330  0.267490  1.0  0.3545
  C  C250  1  0.965670  0.212430  0.259020  1.0  -0.1584
  C  C251  1  0.480030  0.647870  0.627640  1.0  0.1127
  C  C252  1  0.423330  0.506370  0.649250  1.0  -0.0062
  C  C253  1  0.490130  0.497170  0.633720  1.0  -0.1563
  C  C254  1  0.599830  0.615670  0.600830  1.0  0.3542
  C  C255  1  0.632330  0.545770  0.592360  1.0  -0.1569
  C  C256  1  0.018800  0.165500  0.960970  1.0  0.1124
  C  C257  1  0.160300  0.250300  0.982580  1.0  -0.0074
  C  C258  1  0.169500  0.326300  0.967050  1.0  -0.159
  C  C259  1  0.051000  0.317500  0.934160  1.0  0.3539
  C  C260  1  0.120900  0.419900  0.925690  1.0  -0.1573
  C  C261  1  0.685470  0.498830  0.294300  1.0  0.1124
  C  C262  1  0.826970  0.583630  0.315910  1.0  -0.0074
  C  C263  1  0.836170  0.659630  0.300380  1.0  -0.159
  C  C264  1  0.717670  0.650830  0.267490  1.0  0.3544
  C  C265  1  0.787570  0.753230  0.259020  1.0  -0.1576
  C  C266  1  0.352130  0.832170  0.627640  1.0  0.1124
  C  C267  1  0.493630  0.916970  0.649250  1.0  -0.0074
  C  C268  1  0.502830  0.992970  0.633720  1.0  -0.159
  C  C269  1  0.384330  0.984170  0.600830  1.0  0.3539
  C  C270  1  0.454230  0.086570  0.592360  1.0  -0.1573
  C  C271  1  0.834500  0.853300  0.960970  1.0  0.1139
  C  C272  1  0.749700  0.910000  0.982580  1.0  -0.0093
  C  C273  1  0.673700  0.843200  0.967050  1.0  -0.1534
  C  C274  1  0.682500  0.733500  0.934160  1.0  0.3562
  C  C275  1  0.580100  0.701000  0.925690  1.0  -0.1558
  C  C276  1  0.501170  0.186630  0.294300  1.0  0.1139
  C  C277  1  0.416370  0.243330  0.315910  1.0  -0.0093
  C  C278  1  0.340370  0.176530  0.300380  1.0  -0.1534
  C  C279  1  0.349170  0.066830  0.267490  1.0  0.3553
  C  C280  1  0.246770  0.034330  0.259020  1.0  -0.1597
  C  C281  1  0.167830  0.519970  0.627640  1.0  0.1139
  C  C282  1  0.083030  0.576670  0.649250  1.0  -0.0093
  C  C283  1  0.007030  0.509870  0.633720  1.0  -0.1534
  C  C284  1  0.015830  0.400170  0.600830  1.0  0.3562
  C  C285  1  0.913430  0.367670  0.592360  1.0  -0.1558
  C  C286  1  0.981200  0.146700  0.539030  1.0  0.1146
  C  C287  1  0.839700  0.090000  0.517420  1.0  -0.0089
  C  C288  1  0.830500  0.156800  0.532950  1.0  -0.1537
  C  C289  1  0.949000  0.266500  0.565840  1.0  0.3544
  C  C290  1  0.879100  0.299000  0.574310  1.0  -0.1554
  C  C291  1  0.647870  0.480030  0.872360  1.0  0.1146
  C  C292  1  0.506370  0.423330  0.850750  1.0  -0.0089
  C  C293  1  0.497170  0.490130  0.866280  1.0  -0.1537
  C  C294  1  0.615670  0.599830  0.899170  1.0  0.3544
  C  C295  1  0.545770  0.632330  0.907640  1.0  -0.1554
  C  C296  1  0.314530  0.813370  0.205700  1.0  0.1146
  C  C297  1  0.173030  0.756670  0.184090  1.0  -0.0089
  C  C298  1  0.163830  0.823470  0.199620  1.0  -0.1537
  C  C299  1  0.282330  0.933170  0.232510  1.0  0.3548
  C  C300  1  0.212430  0.965670  0.240980  1.0  -0.1571
  C  C301  1  0.165500  0.018800  0.539030  1.0  0.1143
  C  C302  1  0.250300  0.160300  0.517420  1.0  -0.0076
  C  C303  1  0.326300  0.169500  0.532950  1.0  -0.1582
  C  C304  1  0.317500  0.051000  0.565840  1.0  0.3543
  C  C305  1  0.419900  0.120900  0.574310  1.0  -0.1557
  C  C306  1  0.832170  0.352130  0.872360  1.0  0.1143
  C  C307  1  0.916970  0.493630  0.850750  1.0  -0.0076
  C  C308  1  0.992970  0.502830  0.866280  1.0  -0.1582
  C  C309  1  0.984170  0.384330  0.899170  1.0  0.3543
  C  C310  1  0.086570  0.454230  0.907640  1.0  -0.1557
  C  C311  1  0.498830  0.685470  0.205700  1.0  0.1143
  C  C312  1  0.583630  0.826970  0.184090  1.0  -0.0076
  C  C313  1  0.659630  0.836170  0.199620  1.0  -0.1582
  C  C314  1  0.650830  0.717670  0.232510  1.0  0.3547
  C  C315  1  0.753230  0.787570  0.240980  1.0  -0.1566
  C  C316  1  0.853300  0.834500  0.539030  1.0  0.1127
  C  C317  1  0.910000  0.749700  0.517420  1.0  -0.0058
  C  C318  1  0.843200  0.673700  0.532950  1.0  -0.1557
  C  C319  1  0.733500  0.682500  0.565840  1.0  0.3546
  C  C320  1  0.701000  0.580100  0.574310  1.0  -0.1553
  C  C321  1  0.519970  0.167830  0.872360  1.0  0.1127
  C  C322  1  0.576670  0.083030  0.850750  1.0  -0.0057
  C  C323  1  0.509870  0.007030  0.866280  1.0  -0.1557
  C  C324  1  0.400170  0.015830  0.899170  1.0  0.3546
  C  C325  1  0.367670  0.913430  0.907640  1.0  -0.1553
  C  C326  1  0.186630  0.501170  0.205700  1.0  0.1127
  C  C327  1  0.243330  0.416370  0.184090  1.0  -0.0057
  C  C328  1  0.176530  0.340370  0.199620  1.0  -0.1557
  C  C329  1  0.066830  0.349170  0.232510  1.0  0.354
  C  C330  1  0.034330  0.246770  0.240980  1.0  -0.1587
  N  N331  1  0.918100  0.067000  0.021040  1.0  -0.3974
  N  N332  1  0.807000  0.078700  0.046660  1.0  0.0519
  N  N333  1  0.700200  0.951800  0.073780  1.0  -0.2711
  N  N334  1  0.584770  0.400330  0.354370  1.0  -0.3974
  N  N335  1  0.473670  0.412030  0.379990  1.0  0.0517
  N  N336  1  0.366870  0.285130  0.407110  1.0  -0.2711
  N  N337  1  0.251430  0.733670  0.687710  1.0  -0.3975
  N  N338  1  0.140330  0.745370  0.713330  1.0  0.0518
  N  N339  1  0.033530  0.618470  0.740450  1.0  -0.2719
  N  N340  1  0.933000  0.851100  0.021040  1.0  -0.3956
  N  N341  1  0.921300  0.728300  0.046660  1.0  0.0506
  N  N342  1  0.048200  0.748400  0.073780  1.0  -0.2712
  N  N343  1  0.599670  0.184430  0.354370  1.0  -0.3956
  N  N344  1  0.587970  0.061630  0.379990  1.0  0.0506
  N  N345  1  0.714870  0.081730  0.407110  1.0  -0.2712
  N  N346  1  0.266330  0.517770  0.687710  1.0  -0.3956
  N  N347  1  0.254630  0.394970  0.713330  1.0  0.0506
  N  N348  1  0.381530  0.415070  0.740450  1.0  -0.2694
  N  N349  1  0.148900  0.081900  0.021040  1.0  -0.3964
  N  N350  1  0.271700  0.193000  0.046660  1.0  0.0495
  N  N351  1  0.251600  0.299800  0.073780  1.0  -0.2709
  N  N352  1  0.815570  0.415230  0.354370  1.0  -0.3964
  N  N353  1  0.938370  0.526330  0.379990  1.0  0.0495
  N  N354  1  0.918270  0.633130  0.407110  1.0  -0.2709
  N  N355  1  0.482230  0.748570  0.687710  1.0  -0.3965
  N  N356  1  0.605030  0.859670  0.713330  1.0  0.0495
  N  N357  1  0.584930  0.966470  0.740450  1.0  -0.271
  N  N358  1  0.067000  0.918100  0.478960  1.0  -0.3963
  N  N359  1  0.078700  0.807000  0.453340  1.0  0.0513
  N  N360  1  0.951800  0.700200  0.426220  1.0  -0.2721
  N  N361  1  0.733670  0.251430  0.812290  1.0  -0.3963
  N  N362  1  0.745370  0.140330  0.786670  1.0  0.0511
  N  N363  1  0.618470  0.033530  0.759550  1.0  -0.2741
  N  N364  1  0.400330  0.584770  0.145630  1.0  -0.3963
  N  N365  1  0.412030  0.473670  0.120010  1.0  0.0511
  N  N366  1  0.285130  0.366870  0.092890  1.0  -0.2721
  N  N367  1  0.851100  0.933000  0.478960  1.0  -0.3969
  N  N368  1  0.728300  0.921300  0.453340  1.0  0.0525
  N  N369  1  0.748400  0.048200  0.426220  1.0  -0.2712
  N  N370  1  0.517770  0.266330  0.812290  1.0  -0.3969
  N  N371  1  0.394970  0.254630  0.786670  1.0  0.0525
  N  N372  1  0.415070  0.381530  0.759550  1.0  -0.2692
  N  N373  1  0.184430  0.599670  0.145630  1.0  -0.3969
  N  N374  1  0.061630  0.587970  0.120010  1.0  0.0525
  N  N375  1  0.081730  0.714870  0.092890  1.0  -0.2712
  N  N376  1  0.081900  0.148900  0.478960  1.0  -0.3964
  N  N377  1  0.193000  0.271700  0.453340  1.0  0.0507
  N  N378  1  0.299800  0.251600  0.426220  1.0  -0.2714
  N  N379  1  0.748570  0.482230  0.812290  1.0  -0.3964
  N  N380  1  0.859670  0.605030  0.786670  1.0  0.0507
  N  N381  1  0.966470  0.584930  0.759550  1.0  -0.2705
  N  N382  1  0.415230  0.815570  0.145630  1.0  -0.3964
  N  N383  1  0.526330  0.938370  0.120010  1.0  0.0507
  N  N384  1  0.633130  0.918270  0.092890  1.0  -0.2714
  N  N385  1  0.081900  0.933000  0.978960  1.0  -0.3963
  N  N386  1  0.193000  0.921300  0.953340  1.0  0.0519
  N  N387  1  0.299800  0.048200  0.926220  1.0  -0.2706
  N  N388  1  0.748570  0.266330  0.312290  1.0  -0.3964
  N  N389  1  0.859670  0.254630  0.286670  1.0  0.0518
  N  N390  1  0.966470  0.381530  0.259550  1.0  -0.2726
  N  N391  1  0.415230  0.599670  0.645630  1.0  -0.3963
  N  N392  1  0.526330  0.587970  0.620010  1.0  0.0518
  N  N393  1  0.633130  0.714870  0.592890  1.0  -0.2706
  N  N394  1  0.067000  0.148900  0.978960  1.0  -0.3963
  N  N395  1  0.078700  0.271700  0.953340  1.0  0.0501
  N  N396  1  0.951800  0.251600  0.926220  1.0  -0.2707
  N  N397  1  0.733670  0.482230  0.312290  1.0  -0.3963
  N  N398  1  0.745370  0.605030  0.286670  1.0  0.0501
  N  N399  1  0.618470  0.584930  0.259550  1.0  -0.2686
  N  N400  1  0.400330  0.815570  0.645630  1.0  -0.3963
  N  N401  1  0.412030  0.938370  0.620010  1.0  0.0501
  N  N402  1  0.285130  0.918270  0.592890  1.0  -0.2707
  N  N403  1  0.851100  0.918100  0.978960  1.0  -0.3964
  N  N404  1  0.728300  0.807000  0.953340  1.0  0.0502
  N  N405  1  0.748400  0.700200  0.926220  1.0  -0.2737
  N  N406  1  0.517770  0.251430  0.312290  1.0  -0.3964
  N  N407  1  0.394970  0.140330  0.286670  1.0  0.0502
  N  N408  1  0.415070  0.033530  0.259550  1.0  -0.273
  N  N409  1  0.184430  0.584770  0.645630  1.0  -0.3964
  N  N410  1  0.061630  0.473670  0.620010  1.0  0.0502
  N  N411  1  0.081730  0.366870  0.592890  1.0  -0.2737
  N  N412  1  0.933000  0.081900  0.521040  1.0  -0.3966
  N  N413  1  0.921300  0.193000  0.546660  1.0  0.0502
  N  N414  1  0.048200  0.299800  0.573780  1.0  -0.2747
  N  N415  1  0.599670  0.415230  0.854370  1.0  -0.3966
  N  N416  1  0.587970  0.526330  0.879990  1.0  0.0501
  N  N417  1  0.714870  0.633130  0.907110  1.0  -0.2747
  N  N418  1  0.266330  0.748570  0.187710  1.0  -0.3966
  N  N419  1  0.254630  0.859670  0.213330  1.0  0.0501
  N  N420  1  0.381530  0.966470  0.240450  1.0  -0.2761
  N  N421  1  0.148900  0.067000  0.521040  1.0  -0.3967
  N  N422  1  0.271700  0.078700  0.546660  1.0  0.0509
  N  N423  1  0.251600  0.951800  0.573780  1.0  -0.2693
  N  N424  1  0.815570  0.400330  0.854370  1.0  -0.3967
  N  N425  1  0.938370  0.412030  0.879990  1.0  0.0509
  N  N426  1  0.918270  0.285130  0.907110  1.0  -0.2693
  N  N427  1  0.482230  0.733670  0.187710  1.0  -0.3967
  N  N428  1  0.605030  0.745370  0.213330  1.0  0.051
  N  N429  1  0.584930  0.618470  0.240450  1.0  -0.267
  N  N430  1  0.918100  0.851100  0.521040  1.0  -0.3955
  N  N431  1  0.807000  0.728300  0.546660  1.0  0.0498
  N  N432  1  0.700200  0.748400  0.573780  1.0  -0.2708
  N  N433  1  0.584770  0.184430  0.854370  1.0  -0.3955
  N  N434  1  0.473670  0.061630  0.879990  1.0  0.0498
  N  N435  1  0.366870  0.081730  0.907110  1.0  -0.2708
  N  N436  1  0.251430  0.517770  0.187710  1.0  -0.3955
  N  N437  1  0.140330  0.394970  0.213330  1.0  0.0498
  N  N438  1  0.033530  0.415070  0.240450  1.0  -0.271
