# generated using pymatgen
data_PrBiH12C10(NO4)5
_symmetry_space_group_name_H-M   'P 1'
_cell_length_a   8.21890000
_cell_length_b   12.68310000
_cell_length_c   23.75500000
_cell_angle_alpha   105.05500000
_cell_angle_beta   90.00000000
_cell_angle_gamma   90.00000000
_symmetry_Int_Tables_number   1
_chemical_formula_structural   PrBiH12C10(NO4)5
_chemical_formula_sum   'Pr4 Bi4 H48 C40 N20 O80'
_cell_volume   2391.25562881
_cell_formula_units_Z   4
loop_
 _symmetry_equiv_pos_site_id
 _symmetry_equiv_pos_as_xyz
  1  'x, y, z'
loop_
 _atom_site_type_symbol
 _atom_site_label
 _atom_site_symmetry_multiplicity
 _atom_site_fract_x
 _atom_site_fract_y
 _atom_site_fract_z
 _atom_site_occupancy
 _atom_site_charge
  Pr  Pr1  1  0.998110  0.096080  0.884810  1.0  2.1577
  Pr  Pr2  1  0.498110  0.403920  0.615190  1.0  2.1579
  Pr  Pr3  1  0.001890  0.903920  0.115190  1.0  2.1573
  Pr  Pr4  1  0.501890  0.596080  0.384810  1.0  2.157
  Bi  Bi5  1  0.170780  0.596080  0.868460  1.0  1.3221
  Bi  Bi6  1  0.670780  0.903920  0.631540  1.0  1.3216
  Bi  Bi7  1  0.829220  0.403920  0.131540  1.0  1.3193
  Bi  Bi8  1  0.329220  0.096080  0.368460  1.0  1.3206
  H  H9  1  0.158900  0.711500  0.757800  1.0  0.1545
  H  H10  1  0.976900  0.739200  0.747500  1.0  0.1268
  H  H11  1  0.758300  0.601900  0.765400  1.0  0.1294
  H  H12  1  0.795700  0.692600  0.822800  1.0  0.1323
  H  H13  1  0.667300  0.546800  0.846900  1.0  0.133
  H  H14  1  0.800100  0.465800  0.813200  1.0  0.1286
  H  H15  1  0.994100  0.546000  0.698100  1.0  0.1384
  H  H16  1  0.968600  0.459700  0.734100  1.0  0.1488
  H  H17  1  0.778500  0.429900  0.909100  1.0  0.1348
  H  H18  1  0.926600  0.476900  0.949500  1.0  0.1418
  H  H19  1  0.732200  0.624200  0.957700  1.0  0.1452
  H  H20  1  0.771800  0.705800  0.920100  1.0  0.149
  H  H21  1  0.658900  0.788500  0.742200  1.0  0.1546
  H  H22  1  0.476900  0.760800  0.752500  1.0  0.1259
  H  H23  1  0.258300  0.898100  0.734600  1.0  0.1296
  H  H24  1  0.295700  0.807400  0.677200  1.0  0.1332
  H  H25  1  0.167300  0.953200  0.653100  1.0  0.1332
  H  H26  1  0.300100  0.034200  0.686800  1.0  0.1306
  H  H27  1  0.494100  0.954000  0.801900  1.0  0.139
  H  H28  1  0.468600  0.040300  0.765900  1.0  0.1494
  H  H29  1  0.278500  0.070100  0.590900  1.0  0.1335
  H  H30  1  0.426600  0.023100  0.550500  1.0  0.1423
  H  H31  1  0.232200  0.875800  0.542300  1.0  0.1466
  H  H32  1  0.271800  0.794200  0.579900  1.0  0.1491
  H  H33  1  0.841100  0.288500  0.242200  1.0  0.1518
  H  H34  1  0.023100  0.260800  0.252500  1.0  0.126
  H  H35  1  0.241700  0.398100  0.234600  1.0  0.1288
  H  H36  1  0.204300  0.307400  0.177200  1.0  0.1325
  H  H37  1  0.332700  0.453200  0.153100  1.0  0.1376
  H  H38  1  0.199900  0.534200  0.186800  1.0  0.1308
  H  H39  1  0.005900  0.454000  0.301900  1.0  0.1388
  H  H40  1  0.031400  0.540300  0.265900  1.0  0.1498
  H  H41  1  0.221500  0.570100  0.090900  1.0  0.1334
  H  H42  1  0.073400  0.523100  0.050500  1.0  0.1426
  H  H43  1  0.267800  0.375800  0.042300  1.0  0.1464
  H  H44  1  0.228200  0.294200  0.079900  1.0  0.1491
  H  H45  1  0.341100  0.211500  0.257800  1.0  0.1518
  H  H46  1  0.523100  0.239200  0.247500  1.0  0.1268
  H  H47  1  0.741700  0.101900  0.265400  1.0  0.1291
  H  H48  1  0.704300  0.192600  0.322800  1.0  0.1316
  H  H49  1  0.832700  0.046800  0.346900  1.0  0.1375
  H  H50  1  0.699900  0.965800  0.313200  1.0  0.1313
  H  H51  1  0.505900  0.046000  0.198100  1.0  0.1389
  H  H52  1  0.531400  0.959700  0.234100  1.0  0.1474
  H  H53  1  0.721500  0.929900  0.409100  1.0  0.1338
  H  H54  1  0.573400  0.976900  0.449500  1.0  0.1419
  H  H55  1  0.767800  0.124200  0.457700  1.0  0.1449
  H  H56  1  0.728200  0.205800  0.420100  1.0  0.1484
  C  C57  1  0.052700  0.807600  0.830500  1.0  0.7764
  C  C58  1  0.050900  0.719400  0.774900  1.0  -0.1034
  C  C59  1  0.822800  0.619000  0.800800  1.0  0.0344
  C  C60  1  0.781600  0.539800  0.836500  1.0  0.0282
  C  C61  1  0.030500  0.523700  0.732100  1.0  -0.099
  C  C62  1  0.207900  0.495100  0.725700  1.0  0.8085
  C  C63  1  0.887300  0.459900  0.909700  1.0  -0.0739
  C  C64  1  0.000000  0.373600  0.870600  1.0  0.7761
  C  C65  1  0.818400  0.651100  0.937300  1.0  -0.0933
  C  C66  1  0.948700  0.705100  0.981300  1.0  0.7779
  C  C67  1  0.552700  0.692400  0.669500  1.0  0.7752
  C  C68  1  0.550900  0.780600  0.725100  1.0  -0.109
  C  C69  1  0.322800  0.881000  0.699200  1.0  0.0333
  C  C70  1  0.281600  0.960200  0.663500  1.0  0.0299
  C  C71  1  0.530500  0.976300  0.767900  1.0  -0.0988
  C  C72  1  0.707900  0.004900  0.774300  1.0  0.8082
  C  C73  1  0.387300  0.040100  0.590300  1.0  -0.0717
  C  C74  1  0.500000  0.126400  0.629400  1.0  0.774
  C  C75  1  0.318400  0.848900  0.562700  1.0  -0.09
  C  C76  1  0.448700  0.794900  0.518700  1.0  0.7776
  C  C77  1  0.947300  0.192400  0.169500  1.0  0.7757
  C  C78  1  0.949100  0.280600  0.225100  1.0  -0.11
  C  C79  1  0.177200  0.381000  0.199200  1.0  0.0328
  C  C80  1  0.218400  0.460200  0.163500  1.0  0.0292
  C  C81  1  0.969500  0.476300  0.267900  1.0  -0.0994
  C  C82  1  0.792100  0.504900  0.274300  1.0  0.8109
  C  C83  1  0.112700  0.540100  0.090300  1.0  -0.0716
  C  C84  1  0.000000  0.626400  0.129400  1.0  0.775
  C  C85  1  0.181600  0.348900  0.062700  1.0  -0.0898
  C  C86  1  0.051300  0.294900  0.018700  1.0  0.7779
  C  C87  1  0.447300  0.307600  0.330500  1.0  0.7768
  C  C88  1  0.449100  0.219400  0.274900  1.0  -0.1045
  C  C89  1  0.677200  0.119000  0.300800  1.0  0.0337
  C  C90  1  0.718400  0.039800  0.336500  1.0  0.0283
  C  C91  1  0.469500  0.023700  0.232100  1.0  -0.0991
  C  C92  1  0.292100  0.995100  0.225700  1.0  0.8078
  C  C93  1  0.612700  0.959900  0.409700  1.0  -0.0733
  C  C94  1  0.500000  0.873600  0.370600  1.0  0.7766
  C  C95  1  0.681600  0.151100  0.437300  1.0  -0.0901
  C  C96  1  0.551300  0.205100  0.481300  1.0  0.777
  N  N97  1  0.998800  0.613500  0.785400  1.0  -0.1869
  N  N98  1  0.880600  0.559800  0.890200  1.0  -0.1794
  N  N99  1  0.465500  0.774200  0.885800  1.0  0.8156
  N  N100  1  0.336500  0.067000  0.922300  1.0  0.7216
  N  N101  1  0.498800  0.886500  0.714600  1.0  -0.1863
  N  N102  1  0.380600  0.940200  0.609800  1.0  -0.1796
  N  N103  1  0.965500  0.725800  0.614200  1.0  0.8149
  N  N104  1  0.836500  0.433000  0.577700  1.0  0.7222
  N  N105  1  0.001200  0.386500  0.214600  1.0  -0.1862
  N  N106  1  0.119400  0.440200  0.109800  1.0  -0.18
  N  N107  1  0.534500  0.225800  0.114200  1.0  0.8151
  N  N108  1  0.663500  0.933000  0.077700  1.0  0.7225
  N  N109  1  0.501200  0.113500  0.285400  1.0  -0.1875
  N  N110  1  0.619400  0.059800  0.390200  1.0  -0.1801
  N  N111  1  0.034500  0.274200  0.385800  1.0  0.8161
  N  N112  1  0.163500  0.567000  0.422300  1.0  0.7219
  N  N113  1  0.405900  0.466000  0.934300  1.0  0.8536
  N  N114  1  0.905900  0.034000  0.565700  1.0  0.8542
  N  N115  1  0.594100  0.534000  0.065700  1.0  0.8541
  N  N116  1  0.094100  0.966000  0.434300  1.0  0.8534
  O  O117  1  0.065800  0.779600  0.878900  1.0  -0.593
  O  O118  1  0.857000  0.972600  0.936900  1.0  -0.1814
  O  O119  1  0.749200  0.191400  0.939000  1.0  -0.1708
  O  O120  1  0.082200  0.081200  0.780500  1.0  -0.1818
  O  O121  1  0.042500  0.902900  0.827800  1.0  -0.5889
  O  O122  1  0.296000  0.513900  0.770400  1.0  -0.5766
  O  O123  1  0.254000  0.449000  0.675100  1.0  -0.6485
  O  O124  1  0.099200  0.408900  0.839700  1.0  -0.5891
  O  O125  1  0.986000  0.277600  0.870800  1.0  -0.6609
  O  O126  1  0.091400  0.667900  0.972500  1.0  -0.5763
  O  O127  1  0.905100  0.783200  0.021500  1.0  -0.6103
  O  O128  1  0.411300  0.712900  0.839700  1.0  -0.5931
  O  O129  1  0.572700  0.839200  0.883000  1.0  -0.4456
  O  O130  1  0.409000  0.761000  0.931600  1.0  -0.4526
  O  O131  1  0.309900  0.123100  0.884000  1.0  -0.5739
  O  O132  1  0.214000  0.009900  0.937200  1.0  -0.5893
  O  O133  1  0.467600  0.069200  0.950500  1.0  -0.4315
  O  O134  1  0.565800  0.720400  0.621100  1.0  -0.5915
  O  O135  1  0.357000  0.527400  0.563100  1.0  -0.1808
  O  O136  1  0.249200  0.308600  0.561000  1.0  -0.1711
  O  O137  1  0.582200  0.418800  0.719500  1.0  -0.1815
  O  O138  1  0.542500  0.597100  0.672200  1.0  -0.5894
  O  O139  1  0.796000  0.986100  0.729600  1.0  -0.5741
  O  O140  1  0.754000  0.051000  0.824900  1.0  -0.6485
  O  O141  1  0.599200  0.091100  0.660300  1.0  -0.5899
  O  O142  1  0.486000  0.222400  0.629200  1.0  -0.6592
  O  O143  1  0.591400  0.832100  0.527500  1.0  -0.5771
  O  O144  1  0.405100  0.716800  0.478500  1.0  -0.6096
  O  O145  1  0.911300  0.787100  0.660300  1.0  -0.5942
  O  O146  1  0.072700  0.660800  0.617000  1.0  -0.4444
  O  O147  1  0.909000  0.739000  0.568400  1.0  -0.4507
  O  O148  1  0.809900  0.376900  0.616000  1.0  -0.5747
  O  O149  1  0.714000  0.490100  0.562800  1.0  -0.5898
  O  O150  1  0.967600  0.430800  0.549500  1.0  -0.4323
  O  O151  1  0.934200  0.220400  0.121100  1.0  -0.5915
  O  O152  1  0.143000  0.027400  0.063100  1.0  -0.181
  O  O153  1  0.250800  0.808600  0.061000  1.0  -0.1703
  O  O154  1  0.917800  0.918800  0.219500  1.0  -0.1823
  O  O155  1  0.957500  0.097100  0.172200  1.0  -0.5894
  O  O156  1  0.704000  0.486100  0.229600  1.0  -0.5746
  O  O157  1  0.746000  0.551000  0.324900  1.0  -0.6478
  O  O158  1  0.900800  0.591100  0.160300  1.0  -0.5896
  O  O159  1  0.014000  0.722400  0.129200  1.0  -0.6597
  O  O160  1  0.908600  0.332100  0.027500  1.0  -0.5754
  O  O161  1  0.094900  0.216800  0.978500  1.0  -0.6101
  O  O162  1  0.588700  0.287100  0.160300  1.0  -0.5929
  O  O163  1  0.427300  0.160800  0.117000  1.0  -0.4441
  O  O164  1  0.591000  0.239000  0.068400  1.0  -0.4491
  O  O165  1  0.690100  0.876900  0.116000  1.0  -0.5746
  O  O166  1  0.786000  0.990100  0.062800  1.0  -0.5894
  O  O167  1  0.532400  0.930800  0.049500  1.0  -0.4345
  O  O168  1  0.434200  0.279600  0.378900  1.0  -0.5936
  O  O169  1  0.643000  0.472600  0.436900  1.0  -0.1814
  O  O170  1  0.750800  0.691400  0.439000  1.0  -0.1696
  O  O171  1  0.417800  0.581200  0.280500  1.0  -0.1821
  O  O172  1  0.457500  0.402900  0.327800  1.0  -0.5885
  O  O173  1  0.204000  0.013900  0.270400  1.0  -0.5757
  O  O174  1  0.246000  0.949000  0.175100  1.0  -0.6491
  O  O175  1  0.400800  0.908900  0.339700  1.0  -0.5878
  O  O176  1  0.514000  0.777600  0.370800  1.0  -0.6613
  O  O177  1  0.408600  0.167900  0.472500  1.0  -0.577
  O  O178  1  0.594900  0.283200  0.521500  1.0  -0.6109
  O  O179  1  0.088700  0.212900  0.339700  1.0  -0.5923
  O  O180  1  0.927300  0.339200  0.383000  1.0  -0.4456
  O  O181  1  0.091000  0.261000  0.431600  1.0  -0.451
  O  O182  1  0.190100  0.623100  0.384000  1.0  -0.574
  O  O183  1  0.286000  0.509900  0.437200  1.0  -0.5892
  O  O184  1  0.032400  0.569200  0.450500  1.0  -0.4326
  O  O185  1  0.447000  0.486000  0.889000  1.0  -0.5535
  O  O186  1  0.502000  0.416100  0.959900  1.0  -0.4596
  O  O187  1  0.266900  0.486000  0.953500  1.0  -0.5256
  O  O188  1  0.947000  0.014000  0.611000  1.0  -0.5543
  O  O189  1  0.002000  0.083900  0.540100  1.0  -0.4612
  O  O190  1  0.766900  0.014000  0.546500  1.0  -0.5261
  O  O191  1  0.553000  0.514000  0.111000  1.0  -0.5531
  O  O192  1  0.498000  0.583900  0.040100  1.0  -0.4602
  O  O193  1  0.733100  0.514000  0.046500  1.0  -0.5269
  O  O194  1  0.053000  0.986000  0.389000  1.0  -0.5525
  O  O195  1  0.998000  0.916100  0.459900  1.0  -0.4591
  O  O196  1  0.233100  0.986000  0.453500  1.0  -0.5262
