# generated using pymatgen
data_Mn6Cu6B8H288C264(ClO16)3
_symmetry_space_group_name_H-M   'P 1'
_cell_length_a   22.70980000
_cell_length_b   22.70980000
_cell_length_c   22.70980000
_cell_angle_alpha   90.00000000
_cell_angle_beta   90.00000000
_cell_angle_gamma   90.00000000
_symmetry_Int_Tables_number   1
_chemical_formula_structural   Mn6Cu6B8H288C264(ClO16)3
_chemical_formula_sum   'Mn6 Cu6 B8 H288 C264 Cl3 O48'
_cell_volume   11712.23906727
_cell_formula_units_Z   1
loop_
 _symmetry_equiv_pos_site_id
 _symmetry_equiv_pos_as_xyz
  1  'x, y, z'
loop_
 _atom_site_type_symbol
 _atom_site_label
 _atom_site_symmetry_multiplicity
 _atom_site_fract_x
 _atom_site_fract_y
 _atom_site_fract_z
 _atom_site_occupancy
 _atom_site_charge
  Mn  Mn1  1  0.500000  0.388600  0.000000  1.0  1.04
  Mn  Mn2  1  0.000000  0.500000  0.388600  1.0  1.0414
  Mn  Mn3  1  0.388600  0.000000  0.500000  1.0  1.0391
  Mn  Mn4  1  0.388600  0.500000  0.000000  1.0  1.0391
  Mn  Mn5  1  0.500000  0.000000  0.611400  1.0  1.0417
  Mn  Mn6  1  0.000000  0.388600  0.500000  1.0  1.04
  Cu  Cu7  1  0.500000  0.611400  0.000000  1.0  0.9328
  Cu  Cu8  1  0.000000  0.500000  0.611400  1.0  0.9345
  Cu  Cu9  1  0.611400  0.000000  0.500000  1.0  0.9326
  Cu  Cu10  1  0.611400  0.500000  0.000000  1.0  0.9326
  Cu  Cu11  1  0.500000  0.000000  0.388600  1.0  0.9329
  Cu  Cu12  1  0.000000  0.611400  0.500000  1.0  0.9328
  B  B13  1  0.286600  0.286600  0.286600  1.0  0.4189
  B  B14  1  0.713400  0.713400  0.286600  1.0  0.4188
  B  B15  1  0.713400  0.286600  0.713400  1.0  0.4187
  B  B16  1  0.286600  0.713400  0.713400  1.0  0.4186
  B  B17  1  0.286600  0.286600  0.713400  1.0  0.4188
  B  B18  1  0.713400  0.713400  0.713400  1.0  0.4186
  B  B19  1  0.286600  0.713400  0.286600  1.0  0.4189
  B  B20  1  0.713400  0.286600  0.286600  1.0  0.4188
  H  H21  1  0.300700  0.203900  0.211800  1.0  0.117
  H  H22  1  0.333200  0.199400  0.151100  1.0  0.0993
  H  H23  1  0.267100  0.219000  0.153400  1.0  0.1122
  H  H24  1  0.283000  0.412300  0.298400  1.0  0.1171
  H  H25  1  0.332800  0.455400  0.277900  1.0  0.1105
  H  H26  1  0.348100  0.401800  0.318500  1.0  0.1068
  H  H27  1  0.319300  0.263800  0.057900  1.0  0.1185
  H  H28  1  0.381300  0.241900  0.078800  1.0  0.117
  H  H29  1  0.375700  0.300800  0.043300  1.0  0.1201
  H  H30  1  0.409600  0.469800  0.221500  1.0  0.1152
  H  H31  1  0.352500  0.491900  0.189800  1.0  0.1148
  H  H32  1  0.407700  0.473500  0.152600  1.0  0.1179
  H  H33  1  0.699300  0.796100  0.211800  1.0  0.1161
  H  H34  1  0.666800  0.800600  0.151100  1.0  0.101
  H  H35  1  0.732900  0.781000  0.153400  1.0  0.1116
  H  H36  1  0.717000  0.587700  0.298400  1.0  0.119
  H  H37  1  0.667200  0.544600  0.277900  1.0  0.1102
  H  H38  1  0.651900  0.598200  0.318500  1.0  0.1084
  H  H39  1  0.680700  0.736200  0.057900  1.0  0.1109
  H  H40  1  0.618700  0.758100  0.078800  1.0  0.1168
  H  H41  1  0.624300  0.699200  0.043300  1.0  0.1199
  H  H42  1  0.590400  0.530200  0.221500  1.0  0.1156
  H  H43  1  0.647500  0.508100  0.189800  1.0  0.1154
  H  H44  1  0.592300  0.526500  0.152600  1.0  0.1178
  H  H45  1  0.699300  0.203900  0.788200  1.0  0.1178
  H  H46  1  0.666800  0.199400  0.848900  1.0  0.1007
  H  H47  1  0.732900  0.219000  0.846600  1.0  0.1096
  H  H48  1  0.717000  0.412300  0.701600  1.0  0.1185
  H  H49  1  0.667200  0.455400  0.722100  1.0  0.111
  H  H50  1  0.651900  0.401800  0.681500  1.0  0.1087
  H  H51  1  0.680700  0.263800  0.942100  1.0  0.1099
  H  H52  1  0.618700  0.241900  0.921200  1.0  0.1176
  H  H53  1  0.624300  0.300800  0.956700  1.0  0.1195
  H  H54  1  0.590400  0.469800  0.778500  1.0  0.1159
  H  H55  1  0.647500  0.491900  0.810200  1.0  0.1153
  H  H56  1  0.592300  0.473500  0.847400  1.0  0.1176
  H  H57  1  0.300700  0.796100  0.788200  1.0  0.1153
  H  H58  1  0.333200  0.800600  0.848900  1.0  0.0993
  H  H59  1  0.267100  0.781000  0.846600  1.0  0.1119
  H  H60  1  0.283000  0.587700  0.701600  1.0  0.1167
  H  H61  1  0.332800  0.544600  0.722100  1.0  0.1106
  H  H62  1  0.348100  0.598200  0.681500  1.0  0.1067
  H  H63  1  0.319300  0.736200  0.942100  1.0  0.1195
  H  H64  1  0.381300  0.758100  0.921200  1.0  0.1155
  H  H65  1  0.375700  0.699200  0.956700  1.0  0.1205
  H  H66  1  0.409600  0.530200  0.778500  1.0  0.1154
  H  H67  1  0.352500  0.508100  0.810200  1.0  0.1152
  H  H68  1  0.407700  0.526500  0.847400  1.0  0.1174
  H  H69  1  0.211800  0.300700  0.203900  1.0  0.1185
  H  H70  1  0.151100  0.333200  0.199400  1.0  0.1003
  H  H71  1  0.153400  0.267100  0.219000  1.0  0.1118
  H  H72  1  0.298400  0.283000  0.412300  1.0  0.1143
  H  H73  1  0.277900  0.332800  0.455400  1.0  0.1096
  H  H74  1  0.318500  0.348100  0.401800  1.0  0.1084
  H  H75  1  0.057900  0.319300  0.263800  1.0  0.1197
  H  H76  1  0.078800  0.381300  0.241900  1.0  0.1166
  H  H77  1  0.043300  0.375700  0.300800  1.0  0.1205
  H  H78  1  0.221500  0.409600  0.469800  1.0  0.1144
  H  H79  1  0.189800  0.352500  0.491900  1.0  0.116
  H  H80  1  0.152600  0.407700  0.473500  1.0  0.1178
  H  H81  1  0.211800  0.699300  0.796100  1.0  0.1179
  H  H82  1  0.151100  0.666800  0.800600  1.0  0.1006
  H  H83  1  0.153400  0.732900  0.781000  1.0  0.1125
  H  H84  1  0.298400  0.717000  0.587700  1.0  0.1183
  H  H85  1  0.277900  0.667200  0.544600  1.0  0.1092
  H  H86  1  0.318500  0.651900  0.598200  1.0  0.109
  H  H87  1  0.057900  0.680700  0.736200  1.0  0.1226
  H  H88  1  0.078800  0.618700  0.758100  1.0  0.1189
  H  H89  1  0.043300  0.624300  0.699200  1.0  0.122
  H  H90  1  0.221500  0.590400  0.530200  1.0  0.1149
  H  H91  1  0.189800  0.647500  0.508100  1.0  0.1168
  H  H92  1  0.152600  0.592300  0.526500  1.0  0.1173
  H  H93  1  0.788200  0.699300  0.203900  1.0  0.1209
  H  H94  1  0.848900  0.666800  0.199400  1.0  0.1004
  H  H95  1  0.846600  0.732900  0.219000  1.0  0.1123
  H  H96  1  0.701600  0.717000  0.412300  1.0  0.1176
  H  H97  1  0.722100  0.667200  0.455400  1.0  0.1104
  H  H98  1  0.681500  0.651900  0.401800  1.0  0.1098
  H  H99  1  0.942100  0.680700  0.263800  1.0  0.1219
  H  H100  1  0.921200  0.618700  0.241900  1.0  0.1189
  H  H101  1  0.956700  0.624300  0.300800  1.0  0.1202
  H  H102  1  0.778500  0.590400  0.469800  1.0  0.1163
  H  H103  1  0.810200  0.647500  0.491900  1.0  0.116
  H  H104  1  0.847400  0.592300  0.473500  1.0  0.1188
  H  H105  1  0.788200  0.300700  0.796100  1.0  0.1199
  H  H106  1  0.848900  0.333200  0.800600  1.0  0.0992
  H  H107  1  0.846600  0.267100  0.781000  1.0  0.1129
  H  H108  1  0.701600  0.283000  0.587700  1.0  0.1147
  H  H109  1  0.722100  0.332800  0.544600  1.0  0.1103
  H  H110  1  0.681500  0.348100  0.598200  1.0  0.11
  H  H111  1  0.942100  0.319300  0.736200  1.0  0.1213
  H  H112  1  0.921200  0.381300  0.758100  1.0  0.1186
  H  H113  1  0.956700  0.375700  0.699200  1.0  0.1204
  H  H114  1  0.778500  0.409600  0.530200  1.0  0.1157
  H  H115  1  0.810200  0.352500  0.508100  1.0  0.1169
  H  H116  1  0.847400  0.407700  0.526500  1.0  0.1186
  H  H117  1  0.203900  0.211800  0.300700  1.0  0.1206
  H  H118  1  0.199400  0.151100  0.333200  1.0  0.102
  H  H119  1  0.219000  0.153400  0.267100  1.0  0.1119
  H  H120  1  0.412300  0.298400  0.283000  1.0  0.1153
  H  H121  1  0.455400  0.277900  0.332800  1.0  0.1107
  H  H122  1  0.401800  0.318500  0.348100  1.0  0.1087
  H  H123  1  0.263800  0.057900  0.319300  1.0  0.1222
  H  H124  1  0.241900  0.078800  0.381300  1.0  0.1179
  H  H125  1  0.300800  0.043300  0.375700  1.0  0.1201
  H  H126  1  0.469800  0.221500  0.409600  1.0  0.1164
  H  H127  1  0.491900  0.189800  0.352500  1.0  0.1142
  H  H128  1  0.473500  0.152600  0.407700  1.0  0.1182
  H  H129  1  0.796100  0.211800  0.699300  1.0  0.1204
  H  H130  1  0.800600  0.151100  0.666800  1.0  0.0995
  H  H131  1  0.781000  0.153400  0.732900  1.0  0.1115
  H  H132  1  0.587700  0.298400  0.717000  1.0  0.1153
  H  H133  1  0.544600  0.277900  0.667200  1.0  0.1108
  H  H134  1  0.598200  0.318500  0.651900  1.0  0.1101
  H  H135  1  0.736200  0.057900  0.680700  1.0  0.121
  H  H136  1  0.758100  0.078800  0.618700  1.0  0.1167
  H  H137  1  0.699200  0.043300  0.624300  1.0  0.1228
  H  H138  1  0.530200  0.221500  0.590400  1.0  0.1154
  H  H139  1  0.508100  0.189800  0.647500  1.0  0.1142
  H  H140  1  0.526500  0.152600  0.592300  1.0  0.1173
  H  H141  1  0.203900  0.788200  0.699300  1.0  0.1194
  H  H142  1  0.199400  0.848900  0.666800  1.0  0.1015
  H  H143  1  0.219000  0.846600  0.732900  1.0  0.1124
  H  H144  1  0.412300  0.701600  0.717000  1.0  0.115
  H  H145  1  0.455400  0.722100  0.667200  1.0  0.1108
  H  H146  1  0.401800  0.681500  0.651900  1.0  0.1085
  H  H147  1  0.263800  0.942100  0.680700  1.0  0.1224
  H  H148  1  0.241900  0.921200  0.618700  1.0  0.1171
  H  H149  1  0.300800  0.956700  0.624300  1.0  0.12
  H  H150  1  0.469800  0.778500  0.590400  1.0  0.1164
  H  H151  1  0.491900  0.810200  0.647500  1.0  0.1139
  H  H152  1  0.473500  0.847400  0.592300  1.0  0.1183
  H  H153  1  0.796100  0.788200  0.300700  1.0  0.1196
  H  H154  1  0.800600  0.848900  0.333200  1.0  0.1003
  H  H155  1  0.781000  0.846600  0.267100  1.0  0.1122
  H  H156  1  0.587700  0.701600  0.283000  1.0  0.1159
  H  H157  1  0.544600  0.722100  0.332800  1.0  0.1106
  H  H158  1  0.598200  0.681500  0.348100  1.0  0.1108
  H  H159  1  0.736200  0.942100  0.319300  1.0  0.122
  H  H160  1  0.758100  0.921200  0.381300  1.0  0.1168
  H  H161  1  0.699200  0.956700  0.375700  1.0  0.1213
  H  H162  1  0.530200  0.778500  0.409600  1.0  0.1179
  H  H163  1  0.508100  0.810200  0.352500  1.0  0.115
  H  H164  1  0.526500  0.847400  0.407700  1.0  0.1179
  H  H165  1  0.203900  0.300700  0.788200  1.0  0.1182
  H  H166  1  0.199400  0.333200  0.848900  1.0  0.1011
  H  H167  1  0.219000  0.267100  0.846600  1.0  0.1132
  H  H168  1  0.412300  0.283000  0.701600  1.0  0.1167
  H  H169  1  0.455400  0.332800  0.722100  1.0  0.1117
  H  H170  1  0.401800  0.348100  0.681500  1.0  0.1092
  H  H171  1  0.263800  0.319300  0.942100  1.0  0.1209
  H  H172  1  0.241900  0.381300  0.921200  1.0  0.1173
  H  H173  1  0.300800  0.375700  0.956700  1.0  0.1203
  H  H174  1  0.469800  0.409600  0.778500  1.0  0.1165
  H  H175  1  0.491900  0.352500  0.810200  1.0  0.116
  H  H176  1  0.473500  0.407700  0.847400  1.0  0.1175
  H  H177  1  0.796100  0.699300  0.788200  1.0  0.1186
  H  H178  1  0.800600  0.666800  0.848900  1.0  0.0993
  H  H179  1  0.781000  0.732900  0.846600  1.0  0.1111
  H  H180  1  0.587700  0.717000  0.701600  1.0  0.1196
  H  H181  1  0.544600  0.667200  0.722100  1.0  0.1108
  H  H182  1  0.598200  0.651900  0.681500  1.0  0.1096
  H  H183  1  0.736200  0.680700  0.942100  1.0  0.1206
  H  H184  1  0.758100  0.618700  0.921200  1.0  0.1172
  H  H185  1  0.699200  0.624300  0.956700  1.0  0.1228
  H  H186  1  0.530200  0.590400  0.778500  1.0  0.1164
  H  H187  1  0.508100  0.647500  0.810200  1.0  0.1166
  H  H188  1  0.526500  0.592300  0.847400  1.0  0.1173
  H  H189  1  0.203900  0.699300  0.211800  1.0  0.1182
  H  H190  1  0.199400  0.666800  0.151100  1.0  0.1006
  H  H191  1  0.219000  0.732900  0.153400  1.0  0.1125
  H  H192  1  0.412300  0.717000  0.298400  1.0  0.1185
  H  H193  1  0.455400  0.667200  0.277900  1.0  0.111
  H  H194  1  0.401800  0.651900  0.318500  1.0  0.1089
  H  H195  1  0.263800  0.680700  0.057900  1.0  0.1218
  H  H196  1  0.241900  0.618700  0.078800  1.0  0.1168
  H  H197  1  0.300800  0.624300  0.043300  1.0  0.1206
  H  H198  1  0.469800  0.590400  0.221500  1.0  0.1167
  H  H199  1  0.491900  0.647500  0.189800  1.0  0.1157
  H  H200  1  0.473500  0.592300  0.152600  1.0  0.1174
  H  H201  1  0.796100  0.300700  0.211800  1.0  0.1183
  H  H202  1  0.800600  0.333200  0.151100  1.0  0.0996
  H  H203  1  0.781000  0.267100  0.153400  1.0  0.1135
  H  H204  1  0.587700  0.283000  0.298400  1.0  0.1162
  H  H205  1  0.544600  0.332800  0.277900  1.0  0.1111
  H  H206  1  0.598200  0.348100  0.318500  1.0  0.1092
  H  H207  1  0.736200  0.319300  0.057900  1.0  0.1199
  H  H208  1  0.758100  0.381300  0.078800  1.0  0.1165
  H  H209  1  0.699200  0.375700  0.043300  1.0  0.1232
  H  H210  1  0.530200  0.409600  0.221500  1.0  0.1161
  H  H211  1  0.508100  0.352500  0.189800  1.0  0.1163
  H  H212  1  0.526500  0.407700  0.152600  1.0  0.1182
  H  H213  1  0.300700  0.211800  0.796100  1.0  0.1194
  H  H214  1  0.333200  0.151100  0.800600  1.0  0.0998
  H  H215  1  0.267100  0.153400  0.781000  1.0  0.1124
  H  H216  1  0.283000  0.298400  0.587700  1.0  0.1171
  H  H217  1  0.332800  0.277900  0.544600  1.0  0.1096
  H  H218  1  0.348100  0.318500  0.598200  1.0  0.1092
  H  H219  1  0.319300  0.057900  0.736200  1.0  0.1197
  H  H220  1  0.381300  0.078800  0.758100  1.0  0.1183
  H  H221  1  0.375700  0.043300  0.699200  1.0  0.1209
  H  H222  1  0.409600  0.221500  0.530200  1.0  0.1153
  H  H223  1  0.352500  0.189800  0.508100  1.0  0.1144
  H  H224  1  0.407700  0.152600  0.526500  1.0  0.118
  H  H225  1  0.699300  0.211800  0.203900  1.0  0.1188
  H  H226  1  0.666800  0.151100  0.199400  1.0  0.1
  H  H227  1  0.732900  0.153400  0.219000  1.0  0.1105
  H  H228  1  0.717000  0.298400  0.412300  1.0  0.1186
  H  H229  1  0.667200  0.277900  0.455400  1.0  0.109
  H  H230  1  0.651900  0.318500  0.401800  1.0  0.1099
  H  H231  1  0.680700  0.057900  0.263800  1.0  0.1096
  H  H232  1  0.618700  0.078800  0.241900  1.0  0.1184
  H  H233  1  0.624300  0.043300  0.300800  1.0  0.1195
  H  H234  1  0.590400  0.221500  0.469800  1.0  0.1163
  H  H235  1  0.647500  0.189800  0.491900  1.0  0.1139
  H  H236  1  0.592300  0.152600  0.473500  1.0  0.1191
  H  H237  1  0.699300  0.788200  0.796100  1.0  0.117
  H  H238  1  0.666800  0.848900  0.800600  1.0  0.1006
  H  H239  1  0.732900  0.846600  0.781000  1.0  0.1104
  H  H240  1  0.717000  0.701600  0.587700  1.0  0.1191
  H  H241  1  0.667200  0.722100  0.544600  1.0  0.1091
  H  H242  1  0.651900  0.681500  0.598200  1.0  0.1099
  H  H243  1  0.680700  0.942100  0.736200  1.0  0.1106
  H  H244  1  0.618700  0.921200  0.758100  1.0  0.1194
  H  H245  1  0.624300  0.956700  0.699200  1.0  0.1206
  H  H246  1  0.590400  0.778500  0.530200  1.0  0.1161
  H  H247  1  0.647500  0.810200  0.508100  1.0  0.1158
  H  H248  1  0.592300  0.847400  0.526500  1.0  0.1197
  H  H249  1  0.300700  0.788200  0.203900  1.0  0.1184
  H  H250  1  0.333200  0.848900  0.199400  1.0  0.1002
  H  H251  1  0.267100  0.846600  0.219000  1.0  0.1096
  H  H252  1  0.283000  0.701600  0.412300  1.0  0.117
  H  H253  1  0.332800  0.722100  0.455400  1.0  0.1099
  H  H254  1  0.348100  0.681500  0.401800  1.0  0.1086
  H  H255  1  0.319300  0.942100  0.263800  1.0  0.1182
  H  H256  1  0.381300  0.921200  0.241900  1.0  0.1181
  H  H257  1  0.375700  0.956700  0.300800  1.0  0.1203
  H  H258  1  0.409600  0.778500  0.469800  1.0  0.1166
  H  H259  1  0.352500  0.810200  0.491900  1.0  0.1138
  H  H260  1  0.407700  0.847400  0.473500  1.0  0.1187
  H  H261  1  0.211800  0.203900  0.699300  1.0  0.1185
  H  H262  1  0.151100  0.199400  0.666800  1.0  0.1003
  H  H263  1  0.153400  0.219000  0.732900  1.0  0.1131
  H  H264  1  0.298400  0.412300  0.717000  1.0  0.1139
  H  H265  1  0.277900  0.455400  0.667200  1.0  0.1103
  H  H266  1  0.318500  0.401800  0.651900  1.0  0.1078
  H  H267  1  0.057900  0.263800  0.680700  1.0  0.1224
  H  H268  1  0.078800  0.241900  0.618700  1.0  0.1163
  H  H269  1  0.043300  0.300800  0.624300  1.0  0.1209
  H  H270  1  0.221500  0.469800  0.590400  1.0  0.1143
  H  H271  1  0.189800  0.491900  0.647500  1.0  0.1148
  H  H272  1  0.152600  0.473500  0.592300  1.0  0.1176
  H  H273  1  0.211800  0.796100  0.300700  1.0  0.1169
  H  H274  1  0.151100  0.800600  0.333200  1.0  0.1008
  H  H275  1  0.153400  0.781000  0.267100  1.0  0.1111
  H  H276  1  0.298400  0.587700  0.283000  1.0  0.114
  H  H277  1  0.277900  0.544600  0.332800  1.0  0.1101
  H  H278  1  0.318500  0.598200  0.348100  1.0  0.1078
  H  H279  1  0.057900  0.736200  0.319300  1.0  0.1215
  H  H280  1  0.078800  0.758100  0.381300  1.0  0.1153
  H  H281  1  0.043300  0.699200  0.375700  1.0  0.1196
  H  H282  1  0.221500  0.530200  0.409600  1.0  0.1148
  H  H283  1  0.189800  0.508100  0.352500  1.0  0.116
  H  H284  1  0.152600  0.526500  0.407700  1.0  0.1172
  H  H285  1  0.788200  0.203900  0.300700  1.0  0.1201
  H  H286  1  0.848900  0.199400  0.333200  1.0  0.1006
  H  H287  1  0.846600  0.219000  0.267100  1.0  0.1125
  H  H288  1  0.701600  0.412300  0.283000  1.0  0.1136
  H  H289  1  0.722100  0.455400  0.332800  1.0  0.111
  H  H290  1  0.681500  0.401800  0.348100  1.0  0.1092
  H  H291  1  0.942100  0.263800  0.319300  1.0  0.1219
  H  H292  1  0.921200  0.241900  0.381300  1.0  0.1184
  H  H293  1  0.956700  0.300800  0.375700  1.0  0.1191
  H  H294  1  0.778500  0.469800  0.409600  1.0  0.1164
  H  H295  1  0.810200  0.491900  0.352500  1.0  0.1161
  H  H296  1  0.847400  0.473500  0.407700  1.0  0.1182
  H  H297  1  0.788200  0.796100  0.699300  1.0  0.1186
  H  H298  1  0.848900  0.800600  0.666800  1.0  0.1007
  H  H299  1  0.846600  0.781000  0.732900  1.0  0.1114
  H  H300  1  0.701600  0.587700  0.717000  1.0  0.1136
  H  H301  1  0.722100  0.544600  0.667200  1.0  0.1104
  H  H302  1  0.681500  0.598200  0.651900  1.0  0.1083
  H  H303  1  0.942100  0.736200  0.680700  1.0  0.1216
  H  H304  1  0.921200  0.758100  0.618700  1.0  0.1176
  H  H305  1  0.956700  0.699200  0.624300  1.0  0.1204
  H  H306  1  0.778500  0.530200  0.590400  1.0  0.1146
  H  H307  1  0.810200  0.508100  0.647500  1.0  0.1156
  H  H308  1  0.847400  0.526500  0.592300  1.0  0.1177
  C  C309  1  0.315100  0.316000  0.230280  1.0  -0.0199
  C  C310  1  0.397500  0.397700  0.081110  1.0  0.6826
  C  C311  1  0.368500  0.368900  0.133000  1.0  -0.1544
  C  C312  1  0.349800  0.309900  0.129500  1.0  0.0523
  C  C313  1  0.334100  0.377300  0.232800  1.0  0.0654
  C  C314  1  0.362100  0.401800  0.184600  1.0  0.0133
  C  C315  1  0.323500  0.284700  0.178800  1.0  0.0262
  C  C316  1  0.304400  0.220900  0.173200  1.0  -0.3699
  C  C317  1  0.323500  0.415200  0.286900  1.0  -0.3896
  C  C318  1  0.357200  0.276000  0.072000  1.0  -0.3399
  C  C319  1  0.385100  0.465200  0.187400  1.0  -0.3534
  C  C320  1  0.684900  0.684000  0.230280  1.0  -0.0198
  C  C321  1  0.602500  0.602300  0.081110  1.0  0.6823
  C  C322  1  0.631500  0.631100  0.133000  1.0  -0.1546
  C  C323  1  0.650200  0.690100  0.129500  1.0  0.0519
  C  C324  1  0.665900  0.622700  0.232800  1.0  0.0655
  C  C325  1  0.637900  0.598200  0.184600  1.0  0.0133
  C  C326  1  0.676500  0.715300  0.178800  1.0  0.0255
  C  C327  1  0.695600  0.779100  0.173200  1.0  -0.3681
  C  C328  1  0.676500  0.584800  0.286900  1.0  -0.3899
  C  C329  1  0.642800  0.724000  0.072000  1.0  -0.3394
  C  C330  1  0.614900  0.534800  0.187400  1.0  -0.3554
  C  C331  1  0.684900  0.316000  0.769720  1.0  -0.0188
  C  C332  1  0.602500  0.397700  0.918890  1.0  0.6826
  C  C333  1  0.631500  0.368900  0.867000  1.0  -0.1544
  C  C334  1  0.650200  0.309900  0.870500  1.0  0.0522
  C  C335  1  0.665900  0.377300  0.767200  1.0  0.064
  C  C336  1  0.637900  0.401800  0.815400  1.0  0.0141
  C  C337  1  0.676500  0.284700  0.821200  1.0  0.025
  C  C338  1  0.695600  0.220900  0.826800  1.0  -0.3693
  C  C339  1  0.676500  0.415200  0.713100  1.0  -0.3899
  C  C340  1  0.642800  0.276000  0.928000  1.0  -0.3401
  C  C341  1  0.614900  0.465200  0.812600  1.0  -0.3533
  C  C342  1  0.315100  0.684000  0.769720  1.0  -0.0191
  C  C343  1  0.397500  0.602300  0.918890  1.0  0.6823
  C  C344  1  0.368500  0.631100  0.867000  1.0  -0.1542
  C  C345  1  0.349800  0.690100  0.870500  1.0  0.0525
  C  C346  1  0.334100  0.622700  0.767200  1.0  0.0633
  C  C347  1  0.362100  0.598200  0.815400  1.0  0.0136
  C  C348  1  0.323500  0.715300  0.821200  1.0  0.0241
  C  C349  1  0.304400  0.779100  0.826800  1.0  -0.3709
  C  C350  1  0.323500  0.584800  0.713100  1.0  -0.3907
  C  C351  1  0.357200  0.724000  0.928000  1.0  -0.3393
  C  C352  1  0.385100  0.534800  0.812600  1.0  -0.3554
  C  C353  1  0.230280  0.315100  0.316000  1.0  -0.0206
  C  C354  1  0.081110  0.397500  0.397700  1.0  0.6805
  C  C355  1  0.133000  0.368500  0.368900  1.0  -0.1552
  C  C356  1  0.129500  0.349800  0.309900  1.0  0.0522
  C  C357  1  0.232800  0.334100  0.377300  1.0  0.0667
  C  C358  1  0.184600  0.362100  0.401800  1.0  0.0161
  C  C359  1  0.178800  0.323500  0.284700  1.0  0.0284
  C  C360  1  0.173200  0.304400  0.220900  1.0  -0.3709
  C  C361  1  0.286900  0.323500  0.415200  1.0  -0.3898
  C  C362  1  0.072000  0.357200  0.276000  1.0  -0.3378
  C  C363  1  0.187400  0.385100  0.465200  1.0  -0.3503
  C  C364  1  0.230280  0.684900  0.684000  1.0  -0.0207
  C  C365  1  0.081110  0.602500  0.602300  1.0  0.6796
  C  C366  1  0.133000  0.631500  0.631100  1.0  -0.1549
  C  C367  1  0.129500  0.650200  0.690100  1.0  0.0543
  C  C368  1  0.232800  0.665900  0.622700  1.0  0.0669
  C  C369  1  0.184600  0.637900  0.598200  1.0  0.0146
  C  C370  1  0.178800  0.676500  0.715300  1.0  0.0274
  C  C371  1  0.173200  0.695600  0.779100  1.0  -0.3727
  C  C372  1  0.286900  0.676500  0.584800  1.0  -0.3896
  C  C373  1  0.072000  0.642800  0.724000  1.0  -0.34
  C  C374  1  0.187400  0.614900  0.534800  1.0  -0.3508
  C  C375  1  0.769720  0.684900  0.316000  1.0  -0.0207
  C  C376  1  0.918890  0.602500  0.397700  1.0  0.6814
  C  C377  1  0.867000  0.631500  0.368900  1.0  -0.154
  C  C378  1  0.870500  0.650200  0.309900  1.0  0.0546
  C  C379  1  0.767200  0.665900  0.377300  1.0  0.0663
  C  C380  1  0.815400  0.637900  0.401800  1.0  0.0168
  C  C381  1  0.821200  0.676500  0.284700  1.0  0.0296
  C  C382  1  0.826800  0.695600  0.220900  1.0  -0.3716
  C  C383  1  0.713100  0.676500  0.415200  1.0  -0.3894
  C  C384  1  0.928000  0.642800  0.276000  1.0  -0.3398
  C  C385  1  0.812600  0.614900  0.465200  1.0  -0.3523
  C  C386  1  0.769720  0.315100  0.684000  1.0  -0.0206
  C  C387  1  0.918890  0.397500  0.602300  1.0  0.6815
  C  C388  1  0.867000  0.368500  0.631100  1.0  -0.1544
  C  C389  1  0.870500  0.349800  0.690100  1.0  0.056
  C  C390  1  0.767200  0.334100  0.622700  1.0  0.0661
  C  C391  1  0.815400  0.362100  0.598200  1.0  0.0148
  C  C392  1  0.821200  0.323500  0.715300  1.0  0.0288
  C  C393  1  0.826800  0.304400  0.779100  1.0  -0.3733
  C  C394  1  0.713100  0.323500  0.584800  1.0  -0.3883
  C  C395  1  0.928000  0.357200  0.724000  1.0  -0.3396
  C  C396  1  0.812600  0.385100  0.534800  1.0  -0.3515
  C  C397  1  0.316000  0.230280  0.315100  1.0  -0.0211
  C  C398  1  0.397700  0.081110  0.397500  1.0  0.6821
  C  C399  1  0.368900  0.133000  0.368500  1.0  -0.1565
  C  C400  1  0.309900  0.129500  0.349800  1.0  0.0524
  C  C401  1  0.377300  0.232800  0.334100  1.0  0.0621
  C  C402  1  0.401800  0.184600  0.362100  1.0  0.0131
  C  C403  1  0.284700  0.178800  0.323500  1.0  0.0258
  C  C404  1  0.220900  0.173200  0.304400  1.0  -0.3682
  C  C405  1  0.415200  0.286900  0.323500  1.0  -0.3914
  C  C406  1  0.276000  0.072000  0.357200  1.0  -0.3413
  C  C407  1  0.465200  0.187400  0.385100  1.0  -0.3527
  C  C408  1  0.684000  0.230280  0.684900  1.0  -0.021
  C  C409  1  0.602300  0.081110  0.602500  1.0  0.6825
  C  C410  1  0.631100  0.133000  0.631500  1.0  -0.1564
  C  C411  1  0.690100  0.129500  0.650200  1.0  0.0525
  C  C412  1  0.622700  0.232800  0.665900  1.0  0.0628
  C  C413  1  0.598200  0.184600  0.637900  1.0  0.0137
  C  C414  1  0.715300  0.178800  0.676500  1.0  0.0262
  C  C415  1  0.779100  0.173200  0.695600  1.0  -0.3682
  C  C416  1  0.584800  0.286900  0.676500  1.0  -0.3909
  C  C417  1  0.724000  0.072000  0.642800  1.0  -0.3416
  C  C418  1  0.534800  0.187400  0.614900  1.0  -0.3517
  C  C419  1  0.316000  0.769720  0.684900  1.0  -0.0201
  C  C420  1  0.397700  0.918890  0.602500  1.0  0.6829
  C  C421  1  0.368900  0.867000  0.631500  1.0  -0.1564
  C  C422  1  0.309900  0.870500  0.650200  1.0  0.0517
  C  C423  1  0.377300  0.767200  0.665900  1.0  0.0623
  C  C424  1  0.401800  0.815400  0.637900  1.0  0.0135
  C  C425  1  0.284700  0.821200  0.676500  1.0  0.0267
  C  C426  1  0.220900  0.826800  0.695600  1.0  -0.3671
  C  C427  1  0.415200  0.713100  0.676500  1.0  -0.3917
  C  C428  1  0.276000  0.928000  0.642800  1.0  -0.3402
  C  C429  1  0.465200  0.812600  0.614900  1.0  -0.3527
  C  C430  1  0.684000  0.769720  0.315100  1.0  -0.0203
  C  C431  1  0.602300  0.918890  0.397500  1.0  0.6827
  C  C432  1  0.631100  0.867000  0.368500  1.0  -0.1563
  C  C433  1  0.690100  0.870500  0.349800  1.0  0.0522
  C  C434  1  0.622700  0.767200  0.334100  1.0  0.0631
  C  C435  1  0.598200  0.815400  0.362100  1.0  0.0134
  C  C436  1  0.715300  0.821200  0.323500  1.0  0.027
  C  C437  1  0.779100  0.826800  0.304400  1.0  -0.3687
  C  C438  1  0.584800  0.713100  0.323500  1.0  -0.3908
  C  C439  1  0.724000  0.928000  0.357200  1.0  -0.3405
  C  C440  1  0.534800  0.812600  0.385100  1.0  -0.3519
  C  C441  1  0.316000  0.315100  0.769720  1.0  -0.0186
  C  C442  1  0.397700  0.397500  0.918890  1.0  0.6839
  C  C443  1  0.368900  0.368500  0.867000  1.0  -0.1546
  C  C444  1  0.309900  0.349800  0.870500  1.0  0.0531
  C  C445  1  0.377300  0.334100  0.767200  1.0  0.0634
  C  C446  1  0.401800  0.362100  0.815400  1.0  0.0143
  C  C447  1  0.284700  0.323500  0.821200  1.0  0.0254
  C  C448  1  0.220900  0.304400  0.826800  1.0  -0.3691
  C  C449  1  0.415200  0.323500  0.713100  1.0  -0.3916
  C  C450  1  0.276000  0.357200  0.928000  1.0  -0.343
  C  C451  1  0.465200  0.385100  0.812600  1.0  -0.3525
  C  C452  1  0.684000  0.684900  0.769720  1.0  -0.0188
  C  C453  1  0.602300  0.602500  0.918890  1.0  0.6834
  C  C454  1  0.631100  0.631500  0.867000  1.0  -0.1543
  C  C455  1  0.690100  0.650200  0.870500  1.0  0.053
  C  C456  1  0.622700  0.665900  0.767200  1.0  0.0639
  C  C457  1  0.598200  0.637900  0.815400  1.0  0.0142
  C  C458  1  0.715300  0.676500  0.821200  1.0  0.0263
  C  C459  1  0.779100  0.695600  0.826800  1.0  -0.3691
  C  C460  1  0.584800  0.676500  0.713100  1.0  -0.3909
  C  C461  1  0.724000  0.642800  0.928000  1.0  -0.343
  C  C462  1  0.534800  0.614900  0.812600  1.0  -0.3518
  C  C463  1  0.316000  0.684900  0.230280  1.0  -0.0196
  C  C464  1  0.397700  0.602500  0.081110  1.0  0.6833
  C  C465  1  0.368900  0.631500  0.133000  1.0  -0.1547
  C  C466  1  0.309900  0.650200  0.129500  1.0  0.0528
  C  C467  1  0.377300  0.665900  0.232800  1.0  0.0655
  C  C468  1  0.401800  0.637900  0.184600  1.0  0.0142
  C  C469  1  0.284700  0.676500  0.178800  1.0  0.0272
  C  C470  1  0.220900  0.695600  0.173200  1.0  -0.3678
  C  C471  1  0.415200  0.676500  0.286900  1.0  -0.3909
  C  C472  1  0.276000  0.642800  0.072000  1.0  -0.3422
  C  C473  1  0.465200  0.614900  0.187400  1.0  -0.3533
  C  C474  1  0.684000  0.315100  0.230280  1.0  -0.0197
  C  C475  1  0.602300  0.397500  0.081110  1.0  0.6841
  C  C476  1  0.631100  0.368500  0.133000  1.0  -0.155
  C  C477  1  0.690100  0.349800  0.129500  1.0  0.0528
  C  C478  1  0.622700  0.334100  0.232800  1.0  0.0657
  C  C479  1  0.598200  0.362100  0.184600  1.0  0.0139
  C  C480  1  0.715300  0.323500  0.178800  1.0  0.0276
  C  C481  1  0.779100  0.304400  0.173200  1.0  -0.3686
  C  C482  1  0.584800  0.323500  0.286900  1.0  -0.3909
  C  C483  1  0.724000  0.357200  0.072000  1.0  -0.3428
  C  C484  1  0.534800  0.385100  0.187400  1.0  -0.3514
  C  C485  1  0.315100  0.230280  0.684000  1.0  -0.0215
  C  C486  1  0.397500  0.081110  0.602300  1.0  0.6815
  C  C487  1  0.368500  0.133000  0.631100  1.0  -0.1556
  C  C488  1  0.349800  0.129500  0.690100  1.0  0.0541
  C  C489  1  0.334100  0.232800  0.622700  1.0  0.065
  C  C490  1  0.362100  0.184600  0.598200  1.0  0.0145
  C  C491  1  0.323500  0.178800  0.715300  1.0  0.0265
  C  C492  1  0.304400  0.173200  0.779100  1.0  -0.3735
  C  C493  1  0.323500  0.286900  0.584800  1.0  -0.3903
  C  C494  1  0.357200  0.072000  0.724000  1.0  -0.3376
  C  C495  1  0.385100  0.187400  0.534800  1.0  -0.3529
  C  C496  1  0.684900  0.230280  0.316000  1.0  -0.0215
  C  C497  1  0.602500  0.081110  0.397700  1.0  0.6819
  C  C498  1  0.631500  0.133000  0.368900  1.0  -0.1561
  C  C499  1  0.650200  0.129500  0.309900  1.0  0.0517
  C  C500  1  0.665900  0.232800  0.377300  1.0  0.0657
  C  C501  1  0.637900  0.184600  0.401800  1.0  0.0163
  C  C502  1  0.676500  0.178800  0.284700  1.0  0.0266
  C  C503  1  0.695600  0.173200  0.220900  1.0  -0.3698
  C  C504  1  0.676500  0.286900  0.415200  1.0  -0.3908
  C  C505  1  0.642800  0.072000  0.276000  1.0  -0.3378
  C  C506  1  0.614900  0.187400  0.465200  1.0  -0.3531
  C  C507  1  0.684900  0.769720  0.684000  1.0  -0.0204
  C  C508  1  0.602500  0.918890  0.602300  1.0  0.682
  C  C509  1  0.631500  0.867000  0.631100  1.0  -0.156
  C  C510  1  0.650200  0.870500  0.690100  1.0  0.0545
  C  C511  1  0.665900  0.767200  0.622700  1.0  0.0657
  C  C512  1  0.637900  0.815400  0.598200  1.0  0.0148
  C  C513  1  0.676500  0.821200  0.715300  1.0  0.0273
  C  C514  1  0.695600  0.826800  0.779100  1.0  -0.3724
  C  C515  1  0.676500  0.713100  0.584800  1.0  -0.39
  C  C516  1  0.642800  0.928000  0.724000  1.0  -0.3393
  C  C517  1  0.614900  0.812600  0.534800  1.0  -0.353
  C  C518  1  0.315100  0.769720  0.316000  1.0  -0.0206
  C  C519  1  0.397500  0.918890  0.397700  1.0  0.682
  C  C520  1  0.368500  0.867000  0.368900  1.0  -0.1556
  C  C521  1  0.349800  0.870500  0.309900  1.0  0.0527
  C  C522  1  0.334100  0.767200  0.377300  1.0  0.0655
  C  C523  1  0.362100  0.815400  0.401800  1.0  0.0164
  C  C524  1  0.323500  0.821200  0.284700  1.0  0.0277
  C  C525  1  0.304400  0.826800  0.220900  1.0  -0.3703
  C  C526  1  0.323500  0.713100  0.415200  1.0  -0.3908
  C  C527  1  0.357200  0.928000  0.276000  1.0  -0.3373
  C  C528  1  0.385100  0.812600  0.465200  1.0  -0.3538
  C  C529  1  0.230280  0.316000  0.684900  1.0  -0.0205
  C  C530  1  0.081110  0.397700  0.602500  1.0  0.6797
  C  C531  1  0.133000  0.368900  0.631500  1.0  -0.1555
  C  C532  1  0.129500  0.309900  0.650200  1.0  0.0519
  C  C533  1  0.232800  0.377300  0.665900  1.0  0.0638
  C  C534  1  0.184600  0.401800  0.637900  1.0  0.0126
  C  C535  1  0.178800  0.284700  0.676500  1.0  0.0262
  C  C536  1  0.173200  0.220900  0.695600  1.0  -0.3705
  C  C537  1  0.286900  0.415200  0.676500  1.0  -0.3893
  C  C538  1  0.072000  0.276000  0.642800  1.0  -0.3383
  C  C539  1  0.187400  0.465200  0.614900  1.0  -0.351
  C  C540  1  0.230280  0.684000  0.315100  1.0  -0.0207
  C  C541  1  0.081110  0.602300  0.397500  1.0  0.6794
  C  C542  1  0.133000  0.631100  0.368500  1.0  -0.1552
  C  C543  1  0.129500  0.690100  0.349800  1.0  0.0508
  C  C544  1  0.232800  0.622700  0.334100  1.0  0.0638
  C  C545  1  0.184600  0.598200  0.362100  1.0  0.0127
  C  C546  1  0.178800  0.715300  0.323500  1.0  0.0253
  C  C547  1  0.173200  0.779100  0.304400  1.0  -0.3706
  C  C548  1  0.286900  0.584800  0.323500  1.0  -0.3893
  C  C549  1  0.072000  0.724000  0.357200  1.0  -0.3378
  C  C550  1  0.187400  0.534800  0.385100  1.0  -0.3532
  C  C551  1  0.769720  0.316000  0.315100  1.0  -0.0207
  C  C552  1  0.918890  0.397700  0.397500  1.0  0.6809
  C  C553  1  0.867000  0.368900  0.368500  1.0  -0.1544
  C  C554  1  0.870500  0.309900  0.349800  1.0  0.0533
  C  C555  1  0.767200  0.377300  0.334100  1.0  0.0637
  C  C556  1  0.815400  0.401800  0.362100  1.0  0.0131
  C  C557  1  0.821200  0.284700  0.323500  1.0  0.0275
  C  C558  1  0.826800  0.220900  0.304400  1.0  -0.3703
  C  C559  1  0.713100  0.415200  0.323500  1.0  -0.388
  C  C560  1  0.928000  0.276000  0.357200  1.0  -0.3397
  C  C561  1  0.812600  0.465200  0.385100  1.0  -0.3525
  C  C562  1  0.769720  0.684000  0.684900  1.0  -0.0206
  C  C563  1  0.918890  0.602300  0.602500  1.0  0.6807
  C  C564  1  0.867000  0.631100  0.631500  1.0  -0.1545
  C  C565  1  0.870500  0.690100  0.650200  1.0  0.0539
  C  C566  1  0.767200  0.622700  0.665900  1.0  0.0637
  C  C567  1  0.815400  0.598200  0.637900  1.0  0.013
  C  C568  1  0.821200  0.715300  0.676500  1.0  0.0269
  C  C569  1  0.826800  0.779100  0.695600  1.0  -0.3704
  C  C570  1  0.713100  0.584800  0.676500  1.0  -0.3887
  C  C571  1  0.928000  0.724000  0.642800  1.0  -0.34
  C  C572  1  0.812600  0.534800  0.614900  1.0  -0.3537
  Cl  Cl573  1  0.500000  0.500000  0.000000  1.0  -0.1011
  Cl  Cl574  1  0.000000  0.500000  0.500000  1.0  -0.1011
  Cl  Cl575  1  0.500000  0.000000  0.500000  1.0  -0.1011
  O  O576  1  0.450660  0.379900  0.069520  1.0  -0.6046
  O  O577  1  0.369140  0.433590  0.052420  1.0  -0.6
  O  O578  1  0.549340  0.620100  0.069520  1.0  -0.6062
  O  O579  1  0.630860  0.566410  0.052420  1.0  -0.6026
  O  O580  1  0.549340  0.379900  0.930480  1.0  -0.6042
  O  O581  1  0.630860  0.433590  0.947580  1.0  -0.6014
  O  O582  1  0.450660  0.620100  0.930480  1.0  -0.6057
  O  O583  1  0.369140  0.566410  0.947580  1.0  -0.5993
  O  O584  1  0.069520  0.450660  0.379900  1.0  -0.6041
  O  O585  1  0.052420  0.369140  0.433590  1.0  -0.5983
  O  O586  1  0.069520  0.549340  0.620100  1.0  -0.6061
  O  O587  1  0.052420  0.630860  0.566410  1.0  -0.6025
  O  O588  1  0.930480  0.549340  0.379900  1.0  -0.6045
  O  O589  1  0.947580  0.630860  0.433590  1.0  -0.6011
  O  O590  1  0.930480  0.450660  0.620100  1.0  -0.6051
  O  O591  1  0.947580  0.369140  0.566410  1.0  -0.599
  O  O592  1  0.379900  0.069520  0.450660  1.0  -0.6034
  O  O593  1  0.433590  0.052420  0.369140  1.0  -0.6035
  O  O594  1  0.620100  0.069520  0.549340  1.0  -0.605
  O  O595  1  0.566410  0.052420  0.630860  1.0  -0.598
  O  O596  1  0.379900  0.930480  0.549340  1.0  -0.6036
  O  O597  1  0.433590  0.947580  0.630860  1.0  -0.5968
  O  O598  1  0.620100  0.930480  0.450660  1.0  -0.6052
  O  O599  1  0.566410  0.947580  0.369140  1.0  -0.6019
  O  O600  1  0.379900  0.450660  0.930480  1.0  -0.6038
  O  O601  1  0.433590  0.369140  0.947580  1.0  -0.5981
  O  O602  1  0.620100  0.549340  0.930480  1.0  -0.6053
  O  O603  1  0.566410  0.630860  0.947580  1.0  -0.602
  O  O604  1  0.379900  0.549340  0.069520  1.0  -0.6045
  O  O605  1  0.433590  0.630860  0.052420  1.0  -0.6029
  O  O606  1  0.620100  0.450660  0.069520  1.0  -0.606
  O  O607  1  0.566410  0.369140  0.052420  1.0  -0.5993
  O  O608  1  0.450660  0.069520  0.620100  1.0  -0.6039
  O  O609  1  0.369140  0.052420  0.566410  1.0  -0.5999
  O  O610  1  0.549340  0.069520  0.379900  1.0  -0.605
  O  O611  1  0.630860  0.052420  0.433590  1.0  -0.6012
  O  O612  1  0.549340  0.930480  0.620100  1.0  -0.6037
  O  O613  1  0.630860  0.947580  0.566410  1.0  -0.6009
  O  O614  1  0.450660  0.930480  0.379900  1.0  -0.605
  O  O615  1  0.369140  0.947580  0.433590  1.0  -0.5983
  O  O616  1  0.069520  0.379900  0.549340  1.0  -0.6051
  O  O617  1  0.052420  0.433590  0.630860  1.0  -0.6018
  O  O618  1  0.069520  0.620100  0.450660  1.0  -0.6058
  O  O619  1  0.052420  0.566410  0.369140  1.0  -0.5996
  O  O620  1  0.930480  0.379900  0.450660  1.0  -0.6038
  O  O621  1  0.947580  0.433590  0.369140  1.0  -0.5994
  O  O622  1  0.930480  0.620100  0.549340  1.0  -0.6057
  O  O623  1  0.947580  0.566410  0.630860  1.0  -0.6008
