# generated using pymatgen
data_Fe2As3(CO6)2
_symmetry_space_group_name_H-M   'P 1'
_cell_length_a   11.10660000
_cell_length_b   12.98420000
_cell_length_c   13.42940000
_cell_angle_alpha   117.34500000
_cell_angle_beta   93.68800000
_cell_angle_gamma   93.87900000
_symmetry_Int_Tables_number   1
_chemical_formula_structural   Fe2As3(CO6)2
_chemical_formula_sum   'Fe8 As12 C8 O48'
_cell_volume   1706.33575541
_cell_formula_units_Z   4
loop_
 _symmetry_equiv_pos_site_id
 _symmetry_equiv_pos_as_xyz
  1  'x, y, z'
loop_
 _atom_site_type_symbol
 _atom_site_label
 _atom_site_symmetry_multiplicity
 _atom_site_fract_x
 _atom_site_fract_y
 _atom_site_fract_z
 _atom_site_occupancy
 _atom_site_charge
  Fe  Fe1  1  0.945600  0.798000  0.822900  1.0  1.2345
  Fe  Fe2  1  0.496600  0.205800  0.656700  1.0  1.3365
  Fe  Fe3  1  0.974900  0.308200  0.834100  1.0  1.2642
  Fe  Fe4  1  0.470300  0.699900  0.646500  1.0  1.2971
  Fe  Fe5  1  0.054400  0.202000  0.177100  1.0  1.2384
  Fe  Fe6  1  0.503400  0.794200  0.343300  1.0  1.3356
  Fe  Fe7  1  0.025100  0.691800  0.165900  1.0  1.2651
  Fe  Fe8  1  0.529700  0.300100  0.353500  1.0  1.2931
  As  As9  1  0.991700  0.586900  0.883800  1.0  1.0029
  As  As10  1  0.228000  0.824400  0.767200  1.0  0.6874
  As  As11  1  0.069900  0.919500  0.105300  1.0  1.0397
  As  As12  1  0.248900  0.333500  0.751400  1.0  0.6878
  As  As13  1  0.552300  0.943000  0.622900  1.0  1.1471
  As  As14  1  0.571800  0.451000  0.630700  1.0  1.2426
  As  As15  1  0.008300  0.413100  0.116200  1.0  1.0004
  As  As16  1  0.772000  0.175600  0.232800  1.0  0.6764
  As  As17  1  0.930100  0.080500  0.894700  1.0  1.0347
  As  As18  1  0.751100  0.666500  0.248600  1.0  0.6745
  As  As19  1  0.447700  0.057000  0.377100  1.0  1.1467
  As  As20  1  0.428200  0.549000  0.369300  1.0  1.2471
  C  C21  1  0.718600  0.301300  0.801000  1.0  0.6603
  C  C22  1  0.755300  0.232900  0.680600  1.0  0.6563
  C  C23  1  0.691000  0.797500  0.787000  1.0  0.724
  C  C24  1  0.728600  0.732900  0.668300  1.0  0.6998
  C  C25  1  0.281400  0.698700  0.199000  1.0  0.6605
  C  C26  1  0.244700  0.767100  0.319400  1.0  0.6575
  C  C27  1  0.309000  0.202500  0.213000  1.0  0.7245
  C  C28  1  0.271400  0.267100  0.331700  1.0  0.6992
  O  O29  1  0.982000  0.442200  0.806800  1.0  -0.6889
  O  O30  1  0.949800  0.627400  0.013200  1.0  -0.6819
  O  O31  1  0.907500  0.634900  0.808100  1.0  -0.6088
  O  O32  1  0.089000  0.751700  0.742700  1.0  -0.5848
  O  O33  1  0.325000  0.721500  0.723700  1.0  -0.6628
  O  O34  1  0.993900  0.847200  0.979100  1.0  -0.778
  O  O35  1  0.030300  0.052500  0.180200  1.0  -0.6614
  O  O36  1  0.053800  0.853000  0.185900  1.0  -0.6657
  O  O37  1  0.119100  0.262100  0.755400  1.0  -0.6138
  O  O38  1  0.353800  0.240600  0.738500  1.0  -0.6019
  O  O39  1  0.582900  0.902900  0.491300  1.0  -0.6569
  O  O40  1  0.503400  0.073200  0.694700  1.0  -0.6301
  O  O41  1  0.453300  0.843700  0.629700  1.0  -0.6296
  O  O42  1  0.481800  0.348100  0.637600  1.0  -0.6618
  O  O43  1  0.514100  0.577800  0.692800  1.0  -0.6788
  O  O44  1  0.604700  0.414500  0.500400  1.0  -0.6357
  O  O45  1  0.771600  0.834400  0.867900  1.0  -0.4241
  O  O46  1  0.840800  0.725900  0.662700  1.0  -0.3996
  O  O47  1  0.604700  0.308100  0.808100  1.0  -0.4094
  O  O48  1  0.669300  0.185900  0.601700  1.0  -0.3985
  O  O49  1  0.800300  0.342300  0.881100  1.0  -0.3801
  O  O50  1  0.866100  0.227800  0.671700  1.0  -0.3966
  O  O51  1  0.578800  0.808400  0.795300  1.0  -0.4133
  O  O52  1  0.645700  0.689100  0.586700  1.0  -0.4044
  O  O53  1  0.018000  0.557800  0.193200  1.0  -0.6881
  O  O54  1  0.050200  0.372600  0.986800  1.0  -0.6821
  O  O55  1  0.092500  0.365100  0.191900  1.0  -0.6076
  O  O56  1  0.911000  0.248300  0.257300  1.0  -0.5835
  O  O57  1  0.675000  0.278500  0.276300  1.0  -0.6638
  O  O58  1  0.006100  0.152800  0.020900  1.0  -0.7781
  O  O59  1  0.969700  0.947500  0.819800  1.0  -0.6622
  O  O60  1  0.946200  0.147000  0.814100  1.0  -0.6659
  O  O61  1  0.880900  0.737900  0.244600  1.0  -0.6136
  O  O62  1  0.646200  0.759400  0.261500  1.0  -0.6013
  O  O63  1  0.417100  0.097100  0.508700  1.0  -0.6579
  O  O64  1  0.496600  0.926800  0.305300  1.0  -0.6318
  O  O65  1  0.546700  0.156300  0.370300  1.0  -0.6273
  O  O66  1  0.518200  0.651900  0.362400  1.0  -0.6625
  O  O67  1  0.485900  0.422200  0.307200  1.0  -0.677
  O  O68  1  0.395300  0.585500  0.499600  1.0  -0.6379
  O  O69  1  0.228400  0.165600  0.132100  1.0  -0.4224
  O  O70  1  0.159200  0.274100  0.337300  1.0  -0.3985
  O  O71  1  0.395300  0.691900  0.191900  1.0  -0.4097
  O  O72  1  0.330700  0.814100  0.398300  1.0  -0.4004
  O  O73  1  0.199700  0.657700  0.118900  1.0  -0.3793
  O  O74  1  0.133900  0.772200  0.328300  1.0  -0.3963
  O  O75  1  0.421200  0.191600  0.204700  1.0  -0.4171
  O  O76  1  0.354300  0.310900  0.413300  1.0  -0.4031
