# generated using pymatgen
data_KZn2C6O13
_symmetry_space_group_name_H-M   'P 1'
_cell_length_a   7.93910000
_cell_length_b   9.43820000
_cell_length_c   15.48150000
_cell_angle_alpha   82.23300000
_cell_angle_beta   82.86800000
_cell_angle_gamma   75.51300000
_symmetry_Int_Tables_number   1
_chemical_formula_structural   KZn2C6O13
_chemical_formula_sum   'K2 Zn4 C12 O26'
_cell_volume   1107.90688847
_cell_formula_units_Z   2
loop_
 _symmetry_equiv_pos_site_id
 _symmetry_equiv_pos_as_xyz
  1  'x, y, z'
loop_
 _atom_site_type_symbol
 _atom_site_label
 _atom_site_symmetry_multiplicity
 _atom_site_fract_x
 _atom_site_fract_y
 _atom_site_fract_z
 _atom_site_occupancy
 _atom_site_charge
  K  K1  1  0.564300  0.320500  0.935000  1.0  0.9738
  K  K2  1  0.435700  0.679500  0.065000  1.0  0.9744
  Zn  Zn3  1  0.080600  0.253400  0.914200  1.0  1.0472
  Zn  Zn4  1  0.412200  0.246700  0.582400  1.0  1.0384
  Zn  Zn5  1  0.919400  0.746600  0.085800  1.0  1.0463
  Zn  Zn6  1  0.587800  0.753300  0.417600  1.0  1.0379
  C  C7  1  0.902000  0.498200  0.003400  1.0  0.5813
  C  C8  1  0.169800  0.306500  0.731200  1.0  0.5717
  C  C9  1  0.067300  0.995700  0.032800  1.0  0.5789
  C  C10  1  0.328700  0.190900  0.766200  1.0  0.5784
  C  C11  1  0.402700  0.000200  0.501900  1.0  0.5775
  C  C12  1  0.548400  0.504300  0.539400  1.0  0.574
  C  C13  1  0.098000  0.501800  0.996600  1.0  0.5825
  C  C14  1  0.830200  0.693500  0.268800  1.0  0.5721
  C  C15  1  0.932700  0.004300  0.967200  1.0  0.5787
  C  C16  1  0.671300  0.809100  0.233800  1.0  0.5763
  C  C17  1  0.597300  0.999800  0.498100  1.0  0.578
  C  C18  1  0.451600  0.495700  0.460600  1.0  0.5705
  O  O19  1  0.041900  0.349000  0.787300  1.0  -0.491
  O  O20  1  0.863900  0.397100  0.972000  1.0  -0.5567
  O  O21  1  0.797100  0.599800  0.041800  1.0  -0.5709
  O  O22  1  0.319100  0.152000  0.847900  1.0  -0.5748
  O  O23  1  0.146200  0.097900  0.023200  1.0  -0.4771
  O  O24  1  0.087900  0.888400  0.091000  1.0  -0.5168
  O  O25  1  0.293600  0.103000  0.536200  1.0  -0.4877
  O  O26  1  0.365300  0.900800  0.466900  1.0  -0.4816
  O  O27  1  0.545900  0.404700  0.602200  1.0  -0.4844
  O  O28  1  0.177500  0.350600  0.651800  1.0  -0.4492
  O  O29  1  0.620500  0.609100  0.535200  1.0  -0.463
  O  O30  1  0.450800  0.143600  0.711900  1.0  -0.4756
  O  O31  1  0.506300  0.620300  0.878100  1.0  -0.4877
  O  O32  1  0.958100  0.651000  0.212700  1.0  -0.4908
  O  O33  1  0.136100  0.602900  0.028000  1.0  -0.5561
  O  O34  1  0.202900  0.400200  0.958200  1.0  -0.5713
  O  O35  1  0.680900  0.848000  0.152100  1.0  -0.5775
  O  O36  1  0.853800  0.902100  0.976800  1.0  -0.4779
  O  O37  1  0.912100  0.111600  0.909000  1.0  -0.5169
  O  O38  1  0.706400  0.897000  0.463800  1.0  -0.4866
  O  O39  1  0.634700  0.099200  0.533100  1.0  -0.4821
  O  O40  1  0.454100  0.595300  0.397800  1.0  -0.4854
  O  O41  1  0.822500  0.649400  0.348200  1.0  -0.448
  O  O42  1  0.379500  0.390900  0.464800  1.0  -0.4629
  O  O43  1  0.549200  0.856400  0.288100  1.0  -0.4776
  O  O44  1  0.493700  0.379700  0.121900  1.0  -0.4883
