# generated using pymatgen
data_ZnH8C14SO6
_symmetry_space_group_name_H-M   'P 1'
_cell_length_a   16.33030000
_cell_length_b   20.68470000
_cell_length_c   16.98010000
_cell_angle_alpha   90.00000000
_cell_angle_beta   98.47200000
_cell_angle_gamma   90.00000000
_symmetry_Int_Tables_number   1
_chemical_formula_structural   ZnH8C14SO6
_chemical_formula_sum   'Zn12 H96 C168 S12 O72'
_cell_volume   5673.07541199
_cell_formula_units_Z   12
loop_
 _symmetry_equiv_pos_site_id
 _symmetry_equiv_pos_as_xyz
  1  'x, y, z'
loop_
 _atom_site_type_symbol
 _atom_site_label
 _atom_site_symmetry_multiplicity
 _atom_site_fract_x
 _atom_site_fract_y
 _atom_site_fract_z
 _atom_site_occupancy
 _atom_site_charge
  Zn  Zn1  1  0.479660  0.174160  0.249220  1.0  1.0941
  Zn  Zn2  1  0.602810  0.150280  0.439510  1.0  1.0971
  Zn  Zn3  1  0.387860  0.138030  0.055660  1.0  1.0836
  Zn  Zn4  1  0.020340  0.674160  0.250780  1.0  1.0941
  Zn  Zn5  1  0.897190  0.650280  0.060490  1.0  1.098
  Zn  Zn6  1  0.112140  0.638030  0.444340  1.0  1.0882
  Zn  Zn7  1  0.520340  0.825840  0.750780  1.0  1.0947
  Zn  Zn8  1  0.397190  0.849720  0.560490  1.0  1.0984
  Zn  Zn9  1  0.612140  0.861970  0.944340  1.0  1.0853
  Zn  Zn10  1  0.979660  0.325840  0.749220  1.0  1.0945
  Zn  Zn11  1  0.102810  0.349720  0.939510  1.0  1.0973
  Zn  Zn12  1  0.887860  0.361970  0.555660  1.0  1.0853
  H  H13  1  0.194400  0.054200  0.333000  1.0  0.1151
  H  H14  1  0.162700  0.219500  0.080700  1.0  0.0985
  H  H15  1  0.032200  0.252400  0.103300  1.0  0.1142
  H  H16  1  0.271900  0.000100  0.558500  1.0  0.1153
  H  H17  1  0.233800  0.203500  0.316900  1.0  0.1137
  H  H18  1  0.959500  0.395400  0.167000  1.0  0.1126
  H  H19  1  0.624900  0.471500  0.482200  1.0  0.1247
  H  H20  1  0.988200  0.499100  0.211600  1.0  0.0948
  H  H21  1  0.029100  0.435000  0.436500  1.0  0.1145
  H  H22  1  0.103500  0.234800  0.338000  1.0  0.1028
  H  H23  1  0.989800  0.211800  0.440700  1.0  0.1029
  H  H24  1  0.625700  0.359800  0.483800  1.0  0.099
  H  H25  1  0.112400  0.054500  0.613300  1.0  0.1251
  H  H26  1  0.469700  0.355100  0.280500  1.0  0.102
  H  H27  1  0.996000  0.331300  0.391000  1.0  0.1135
  H  H28  1  0.326500  0.086600  0.320600  1.0  0.0975
  H  H29  1  0.822400  0.621900  0.360400  1.0  0.1105
  H  H30  1  0.404700  0.036300  0.546900  1.0  0.1019
  H  H31  1  0.466000  0.466300  0.278300  1.0  0.1235
  H  H32  1  0.574300  0.566500  0.213600  1.0  0.1106
  H  H33  1  0.687500  0.585600  0.151000  1.0  0.1024
  H  H34  1  0.065700  0.149400  0.662600  1.0  0.0999
  H  H35  1  0.037200  0.116700  0.391100  1.0  0.1102
  H  H36  1  0.710400  0.596500  0.422500  1.0  0.1161
  H  H37  1  0.305600  0.554200  0.167000  1.0  0.1156
  H  H38  1  0.337300  0.719500  0.419300  1.0  0.0991
  H  H39  1  0.467800  0.752400  0.396700  1.0  0.1142
  H  H40  1  0.228100  0.500100  0.941500  1.0  0.1151
  H  H41  1  0.266200  0.703500  0.183100  1.0  0.1132
  H  H42  1  0.540500  0.895400  0.333000  1.0  0.1121
  H  H43  1  0.875100  0.971500  0.017800  1.0  0.1243
  H  H44  1  0.511800  0.999100  0.288400  1.0  0.0946
  H  H45  1  0.470900  0.935000  0.063500  1.0  0.1145
  H  H46  1  0.396500  0.734800  0.162000  1.0  0.1033
  H  H47  1  0.510200  0.711800  0.059300  1.0  0.1028
  H  H48  1  0.874300  0.859800  0.016200  1.0  0.0993
  H  H49  1  0.387600  0.554500  0.886700  1.0  0.125
  H  H50  1  0.030300  0.855100  0.219500  1.0  0.1021
  H  H51  1  0.504000  0.831300  0.109000  1.0  0.1123
  H  H52  1  0.173500  0.586600  0.179400  1.0  0.0977
  H  H53  1  0.677600  0.121900  0.139600  1.0  0.1099
  H  H54  1  0.095300  0.536300  0.953100  1.0  0.1019
  H  H55  1  0.034000  0.966300  0.221700  1.0  0.1233
  H  H56  1  0.925700  0.066500  0.286400  1.0  0.1109
  H  H57  1  0.812500  0.085600  0.349000  1.0  0.1031
  H  H58  1  0.434300  0.649400  0.837400  1.0  0.0991
  H  H59  1  0.462800  0.616700  0.108900  1.0  0.1093
  H  H60  1  0.789600  0.096500  0.077500  1.0  0.1165
  H  H61  1  0.805600  0.945800  0.667000  1.0  0.1154
  H  H62  1  0.837300  0.780500  0.919300  1.0  0.0992
  H  H63  1  0.967800  0.747600  0.896700  1.0  0.1146
  H  H64  1  0.728100  0.999900  0.441500  1.0  0.1149
  H  H65  1  0.766200  0.796500  0.683100  1.0  0.1136
  H  H66  1  0.040500  0.604600  0.833000  1.0  0.112
  H  H67  1  0.375100  0.528500  0.517800  1.0  0.1242
  H  H68  1  0.011800  0.500900  0.788400  1.0  0.0952
  H  H69  1  0.970900  0.565000  0.563500  1.0  0.1145
  H  H70  1  0.896500  0.765200  0.662000  1.0  0.1033
  H  H71  1  0.010200  0.788200  0.559300  1.0  0.1036
  H  H72  1  0.374300  0.640200  0.516200  1.0  0.0995
  H  H73  1  0.887600  0.945500  0.386700  1.0  0.1249
  H  H74  1  0.530300  0.644900  0.719500  1.0  0.1018
  H  H75  1  0.004000  0.668700  0.609000  1.0  0.1123
  H  H76  1  0.673500  0.913400  0.679400  1.0  0.0974
  H  H77  1  0.177600  0.378100  0.639600  1.0  0.1099
  H  H78  1  0.595300  0.963700  0.453100  1.0  0.1016
  H  H79  1  0.534000  0.533700  0.721700  1.0  0.1235
  H  H80  1  0.425700  0.433500  0.786400  1.0  0.1106
  H  H81  1  0.312500  0.414400  0.849000  1.0  0.1033
  H  H82  1  0.934300  0.850600  0.337400  1.0  0.0992
  H  H83  1  0.962800  0.883300  0.608900  1.0  0.1094
  H  H84  1  0.289600  0.403500  0.577500  1.0  0.1165
  H  H85  1  0.694400  0.445800  0.833000  1.0  0.1153
  H  H86  1  0.662700  0.280500  0.580700  1.0  0.0982
  H  H87  1  0.532200  0.247600  0.603300  1.0  0.1142
  H  H88  1  0.771900  0.499900  0.058500  1.0  0.115
  H  H89  1  0.733800  0.296500  0.816900  1.0  0.1139
  H  H90  1  0.459500  0.104600  0.667000  1.0  0.1127
  H  H91  1  0.124900  0.028500  0.982200  1.0  0.1247
  H  H92  1  0.488200  0.000900  0.711600  1.0  0.0954
  H  H93  1  0.529100  0.065000  0.936500  1.0  0.1145
  H  H94  1  0.603500  0.265200  0.838000  1.0  0.1026
  H  H95  1  0.489800  0.288200  0.940700  1.0  0.103
  H  H96  1  0.125700  0.140200  0.983800  1.0  0.0988
  H  H97  1  0.612400  0.445500  0.113300  1.0  0.1247
  H  H98  1  0.969700  0.144900  0.780500  1.0  0.1022
  H  H99  1  0.496000  0.168700  0.891000  1.0  0.1132
  H  H100  1  0.826500  0.413400  0.820600  1.0  0.0976
  H  H101  1  0.322400  0.878100  0.860400  1.0  0.1108
  H  H102  1  0.904700  0.463700  0.046900  1.0  0.1018
  H  H103  1  0.966000  0.033700  0.778300  1.0  0.1236
  H  H104  1  0.074300  0.933500  0.713600  1.0  0.1105
  H  H105  1  0.187500  0.914400  0.651000  1.0  0.1022
  H  H106  1  0.565700  0.350600  0.162600  1.0  0.0998
  H  H107  1  0.537200  0.383300  0.891100  1.0  0.1099
  H  H108  1  0.210400  0.903500  0.922500  1.0  0.1164
  C  C109  1  0.236600  0.050800  0.376000  1.0  -0.0415
  C  C110  1  0.151100  0.223000  0.132600  1.0  -0.0287
  C  C111  1  0.072900  0.242600  0.145900  1.0  -0.0236
  C  C112  1  0.283000  0.018900  0.511400  1.0  -0.0473
  C  C113  1  0.193700  0.213200  0.273800  1.0  -0.0382
  C  C114  1  0.973400  0.403600  0.221200  1.0  -0.0694
  C  C115  1  0.632200  0.581400  0.323200  1.0  -0.1217
  C  C116  1  0.593500  0.448200  0.441700  1.0  -0.0498
  C  C117  1  0.991100  0.465200  0.247800  1.0  -0.025
  C  C118  1  0.212200  0.208500  0.196400  1.0  -0.1261
  C  C119  1  0.015000  0.427200  0.382200  1.0  -0.0572
  C  C120  1  0.462300  0.095900  0.423200  1.0  0.6548
  C  C121  1  0.115900  0.232200  0.286300  1.0  -0.0672
  C  C122  1  0.014200  0.180200  0.475600  1.0  -0.0454
  C  C123  1  0.079800  0.078100  0.496700  1.0  -0.1912
  C  C124  1  0.593400  0.381500  0.442400  1.0  -0.0276
  C  C125  1  0.056200  0.247300  0.223000  1.0  -0.156
  C  C126  1  0.765600  0.608600  0.248800  1.0  -0.1274
  C  C127  1  0.297200  0.187800  0.181000  1.0  0.7069
  C  C128  1  0.088100  0.086300  0.578900  1.0  -0.0497
  C  C129  1  0.500400  0.378300  0.321600  1.0  0.0124
  C  C130  1  0.021700  0.190200  0.556900  1.0  -0.1427
  C  C131  1  0.995800  0.365200  0.355000  1.0  -0.0528
  C  C132  1  0.315200  0.070600  0.369000  1.0  -0.024
  C  C133  1  0.772200  0.610600  0.330100  1.0  -0.0701
  C  C134  1  0.013200  0.477300  0.328500  1.0  -0.122
  C  C135  1  0.362200  0.040000  0.504200  1.0  -0.052
  C  C136  1  0.546300  0.274300  0.382100  1.0  0.726
  C  C137  1  0.498600  0.444600  0.319500  1.0  -0.0691
  C  C138  1  0.038700  0.545000  0.356300  1.0  0.716
  C  C139  1  0.624800  0.577600  0.243400  1.0  -0.0505
  C  C140  1  0.546700  0.478700  0.380300  1.0  -0.1627
  C  C141  1  0.837600  0.627100  0.207700  1.0  0.7299
  C  C142  1  0.377800  0.067000  0.432600  1.0  -0.1366
  C  C143  1  0.692000  0.589900  0.206000  1.0  -0.0597
  C  C144  1  0.059600  0.142700  0.607900  1.0  -0.0177
  C  C145  1  0.546000  0.345700  0.382200  1.0  -0.1456
  C  C146  1  0.043100  0.123500  0.445800  1.0  -0.0554
  C  C147  1  0.990400  0.251200  0.589000  1.0  0.7263
  C  C148  1  0.220600  0.026200  0.446800  1.0  -0.239
  C  C149  1  0.976500  0.354000  0.275400  1.0  -0.1696
  C  C150  1  0.705300  0.596200  0.367200  1.0  -0.0518
  C  C151  1  0.263400  0.550800  0.124000  1.0  -0.0411
  C  C152  1  0.348900  0.723000  0.367400  1.0  -0.0282
  C  C153  1  0.427100  0.742600  0.354100  1.0  -0.0237
  C  C154  1  0.217000  0.518900  0.988600  1.0  -0.0481
  C  C155  1  0.306300  0.713200  0.226200  1.0  -0.0356
  C  C156  1  0.526600  0.903600  0.278800  1.0  -0.0688
  C  C157  1  0.867800  0.081400  0.176800  1.0  -0.1212
  C  C158  1  0.906500  0.948200  0.058300  1.0  -0.0497
  C  C159  1  0.508900  0.965200  0.252200  1.0  -0.0253
  C  C160  1  0.287800  0.708500  0.303600  1.0  -0.1257
  C  C161  1  0.485000  0.927200  0.117800  1.0  -0.0582
  C  C162  1  0.037700  0.595900  0.076800  1.0  0.6549
  C  C163  1  0.384100  0.732200  0.213700  1.0  -0.0647
  C  C164  1  0.485800  0.680200  0.024400  1.0  -0.0458
  C  C165  1  0.420200  0.578100  0.003300  1.0  -0.1914
  C  C166  1  0.906600  0.881500  0.057600  1.0  -0.0262
  C  C167  1  0.443800  0.747300  0.277000  1.0  -0.1568
  C  C168  1  0.734400  0.108600  0.251200  1.0  -0.1278
  C  C169  1  0.202800  0.687800  0.319000  1.0  0.707
  C  C170  1  0.411900  0.586300  0.921100  1.0  -0.0495
  C  C171  1  0.999600  0.878300  0.178400  1.0  0.0143
  C  C172  1  0.478300  0.690200  0.943100  1.0  -0.143
  C  C173  1  0.504200  0.865200  0.145000  1.0  -0.0516
  C  C174  1  0.184800  0.570600  0.131000  1.0  -0.0262
  C  C175  1  0.727800  0.110600  0.169900  1.0  -0.0718
  C  C176  1  0.486800  0.977300  0.171500  1.0  -0.1217
  C  C177  1  0.137800  0.540000  0.995800  1.0  -0.0513
  C  C178  1  0.953700  0.774300  0.117900  1.0  0.7265
  C  C179  1  0.001400  0.944600  0.180500  1.0  -0.0704
  C  C180  1  0.461300  0.045000  0.143700  1.0  0.7161
  C  C181  1  0.875200  0.077600  0.256600  1.0  -0.0505
  C  C182  1  0.953300  0.978700  0.119700  1.0  -0.1629
  C  C183  1  0.662400  0.127100  0.292300  1.0  0.7302
  C  C184  1  0.122200  0.567000  0.067400  1.0  -0.1374
  C  C185  1  0.808000  0.089900  0.294000  1.0  -0.0595
  C  C186  1  0.440400  0.642700  0.892100  1.0  -0.0178
  C  C187  1  0.954000  0.845700  0.117800  1.0  -0.1455
  C  C188  1  0.456900  0.623500  0.054200  1.0  -0.0558
  C  C189  1  0.509600  0.751200  0.911000  1.0  0.726
  C  C190  1  0.279400  0.526200  0.053200  1.0  -0.2359
  C  C191  1  0.523500  0.854000  0.224600  1.0  -0.1684
  C  C192  1  0.794700  0.096200  0.132800  1.0  -0.0508
  C  C193  1  0.763400  0.949200  0.624000  1.0  -0.0416
  C  C194  1  0.848900  0.777000  0.867400  1.0  -0.0283
  C  C195  1  0.927100  0.757400  0.854100  1.0  -0.0233
  C  C196  1  0.717000  0.981100  0.488600  1.0  -0.0477
  C  C197  1  0.806300  0.786800  0.726200  1.0  -0.0359
  C  C198  1  0.026600  0.596400  0.778800  1.0  -0.069
  C  C199  1  0.367800  0.418600  0.676800  1.0  -0.1212
  C  C200  1  0.406500  0.551800  0.558300  1.0  -0.0498
  C  C201  1  0.008900  0.534800  0.752200  1.0  -0.0255
  C  C202  1  0.787800  0.791500  0.803600  1.0  -0.1264
  C  C203  1  0.985000  0.572800  0.617800  1.0  -0.0574
  C  C204  1  0.537700  0.904100  0.576800  1.0  0.655
  C  C205  1  0.884100  0.767800  0.713700  1.0  -0.0646
  C  C206  1  0.985800  0.819800  0.524400  1.0  -0.0464
  C  C207  1  0.920200  0.921900  0.503300  1.0  -0.1916
  C  C208  1  0.406600  0.618500  0.557600  1.0  -0.0262
  C  C209  1  0.943800  0.752700  0.777000  1.0  -0.1566
  C  C210  1  0.234400  0.391400  0.751200  1.0  -0.1279
  C  C211  1  0.702800  0.812200  0.819000  1.0  0.7075
  C  C212  1  0.911900  0.913700  0.421100  1.0  -0.0495
  C  C213  1  0.499600  0.621700  0.678400  1.0  0.0143
  C  C214  1  0.978300  0.809800  0.443100  1.0  -0.1447
  C  C215  1  0.004200  0.634800  0.645000  1.0  -0.0522
  C  C216  1  0.684800  0.929400  0.631000  1.0  -0.0265
  C  C217  1  0.227800  0.389400  0.669900  1.0  -0.0711
  C  C218  1  0.986800  0.522700  0.671500  1.0  -0.1216
  C  C219  1  0.637800  0.960000  0.495800  1.0  -0.0515
  C  C220  1  0.453700  0.725700  0.617900  1.0  0.727
  C  C221  1  0.501400  0.555400  0.680500  1.0  -0.0703
  C  C222  1  0.961300  0.455000  0.643700  1.0  0.7158
  C  C223  1  0.375200  0.422400  0.756600  1.0  -0.0505
  C  C224  1  0.453300  0.521300  0.619700  1.0  -0.1613
  C  C225  1  0.162400  0.372900  0.792300  1.0  0.7306
  C  C226  1  0.622200  0.933000  0.567400  1.0  -0.1377
  C  C227  1  0.308000  0.410100  0.794000  1.0  -0.0589
  C  C228  1  0.940400  0.857300  0.392100  1.0  -0.0168
  C  C229  1  0.454000  0.654300  0.617800  1.0  -0.1455
  C  C230  1  0.956900  0.876500  0.554200  1.0  -0.0559
  C  C231  1  0.009600  0.748800  0.411000  1.0  0.7254
  C  C232  1  0.779400  0.973800  0.553200  1.0  -0.2359
  C  C233  1  0.023500  0.646000  0.724600  1.0  -0.1703
  C  C234  1  0.294700  0.403800  0.632800  1.0  -0.0503
  C  C235  1  0.736600  0.449200  0.876000  1.0  -0.0424
  C  C236  1  0.651100  0.277000  0.632600  1.0  -0.0285
  C  C237  1  0.572900  0.257400  0.645900  1.0  -0.0233
  C  C238  1  0.783000  0.481100  0.011400  1.0  -0.0476
  C  C239  1  0.693700  0.286800  0.773800  1.0  -0.0379
  C  C240  1  0.473400  0.096400  0.721200  1.0  -0.0696
  C  C241  1  0.132200  0.918600  0.823200  1.0  -0.1216
  C  C242  1  0.093500  0.051800  0.941700  1.0  -0.0498
  C  C243  1  0.491100  0.034800  0.747800  1.0  -0.0255
  C  C244  1  0.712200  0.291500  0.696400  1.0  -0.1258
  C  C245  1  0.515000  0.072800  0.882200  1.0  -0.057
  C  C246  1  0.962300  0.404100  0.923200  1.0  0.6551
  C  C247  1  0.615900  0.267800  0.786300  1.0  -0.0669
  C  C248  1  0.514200  0.319800  0.975600  1.0  -0.0468
  C  C249  1  0.579800  0.421900  0.996700  1.0  -0.1915
  C  C250  1  0.093400  0.118500  0.942400  1.0  -0.0271
  C  C251  1  0.556200  0.252700  0.723000  1.0  -0.1562
  C  C252  1  0.265600  0.891400  0.748800  1.0  -0.1267
  C  C253  1  0.797200  0.312200  0.681000  1.0  0.7072
  C  C254  1  0.588100  0.413700  0.078900  1.0  -0.0495
  C  C255  1  0.000400  0.121700  0.821600  1.0  0.0129
  C  C256  1  0.521700  0.309800  0.056900  1.0  -0.1438
  C  C257  1  0.495800  0.134800  0.855000  1.0  -0.0522
  C  C258  1  0.815200  0.429400  0.869000  1.0  -0.0241
  C  C259  1  0.272200  0.889400  0.830100  1.0  -0.0698
  C  C260  1  0.513200  0.022700  0.828500  1.0  -0.1205
  C  C261  1  0.862200  0.460000  0.004200  1.0  -0.052
  C  C262  1  0.046300  0.225700  0.882100  1.0  0.7268
  C  C263  1  0.998600  0.055400  0.819500  1.0  -0.0689
  C  C264  1  0.538700  0.955000  0.856300  1.0  0.7158
  C  C265  1  0.124800  0.922400  0.743400  1.0  -0.0503
  C  C266  1  0.046700  0.021300  0.880300  1.0  -0.1612
  C  C267  1  0.337600  0.872900  0.707700  1.0  0.73
  C  C268  1  0.877800  0.433000  0.932600  1.0  -0.1369
  C  C269  1  0.192000  0.910100  0.706000  1.0  -0.0595
  C  C270  1  0.559600  0.357300  0.107900  1.0  -0.0179
  C  C271  1  0.046000  0.154300  0.882200  1.0  -0.1457
  C  C272  1  0.543100  0.376500  0.945800  1.0  -0.055
  C  C273  1  0.490400  0.248800  0.089000  1.0  0.7257
  C  C274  1  0.720600  0.473800  0.946800  1.0  -0.2387
  C  C275  1  0.476500  0.146000  0.775400  1.0  -0.1706
  C  C276  1  0.205300  0.903800  0.867200  1.0  -0.0515
  S  S277  1  0.545930  0.564730  0.373300  1.0  1.1068
  S  S278  1  0.958110  0.273970  0.240870  1.0  1.1209
  S  S279  1  0.117630  0.006000  0.458120  1.0  1.1088
  S  S280  1  0.954070  0.064730  0.126700  1.0  1.1063
  S  S281  1  0.541890  0.773970  0.259130  1.0  1.12
  S  S282  1  0.382370  0.506000  0.041880  1.0  1.1091
  S  S283  1  0.454070  0.435270  0.626700  1.0  1.1062
  S  S284  1  0.041890  0.726030  0.759130  1.0  1.12
  S  S285  1  0.882370  0.994000  0.541880  1.0  1.108
  S  S286  1  0.045930  0.935270  0.873300  1.0  1.1074
  S  S287  1  0.458110  0.226030  0.740870  1.0  1.1206
  S  S288  1  0.617630  0.494000  0.958120  1.0  1.108
  O  O289  1  0.896500  0.655200  0.247400  1.0  -0.6073
  O  O290  1  0.496200  0.246800  0.330000  1.0  -0.636
  O  O291  1  0.477100  0.111000  0.357600  1.0  -0.6196
  O  O292  1  0.993100  0.257200  0.662000  1.0  -0.5789
  O  O293  1  0.354000  0.187800  0.238700  1.0  -0.598
  O  O294  1  0.038700  0.587700  0.309200  1.0  -0.6722
  O  O295  1  0.596100  0.244600  0.433700  1.0  -0.5926
  O  O296  1  0.830600  0.614000  0.135300  1.0  -0.5798
  O  O297  1  0.510600  0.104000  0.486700  1.0  -0.5778
  O  O298  1  0.961500  0.293000  0.537100  1.0  -0.5943
  O  O299  1  0.302000  0.173200  0.109000  1.0  -0.6101
  O  O300  1  0.065900  0.552200  0.429900  1.0  -0.6004
  O  O301  1  0.904400  0.276600  0.165400  1.0  -0.5729
  O  O302  1  0.934700  0.237100  0.304900  1.0  -0.5426
  O  O303  1  0.119800  0.956900  0.517400  1.0  -0.5497
  O  O304  1  0.071900  0.996000  0.380300  1.0  -0.5652
  O  O305  1  0.563100  0.589500  0.452100  1.0  -0.5422
  O  O306  1  0.473100  0.584400  0.321200  1.0  -0.5567
  O  O307  1  0.603500  0.155200  0.252600  1.0  -0.6065
  O  O308  1  0.003800  0.746800  0.170000  1.0  -0.637
  O  O309  1  0.022900  0.611000  0.142400  1.0  -0.6201
  O  O310  1  0.506900  0.757200  0.838000  1.0  -0.5789
  O  O311  1  0.146000  0.687800  0.261300  1.0  -0.5968
  O  O312  1  0.461300  0.087700  0.190800  1.0  -0.6721
  O  O313  1  0.903900  0.744600  0.066300  1.0  -0.5921
  O  O314  1  0.669400  0.114000  0.364700  1.0  -0.579
  O  O315  1  0.989400  0.604000  0.013300  1.0  -0.5767
  O  O316  1  0.538500  0.793000  0.962900  1.0  -0.5942
  O  O317  1  0.198000  0.673200  0.391000  1.0  -0.6089
  O  O318  1  0.434100  0.052200  0.070100  1.0  -0.6002
  O  O319  1  0.595600  0.776600  0.334600  1.0  -0.5779
  O  O320  1  0.565300  0.737100  0.195100  1.0  -0.5402
  O  O321  1  0.380200  0.456900  0.982600  1.0  -0.55
  O  O322  1  0.428100  0.496000  0.119700  1.0  -0.5642
  O  O323  1  0.936900  0.089500  0.047900  1.0  -0.5442
  O  O324  1  0.026900  0.084400  0.178800  1.0  -0.5591
  O  O325  1  0.103500  0.344800  0.752600  1.0  -0.6058
  O  O326  1  0.503800  0.753200  0.670000  1.0  -0.637
  O  O327  1  0.522900  0.889000  0.642400  1.0  -0.6199
  O  O328  1  0.006900  0.742800  0.338000  1.0  -0.5783
  O  O329  1  0.646000  0.812200  0.761300  1.0  -0.598
  O  O330  1  0.961300  0.412300  0.690800  1.0  -0.6713
  O  O331  1  0.403900  0.755400  0.566300  1.0  -0.5917
  O  O332  1  0.169400  0.386000  0.864700  1.0  -0.5791
  O  O333  1  0.489400  0.896000  0.513300  1.0  -0.5772
  O  O334  1  0.038500  0.707000  0.462900  1.0  -0.594
  O  O335  1  0.698000  0.826800  0.891000  1.0  -0.6087
  O  O336  1  0.934100  0.447800  0.570100  1.0  -0.6002
  O  O337  1  0.095600  0.723400  0.834600  1.0  -0.5781
  O  O338  1  0.065300  0.762900  0.695100  1.0  -0.5399
  O  O339  1  0.880200  0.043100  0.482600  1.0  -0.5491
  O  O340  1  0.928100  0.004000  0.619700  1.0  -0.5646
  O  O341  1  0.436900  0.410500  0.547900  1.0  -0.544
  O  O342  1  0.526900  0.415600  0.678800  1.0  -0.5595
  O  O343  1  0.396500  0.844800  0.747400  1.0  -0.6061
  O  O344  1  0.996200  0.253200  0.830000  1.0  -0.6361
  O  O345  1  0.977100  0.389000  0.857600  1.0  -0.62
  O  O346  1  0.493100  0.242800  0.162000  1.0  -0.5787
  O  O347  1  0.854000  0.312200  0.738700  1.0  -0.5982
  O  O348  1  0.538700  0.912300  0.809200  1.0  -0.6712
  O  O349  1  0.096100  0.255400  0.933700  1.0  -0.5922
  O  O350  1  0.330600  0.886000  0.635300  1.0  -0.5795
  O  O351  1  0.010600  0.396000  0.986700  1.0  -0.5779
  O  O352  1  0.461500  0.207000  0.037100  1.0  -0.5948
  O  O353  1  0.802000  0.326800  0.609000  1.0  -0.6099
  O  O354  1  0.565900  0.947800  0.929900  1.0  -0.6006
  O  O355  1  0.404400  0.223400  0.665400  1.0  -0.5728
  O  O356  1  0.434700  0.262900  0.804900  1.0  -0.5424
  O  O357  1  0.619800  0.543100  0.017400  1.0  -0.5489
  O  O358  1  0.571900  0.504000  0.880300  1.0  -0.565
  O  O359  1  0.063100  0.910500  0.952100  1.0  -0.5426
  O  O360  1  0.973100  0.915600  0.821200  1.0  -0.5574
