# generated using pymatgen
data_V6Ni3H56C52(N2O3)4
_symmetry_space_group_name_H-M   'P 1'
_cell_length_a   13.08100000
_cell_length_b   16.37900000
_cell_length_c   15.40700000
_cell_angle_alpha   90.00000000
_cell_angle_beta   102.36800000
_cell_angle_gamma   90.00000000
_symmetry_Int_Tables_number   1
_chemical_formula_structural   V6Ni3H56C52(N2O3)4
_chemical_formula_sum   'V12 Ni6 H112 C104 N16 O24'
_cell_volume   3224.39716367
_cell_formula_units_Z   2
loop_
 _symmetry_equiv_pos_site_id
 _symmetry_equiv_pos_as_xyz
  1  'x, y, z'
loop_
 _atom_site_type_symbol
 _atom_site_label
 _atom_site_symmetry_multiplicity
 _atom_site_fract_x
 _atom_site_fract_y
 _atom_site_fract_z
 _atom_site_occupancy
 _atom_site_charge
  V  V1  1  0.340940  0.332340  0.354530  1.0  1.1751
  V  V2  1  0.276310  0.658550  0.251520  1.0  1.1837
  V  V3  1  0.218510  0.503970  0.378000  1.0  1.2332
  V  V4  1  0.159060  0.832340  0.145470  1.0  1.1751
  V  V5  1  0.223690  0.158550  0.248480  1.0  1.1809
  V  V6  1  0.281490  0.003970  0.122000  1.0  1.2317
  V  V7  1  0.659060  0.667660  0.645470  1.0  1.1758
  V  V8  1  0.723690  0.341450  0.748480  1.0  1.1798
  V  V9  1  0.781490  0.496030  0.622000  1.0  1.232
  V  V10  1  0.840940  0.167660  0.854530  1.0  1.175
  V  V11  1  0.776310  0.841450  0.751520  1.0  1.1831
  V  V12  1  0.718510  0.996030  0.878000  1.0  1.2336
  Ni  Ni13  1  0.488840  0.305860  0.573910  1.0  0.7014
  Ni  Ni14  1  0.011160  0.805860  0.926090  1.0  0.7012
  Ni  Ni15  1  0.511160  0.694140  0.426090  1.0  0.6981
  Ni  Ni16  1  0.988840  0.194140  0.073910  1.0  0.7
  Ni  Ni17  1  0.000000  0.500000  0.500000  1.0  0.6681
  Ni  Ni18  1  0.500000  0.000000  0.000000  1.0  0.6681
  H  H19  1  0.459400  0.089600  0.819800  1.0  0.062
  H  H20  1  0.492500  0.328600  0.772800  1.0  0.0749
  H  H21  1  0.887300  0.661700  0.834600  1.0  0.0725
  H  H22  1  0.145800  0.288300  0.659500  1.0  0.0925
  H  H23  1  0.119800  0.214900  0.438600  1.0  0.1174
  H  H24  1  0.903500  0.523800  0.816400  1.0  0.1045
  H  H25  1  0.911600  0.354300  0.589800  1.0  0.0704
  H  H26  1  0.275500  0.956300  0.928200  1.0  0.0648
  H  H27  1  0.322200  0.131800  0.711300  1.0  0.0942
  H  H28  1  0.030300  0.084600  0.464500  1.0  0.0831
  H  H29  1  0.964800  0.083500  0.538700  1.0  0.0834
  H  H30  1  0.133300  0.994100  0.822400  1.0  0.1115
  H  H31  1  0.378400  0.330400  0.867000  1.0  0.0918
  H  H32  1  0.111400  0.353900  0.435300  1.0  0.0732
  H  H33  1  0.054300  0.066100  0.697700  1.0  0.0795
  H  H34  1  0.103800  0.152700  0.693400  1.0  0.0755
  H  H35  1  0.135300  0.020200  0.583900  1.0  0.0712
  H  H36  1  0.185400  0.106700  0.579800  1.0  0.0704
  H  H37  1  0.147100  0.666800  0.012800  1.0  0.0754
  H  H38  1  0.169800  0.529700  0.997600  1.0  0.1172
  H  H39  1  0.911000  0.214200  0.593600  1.0  0.1245
  H  H40  1  0.200900  0.298200  0.892800  1.0  0.0878
  H  H41  1  0.109000  0.282700  0.810200  1.0  0.0805
  H  H42  1  0.264300  0.284300  0.572200  1.0  0.0752
  H  H43  1  0.197500  0.438600  0.858300  1.0  0.0686
  H  H44  1  0.106600  0.423400  0.775500  1.0  0.0668
  H  H45  1  0.990300  0.394900  0.864800  1.0  0.0913
  H  H46  1  0.080400  0.395200  0.950400  1.0  0.0759
  H  H47  1  0.040600  0.589600  0.680200  1.0  0.0618
  H  H48  1  0.007500  0.828600  0.727200  1.0  0.0751
  H  H49  1  0.612700  0.161700  0.665400  1.0  0.0727
  H  H50  1  0.354200  0.788300  0.840500  1.0  0.0934
  H  H51  1  0.380200  0.714900  0.061400  1.0  0.1176
  H  H52  1  0.596500  0.023800  0.683600  1.0  0.1051
  H  H53  1  0.588400  0.854300  0.910200  1.0  0.0707
  H  H54  1  0.224500  0.456300  0.571800  1.0  0.0655
  H  H55  1  0.177800  0.631800  0.788700  1.0  0.0946
  H  H56  1  0.469700  0.584600  0.035500  1.0  0.0829
  H  H57  1  0.535200  0.583500  0.961300  1.0  0.0831
  H  H58  1  0.366700  0.494100  0.677600  1.0  0.1114
  H  H59  1  0.121600  0.830400  0.633000  1.0  0.0909
  H  H60  1  0.388600  0.853900  0.064700  1.0  0.0726
  H  H61  1  0.445700  0.566100  0.802300  1.0  0.0801
  H  H62  1  0.396200  0.652700  0.806600  1.0  0.0751
  H  H63  1  0.364700  0.520200  0.916100  1.0  0.0733
  H  H64  1  0.314600  0.606700  0.920200  1.0  0.0695
  H  H65  1  0.352900  0.166800  0.487200  1.0  0.0747
  H  H66  1  0.330200  0.029700  0.502400  1.0  0.1163
  H  H67  1  0.589000  0.714200  0.906400  1.0  0.1242
  H  H68  1  0.299100  0.798200  0.607200  1.0  0.0881
  H  H69  1  0.391000  0.782700  0.689800  1.0  0.0797
  H  H70  1  0.235700  0.784300  0.927800  1.0  0.0738
  H  H71  1  0.302500  0.938600  0.641700  1.0  0.0696
  H  H72  1  0.393400  0.923400  0.724500  1.0  0.0671
  H  H73  1  0.509700  0.894900  0.635200  1.0  0.0922
  H  H74  1  0.419600  0.895200  0.549600  1.0  0.0754
  H  H75  1  0.540600  0.910400  0.180200  1.0  0.0617
  H  H76  1  0.507500  0.671400  0.227200  1.0  0.0752
  H  H77  1  0.112700  0.338300  0.165400  1.0  0.0722
  H  H78  1  0.854200  0.711700  0.340500  1.0  0.0936
  H  H79  1  0.880200  0.785100  0.561400  1.0  0.1174
  H  H80  1  0.096500  0.476200  0.183600  1.0  0.1047
  H  H81  1  0.088400  0.645700  0.410200  1.0  0.0709
  H  H82  1  0.724500  0.043700  0.071800  1.0  0.065
  H  H83  1  0.677800  0.868200  0.288700  1.0  0.095
  H  H84  1  0.969700  0.915400  0.535500  1.0  0.0826
  H  H85  1  0.035200  0.916500  0.461300  1.0  0.0828
  H  H86  1  0.866700  0.005900  0.177600  1.0  0.1115
  H  H87  1  0.621600  0.669600  0.133000  1.0  0.0908
  H  H88  1  0.888600  0.646100  0.564700  1.0  0.0725
  H  H89  1  0.945700  0.933900  0.302300  1.0  0.0806
  H  H90  1  0.896200  0.847300  0.306600  1.0  0.0746
  H  H91  1  0.864700  0.979800  0.416100  1.0  0.0738
  H  H92  1  0.814600  0.893300  0.420200  1.0  0.0696
  H  H93  1  0.852900  0.333200  0.987200  1.0  0.074
  H  H94  1  0.830200  0.470300  0.002400  1.0  0.1163
  H  H95  1  0.089000  0.785800  0.406400  1.0  0.1241
  H  H96  1  0.799100  0.701800  0.107200  1.0  0.0879
  H  H97  1  0.891000  0.717300  0.189800  1.0  0.08
  H  H98  1  0.735700  0.715700  0.427800  1.0  0.0743
  H  H99  1  0.802500  0.561400  0.141700  1.0  0.0697
  H  H100  1  0.893400  0.576600  0.224500  1.0  0.067
  H  H101  1  0.009700  0.605100  0.135200  1.0  0.0916
  H  H102  1  0.919600  0.604800  0.049600  1.0  0.0758
  H  H103  1  0.959400  0.410400  0.319800  1.0  0.062
  H  H104  1  0.992500  0.171400  0.272800  1.0  0.0747
  H  H105  1  0.387300  0.838300  0.334600  1.0  0.072
  H  H106  1  0.645800  0.211700  0.159500  1.0  0.0927
  H  H107  1  0.619800  0.285100  0.938600  1.0  0.1175
  H  H108  1  0.403500  0.976200  0.316400  1.0  0.1046
  H  H109  1  0.411600  0.145700  0.089800  1.0  0.0705
  H  H110  1  0.775500  0.543700  0.428200  1.0  0.0649
  H  H111  1  0.822200  0.368200  0.211300  1.0  0.0946
  H  H112  1  0.530300  0.415400  0.964500  1.0  0.0828
  H  H113  1  0.464800  0.416500  0.038700  1.0  0.0827
  H  H114  1  0.633300  0.505900  0.322400  1.0  0.1117
  H  H115  1  0.878400  0.169600  0.367000  1.0  0.0919
  H  H116  1  0.611400  0.146100  0.935300  1.0  0.0733
  H  H117  1  0.554300  0.433900  0.197700  1.0  0.0797
  H  H118  1  0.603800  0.347300  0.193400  1.0  0.0743
  H  H119  1  0.635300  0.479800  0.083900  1.0  0.0736
  H  H120  1  0.685400  0.393300  0.079800  1.0  0.0703
  H  H121  1  0.647100  0.833200  0.512800  1.0  0.0759
  H  H122  1  0.669800  0.970300  0.497600  1.0  0.1168
  H  H123  1  0.411000  0.285800  0.093600  1.0  0.1241
  H  H124  1  0.700900  0.201800  0.392800  1.0  0.0868
  H  H125  1  0.609000  0.217300  0.310200  1.0  0.0802
  H  H126  1  0.764300  0.215700  0.072200  1.0  0.0743
  H  H127  1  0.697500  0.061400  0.358300  1.0  0.0687
  H  H128  1  0.606600  0.076600  0.275500  1.0  0.0675
  H  H129  1  0.490300  0.105100  0.364800  1.0  0.091
  H  H130  1  0.580400  0.104800  0.450400  1.0  0.0754
  C  C131  1  0.392600  0.070920  0.820900  1.0  0.1647
  C  C132  1  0.017900  0.197540  0.517640  1.0  0.1141
  C  C133  1  0.247100  0.309510  0.774910  1.0  0.1242
  C  C134  1  0.421600  0.319700  0.749700  1.0  0.1574
  C  C135  1  0.945500  0.635020  0.867900  1.0  0.1754
  C  C136  1  0.216300  0.296130  0.684900  1.0  -0.2123
  C  C137  1  0.076500  0.241810  0.469910  1.0  -0.1655
  C  C138  1  0.954900  0.551750  0.856500  1.0  -0.241
  C  C139  1  0.953700  0.325970  0.558500  1.0  0.1793
  C  C140  1  0.285000  0.992800  0.884350  1.0  0.163
  C  C141  1  0.209500  0.068820  0.754050  1.0  0.1413
  C  C142  1  0.310400  0.096230  0.755190  1.0  -0.208
  C  C143  1  0.026800  0.105860  0.522600  1.0  -0.2122
  C  C144  1  0.198800  0.015170  0.820600  1.0  -0.2559
  C  C145  1  0.352900  0.321300  0.806600  1.0  -0.1945
  C  C146  1  0.071300  0.325700  0.468430  1.0  0.1514
  C  C147  1  0.115100  0.094800  0.686500  1.0  -0.2102
  C  C148  1  0.124600  0.078240  0.591100  1.0  -0.114
  C  C149  1  0.097500  0.637950  0.971960  1.0  0.1647
  C  C150  1  0.039600  0.510190  0.903900  1.0  0.1302
  C  C151  1  0.111500  0.555240  0.963300  1.0  -0.1914
  C  C152  1  0.953700  0.241410  0.561900  1.0  -0.2057
  C  C153  1  0.169500  0.316660  0.833200  1.0  -0.2303
  C  C154  1  0.288000  0.294290  0.632620  1.0  0.1591
  C  C155  1  0.136100  0.405530  0.835600  1.0  -0.1123
  C  C156  1  0.056200  0.420210  0.892600  1.0  -0.1943
  C  C157  1  0.107400  0.570920  0.679100  1.0  0.1626
  C  C158  1  0.482100  0.697540  0.982360  1.0  0.1146
  C  C159  1  0.252900  0.809510  0.725090  1.0  0.1247
  C  C160  1  0.078400  0.819700  0.750300  1.0  0.1581
  C  C161  1  0.554500  0.135020  0.632100  1.0  0.1765
  C  C162  1  0.283700  0.796130  0.815100  1.0  -0.2122
  C  C163  1  0.423500  0.741810  0.030090  1.0  -0.1671
  C  C164  1  0.545100  0.051750  0.643500  1.0  -0.2424
  C  C165  1  0.546300  0.825970  0.941500  1.0  0.1795
  C  C166  1  0.215000  0.492800  0.615650  1.0  0.1648
  C  C167  1  0.290500  0.568820  0.745950  1.0  0.1401
  C  C168  1  0.189600  0.596230  0.744810  1.0  -0.2074
  C  C169  1  0.473200  0.605860  0.977400  1.0  -0.213
  C  C170  1  0.301200  0.515170  0.679400  1.0  -0.2542
  C  C171  1  0.147100  0.821300  0.693400  1.0  -0.1927
  C  C172  1  0.428700  0.825700  0.031570  1.0  0.1528
  C  C173  1  0.384900  0.594800  0.813500  1.0  -0.2118
  C  C174  1  0.375400  0.578240  0.908900  1.0  -0.1134
  C  C175  1  0.402500  0.137950  0.528040  1.0  0.1644
  C  C176  1  0.460400  0.010190  0.596100  1.0  0.1309
  C  C177  1  0.388500  0.055240  0.536700  1.0  -0.1912
  C  C178  1  0.546300  0.741410  0.938100  1.0  -0.2057
  C  C179  1  0.330500  0.816660  0.666800  1.0  -0.2327
  C  C180  1  0.212000  0.794290  0.867380  1.0  0.1581
  C  C181  1  0.363900  0.905530  0.664400  1.0  -0.1126
  C  C182  1  0.443800  0.920210  0.607400  1.0  -0.1946
  C  C183  1  0.607400  0.929080  0.179100  1.0  0.1632
  C  C184  1  0.982100  0.802460  0.482360  1.0  0.1147
  C  C185  1  0.752900  0.690490  0.225090  1.0  0.1241
  C  C186  1  0.578400  0.680300  0.250300  1.0  0.1579
  C  C187  1  0.054500  0.364980  0.132100  1.0  0.1754
  C  C188  1  0.783700  0.703870  0.315100  1.0  -0.2123
  C  C189  1  0.923500  0.758190  0.530090  1.0  -0.1669
  C  C190  1  0.045100  0.448250  0.143500  1.0  -0.2421
  C  C191  1  0.046300  0.674030  0.441500  1.0  0.1795
  C  C192  1  0.715000  0.007200  0.115650  1.0  0.1643
  C  C193  1  0.790500  0.931180  0.245950  1.0  0.1398
  C  C194  1  0.689600  0.903770  0.244810  1.0  -0.2071
  C  C195  1  0.973200  0.894140  0.477400  1.0  -0.2137
  C  C196  1  0.801200  0.984830  0.179400  1.0  -0.2547
  C  C197  1  0.647100  0.678700  0.193400  1.0  -0.1926
  C  C198  1  0.928700  0.674300  0.531570  1.0  0.1538
  C  C199  1  0.884900  0.905200  0.313500  1.0  -0.2119
  C  C200  1  0.875400  0.921760  0.408900  1.0  -0.1147
  C  C201  1  0.902500  0.362050  0.028040  1.0  0.1643
  C  C202  1  0.960400  0.489810  0.096100  1.0  0.1305
  C  C203  1  0.888500  0.444760  0.036700  1.0  -0.1914
  C  C204  1  0.046300  0.758590  0.438100  1.0  -0.2055
  C  C205  1  0.830500  0.683340  0.166800  1.0  -0.2314
  C  C206  1  0.712000  0.705710  0.367380  1.0  0.1579
  C  C207  1  0.863900  0.594470  0.164400  1.0  -0.1125
  C  C208  1  0.943800  0.579790  0.107400  1.0  -0.1943
  C  C209  1  0.892600  0.429080  0.320900  1.0  0.1649
  C  C210  1  0.517900  0.302460  0.017640  1.0  0.1145
  C  C211  1  0.747100  0.190490  0.274910  1.0  0.124
  C  C212  1  0.921600  0.180300  0.249700  1.0  0.1574
  C  C213  1  0.445500  0.864980  0.367900  1.0  0.1752
  C  C214  1  0.716300  0.203870  0.184900  1.0  -0.2124
  C  C215  1  0.576500  0.258190  0.969910  1.0  -0.1657
  C  C216  1  0.454900  0.948250  0.356500  1.0  -0.2415
  C  C217  1  0.453700  0.174030  0.058500  1.0  0.1796
  C  C218  1  0.785000  0.507200  0.384350  1.0  0.1635
  C  C219  1  0.709500  0.431180  0.254050  1.0  0.1412
  C  C220  1  0.810400  0.403770  0.255190  1.0  -0.2081
  C  C221  1  0.526800  0.394140  0.022600  1.0  -0.2131
  C  C222  1  0.698800  0.484830  0.320600  1.0  -0.2557
  C  C223  1  0.852900  0.178700  0.306600  1.0  -0.1945
  C  C224  1  0.571300  0.174300  0.968430  1.0  0.1517
  C  C225  1  0.615100  0.405200  0.186500  1.0  -0.2113
  C  C226  1  0.624600  0.421760  0.091100  1.0  -0.1137
  C  C227  1  0.597500  0.862050  0.471960  1.0  0.1643
  C  C228  1  0.539600  0.989810  0.403900  1.0  0.1301
  C  C229  1  0.611500  0.944760  0.463300  1.0  -0.1916
  C  C230  1  0.453700  0.258590  0.061900  1.0  -0.2055
  C  C231  1  0.669500  0.183340  0.333200  1.0  -0.2326
  C  C232  1  0.788000  0.205710  0.132620  1.0  0.1587
  C  C233  1  0.636100  0.094470  0.335600  1.0  -0.1123
  C  C234  1  0.556200  0.079790  0.392600  1.0  -0.194
  N  N235  1  0.011240  0.368930  0.512360  1.0  -0.3236
  N  N236  1  0.380890  0.020370  0.886750  1.0  -0.3262
  N  N237  1  0.015780  0.678770  0.924330  1.0  -0.3401
  N  N238  1  0.389620  0.305810  0.662650  1.0  -0.3649
  N  N239  1  0.488760  0.868930  0.987640  1.0  -0.3227
  N  N240  1  0.119110  0.520370  0.613250  1.0  -0.3279
  N  N241  1  0.484220  0.178770  0.575670  1.0  -0.3392
  N  N242  1  0.110380  0.805810  0.837350  1.0  -0.3647
  N  N243  1  0.988760  0.631070  0.487640  1.0  -0.3224
  N  N244  1  0.619110  0.979630  0.113250  1.0  -0.3273
  N  N245  1  0.984220  0.321230  0.075670  1.0  -0.3402
  N  N246  1  0.610380  0.694190  0.337350  1.0  -0.3637
  N  N247  1  0.511240  0.131070  0.012360  1.0  -0.3237
  N  N248  1  0.880890  0.479630  0.386750  1.0  -0.3262
  N  N249  1  0.515780  0.821230  0.424330  1.0  -0.3417
  N  N250  1  0.889620  0.194190  0.162650  1.0  -0.3649
  O  O251  1  0.113470  0.498880  0.421070  1.0  -0.7782
  O  O252  1  0.201950  0.582930  0.296930  1.0  -0.7663
  O  O253  1  0.621180  0.313870  0.671730  1.0  -0.804
  O  O254  1  0.237260  0.407380  0.330930  1.0  -0.7845
  O  O255  1  0.303300  0.245960  0.285970  1.0  -0.7743
  O  O256  1  0.366820  0.309450  0.461920  1.0  -0.7907
  O  O257  1  0.386530  0.998880  0.078930  1.0  -0.78
  O  O258  1  0.298050  0.082930  0.203070  1.0  -0.7662
  O  O259  1  0.878820  0.813870  0.828270  1.0  -0.8039
  O  O260  1  0.262740  0.907380  0.169070  1.0  -0.786
  O  O261  1  0.196700  0.745960  0.214030  1.0  -0.7741
  O  O262  1  0.133180  0.809450  0.038080  1.0  -0.7912
  O  O263  1  0.886530  0.501120  0.578930  1.0  -0.7794
  O  O264  1  0.798050  0.417070  0.703070  1.0  -0.7663
  O  O265  1  0.378820  0.686130  0.328270  1.0  -0.8042
  O  O266  1  0.762740  0.592620  0.669070  1.0  -0.7858
  O  O267  1  0.696700  0.754040  0.714030  1.0  -0.7736
  O  O268  1  0.633180  0.690550  0.538080  1.0  -0.791
  O  O269  1  0.613470  0.001120  0.921070  1.0  -0.7796
  O  O270  1  0.701950  0.917070  0.796930  1.0  -0.7665
  O  O271  1  0.121180  0.186130  0.171730  1.0  -0.8045
  O  O272  1  0.737260  0.092620  0.830930  1.0  -0.7849
  O  O273  1  0.803300  0.254040  0.785970  1.0  -0.7737
  O  O274  1  0.866820  0.190550  0.961920  1.0  -0.7901
