# generated using pymatgen
data_V6Zn3H56C52(N2O3)4
_symmetry_space_group_name_H-M   'P 1'
_cell_length_a   13.18970000
_cell_length_b   16.43800000
_cell_length_c   15.47250000
_cell_angle_alpha   90.00000000
_cell_angle_beta   102.34500000
_cell_angle_gamma   90.00000000
_symmetry_Int_Tables_number   1
_chemical_formula_structural   V6Zn3H56C52(N2O3)4
_chemical_formula_sum   'V12 Zn6 H112 C104 N16 O24'
_cell_volume   3277.06228753
_cell_formula_units_Z   2
loop_
 _symmetry_equiv_pos_site_id
 _symmetry_equiv_pos_as_xyz
  1  'x, y, z'
loop_
 _atom_site_type_symbol
 _atom_site_label
 _atom_site_symmetry_multiplicity
 _atom_site_fract_x
 _atom_site_fract_y
 _atom_site_fract_z
 _atom_site_occupancy
 _atom_site_charge
  V  V1  1  0.340370  0.833420  0.851900  1.0  1.1572
  V  V2  1  0.781980  0.995800  0.122550  1.0  1.2072
  V  V3  1  0.725600  0.839740  0.246850  1.0  1.1754
  V  V4  1  0.159630  0.333420  0.648100  1.0  1.1565
  V  V5  1  0.718020  0.495800  0.377450  1.0  1.2057
  V  V6  1  0.774400  0.339740  0.253150  1.0  1.1782
  V  V7  1  0.659630  0.166580  0.148100  1.0  1.1576
  V  V8  1  0.218020  0.004200  0.877450  1.0  1.2061
  V  V9  1  0.274400  0.160260  0.753150  1.0  1.1793
  V  V10  1  0.840370  0.666580  0.351900  1.0  1.1571
  V  V11  1  0.281980  0.504200  0.622550  1.0  1.2071
  V  V12  1  0.225600  0.660260  0.746850  1.0  1.1773
  Zn  Zn13  1  0.490270  0.804920  0.072050  1.0  0.9272
  Zn  Zn14  1  0.009730  0.304920  0.427950  1.0  0.9245
  Zn  Zn15  1  0.509730  0.195080  0.927950  1.0  0.9259
  Zn  Zn16  1  0.990270  0.695080  0.572050  1.0  0.9278
  Zn  Zn17  1  0.000000  0.000000  0.000000  1.0  0.7557
  Zn  Zn18  1  0.500000  0.500000  0.500000  1.0  0.7557
  H  H19  1  0.365300  0.018700  0.415200  1.0  0.0658
  H  H20  1  0.314400  0.104000  0.421900  1.0  0.0709
  H  H21  1  0.146800  0.164500  0.513400  1.0  0.0694
  H  H22  1  0.264600  0.786300  0.072100  1.0  0.0648
  H  H23  1  0.389200  0.352000  0.565700  1.0  0.0579
  H  H24  1  0.171100  0.028100  0.498500  1.0  0.1133
  H  H25  1  0.890600  0.158000  0.333800  1.0  0.0663
  H  H26  1  0.201500  0.795800  0.391800  1.0  0.084
  H  H27  1  0.110200  0.781000  0.309500  1.0  0.0793
  H  H28  1  0.907100  0.022000  0.315400  1.0  0.1026
  H  H29  1  0.198900  0.936700  0.357900  1.0  0.0593
  H  H30  1  0.108400  0.922100  0.275600  1.0  0.0683
  H  H31  1  0.044000  0.091000  0.181700  1.0  0.0559
  H  H32  1  0.378300  0.213400  0.561000  1.0  0.1091
  H  H33  1  0.146500  0.791000  0.158400  1.0  0.0891
  H  H34  1  0.588000  0.351600  0.411900  1.0  0.0693
  H  H35  1  0.489900  0.826400  0.273500  1.0  0.0636
  H  H36  1  0.366500  0.995000  0.179000  1.0  0.1127
  H  H37  1  0.391500  0.153800  0.309400  1.0  0.0814
  H  H38  1  0.444500  0.069400  0.303300  1.0  0.0826
  H  H39  1  0.226100  0.956500  0.074600  1.0  0.0582
  H  H40  1  0.178800  0.131300  0.291300  1.0  0.0878
  H  H41  1  0.377600  0.828200  0.366200  1.0  0.091
  H  H42  1  0.534700  0.081800  0.462800  1.0  0.0771
  H  H43  1  0.469400  0.083300  0.536500  1.0  0.0816
  H  H44  1  0.588700  0.211800  0.408900  1.0  0.1162
  H  H45  1  0.993700  0.892700  0.365200  1.0  0.0811
  H  H46  1  0.083600  0.893400  0.450100  1.0  0.0682
  H  H47  1  0.134700  0.518700  0.084800  1.0  0.0655
  H  H48  1  0.185600  0.604000  0.078100  1.0  0.0697
  H  H49  1  0.353200  0.664500  0.986600  1.0  0.069
  H  H50  1  0.235400  0.286300  0.427900  1.0  0.0633
  H  H51  1  0.110800  0.852000  0.934300  1.0  0.0581
  H  H52  1  0.328900  0.528100  0.001500  1.0  0.1125
  H  H53  1  0.609400  0.658000  0.166200  1.0  0.0669
  H  H54  1  0.298500  0.295800  0.108200  1.0  0.0838
  H  H55  1  0.389800  0.281000  0.190500  1.0  0.0794
  H  H56  1  0.592900  0.522000  0.184600  1.0  0.1037
  H  H57  1  0.301100  0.436700  0.142100  1.0  0.0605
  H  H58  1  0.391600  0.422100  0.224400  1.0  0.0681
  H  H59  1  0.456000  0.591000  0.318300  1.0  0.0559
  H  H60  1  0.121700  0.713400  0.939000  1.0  0.1101
  H  H61  1  0.353500  0.291000  0.341600  1.0  0.0901
  H  H62  1  0.912000  0.851600  0.088100  1.0  0.069
  H  H63  1  0.010100  0.326400  0.226500  1.0  0.0635
  H  H64  1  0.133500  0.495000  0.321000  1.0  0.1132
  H  H65  1  0.108500  0.653800  0.190600  1.0  0.0822
  H  H66  1  0.055500  0.569400  0.196700  1.0  0.0824
  H  H67  1  0.273900  0.456500  0.425400  1.0  0.0574
  H  H68  1  0.321200  0.631300  0.208700  1.0  0.0869
  H  H69  1  0.122400  0.328200  0.133800  1.0  0.0912
  H  H70  1  0.965300  0.581800  0.037200  1.0  0.0769
  H  H71  1  0.030600  0.583300  0.963500  1.0  0.0813
  H  H72  1  0.911300  0.711800  0.091100  1.0  0.1164
  H  H73  1  0.506300  0.392700  0.134800  1.0  0.0813
  H  H74  1  0.416400  0.393400  0.049900  1.0  0.0679
  H  H75  1  0.634700  0.981300  0.584800  1.0  0.0672
  H  H76  1  0.685600  0.896000  0.578100  1.0  0.0696
  H  H77  1  0.853200  0.835500  0.486600  1.0  0.0684
  H  H78  1  0.735400  0.213700  0.927900  1.0  0.0638
  H  H79  1  0.610800  0.648000  0.434300  1.0  0.058
  H  H80  1  0.828900  0.971900  0.501500  1.0  0.1125
  H  H81  1  0.109400  0.842000  0.666200  1.0  0.0668
  H  H82  1  0.798500  0.204200  0.608200  1.0  0.0839
  H  H83  1  0.889800  0.219000  0.690500  1.0  0.0797
  H  H84  1  0.092900  0.978000  0.684600  1.0  0.1035
  H  H85  1  0.801100  0.063300  0.642100  1.0  0.0612
  H  H86  1  0.891600  0.077900  0.724400  1.0  0.0678
  H  H87  1  0.956000  0.909000  0.818300  1.0  0.0558
  H  H88  1  0.621700  0.786600  0.439000  1.0  0.1099
  H  H89  1  0.853500  0.209000  0.841600  1.0  0.0903
  H  H90  1  0.412000  0.648400  0.588100  1.0  0.069
  H  H91  1  0.510100  0.173600  0.726500  1.0  0.0636
  H  H92  1  0.633500  0.005000  0.821000  1.0  0.113
  H  H93  1  0.608500  0.846200  0.690600  1.0  0.0819
  H  H94  1  0.555500  0.930600  0.696700  1.0  0.0819
  H  H95  1  0.773900  0.043500  0.925400  1.0  0.0576
  H  H96  1  0.821200  0.868700  0.708700  1.0  0.0873
  H  H97  1  0.622400  0.171800  0.633800  1.0  0.0912
  H  H98  1  0.465300  0.918200  0.537200  1.0  0.0767
  H  H99  1  0.530600  0.916700  0.463500  1.0  0.0809
  H  H100  1  0.411300  0.788200  0.591100  1.0  0.1162
  H  H101  1  0.006300  0.107300  0.634800  1.0  0.0807
  H  H102  1  0.916400  0.106600  0.549900  1.0  0.068
  H  H103  1  0.865300  0.481300  0.915200  1.0  0.0663
  H  H104  1  0.814400  0.396000  0.921900  1.0  0.0713
  H  H105  1  0.646800  0.335500  0.013400  1.0  0.0699
  H  H106  1  0.764600  0.713700  0.572100  1.0  0.0642
  H  H107  1  0.889200  0.148000  0.065700  1.0  0.0577
  H  H108  1  0.671100  0.471900  0.998500  1.0  0.1131
  H  H109  1  0.390600  0.342000  0.833800  1.0  0.0665
  H  H110  1  0.701500  0.704200  0.891800  1.0  0.0832
  H  H111  1  0.610200  0.719000  0.809500  1.0  0.0792
  H  H112  1  0.407100  0.478000  0.815400  1.0  0.1026
  H  H113  1  0.698900  0.563300  0.857900  1.0  0.0596
  H  H114  1  0.608400  0.577900  0.775600  1.0  0.0684
  H  H115  1  0.544000  0.409000  0.681700  1.0  0.0555
  H  H116  1  0.878300  0.286600  0.061000  1.0  0.1094
  H  H117  1  0.646500  0.709000  0.658400  1.0  0.0891
  H  H118  1  0.088000  0.148400  0.911900  1.0  0.0692
  H  H119  1  0.989900  0.673600  0.773500  1.0  0.0633
  H  H120  1  0.866500  0.505000  0.679000  1.0  0.1127
  H  H121  1  0.891500  0.346200  0.809400  1.0  0.0813
  H  H122  1  0.944500  0.430600  0.803300  1.0  0.083
  H  H123  1  0.726100  0.543500  0.574600  1.0  0.0577
  H  H124  1  0.678800  0.368700  0.791300  1.0  0.0883
  H  H125  1  0.877600  0.671800  0.866200  1.0  0.0911
  H  H126  1  0.034700  0.418200  0.962800  1.0  0.0768
  H  H127  1  0.969400  0.416700  0.036500  1.0  0.0811
  H  H128  1  0.088700  0.288200  0.908900  1.0  0.1162
  H  H129  1  0.493700  0.607300  0.865200  1.0  0.0812
  H  H130  1  0.583600  0.606600  0.950100  1.0  0.0678
  C  C131  1  0.374900  0.076800  0.409400  1.0  -0.1117
  C  C132  1  0.097900  0.135400  0.472900  1.0  0.1541
  C  C133  1  0.288100  0.795400  0.132400  1.0  0.1548
  C  C134  1  0.428500  0.323600  0.532400  1.0  0.1428
  C  C135  1  0.113000  0.053200  0.464200  1.0  -0.2034
  C  C136  1  0.947700  0.131500  0.367800  1.0  0.1658
  C  C137  1  0.170300  0.814600  0.332700  1.0  -0.2233
  C  C138  1  0.957500  0.049700  0.356100  1.0  -0.2317
  C  C139  1  0.137700  0.904000  0.335400  1.0  -0.1189
  C  C140  1  0.110200  0.071900  0.180900  1.0  0.1655
  C  C141  1  0.422200  0.240000  0.530500  1.0  -0.1944
  C  C142  1  0.216500  0.797400  0.184000  1.0  -0.1992
  C  C143  1  0.546000  0.323400  0.442900  1.0  0.1704
  C  C144  1  0.419600  0.818200  0.249900  1.0  0.1664
  C  C145  1  0.301400  0.015900  0.180900  1.0  -0.2507
  C  C146  1  0.382900  0.095600  0.315000  1.0  -0.2173
  C  C147  1  0.216600  0.993400  0.117800  1.0  0.161
  C  C148  1  0.190500  0.096600  0.247000  1.0  -0.2226
  C  C149  1  0.352400  0.819800  0.306000  1.0  -0.2173
  C  C150  1  0.473200  0.104200  0.478700  1.0  -0.1963
  C  C151  1  0.545800  0.239000  0.439800  1.0  -0.2082
  C  C152  1  0.059000  0.918300  0.392600  1.0  -0.1932
  C  C153  1  0.481600  0.195100  0.482900  1.0  0.1195
  C  C154  1  0.291000  0.068800  0.246700  1.0  0.131
  C  C155  1  0.247400  0.808900  0.273800  1.0  0.1294
  C  C156  1  0.041500  0.007600  0.404300  1.0  0.1072
  C  C157  1  0.125100  0.576800  0.090600  1.0  -0.112
  C  C158  1  0.402100  0.635400  0.027100  1.0  0.1526
  C  C159  1  0.211900  0.295400  0.367600  1.0  0.1556
  C  C160  1  0.071500  0.823600  0.967600  1.0  0.1421
  C  C161  1  0.387000  0.553200  0.035800  1.0  -0.2046
  C  C162  1  0.552300  0.631500  0.132200  1.0  0.1657
  C  C163  1  0.329700  0.314600  0.167300  1.0  -0.2255
  C  C164  1  0.542500  0.549700  0.143900  1.0  -0.2323
  C  C165  1  0.362300  0.404000  0.164600  1.0  -0.1191
  C  C166  1  0.389800  0.571900  0.319100  1.0  0.1653
  C  C167  1  0.077800  0.740000  0.969500  1.0  -0.1941
  C  C168  1  0.283500  0.297400  0.316000  1.0  -0.1993
  C  C169  1  0.954000  0.823400  0.057100  1.0  0.1696
  C  C170  1  0.080400  0.318200  0.250100  1.0  0.1678
  C  C171  1  0.198600  0.515900  0.319100  1.0  -0.2508
  C  C172  1  0.117100  0.595600  0.185000  1.0  -0.2176
  C  C173  1  0.283400  0.493400  0.382200  1.0  0.1588
  C  C174  1  0.309500  0.596600  0.253000  1.0  -0.223
  C  C175  1  0.147600  0.319800  0.194000  1.0  -0.2154
  C  C176  1  0.026800  0.604200  0.021300  1.0  -0.1945
  C  C177  1  0.954200  0.739000  0.060200  1.0  -0.2078
  C  C178  1  0.441000  0.418300  0.107400  1.0  -0.1934
  C  C179  1  0.018400  0.695100  0.017100  1.0  0.1194
  C  C180  1  0.209000  0.568800  0.253300  1.0  0.1312
  C  C181  1  0.252600  0.308900  0.226200  1.0  0.1297
  C  C182  1  0.458500  0.507600  0.095700  1.0  0.108
  C  C183  1  0.625100  0.923200  0.590600  1.0  -0.111
  C  C184  1  0.902100  0.864600  0.527100  1.0  0.152
  C  C185  1  0.711900  0.204600  0.867600  1.0  0.1555
  C  C186  1  0.571500  0.676400  0.467600  1.0  0.1429
  C  C187  1  0.887000  0.946800  0.535800  1.0  -0.205
  C  C188  1  0.052300  0.868500  0.632200  1.0  0.1644
  C  C189  1  0.829700  0.185400  0.667300  1.0  -0.2237
  C  C190  1  0.042500  0.950300  0.643900  1.0  -0.2315
  C  C191  1  0.862300  0.096000  0.664600  1.0  -0.1194
  C  C192  1  0.889800  0.928100  0.819100  1.0  0.1653
  C  C193  1  0.577800  0.760000  0.469500  1.0  -0.1941
  C  C194  1  0.783500  0.202600  0.816000  1.0  -0.1995
  C  C195  1  0.454000  0.676600  0.557100  1.0  0.1697
  C  C196  1  0.580400  0.181800  0.750100  1.0  0.1678
  C  C197  1  0.698600  0.984100  0.819100  1.0  -0.25
  C  C198  1  0.617100  0.904400  0.685000  1.0  -0.2183
  C  C199  1  0.783400  0.006600  0.882200  1.0  0.159
  C  C200  1  0.809500  0.903400  0.753000  1.0  -0.2239
  C  C201  1  0.647600  0.180200  0.694000  1.0  -0.2155
  C  C202  1  0.526800  0.895800  0.521300  1.0  -0.1949
  C  C203  1  0.454200  0.761000  0.560200  1.0  -0.2075
  C  C204  1  0.941000  0.081700  0.607400  1.0  -0.1934
  C  C205  1  0.518400  0.804900  0.517100  1.0  0.1199
  C  C206  1  0.709000  0.931200  0.753300  1.0  0.1315
  C  C207  1  0.752600  0.191100  0.726200  1.0  0.1292
  C  C208  1  0.958500  0.992400  0.595700  1.0  0.108
  C  C209  1  0.874900  0.423200  0.909400  1.0  -0.112
  C  C210  1  0.597900  0.364600  0.972900  1.0  0.1535
  C  C211  1  0.788100  0.704600  0.632400  1.0  0.155
  C  C212  1  0.928500  0.176400  0.032400  1.0  0.1438
  C  C213  1  0.613000  0.446800  0.964200  1.0  -0.2037
  C  C214  1  0.447700  0.368500  0.867800  1.0  0.1649
  C  C215  1  0.670300  0.685400  0.832700  1.0  -0.2253
  C  C216  1  0.457500  0.450300  0.856100  1.0  -0.2321
  C  C217  1  0.637700  0.596000  0.835400  1.0  -0.1191
  C  C218  1  0.610200  0.428100  0.680900  1.0  0.1657
  C  C219  1  0.922200  0.260000  0.030500  1.0  -0.1943
  C  C220  1  0.716500  0.702600  0.684000  1.0  -0.1995
  C  C221  1  0.046000  0.176600  0.942900  1.0  0.1704
  C  C222  1  0.919600  0.681800  0.749900  1.0  0.1669
  C  C223  1  0.801400  0.484100  0.680900  1.0  -0.2508
  C  C224  1  0.882900  0.404400  0.815000  1.0  -0.217
  C  C225  1  0.716600  0.506600  0.617800  1.0  0.1608
  C  C226  1  0.690500  0.403400  0.747000  1.0  -0.2231
  C  C227  1  0.852400  0.680200  0.806000  1.0  -0.2174
  C  C228  1  0.973200  0.395800  0.978700  1.0  -0.1969
  C  C229  1  0.045800  0.261000  0.939800  1.0  -0.2079
  C  C230  1  0.559000  0.581700  0.892600  1.0  -0.1924
  C  C231  1  0.981600  0.304900  0.982900  1.0  0.1196
  C  C232  1  0.791000  0.431200  0.746700  1.0  0.1307
  C  C233  1  0.747400  0.691100  0.773800  1.0  0.1294
  C  C234  1  0.541500  0.492400  0.904300  1.0  0.1076
  N  N235  1  0.389400  0.805500  0.162800  1.0  -0.3613
  N  N236  1  0.121100  0.021300  0.114700  1.0  -0.3347
  N  N237  1  0.488300  0.366300  0.488900  1.0  -0.3311
  N  N238  1  0.016000  0.175500  0.425600  1.0  -0.3535
  N  N239  1  0.110600  0.305500  0.337200  1.0  -0.362
  N  N240  1  0.378900  0.521300  0.385300  1.0  -0.337
  N  N241  1  0.011700  0.866300  0.011100  1.0  -0.3313
  N  N242  1  0.484000  0.675500  0.074400  1.0  -0.3539
  N  N243  1  0.610600  0.194500  0.837200  1.0  -0.3618
  N  N244  1  0.878900  0.978700  0.885300  1.0  -0.3371
  N  N245  1  0.511700  0.633700  0.511100  1.0  -0.3306
  N  N246  1  0.984000  0.824500  0.574400  1.0  -0.3535
  N  N247  1  0.889400  0.694500  0.662800  1.0  -0.3614
  N  N248  1  0.621100  0.478700  0.614700  1.0  -0.3339
  N  N249  1  0.988300  0.133700  0.988900  1.0  -0.33
  N  N250  1  0.516000  0.324500  0.925600  1.0  -0.3534
  O  O251  1  0.366100  0.808050  0.958000  1.0  -0.7928
  O  O252  1  0.623200  0.813800  0.170600  1.0  -0.7908
  O  O253  1  0.303700  0.748100  0.781600  1.0  -0.7678
  O  O254  1  0.887000  0.001190  0.079500  1.0  -0.7358
  O  O255  1  0.798700  0.916640  0.202800  1.0  -0.7885
  O  O256  1  0.237100  0.907880  0.830100  1.0  -0.7955
  O  O257  1  0.133900  0.308050  0.542000  1.0  -0.7921
  O  O258  1  0.876800  0.313800  0.329400  1.0  -0.791
  O  O259  1  0.196300  0.248100  0.718400  1.0  -0.7666
  O  O260  1  0.613000  0.501190  0.420500  1.0  -0.7361
  O  O261  1  0.701300  0.416640  0.297200  1.0  -0.7861
  O  O262  1  0.262900  0.407880  0.669900  1.0  -0.7959
  O  O263  1  0.633900  0.191950  0.042000  1.0  -0.7906
  O  O264  1  0.376800  0.186200  0.829400  1.0  -0.7909
  O  O265  1  0.696300  0.251900  0.218400  1.0  -0.7661
  O  O266  1  0.113000  0.998810  0.920500  1.0  -0.7345
  O  O267  1  0.201300  0.083360  0.797200  1.0  -0.7862
  O  O268  1  0.762900  0.092120  0.169900  1.0  -0.7955
  O  O269  1  0.866100  0.691950  0.458000  1.0  -0.792
  O  O270  1  0.123200  0.686200  0.670600  1.0  -0.7911
  O  O271  1  0.803700  0.751900  0.281600  1.0  -0.7674
  O  O272  1  0.387000  0.498810  0.579500  1.0  -0.734
  O  O273  1  0.298700  0.583360  0.702800  1.0  -0.7884
  O  O274  1  0.737100  0.592120  0.330100  1.0  -0.7955
