# generated using pymatgen
data_Zn3H58C90(NO3)4
_symmetry_space_group_name_H-M   'P 1'
_cell_length_a   19.79200000
_cell_length_b   20.60400000
_cell_length_c   21.47100000
_cell_angle_alpha   115.79900000
_cell_angle_beta   98.32200000
_cell_angle_gamma   100.88200000
_symmetry_Int_Tables_number   1
_chemical_formula_structural   Zn3H58C90(NO3)4
_chemical_formula_sum   'Zn6 H116 C180 N8 O24'
_cell_volume   7482.01805827
_cell_formula_units_Z   2
loop_
 _symmetry_equiv_pos_site_id
 _symmetry_equiv_pos_as_xyz
  1  'x, y, z'
loop_
 _atom_site_type_symbol
 _atom_site_label
 _atom_site_symmetry_multiplicity
 _atom_site_fract_x
 _atom_site_fract_y
 _atom_site_fract_z
 _atom_site_occupancy
 _atom_site_charge
  Zn  Zn1  1  0.909310  0.370720  0.409870  1.0  1.0103
  Zn  Zn2  1  0.737850  0.297480  0.412030  1.0  0.9761
  Zn  Zn3  1  0.577200  0.333410  0.452330  1.0  0.9443
  Zn  Zn4  1  0.090690  0.629280  0.590130  1.0  1.0104
  Zn  Zn5  1  0.262150  0.702520  0.587970  1.0  0.9752
  Zn  Zn6  1  0.422800  0.666590  0.547670  1.0  0.945
  H  H7  1  0.125900  0.311300  0.325600  1.0  0.1252
  H  H8  1  0.165000  0.460500  0.537700  1.0  0.1048
  H  H9  1  0.259500  0.431500  0.490200  1.0  0.1083
  H  H10  1  0.234700  0.324300  0.358600  1.0  0.1077
  H  H11  1  0.375000  0.451700  0.500800  1.0  0.1038
  H  H12  1  0.494800  0.442700  0.524600  1.0  0.083
  H  H13  1  0.320200  0.269300  0.324600  1.0  0.1101
  H  H14  1  0.000900  0.309800  0.320100  1.0  0.0951
  H  H15  1  0.438200  0.261200  0.340000  1.0  0.1062
  H  H16  1  0.966200  0.491100  0.641200  1.0  0.1191
  H  H17  1  0.862300  0.359300  0.161800  1.0  0.1196
  H  H18  1  0.898600  0.547200  0.353200  1.0  0.1213
  H  H19  1  0.870500  0.436600  0.106100  1.0  0.1156
  H  H20  1  0.724300  0.086700  0.237600  1.0  0.118
  H  H21  1  0.974600  0.562400  0.760700  1.0  0.0852
  H  H22  1  0.935400  0.676000  0.239300  1.0  0.1201
  H  H23  1  0.959100  0.626300  0.985200  1.0  0.1191
  H  H24  1  0.754300  0.466900  0.598600  1.0  0.1065
  H  H25  1  0.739700  0.967700  0.176500  1.0  0.0988
  H  H26  1  0.047400  0.454100  0.526300  1.0  0.1011
  H  H27  1  0.794000  0.751000  0.124500  1.0  0.0779
  H  H28  1  0.952000  0.559800  0.866900  1.0  0.1113
  H  H29  1  0.765400  0.541700  0.718100  1.0  0.1028
  H  H30  1  0.945500  0.834400  0.051400  1.0  0.1335
  H  H31  1  0.826100  0.495900  0.061400  1.0  0.0984
  H  H32  1  0.810100  0.718900  0.941200  1.0  0.1175
  H  H33  1  0.946300  0.053700  0.229600  1.0  0.1069
  H  H34  1  0.945000  0.744900  0.177600  1.0  0.1225
  H  H35  1  0.799800  0.651300  0.823200  1.0  0.099
  H  H36  1  0.895400  0.615100  0.293800  1.0  0.1109
  H  H37  1  0.778100  0.870000  0.184400  1.0  0.1163
  H  H38  1  0.814300  0.565300  0.005100  1.0  0.108
  H  H39  1  0.933000  0.171400  0.296800  1.0  0.0817
  H  H40  1  0.924000  0.948000  0.110300  1.0  0.0794
  H  H41  1  0.516900  0.092300  0.251700  1.0  0.1244
  H  H42  1  0.691900  0.019100  0.343800  1.0  0.1077
  H  H43  1  0.683200  0.138200  0.405300  1.0  0.1078
  H  H44  1  0.684600  0.728600  0.020100  1.0  0.0968
  H  H45  1  0.678300  0.781000  0.243100  1.0  0.1047
  H  H46  1  0.621500  0.532800  0.667800  1.0  0.106
  H  H47  1  0.677000  0.661900  0.900900  1.0  0.1177
  H  H48  1  0.731800  0.478800  0.226500  1.0  0.1101
  H  H49  1  0.555800  0.518600  0.282200  1.0  0.1086
  H  H50  1  0.517800  0.969000  0.198200  1.0  0.1177
  H  H51  1  0.585200  0.769500  0.059800  1.0  0.1023
  H  H52  1  0.560300  0.474100  0.897400  1.0  0.1171
  H  H53  1  0.565900  0.884700  0.122400  1.0  0.1223
  H  H54  1  0.664800  0.896900  0.304300  1.0  0.125
  H  H55  1  0.627600  0.599800  0.785800  1.0  0.1054
  H  H56  1  0.738700  0.413700  0.291500  1.0  0.0814
  H  H57  1  0.584600  0.343300  0.685100  1.0  0.123
  H  H58  1  0.568800  0.546600  0.020600  1.0  0.0964
  H  H59  1  0.549300  0.651400  0.174800  1.0  0.108
  H  H60  1  0.731200  0.545800  0.183000  1.0  0.1376
  H  H61  1  0.556100  0.451000  0.341400  1.0  0.1248
  H  H62  1  0.732900  0.624600  0.131100  1.0  0.1093
  H  H63  1  0.553400  0.583100  0.234000  1.0  0.1151
  H  H64  1  0.598000  0.415200  0.804500  1.0  0.1098
  H  H65  1  0.874100  0.688700  0.674400  1.0  0.125
  H  H66  1  0.835000  0.539500  0.462300  1.0  0.1052
  H  H67  1  0.740500  0.568500  0.509800  1.0  0.1086
  H  H68  1  0.765300  0.675700  0.641400  1.0  0.1067
  H  H69  1  0.625000  0.548300  0.499200  1.0  0.1039
  H  H70  1  0.505200  0.557300  0.475400  1.0  0.0835
  H  H71  1  0.679800  0.730700  0.675400  1.0  0.1096
  H  H72  1  0.999100  0.690200  0.679900  1.0  0.0959
  H  H73  1  0.561800  0.738800  0.660000  1.0  0.1065
  H  H74  1  0.033800  0.508900  0.358800  1.0  0.1186
  H  H75  1  0.137700  0.640700  0.838200  1.0  0.1196
  H  H76  1  0.101400  0.452800  0.646800  1.0  0.1212
  H  H77  1  0.129500  0.563400  0.893900  1.0  0.1157
  H  H78  1  0.275700  0.913300  0.762400  1.0  0.1158
  H  H79  1  0.025400  0.437600  0.239300  1.0  0.0856
  H  H80  1  0.064600  0.324000  0.760700  1.0  0.1194
  H  H81  1  0.040900  0.373700  0.014800  1.0  0.1199
  H  H82  1  0.245700  0.533100  0.401400  1.0  0.1063
  H  H83  1  0.260300  0.032300  0.823500  1.0  0.0986
  H  H84  1  0.952600  0.545900  0.473700  1.0  0.1008
  H  H85  1  0.206000  0.249000  0.875500  1.0  0.0779
  H  H86  1  0.048000  0.440200  0.133100  1.0  0.1122
  H  H87  1  0.234600  0.458300  0.281900  1.0  0.103
  H  H88  1  0.054500  0.165600  0.948600  1.0  0.1337
  H  H89  1  0.173900  0.504100  0.938600  1.0  0.0966
  H  H90  1  0.189900  0.281100  0.058800  1.0  0.1172
  H  H91  1  0.053700  0.946300  0.770400  1.0  0.1093
  H  H92  1  0.055000  0.255100  0.822400  1.0  0.1231
  H  H93  1  0.200200  0.348700  0.176800  1.0  0.1
  H  H94  1  0.104600  0.384900  0.706200  1.0  0.1112
  H  H95  1  0.221900  0.130000  0.815600  1.0  0.1162
  H  H96  1  0.185700  0.434700  0.994900  1.0  0.108
  H  H97  1  0.067000  0.828600  0.703200  1.0  0.0821
  H  H98  1  0.076000  0.052000  0.889700  1.0  0.0794
  H  H99  1  0.483100  0.907700  0.748300  1.0  0.1238
  H  H100  1  0.308100  0.980900  0.656200  1.0  0.1074
  H  H101  1  0.316800  0.861800  0.594700  1.0  0.1068
  H  H102  1  0.315400  0.271400  0.979900  1.0  0.0962
  H  H103  1  0.321700  0.219000  0.756900  1.0  0.1056
  H  H104  1  0.378500  0.467200  0.332200  1.0  0.1057
  H  H105  1  0.323000  0.338100  0.099100  1.0  0.118
  H  H106  1  0.268200  0.521200  0.773500  1.0  0.1097
  H  H107  1  0.444200  0.481400  0.717800  1.0  0.1083
  H  H108  1  0.482200  0.031000  0.801800  1.0  0.1183
  H  H109  1  0.414800  0.230500  0.940200  1.0  0.1024
  H  H110  1  0.439700  0.525900  0.102600  1.0  0.1164
  H  H111  1  0.434100  0.115300  0.877600  1.0  0.1236
  H  H112  1  0.335200  0.103100  0.695700  1.0  0.1244
  H  H113  1  0.372400  0.400200  0.214200  1.0  0.1058
  H  H114  1  0.261300  0.586300  0.708500  1.0  0.0814
  H  H115  1  0.415400  0.656700  0.314900  1.0  0.1226
  H  H116  1  0.431200  0.453400  0.979400  1.0  0.0963
  H  H117  1  0.450700  0.348600  0.825200  1.0  0.1097
  H  H118  1  0.268800  0.454200  0.817000  1.0  0.1391
  H  H119  1  0.443900  0.549000  0.658600  1.0  0.1249
  H  H120  1  0.267100  0.375400  0.868900  1.0  0.1092
  H  H121  1  0.446600  0.416900  0.766000  1.0  0.1143
  H  H122  1  0.402000  0.584800  0.195500  1.0  0.1102
  C  C123  1  0.110600  0.339900  0.365100  1.0  -0.1036
  C  C124  1  0.132700  0.430000  0.493200  1.0  -0.1648
  C  C125  1  0.231000  0.394500  0.445500  1.0  -0.0966
  C  C126  1  0.156600  0.389200  0.435000  1.0  0.0393
  C  C127  1  0.263000  0.357700  0.404600  1.0  -0.0917
  C  C128  1  0.853000  0.426200  0.529100  1.0  0.679
  C  C129  1  0.387100  0.409900  0.470000  1.0  -0.1519
  C  C130  1  0.340600  0.356800  0.415500  1.0  0.3348
  C  C131  1  0.460600  0.404600  0.484200  1.0  0.1403
  C  C132  1  0.354900  0.303800  0.366400  1.0  -0.1351
  C  C133  1  0.035300  0.340000  0.363300  1.0  0.1253
  C  C134  1  0.823600  0.213700  0.329700  1.0  0.7474
  C  C135  1  0.426000  0.298300  0.376800  1.0  0.125
  C  C136  1  0.926000  0.501000  0.656600  1.0  -0.0775
  C  C137  1  0.872600  0.560400  0.753900  1.0  0.0386
  C  C138  1  0.830600  0.141900  0.281100  1.0  -0.049
  C  C139  1  0.881800  0.445200  0.264300  1.0  -0.072
  C  C140  1  0.886400  0.400000  0.301200  1.0  0.6719
  C  C141  1  0.877400  0.601800  0.829800  1.0  0.0641
  C  C142  1  0.878300  0.532500  0.192900  1.0  0.019
  C  C143  1  0.870800  0.411000  0.188700  1.0  -0.1079
  C  C144  1  0.891200  0.523700  0.303700  1.0  -0.1255
  C  C145  1  0.872800  0.457600  0.154700  1.0  -0.1373
  C  C146  1  0.769700  0.080400  0.239200  1.0  -0.1257
  C  C147  1  0.859000  0.472900  0.607600  1.0  -0.1332
  C  C148  1  0.930400  0.543800  0.728200  1.0  -0.1218
  C  C149  1  0.913400  0.653100  0.190600  1.0  -0.1457
  C  C150  1  0.926600  0.630000  0.951800  1.0  -0.1989
  C  C151  1  0.881500  0.674100  0.974800  1.0  0.1147
  C  C152  1  0.798800  0.487000  0.631100  1.0  -0.0101
  C  C153  1  0.779400  0.009400  0.200000  1.0  -0.1329
  C  C154  1  0.062600  0.426300  0.486400  1.0  0.1403
  C  C155  1  0.844700  0.999300  0.195000  1.0  0.0684
  C  C156  1  0.851200  0.921100  0.151200  1.0  0.0613
  C  C157  1  0.877400  0.664400  0.083900  1.0  0.2286
  C  C158  1  0.821200  0.790600  0.120900  1.0  -0.1569
  C  C159  1  0.923900  0.592200  0.881900  1.0  -0.1105
  C  C160  1  0.805400  0.530900  0.702700  1.0  -0.1151
  C  C161  1  0.911100  0.839900  0.077100  1.0  -0.2716
  C  C162  1  0.846400  0.547700  0.086800  1.0  -0.1533
  C  C163  1  0.836900  0.685200  0.925400  1.0  -0.1755
  C  C164  1  0.868200  0.777500  0.081700  1.0  0.2319
  C  C165  1  0.900900  0.059000  0.231600  1.0  -0.1358
  C  C166  1  0.916500  0.695400  0.154300  1.0  -0.2074
  C  C167  1  0.833100  0.647300  0.855700  1.0  -0.1069
  C  C168  1  0.878300  0.578600  0.155000  1.0  0.0781
  C  C169  1  0.889200  0.563700  0.267500  1.0  -0.1119
  C  C170  1  0.811100  0.862400  0.157100  1.0  -0.1723
  C  C171  1  0.842000  0.588800  0.052000  1.0  -0.1635
  C  C172  1  0.892600  0.130400  0.273400  1.0  -0.038
  C  C173  1  0.897400  0.907600  0.113300  1.0  -0.1318
  C  C174  1  0.588200  0.201600  0.376400  1.0  0.585
  C  C175  1  0.550900  0.076800  0.272000  1.0  -0.1181
  C  C176  1  0.654200  0.381200  0.362300  1.0  0.724
  C  C177  1  0.651400  0.424400  0.324000  1.0  -0.1119
  C  C178  1  0.655900  0.033500  0.324700  1.0  -0.1427
  C  C179  1  0.646800  0.512000  0.252800  1.0  0.0307
  C  C180  1  0.598300  0.126100  0.336800  1.0  -0.1242
  C  C181  1  0.627500  0.646400  0.031700  1.0  0.1539
  C  C182  1  0.645800  0.556500  0.215800  1.0  0.0304
  C  C183  1  0.631200  0.758400  0.143200  1.0  0.2178
  C  C184  1  0.650300  0.104500  0.361900  1.0  -0.0671
  C  C185  1  0.610400  0.984200  0.261300  1.0  0.0556
  C  C186  1  0.603700  0.430400  0.661900  1.0  -0.1273
  C  C187  1  0.616900  0.902900  0.217400  1.0  0.0044
  C  C188  1  0.659100  0.678000  0.995400  1.0  -0.1386
  C  C189  1  0.655900  0.801300  0.217800  1.0  -0.1072
  C  C190  1  0.615900  0.507900  0.694800  1.0  -0.1161
  C  C191  1  0.655000  0.638300  0.924100  1.0  -0.1624
  C  C192  1  0.698300  0.476000  0.252100  1.0  -0.1573
  C  C193  1  0.593600  0.498300  0.285100  1.0  -0.1072
  C  C194  1  0.554200  0.004800  0.237900  1.0  -0.1081
  C  C195  1  0.616700  0.560500  0.885300  1.0  0.005
  C  C196  1  0.613200  0.516300  0.809100  1.0  0.0748
  C  C197  1  0.600100  0.794200  0.109500  1.0  -0.1463
  C  C198  1  0.584500  0.525000  0.921700  1.0  -0.1416
  C  C199  1  0.590400  0.864600  0.146400  1.0  -0.1746
  C  C200  1  0.638900  0.643500  0.145200  1.0  0.2041
  C  C201  1  0.648700  0.870800  0.254700  1.0  -0.1733
  C  C202  1  0.619900  0.548100  0.766000  1.0  -0.1113
  C  C203  1  0.701200  0.434600  0.290000  1.0  -0.0578
  C  C204  1  0.594800  0.395200  0.704900  1.0  -0.1514
  C  C205  1  0.589800  0.568700  0.995800  1.0  -0.1279
  C  C206  1  0.597900  0.385500  0.587100  1.0  0.6421
  C  C207  1  0.587200  0.631200  0.177000  1.0  -0.1909
  C  C208  1  0.694800  0.568600  0.183600  1.0  -0.11
  C  C209  1  0.592800  0.457700  0.320200  1.0  -0.096
  C  C210  1  0.695100  0.614500  0.149800  1.0  -0.1938
  C  C211  1  0.589400  0.589800  0.212100  1.0  -0.1299
  C  C212  1  0.601500  0.438800  0.776300  1.0  -0.1172
  C  C213  1  0.889400  0.660100  0.634900  1.0  -0.1077
  C  C214  1  0.867300  0.570000  0.506800  1.0  -0.1637
  C  C215  1  0.769000  0.605500  0.554500  1.0  -0.0993
  C  C216  1  0.843400  0.610800  0.565000  1.0  0.0383
  C  C217  1  0.737000  0.642300  0.595400  1.0  -0.0887
  C  C218  1  0.147000  0.573800  0.470900  1.0  0.6763
  C  C219  1  0.612900  0.590100  0.530000  1.0  -0.1527
  C  C220  1  0.659400  0.643200  0.584500  1.0  0.3323
  C  C221  1  0.539400  0.595400  0.515800  1.0  0.1396
  C  C222  1  0.645100  0.696200  0.633600  1.0  -0.1328
  C  C223  1  0.964700  0.660000  0.636700  1.0  0.1242
  C  C224  1  0.176400  0.786300  0.670300  1.0  0.7476
  C  C225  1  0.574000  0.701700  0.623200  1.0  0.1246
  C  C226  1  0.074000  0.499000  0.343400  1.0  -0.0764
  C  C227  1  0.127400  0.439600  0.246100  1.0  0.0382
  C  C228  1  0.169400  0.858100  0.718900  1.0  -0.048
  C  C229  1  0.118200  0.554800  0.735700  1.0  -0.0707
  C  C230  1  0.113600  0.600000  0.698800  1.0  0.6716
  C  C231  1  0.122600  0.398200  0.170200  1.0  0.0641
  C  C232  1  0.121700  0.467500  0.807100  1.0  0.0191
  C  C233  1  0.129200  0.589000  0.811300  1.0  -0.1086
  C  C234  1  0.108800  0.476300  0.696300  1.0  -0.1245
  C  C235  1  0.127200  0.542400  0.845300  1.0  -0.1394
  C  C236  1  0.230300  0.919600  0.760800  1.0  -0.127
  C  C237  1  0.141000  0.527100  0.392400  1.0  -0.1361
  C  C238  1  0.069600  0.456200  0.271800  1.0  -0.1216
  C  C239  1  0.086600  0.346900  0.809400  1.0  -0.1461
  C  C240  1  0.073400  0.370000  0.048200  1.0  -0.201
  C  C241  1  0.118500  0.325900  0.025200  1.0  0.1153
  C  C242  1  0.201200  0.513000  0.368900  1.0  -0.0082
  C  C243  1  0.220600  0.990600  0.800000  1.0  -0.1339
  C  C244  1  0.937400  0.573700  0.513600  1.0  0.1408
  C  C245  1  0.155300  0.000700  0.805000  1.0  0.0681
  C  C246  1  0.148800  0.078900  0.848800  1.0  0.0624
  C  C247  1  0.122600  0.335600  0.916100  1.0  0.228
  C  C248  1  0.178800  0.209400  0.879100  1.0  -0.1562
  C  C249  1  0.076100  0.407800  0.118100  1.0  -0.1122
  C  C250  1  0.194600  0.469100  0.297300  1.0  -0.1134
  C  C251  1  0.088900  0.160100  0.922900  1.0  -0.2739
  C  C252  1  0.153600  0.452300  0.913200  1.0  -0.1543
  C  C253  1  0.163100  0.314800  0.074600  1.0  -0.1752
  C  C254  1  0.131800  0.222500  0.918300  1.0  0.2311
  C  C255  1  0.099100  0.941000  0.768400  1.0  -0.1407
  C  C256  1  0.083500  0.304600  0.845700  1.0  -0.209
  C  C257  1  0.166900  0.352700  0.144300  1.0  -0.1076
  C  C258  1  0.121700  0.421400  0.845000  1.0  0.0786
  C  C259  1  0.110800  0.436300  0.732500  1.0  -0.1113
  C  C260  1  0.188900  0.137600  0.842900  1.0  -0.1732
  C  C261  1  0.158000  0.411200  0.948000  1.0  -0.1639
  C  C262  1  0.107400  0.869600  0.726600  1.0  -0.0373
  C  C263  1  0.102600  0.092400  0.886700  1.0  -0.1318
  C  C264  1  0.411800  0.798400  0.623600  1.0  0.5842
  C  C265  1  0.449100  0.923200  0.728000  1.0  -0.117
  C  C266  1  0.345800  0.618800  0.637700  1.0  0.7241
  C  C267  1  0.348600  0.575600  0.676000  1.0  -0.1131
  C  C268  1  0.344100  0.966500  0.675300  1.0  -0.143
  C  C269  1  0.353200  0.488000  0.747200  1.0  0.031
  C  C270  1  0.401700  0.873900  0.663200  1.0  -0.1214
  C  C271  1  0.372500  0.353600  0.968300  1.0  0.1553
  C  C272  1  0.354200  0.443500  0.784200  1.0  0.0296
  C  C273  1  0.368800  0.241600  0.856800  1.0  0.2173
  C  C274  1  0.349700  0.895500  0.638100  1.0  -0.0653
  C  C275  1  0.389600  0.015800  0.738700  1.0  0.054
  C  C276  1  0.396300  0.569600  0.338100  1.0  -0.1255
  C  C277  1  0.383100  0.097100  0.782600  1.0  0.0055
  C  C278  1  0.340900  0.322000  0.004600  1.0  -0.1355
  C  C279  1  0.344100  0.198700  0.782200  1.0  -0.103
  C  C280  1  0.384100  0.492100  0.305200  1.0  -0.116
  C  C281  1  0.345000  0.361700  0.075900  1.0  -0.1618
  C  C282  1  0.301700  0.524000  0.747900  1.0  -0.1557
  C  C283  1  0.406400  0.501700  0.714900  1.0  -0.107
  C  C284  1  0.445800  0.995200  0.762100  1.0  -0.1075
  C  C285  1  0.383300  0.439500  0.114700  1.0  0.0044
  C  C286  1  0.386800  0.483700  0.190900  1.0  0.0742
  C  C287  1  0.399900  0.205800  0.890500  1.0  -0.1433
  C  C288  1  0.415500  0.475000  0.078300  1.0  -0.1407
  C  C289  1  0.409600  0.135400  0.853600  1.0  -0.1716
  C  C290  1  0.361100  0.356500  0.854800  1.0  0.2036
  C  C291  1  0.351300  0.129200  0.745300  1.0  -0.1736
  C  C292  1  0.380100  0.451900  0.234000  1.0  -0.1105
  C  C293  1  0.298800  0.565400  0.710000  1.0  -0.0561
  C  C294  1  0.405200  0.604800  0.295100  1.0  -0.1495
  C  C295  1  0.410200  0.431300  0.004200  1.0  -0.1268
  C  C296  1  0.402100  0.614500  0.412900  1.0  0.6436
  C  C297  1  0.412800  0.368800  0.823000  1.0  -0.1915
  C  C298  1  0.305200  0.431400  0.816400  1.0  -0.1101
  C  C299  1  0.407200  0.542300  0.679800  1.0  -0.0948
  C  C300  1  0.304900  0.385500  0.850200  1.0  -0.191
  C  C301  1  0.410600  0.410200  0.787900  1.0  -0.1289
  C  C302  1  0.398500  0.561200  0.223700  1.0  -0.1161
  N  N303  1  0.477500  0.346900  0.440300  1.0  -0.3053
  N  N304  1  0.014400  0.382500  0.422200  1.0  -0.349
  N  N305  1  0.883600  0.709000  0.050800  1.0  -0.1665
  N  N306  1  0.633900  0.684900  0.107700  1.0  -0.1573
  N  N307  1  0.522500  0.653100  0.559700  1.0  -0.3059
  N  N308  1  0.985600  0.617500  0.577800  1.0  -0.3478
  N  N309  1  0.116400  0.291000  0.949200  1.0  -0.1676
  N  N310  1  0.366100  0.315100  0.892300  1.0  -0.1568
  O  O311  1  0.762200  0.222000  0.330300  1.0  -0.5896
  O  O312  1  0.880900  0.264500  0.370100  1.0  -0.6204
  O  O313  1  0.908900  0.416600  0.511700  1.0  -0.5876
  O  O314  1  0.885100  0.431300  0.366200  1.0  -0.5839
  O  O315  1  0.789500  0.401200  0.486800  1.0  -0.6192
  O  O316  1  0.893300  0.335300  0.269500  1.0  -0.5709
  O  O317  1  0.646500  0.256200  0.426700  1.0  -0.6488
  O  O318  1  0.694600  0.339100  0.349600  1.0  -0.6071
  O  O319  1  0.617600  0.419000  0.552500  1.0  -0.5916
  O  O320  1  0.533000  0.215800  0.367900  1.0  -0.5676
  O  O321  1  0.569800  0.318400  0.554300  1.0  -0.5764
  O  O322  1  0.616200  0.388800  0.404200  1.0  -0.6034
  O  O323  1  0.237800  0.778000  0.669700  1.0  -0.59
  O  O324  1  0.119100  0.735500  0.629900  1.0  -0.6197
  O  O325  1  0.091100  0.583400  0.488300  1.0  -0.5886
  O  O326  1  0.114900  0.568700  0.633800  1.0  -0.5846
  O  O327  1  0.210500  0.598800  0.513200  1.0  -0.6188
  O  O328  1  0.106700  0.664700  0.730500  1.0  -0.5722
  O  O329  1  0.353500  0.743800  0.573300  1.0  -0.6501
  O  O330  1  0.305400  0.660900  0.650400  1.0  -0.6054
  O  O331  1  0.382400  0.581000  0.447500  1.0  -0.5927
  O  O332  1  0.467000  0.784200  0.632100  1.0  -0.5676
  O  O333  1  0.430200  0.681600  0.445700  1.0  -0.5765
  O  O334  1  0.383800  0.611200  0.595800  1.0  -0.6015
