# generated using pymatgen
data_Cu3H58C90(NO3)4
_symmetry_space_group_name_H-M   'P 1'
_cell_length_a   19.91300000
_cell_length_b   20.88400000
_cell_length_c   21.48600000
_cell_angle_alpha   116.07600000
_cell_angle_beta   98.55000000
_cell_angle_gamma   101.66100000
_symmetry_Int_Tables_number   1
_chemical_formula_structural   Cu3H58C90(NO3)4
_chemical_formula_sum   'Cu6 H116 C180 N8 O24'
_cell_volume   7568.15188828
_cell_formula_units_Z   2
loop_
 _symmetry_equiv_pos_site_id
 _symmetry_equiv_pos_as_xyz
  1  'x, y, z'
loop_
 _atom_site_type_symbol
 _atom_site_label
 _atom_site_symmetry_multiplicity
 _atom_site_fract_x
 _atom_site_fract_y
 _atom_site_fract_z
 _atom_site_occupancy
 _atom_site_charge
  Cu  Cu1  1  0.589520  0.629210  0.092870  1.0  0.8929
  Cu  Cu2  1  0.763470  0.703760  0.090750  1.0  0.7734
  Cu  Cu3  1  0.923890  0.667330  0.049950  1.0  0.7245
  Cu  Cu4  1  0.410480  0.370790  0.907130  1.0  0.8914
  Cu  Cu5  1  0.236530  0.296240  0.909250  1.0  0.772
  Cu  Cu6  1  0.076110  0.332670  0.950050  1.0  0.7245
  H  H7  1  0.370800  0.690100  0.165500  1.0  0.1525
  H  H8  1  0.335000  0.540100  0.962100  1.0  0.1206
  H  H9  1  0.598600  0.450800  0.147300  1.0  0.1247
  H  H10  1  0.496100  0.687600  0.185400  1.0  0.1105
  H  H11  1  0.524600  0.440400  0.739400  1.0  0.1281
  H  H12  1  0.536200  0.507600  0.859100  1.0  0.0875
  H  H13  1  0.237500  0.570600  0.011100  1.0  0.1111
  H  H14  1  0.262500  0.675100  0.147000  1.0  0.1715
  H  H15  1  0.007700  0.560800  0.976300  1.0  0.1103
  H  H16  1  0.735800  0.464400  0.788600  1.0  0.0996
  H  H17  1  0.450300  0.546900  0.976600  1.0  0.0898
  H  H18  1  0.599100  0.383900  0.205000  1.0  0.0999
  H  H19  1  0.113700  0.540300  0.008200  1.0  0.1103
  H  H20  1  0.195100  0.733700  0.178000  1.0  0.191
  H  H21  1  0.744900  0.532500  0.906500  1.0  0.1135
  H  H22  1  0.064700  0.746700  0.164600  1.0  0.1128
  H  H23  1  0.699200  0.349400  0.680300  1.0  0.1267
  H  H24  1  0.634100  0.564800  0.396500  1.0  0.1204
  H  H25  1  0.551100  0.440100  0.634200  1.0  0.1184
  H  H26  1  0.771400  0.036700  0.332000  1.0  0.1317
  H  H27  1  0.638900  0.638600  0.343000  1.0  0.1205
  H  H28  1  0.568600  0.827800  0.205300  1.0  0.0892
  H  H29  1  0.777000  0.914000  0.263600  1.0  0.0977
  H  H30  1  0.554400  0.945600  0.271600  1.0  0.1241
  H  H31  1  0.683700  0.504500  0.440500  1.0  0.1096
  H  H32  1  0.695600  0.288000  0.560800  1.0  0.1121
  H  H33  1  0.689600  0.437900  0.497800  1.0  0.1099
  H  H34  1  0.541300  0.370900  0.513100  1.0  0.1277
  H  H35  1  0.579200  0.056400  0.394700  1.0  0.0998
  H  H36  1  0.562000  0.251100  0.313600  1.0  0.138
  H  H37  1  0.561500  0.322100  0.263400  1.0  0.1034
  H  H38  1  0.722600  0.129200  0.314700  1.0  0.0966
  H  H39  1  0.714000  0.250500  0.377600  1.0  0.1083
  H  H40  1  0.556100  0.169800  0.447600  1.0  0.1396
  H  H41  1  0.837500  0.100100  0.193900  1.0  0.1033
  H  H42  1  0.929700  0.113600  0.373900  1.0  0.1135
  H  H43  1  0.987400  0.910800  0.244200  1.0  0.1203
  H  H44  1  0.806300  0.976200  0.153900  1.0  0.1084
  H  H45  1  0.816600  0.859500  0.093900  1.0  0.1245
  H  H46  1  0.983700  0.035500  0.298800  1.0  0.113
  H  H47  1  0.878700  0.466600  0.830900  1.0  0.1009
  H  H48  1  0.928900  0.454700  0.481000  1.0  0.1204
  H  H49  1  0.822600  0.268900  0.480200  1.0  0.1139
  H  H50  1  0.761000  0.586700  0.208700  1.0  0.0954
  H  H51  1  0.871900  0.399600  0.715400  1.0  0.1083
  H  H52  1  0.815600  0.215000  0.255200  1.0  0.1221
  H  H53  1  0.912400  0.653900  0.813600  1.0  0.1231
  H  H54  1  0.822800  0.339400  0.596400  1.0  0.1131
  H  H55  1  0.938200  0.411300  0.255100  1.0  0.1167
  H  H56  1  0.765900  0.518300  0.271100  1.0  0.1257
  H  H57  1  0.765800  0.376000  0.367300  1.0  0.1238
  H  H58  1  0.938200  0.520900  0.602300  1.0  0.1103
  H  H59  1  0.926700  0.237800  0.439500  1.0  0.1242
  H  H60  1  0.927300  0.536600  0.143800  1.0  0.0954
  H  H61  1  0.949000  0.487700  0.219900  1.0  0.1293
  H  H62  1  0.950600  0.346200  0.323200  1.0  0.1437
  H  H63  1  0.774000  0.455700  0.321500  1.0  0.0924
  H  H64  1  0.902900  0.582700  0.696600  1.0  0.1095
  H  H65  1  0.629200  0.309900  0.834500  1.0  0.1511
  H  H66  1  0.665000  0.459900  0.037900  1.0  0.1198
  H  H67  1  0.401400  0.549200  0.852700  1.0  0.124
  H  H68  1  0.503900  0.312400  0.814600  1.0  0.1097
  H  H69  1  0.475400  0.559600  0.260600  1.0  0.1288
  H  H70  1  0.463800  0.492400  0.140900  1.0  0.0879
  H  H71  1  0.762500  0.429400  0.988900  1.0  0.1112
  H  H72  1  0.737500  0.324900  0.853000  1.0  0.1718
  H  H73  1  0.992300  0.439200  0.023700  1.0  0.1093
  H  H74  1  0.264200  0.535600  0.211400  1.0  0.0998
  H  H75  1  0.549700  0.453100  0.023400  1.0  0.0899
  H  H76  1  0.400900  0.616100  0.795000  1.0  0.0994
  H  H77  1  0.886300  0.459700  0.991800  1.0  0.1103
  H  H78  1  0.804900  0.266300  0.822000  1.0  0.1893
  H  H79  1  0.255100  0.467500  0.093500  1.0  0.1135
  H  H80  1  0.935300  0.253300  0.835400  1.0  0.1133
  H  H81  1  0.300800  0.650600  0.319700  1.0  0.1264
  H  H82  1  0.365900  0.435200  0.603500  1.0  0.12
  H  H83  1  0.448900  0.559900  0.365800  1.0  0.1172
  H  H84  1  0.228600  0.963300  0.668000  1.0  0.1316
  H  H85  1  0.361100  0.361400  0.657000  1.0  0.1206
  H  H86  1  0.431400  0.172200  0.794700  1.0  0.0889
  H  H87  1  0.223000  0.086000  0.736400  1.0  0.0973
  H  H88  1  0.445600  0.054400  0.728400  1.0  0.1239
  H  H89  1  0.316300  0.495500  0.559500  1.0  0.1098
  H  H90  1  0.304400  0.712000  0.439200  1.0  0.1121
  H  H91  1  0.310400  0.562100  0.502200  1.0  0.1099
  H  H92  1  0.458700  0.629100  0.486900  1.0  0.1261
  H  H93  1  0.420800  0.943600  0.605300  1.0  0.1004
  H  H94  1  0.438000  0.748900  0.686400  1.0  0.1372
  H  H95  1  0.438500  0.677900  0.736600  1.0  0.1049
  H  H96  1  0.277400  0.870800  0.685300  1.0  0.0965
  H  H97  1  0.286000  0.749500  0.622400  1.0  0.1085
  H  H98  1  0.443900  0.830200  0.552400  1.0  0.1393
  H  H99  1  0.162500  0.899900  0.806100  1.0  0.104
  H  H100  1  0.070300  0.886400  0.626100  1.0  0.1133
  H  H101  1  0.012600  0.089200  0.755800  1.0  0.1203
  H  H102  1  0.193700  0.023800  0.846100  1.0  0.1083
  H  H103  1  0.183400  0.140500  0.906100  1.0  0.1256
  H  H104  1  0.016300  0.964500  0.701200  1.0  0.1123
  H  H105  1  0.121300  0.533400  0.169100  1.0  0.1021
  H  H106  1  0.071100  0.545300  0.519000  1.0  0.1211
  H  H107  1  0.177400  0.731100  0.519800  1.0  0.1139
  H  H108  1  0.239000  0.413300  0.791300  1.0  0.0953
  H  H109  1  0.128100  0.600400  0.284600  1.0  0.1082
  H  H110  1  0.184400  0.785000  0.744800  1.0  0.1217
  H  H111  1  0.087600  0.346100  0.186400  1.0  0.124
  H  H112  1  0.177200  0.660600  0.403600  1.0  0.1129
  H  H113  1  0.061800  0.588700  0.744900  1.0  0.1167
  H  H114  1  0.234100  0.481700  0.728900  1.0  0.1262
  H  H115  1  0.234200  0.624000  0.632700  1.0  0.124
  H  H116  1  0.061800  0.479100  0.397700  1.0  0.11
  H  H117  1  0.073300  0.762200  0.560500  1.0  0.1238
  H  H118  1  0.072700  0.463400  0.856200  1.0  0.0954
  H  H119  1  0.051000  0.512300  0.780100  1.0  0.13
  H  H120  1  0.049400  0.653800  0.676800  1.0  0.1426
  H  H121  1  0.226000  0.544300  0.678500  1.0  0.0912
  H  H122  1  0.097100  0.417300  0.303400  1.0  0.1081
  C  C123  1  0.341500  0.611100  0.067000  1.0  0.1043
  C  C124  1  0.385900  0.657700  0.128300  1.0  -0.1082
  C  C125  1  0.366700  0.570300  0.007600  1.0  -0.1923
  C  C126  1  0.647500  0.575800  0.974400  1.0  0.67
  C  C127  1  0.607400  0.474600  0.197100  1.0  -0.0792
  C  C128  1  0.464400  0.659600  0.139800  1.0  0.1403
  C  C129  1  0.629700  0.441700  0.748700  1.0  0.0523
  C  C130  1  0.640700  0.530600  0.896400  1.0  -0.1093
  C  C131  1  0.620200  0.555600  0.238400  1.0  -0.0923
  C  C132  1  0.671200  0.860800  0.222500  1.0  -0.1102
  C  C133  1  0.623900  0.400300  0.669900  1.0  0.0289
  C  C134  1  0.568700  0.457900  0.772300  1.0  -0.1609
  C  C135  1  0.576700  0.499500  0.844200  1.0  -0.0243
  C  C136  1  0.679100  0.787100  0.173700  1.0  0.7065
  C  C137  1  0.657800  0.002000  0.306100  1.0  0.0147
  C  C138  1  0.266900  0.606700  0.056400  1.0  -0.0613
  C  C139  1  0.236300  0.644200  0.099200  1.0  -0.0626
  C  C140  1  0.042600  0.596400  0.018300  1.0  0.1561
  C  C141  1  0.616100  0.599600  0.199400  1.0  0.6734
  C  C142  1  0.695000  0.472900  0.802600  1.0  -0.1
  C  C143  1  0.160800  0.643100  0.079300  1.0  0.0988
  C  C144  1  0.435900  0.575100  0.016600  1.0  0.1661
  C  C145  1  0.608600  0.435300  0.232500  1.0  -0.0978
  C  C146  1  0.107700  0.587200  0.032500  1.0  -0.1293
  C  C147  1  0.622900  0.465000  0.307200  1.0  0.0708
  C  C148  1  0.157000  0.701600  0.137600  1.0  -0.0668
  C  C149  1  0.701000  0.514400  0.873000  1.0  -0.058
  C  C150  1  0.076500  0.709200  0.128500  1.0  0.1715
  C  C151  1  0.623000  0.334500  0.414500  1.0  0.1364
  C  C152  1  0.636000  0.223100  0.417900  1.0  0.1193
  C  C153  1  0.668500  0.354600  0.646900  1.0  -0.1254
  C  C154  1  0.630000  0.543500  0.347400  1.0  -0.1588
  C  C155  1  0.578600  0.408100  0.619200  1.0  -0.1046
  C  C156  1  0.730700  0.995800  0.306300  1.0  -0.1572
  C  C157  1  0.631100  0.587500  0.315000  1.0  -0.0789
  C  C158  1  0.650100  0.079100  0.345900  1.0  0.0477
  C  C159  1  0.608600  0.869700  0.228700  1.0  -0.0513
  C  C160  1  0.732900  0.922200  0.264000  1.0  -0.0242
  C  C161  1  0.599600  0.941000  0.269700  1.0  -0.1018
  C  C162  1  0.624100  0.420800  0.342800  1.0  0.0802
  C  C163  1  0.660200  0.453400  0.415500  1.0  -0.1895
  C  C164  1  0.666300  0.318200  0.575900  1.0  -0.1211
  C  C165  1  0.662500  0.414300  0.450200  1.0  -0.1511
  C  C166  1  0.574500  0.368600  0.546800  1.0  -0.1984
  C  C167  1  0.619000  0.326200  0.524600  1.0  0.1365
  C  C168  1  0.604000  0.095000  0.388500  1.0  -0.1437
  C  C169  1  0.586400  0.302000  0.340400  1.0  -0.2489
  C  C170  1  0.587800  0.344800  0.311200  1.0  -0.0939
  C  C171  1  0.690300  0.137400  0.342300  1.0  -0.1118
  C  C172  1  0.684600  0.211200  0.379600  1.0  -0.1804
  C  C173  1  0.591000  0.163200  0.423100  1.0  -0.2132
  C  C174  1  0.903500  0.876600  0.165000  1.0  -0.0498
  C  C175  1  0.889700  0.016700  0.236000  1.0  0.0824
  C  C176  1  0.883200  0.097200  0.278300  1.0  0.0352
  C  C177  1  0.852600  0.126500  0.243900  1.0  -0.1198
  C  C178  1  0.909100  0.135600  0.349900  1.0  -0.1268
  C  C179  1  0.951500  0.924400  0.224800  1.0  -0.1097
  C  C180  1  0.843700  0.964400  0.173500  1.0  -0.1355
  C  C181  1  0.844200  0.618600  0.135700  1.0  0.6819
  C  C182  1  0.849600  0.894700  0.137400  1.0  -0.0935
  C  C183  1  0.946900  0.998500  0.259300  1.0  -0.0577
  C  C184  1  0.870000  0.240600  0.353900  1.0  0.1853
  C  C185  1  0.851400  0.485900  0.242600  1.0  0.0052
  C  C186  1  0.848500  0.576500  0.175100  1.0  -0.0757
  C  C187  1  0.884300  0.491400  0.804200  1.0  -0.0806
  C  C188  1  0.909500  0.430600  0.504700  1.0  -0.1466
  C  C189  1  0.844700  0.320200  0.504100  1.0  -0.1729
  C  C190  1  0.797700  0.565400  0.209300  1.0  -0.0054
  C  C191  1  0.880200  0.450900  0.734700  1.0  -0.1536
  C  C192  1  0.886100  0.435900  0.612600  1.0  0.0282
  C  C193  1  0.896800  0.570000  0.840000  1.0  -0.0416
  C  C194  1  0.853300  0.440400  0.281600  1.0  -0.0421
  C  C195  1  0.901000  0.617300  0.913000  1.0  0.5666
  C  C196  1  0.874500  0.353900  0.467800  1.0  0.1171
  C  C197  1  0.841700  0.197700  0.280600  1.0  -0.1894
  C  C198  1  0.904000  0.602700  0.794800  1.0  -0.1457
  C  C199  1  0.858700  0.355600  0.350800  1.0  0.181
  C  C200  1  0.847500  0.361600  0.574000  1.0  -0.1431
  C  C201  1  0.905700  0.407100  0.281100  1.0  -0.1104
  C  C202  1  0.799200  0.522100  0.245800  1.0  -0.1209
  C  C203  1  0.803500  0.385500  0.348600  1.0  -0.1789
  C  C204  1  0.914600  0.469900  0.577100  1.0  -0.1078
  C  C205  1  0.905600  0.210100  0.390100  1.0  -0.1839
  C  C206  1  0.887800  0.481700  0.691100  1.0  0.047
  C  C207  1  0.898000  0.537900  0.173900  1.0  -0.085
  C  C208  1  0.907900  0.501300  0.213200  1.0  -0.1692
  C  C209  1  0.912500  0.365100  0.319900  1.0  -0.1696
  C  C210  1  0.911900  0.798600  0.123800  1.0  0.5939
  C  C211  1  0.807400  0.429800  0.317300  1.0  -0.063
  C  C212  1  0.898900  0.559500  0.724800  1.0  -0.0796
  C  C213  1  0.658500  0.388900  0.933000  1.0  0.1038
  C  C214  1  0.614100  0.342300  0.871700  1.0  -0.1069
  C  C215  1  0.633300  0.429700  0.992400  1.0  -0.1918
  C  C216  1  0.352500  0.424200  0.025600  1.0  0.6698
  C  C217  1  0.392600  0.525400  0.802900  1.0  -0.0819
  C  C218  1  0.535600  0.340400  0.860200  1.0  0.1408
  C  C219  1  0.370300  0.558300  0.251300  1.0  0.0522
  C  C220  1  0.359300  0.469400  0.103600  1.0  -0.1113
  C  C221  1  0.379800  0.444400  0.761600  1.0  -0.093
  C  C222  1  0.328800  0.139200  0.777500  1.0  -0.1112
  C  C223  1  0.376100  0.599700  0.330100  1.0  0.0284
  C  C224  1  0.431300  0.542100  0.227700  1.0  -0.1629
  C  C225  1  0.423300  0.500500  0.155800  1.0  -0.0269
  C  C226  1  0.320900  0.212900  0.826300  1.0  0.7072
  C  C227  1  0.342200  0.998000  0.693900  1.0  0.0146
  C  C228  1  0.733100  0.393300  0.943600  1.0  -0.0591
  C  C229  1  0.763700  0.355800  0.900800  1.0  -0.0633
  C  C230  1  0.957400  0.403600  0.981700  1.0  0.1563
  C  C231  1  0.383900  0.400400  0.800600  1.0  0.6725
  C  C232  1  0.305000  0.527100  0.197400  1.0  -0.0992
  C  C233  1  0.839200  0.356900  0.920700  1.0  0.0991
  C  C234  1  0.564100  0.424900  0.983400  1.0  0.1661
  C  C235  1  0.391400  0.564700  0.767500  1.0  -0.0956
  C  C236  1  0.892300  0.412800  0.967500  1.0  -0.1319
  C  C237  1  0.377100  0.535000  0.692800  1.0  0.0713
  C  C238  1  0.843000  0.298400  0.862400  1.0  -0.0693
  C  C239  1  0.299000  0.485600  0.127000  1.0  -0.0596
  C  C240  1  0.923500  0.290800  0.871500  1.0  0.1726
  C  C241  1  0.377000  0.665500  0.585500  1.0  0.1379
  C  C242  1  0.364000  0.776900  0.582100  1.0  0.121
  C  C243  1  0.331500  0.645400  0.353100  1.0  -0.1262
  C  C244  1  0.370000  0.456500  0.652600  1.0  -0.1592
  C  C245  1  0.421400  0.591900  0.380800  1.0  -0.1033
  C  C246  1  0.269300  0.004200  0.693700  1.0  -0.1569
  C  C247  1  0.368900  0.412500  0.685000  1.0  -0.0779
  C  C248  1  0.349900  0.920900  0.654100  1.0  0.0489
  C  C249  1  0.391400  0.130300  0.771300  1.0  -0.0505
  C  C250  1  0.267100  0.077800  0.736000  1.0  -0.0239
  C  C251  1  0.400400  0.059000  0.730300  1.0  -0.1006
  C  C252  1  0.375900  0.579200  0.657200  1.0  0.0786
  C  C253  1  0.339800  0.546600  0.584500  1.0  -0.1875
  C  C254  1  0.333700  0.681800  0.424100  1.0  -0.1203
  C  C255  1  0.337500  0.585700  0.549800  1.0  -0.1508
  C  C256  1  0.425500  0.631400  0.453200  1.0  -0.1957
  C  C257  1  0.381000  0.673800  0.475400  1.0  0.1371
  C  C258  1  0.396000  0.905000  0.611500  1.0  -0.1464
  C  C259  1  0.413600  0.698000  0.659600  1.0  -0.2483
  C  C260  1  0.412200  0.655200  0.688800  1.0  -0.0956
  C  C261  1  0.309700  0.862600  0.657700  1.0  -0.1097
  C  C262  1  0.315400  0.788800  0.620400  1.0  -0.1808
  C  C263  1  0.409000  0.836800  0.576900  1.0  -0.2079
  C  C264  1  0.096500  0.123400  0.835000  1.0  -0.0488
  C  C265  1  0.110300  0.983300  0.764000  1.0  0.0827
  C  C266  1  0.116800  0.902800  0.721700  1.0  0.0327
  C  C267  1  0.147400  0.873500  0.756100  1.0  -0.1223
  C  C268  1  0.090900  0.864400  0.650100  1.0  -0.1287
  C  C269  1  0.048500  0.075600  0.775200  1.0  -0.1128
  C  C270  1  0.156300  0.035600  0.826500  1.0  -0.1335
  C  C271  1  0.155800  0.381400  0.864300  1.0  0.6813
  C  C272  1  0.150400  0.105300  0.862600  1.0  -0.0943
  C  C273  1  0.053100  0.001500  0.740700  1.0  -0.0604
  C  C274  1  0.130000  0.759400  0.646100  1.0  0.1858
  C  C275  1  0.148600  0.514100  0.757400  1.0  0.0048
  C  C276  1  0.151500  0.423500  0.824900  1.0  -0.078
  C  C277  1  0.115700  0.508600  0.195800  1.0  -0.0804
  C  C278  1  0.090500  0.569400  0.495300  1.0  -0.1459
  C  C279  1  0.155300  0.679800  0.495900  1.0  -0.1742
  C  C280  1  0.202300  0.434600  0.790700  1.0  -0.0067
  C  C281  1  0.119800  0.549100  0.265300  1.0  -0.1544
  C  C282  1  0.113900  0.564100  0.387400  1.0  0.0286
  C  C283  1  0.103200  0.430000  0.160000  1.0  -0.0454
  C  C284  1  0.146700  0.559600  0.718400  1.0  -0.0397
  C  C285  1  0.099000  0.382700  0.087000  1.0  0.5675
  C  C286  1  0.125500  0.646100  0.532200  1.0  0.116
  C  C287  1  0.158300  0.802300  0.719400  1.0  -0.1926
  C  C288  1  0.096000  0.397300  0.205200  1.0  -0.1485
  C  C289  1  0.141300  0.644400  0.649200  1.0  0.1798
  C  C290  1  0.152500  0.638400  0.426000  1.0  -0.1428
  C  C291  1  0.094300  0.592900  0.718900  1.0  -0.1085
  C  C292  1  0.200800  0.477900  0.754200  1.0  -0.1188
  C  C293  1  0.196500  0.614500  0.651400  1.0  -0.1786
  C  C294  1  0.085400  0.530100  0.422900  1.0  -0.1087
  C  C295  1  0.094400  0.789900  0.609900  1.0  -0.1863
  C  C296  1  0.112200  0.518300  0.308900  1.0  0.0461
  C  C297  1  0.102000  0.462100  0.826100  1.0  -0.0814
  C  C298  1  0.092100  0.498700  0.786800  1.0  -0.1708
  C  C299  1  0.087500  0.634900  0.680100  1.0  -0.172
  C  C300  1  0.088100  0.201400  0.876200  1.0  0.5941
  C  C301  1  0.192600  0.570200  0.682700  1.0  -0.0646
  C  C302  1  0.101100  0.440500  0.275200  1.0  -0.0793
  N  N303  1  0.028600  0.658700  0.066400  1.0  -0.3262
  N  N304  1  0.486600  0.618700  0.080900  1.0  -0.3551
  N  N305  1  0.620400  0.293500  0.450600  1.0  -0.1852
  N  N306  1  0.867400  0.313600  0.388500  1.0  -0.2263
  N  N307  1  0.971400  0.341300  0.933600  1.0  -0.3271
  N  N308  1  0.513400  0.381300  0.919100  1.0  -0.3565
  N  N309  1  0.379600  0.706500  0.549400  1.0  -0.183
  N  N310  1  0.132600  0.686400  0.611500  1.0  -0.2274
  O  O311  1  0.739400  0.780800  0.171600  1.0  -0.5763
  O  O312  1  0.616200  0.570000  0.136500  1.0  -0.5421
  O  O313  1  0.590200  0.583500  0.990700  1.0  -0.5657
  O  O314  1  0.607500  0.664100  0.234000  1.0  -0.5993
  O  O315  1  0.620300  0.734900  0.135800  1.0  -0.621
  O  O316  1  0.707500  0.602100  0.018500  1.0  -0.604
  O  O317  1  0.805000  0.663000  0.152700  1.0  -0.6002
  O  O318  1  0.853000  0.742500  0.074800  1.0  -0.6664
  O  O319  1  0.965800  0.783400  0.129300  1.0  -0.559
  O  O320  1  0.930500  0.683500  0.948700  1.0  -0.5649
  O  O321  1  0.883200  0.582500  0.946900  1.0  -0.5788
  O  O322  1  0.890400  0.615900  0.102700  1.0  -0.5998
  O  O323  1  0.260600  0.219200  0.828400  1.0  -0.5748
  O  O324  1  0.383800  0.430000  0.863500  1.0  -0.5427
  O  O325  1  0.409800  0.416500  0.009300  1.0  -0.5657
  O  O326  1  0.392500  0.335900  0.766000  1.0  -0.5963
  O  O327  1  0.379700  0.265100  0.864200  1.0  -0.6199
  O  O328  1  0.292500  0.397900  0.981500  1.0  -0.6051
  O  O329  1  0.195000  0.337000  0.847300  1.0  -0.5997
  O  O330  1  0.147000  0.257500  0.925200  1.0  -0.6652
  O  O331  1  0.034200  0.216600  0.870700  1.0  -0.5586
  O  O332  1  0.069500  0.316500  0.051300  1.0  -0.5641
  O  O333  1  0.116800  0.417500  0.053100  1.0  -0.5801
  O  O334  1  0.109600  0.384100  0.897300  1.0  -0.5994
