# generated using pymatgen
data_Zn3H56C88(NO3)4
_symmetry_space_group_name_H-M   'P 1'
_cell_length_a   17.89800000
_cell_length_b   20.27500000
_cell_length_c   21.79600000
_cell_angle_alpha   63.37500000
_cell_angle_beta   76.64400000
_cell_angle_gamma   84.87600000
_symmetry_Int_Tables_number   1
_chemical_formula_structural   Zn3H56C88(NO3)4
_chemical_formula_sum   'Zn6 H112 C176 N8 O24'
_cell_volume   6878.50083207
_cell_formula_units_Z   2
loop_
 _symmetry_equiv_pos_site_id
 _symmetry_equiv_pos_as_xyz
  1  'x, y, z'
loop_
 _atom_site_type_symbol
 _atom_site_label
 _atom_site_symmetry_multiplicity
 _atom_site_fract_x
 _atom_site_fract_y
 _atom_site_fract_z
 _atom_site_occupancy
 _atom_site_charge
  Zn  Zn1  1  0.534960  0.106120  0.049590  1.0  0.9265
  Zn  Zn2  1  0.727710  0.117020  0.080630  1.0  0.9902
  Zn  Zn3  1  0.911410  0.045800  0.088970  1.0  1.0195
  Zn  Zn4  1  0.465040  0.893880  0.950410  1.0  0.9273
  Zn  Zn5  1  0.272290  0.882980  0.919370  1.0  0.9907
  Zn  Zn6  1  0.088590  0.954200  0.911030  1.0  1.0185
  H  H7  1  0.019000  0.031900  0.177900  1.0  0.0877
  H  H8  1  0.252600  0.129800  0.119800  1.0  0.1279
  H  H9  1  0.145700  0.043600  0.172200  1.0  0.1299
  H  H10  1  0.379800  0.142500  0.112900  1.0  0.0976
  H  H11  1  0.307700  0.007900  0.014600  1.0  0.1172
  H  H12  1  0.060500  0.063400  0.982500  1.0  0.0818
  H  H13  1  0.710200  0.896700  0.224200  1.0  0.0967
  H  H14  1  0.886400  0.812400  0.152600  1.0  0.1084
  H  H15  1  0.190200  0.072800  0.971700  1.0  0.1301
  H  H16  1  0.598700  0.134100  0.827100  1.0  0.1234
  H  H17  1  0.676700  0.247700  0.597900  1.0  0.1143
  H  H18  1  0.714700  0.770900  0.286300  1.0  0.109
  H  H19  1  0.534300  0.643100  0.278800  1.0  0.0919
  H  H20  1  0.534000  0.516200  0.342100  1.0  0.1224
  H  H21  1  0.686200  0.300800  0.478600  1.0  0.1162
  H  H22  1  0.561100  0.748700  0.188800  1.0  0.1105
  H  H23  1  0.433800  0.025000  0.009000  1.0  0.0738
  H  H24  1  0.967100  0.138000  0.868700  1.0  0.0939
  H  H25  1  0.559800  0.241800  0.375200  1.0  0.1177
  H  H26  1  0.592400  0.485100  0.486500  1.0  0.1205
  H  H27  1  0.679800  0.267600  0.093100  1.0  0.116
  H  H28  1  0.684500  0.467600  0.264900  1.0  0.1094
  H  H29  1  0.746000  0.528800  0.366900  1.0  0.1182
  H  H30  1  0.617000  0.191200  0.706900  1.0  0.1169
  H  H31  1  0.589300  0.432600  0.605000  1.0  0.1125
  H  H32  1  0.589000  0.332600  0.828200  1.0  0.1142
  H  H33  1  0.754900  0.196400  0.770000  1.0  0.0828
  H  H34  1  0.552800  0.874200  0.131800  1.0  0.0896
  H  H35  1  0.504900  0.224200  0.300100  1.0  0.1108
  H  H36  1  0.573700  0.301200  0.439900  1.0  0.108
  H  H37  1  0.806500  0.390000  0.376800  1.0  0.1104
  H  H38  1  0.865200  0.706200  0.392700  1.0  0.1157
  H  H39  1  0.739500  0.135600  0.890400  1.0  0.1099
  H  H40  1  0.743600  0.654600  0.306900  1.0  0.0947
  H  H41  1  0.668400  0.408800  0.200400  1.0  0.118
  H  H42  1  0.743600  0.212200  0.324700  1.0  0.1059
  H  H43  1  0.489000  0.165600  0.233700  1.0  0.1192
  H  H44  1  0.804900  0.191400  0.655900  1.0  0.1072
  H  H45  1  0.900500  0.688700  0.212200  1.0  0.1201
  H  H46  1  0.620400  0.388700  0.707400  1.0  0.1156
  H  H47  1  0.726300  0.160000  0.253600  1.0  0.1007
  H  H48  1  0.694500  0.325600  0.160800  1.0  0.1141
  H  H49  1  0.982100  0.203000  0.748500  1.0  0.092
  H  H50  1  0.856100  0.831900  0.331800  1.0  0.119
  H  H51  1  0.976000  0.388700  0.535800  1.0  0.1263
  H  H52  1  0.822000  0.257200  0.535600  1.0  0.1047
  H  H53  1  0.959500  0.586200  0.266000  1.0  0.1207
  H  H54  1  0.970700  0.462600  0.322900  1.0  0.1209
  H  H55  1  0.784100  0.323900  0.319800  1.0  0.0894
  H  H56  1  0.959100  0.322900  0.655900  1.0  0.0973
  H  H57  1  0.954200  0.154800  0.188700  1.0  0.1085
  H  H58  1  0.972200  0.206700  0.259600  1.0  0.1159
  H  H59  1  0.836200  0.587600  0.442800  1.0  0.118
  H  H60  1  0.845300  0.462000  0.499200  1.0  0.1124
  H  H61  1  0.984000  0.259900  0.435100  1.0  0.1229
  H  H62  1  0.963600  0.198000  0.374800  1.0  0.1206
  H  H63  1  0.981000  0.968100  0.822100  1.0  0.0874
  H  H64  1  0.747400  0.870200  0.880200  1.0  0.1261
  H  H65  1  0.854300  0.956400  0.827800  1.0  0.1311
  H  H66  1  0.620200  0.857500  0.887100  1.0  0.0978
  H  H67  1  0.692300  0.992100  0.985400  1.0  0.1176
  H  H68  1  0.939500  0.936600  0.017500  1.0  0.0808
  H  H69  1  0.289800  0.103300  0.775800  1.0  0.0968
  H  H70  1  0.113600  0.187600  0.847400  1.0  0.1082
  H  H71  1  0.809800  0.927200  0.028300  1.0  0.1307
  H  H72  1  0.401300  0.865900  0.172900  1.0  0.1236
  H  H73  1  0.323300  0.752300  0.402100  1.0  0.1135
  H  H74  1  0.285300  0.229100  0.713700  1.0  0.1077
  H  H75  1  0.465700  0.356900  0.721200  1.0  0.0916
  H  H76  1  0.466000  0.483800  0.657900  1.0  0.1229
  H  H77  1  0.313800  0.699200  0.521400  1.0  0.1161
  H  H78  1  0.438900  0.251300  0.811200  1.0  0.1112
  H  H79  1  0.566200  0.975000  0.991000  1.0  0.0738
  H  H80  1  0.032900  0.862000  0.131300  1.0  0.0937
  H  H81  1  0.440200  0.758200  0.624800  1.0  0.1185
  H  H82  1  0.407600  0.514900  0.513500  1.0  0.1208
  H  H83  1  0.320200  0.732400  0.906900  1.0  0.1168
  H  H84  1  0.315500  0.532400  0.735100  1.0  0.1091
  H  H85  1  0.254000  0.471200  0.633100  1.0  0.1185
  H  H86  1  0.383000  0.808800  0.293100  1.0  0.117
  H  H87  1  0.410700  0.567400  0.395000  1.0  0.1122
  H  H88  1  0.411000  0.667400  0.171800  1.0  0.1135
  H  H89  1  0.245100  0.803600  0.230000  1.0  0.083
  H  H90  1  0.447200  0.125800  0.868200  1.0  0.0905
  H  H91  1  0.495100  0.775800  0.699900  1.0  0.1112
  H  H92  1  0.426300  0.698800  0.560100  1.0  0.1089
  H  H93  1  0.193500  0.610000  0.623200  1.0  0.1108
  H  H94  1  0.134800  0.293800  0.607300  1.0  0.1155
  H  H95  1  0.260500  0.864400  0.109600  1.0  0.1107
  H  H96  1  0.256400  0.345400  0.693100  1.0  0.0948
  H  H97  1  0.331600  0.591200  0.799600  1.0  0.1194
  H  H98  1  0.256400  0.787800  0.675300  1.0  0.1063
  H  H99  1  0.511000  0.834400  0.766300  1.0  0.1196
  H  H100  1  0.195100  0.808600  0.344100  1.0  0.1081
  H  H101  1  0.099500  0.311300  0.787800  1.0  0.1201
  H  H102  1  0.379600  0.611300  0.292600  1.0  0.1157
  H  H103  1  0.273700  0.840000  0.746400  1.0  0.1006
  H  H104  1  0.305500  0.674400  0.839200  1.0  0.1124
  H  H105  1  0.017900  0.797000  0.251500  1.0  0.0924
  H  H106  1  0.143900  0.168100  0.668200  1.0  0.1186
  H  H107  1  0.024000  0.611300  0.464200  1.0  0.1262
  H  H108  1  0.178000  0.742800  0.464400  1.0  0.1055
  H  H109  1  0.040500  0.413800  0.734000  1.0  0.1207
  H  H110  1  0.029300  0.537400  0.677100  1.0  0.1213
  H  H111  1  0.215900  0.676100  0.680200  1.0  0.089
  H  H112  1  0.040900  0.677100  0.344100  1.0  0.0972
  H  H113  1  0.045800  0.845200  0.811300  1.0  0.1081
  H  H114  1  0.027800  0.793300  0.740400  1.0  0.117
  H  H115  1  0.163800  0.412400  0.557200  1.0  0.1184
  H  H116  1  0.154700  0.538000  0.500800  1.0  0.1128
  H  H117  1  0.016000  0.740100  0.564900  1.0  0.1235
  H  H118  1  0.036400  0.802000  0.625200  1.0  0.121
  C  C119  1  0.053890  0.041470  0.135880  1.0  0.1784
  C  C120  1  0.289000  0.108300  0.096630  1.0  -0.1963
  C  C121  1  0.129480  0.047700  0.133020  1.0  -0.1763
  C  C122  1  0.365180  0.115720  0.092280  1.0  0.1705
  C  C123  1  0.640440  0.510390  0.359800  1.0  0.1649
  C  C124  1  0.638420  0.663920  0.285700  1.0  0.0276
  C  C125  1  0.183190  0.060230  0.070630  1.0  0.0927
  C  C126  1  0.625910  0.981260  0.132960  1.0  0.7085
  C  C127  1  0.637040  0.744980  0.245760  1.0  0.0724
  C  C128  1  0.567520  0.190480  0.918830  1.0  0.6382
  C  C129  1  0.638430  0.397770  0.469940  1.0  0.1727
  C  C130  1  0.320990  0.036250  0.034290  1.0  -0.2175
  C  C131  1  0.078420  0.059590  0.020710  1.0  0.1621
  C  C132  1  0.600500  0.280840  0.237770  1.0  0.0199
  C  C133  1  0.582480  0.210660  0.157010  1.0  -0.1266
  C  C134  1  0.877740  0.917810  0.194820  1.0  0.6379
  C  C135  1  0.679230  0.866940  0.217740  1.0  -0.0131
  C  C136  1  0.619490  0.296510  0.692830  1.0  0.0519
  C  C137  1  0.880560  0.249660  0.668940  1.0  0.0667
  C  C138  1  0.573730  0.173340  0.113800  1.0  0.6984
  C  C139  1  0.265690  0.067990  0.066150  1.0  0.1121
  C  C140  1  0.884410  0.791450  0.200630  1.0  -0.1306
  C  C141  1  0.630990  0.390950  0.360070  1.0  0.1955
  C  C142  1  0.631200  0.899390  0.171180  1.0  -0.1516
  C  C143  1  0.156270  0.065470  0.013700  1.0  -0.2059
  C  C144  1  0.610920  0.318560  0.280230  1.0  0.0727
  C  C145  1  0.827790  0.128400  0.161120  1.0  0.7222
  C  C146  1  0.600360  0.185310  0.803100  1.0  -0.1559
  C  C147  1  0.843820  0.099790  0.969490  1.0  0.6929
  C  C148  1  0.659740  0.295590  0.575600  1.0  -0.1491
  C  C149  1  0.682260  0.791310  0.254860  1.0  -0.1295
  C  C150  1  0.577030  0.620520  0.296930  1.0  -0.1153
  C  C151  1  0.590200  0.227860  0.840200  1.0  -0.1162
  C  C152  1  0.576740  0.544130  0.334360  1.0  -0.2162
  C  C153  1  0.664950  0.327010  0.504010  1.0  -0.2512
  C  C154  1  0.590180  0.778100  0.197390  1.0  -0.1409
  C  C155  1  0.874120  0.836240  0.234750  1.0  -0.1044
  C  C156  1  0.396710  0.046580  0.031540  1.0  0.1911
  C  C157  1  0.924040  0.151260  0.848910  1.0  -0.0351
  C  C158  1  0.895520  0.602880  0.346830  1.0  0.0841
  C  C159  1  0.584380  0.287700  0.352470  1.0  -0.1262
  C  C160  1  0.886160  0.682400  0.309050  1.0  0.0608
  C  C161  1  0.838700  0.155480  0.211520  1.0  -0.1494
  C  C162  1  0.609680  0.437320  0.508690  1.0  -0.1452
  C  C163  1  0.900410  0.328970  0.523590  1.0  0.1583
  C  C164  1  0.860130  0.216410  0.298530  1.0  0.0323
  C  C165  1  0.644430  0.258730  0.134770  1.0  -0.0354
  C  C166  1  0.658910  0.422210  0.287410  1.0  -0.1835
  C  C167  1  0.703010  0.551660  0.349500  1.0  -0.2489
  C  C168  1  0.612840  0.219760  0.731010  1.0  -0.099
  C  C169  1  0.852640  0.132980  0.891500  1.0  -0.1482
  C  C170  1  0.607010  0.405110  0.580180  1.0  -0.1004
  C  C171  1  0.596310  0.304110  0.803700  1.0  -0.0533
  C  C172  1  0.629690  0.333580  0.615800  1.0  0.036
  C  C173  1  0.797900  0.185790  0.789850  1.0  -0.1086
  C  C174  1  0.586280  0.853530  0.162220  1.0  -0.0264
  C  C175  1  0.540310  0.233260  0.258410  1.0  -0.1168
  C  C176  1  0.593290  0.323130  0.391610  1.0  -0.1611
  C  C177  1  0.838070  0.350940  0.376850  1.0  -0.1977
  C  C178  1  0.871310  0.727640  0.344160  1.0  -0.1252
  C  C179  1  0.788370  0.149220  0.861890  1.0  -0.0393
  C  C180  1  0.701250  0.627040  0.313300  1.0  -0.1059
  C  C181  1  0.869550  0.206960  0.746580  1.0  0.0475
  C  C182  1  0.649120  0.386790  0.248670  1.0  -0.1251
  C  C183  1  0.786000  0.201450  0.296980  1.0  -0.1328
  C  C184  1  0.530500  0.197750  0.218590  1.0  -0.0623
  C  C185  1  0.839570  0.230970  0.631910  1.0  -0.1398
  C  C186  1  0.891640  0.717130  0.236710  1.0  -0.1091
  C  C187  1  0.613110  0.337800  0.731340  1.0  -0.1021
  C  C188  1  0.775600  0.170580  0.253980  1.0  -0.0359
  C  C189  1  0.653060  0.293530  0.175540  1.0  -0.1322
  C  C190  1  0.898100  0.331970  0.411640  1.0  0.1733
  C  C191  1  0.933180  0.189250  0.776780  1.0  -0.1533
  C  C192  1  0.865640  0.802990  0.307750  1.0  -0.0702
  C  C193  1  0.941700  0.348840  0.560030  1.0  -0.1791
  C  C194  1  0.871750  0.254900  0.339800  1.0  0.0321
  C  C195  1  0.849740  0.270460  0.559700  1.0  -0.191
  C  C196  1  0.936000  0.561800  0.313330  1.0  -0.1388
  C  C197  1  0.942100  0.487460  0.347260  1.0  -0.2038
  C  C198  1  0.825250  0.311540  0.342080  1.0  -0.1016
  C  C199  1  0.906880  0.447490  0.417420  1.0  0.2249
  C  C200  1  0.931480  0.309390  0.631840  1.0  -0.1263
  C  C201  1  0.911970  0.167390  0.215070  1.0  -0.0445
  C  C202  1  0.922690  0.198200  0.257970  1.0  -0.1167
  C  C203  1  0.862700  0.562710  0.417680  1.0  -0.1088
  C  C204  1  0.868300  0.486890  0.451790  1.0  -0.1571
  C  C205  1  0.944200  0.273800  0.411100  1.0  -0.2304
  C  C206  1  0.931600  0.236500  0.375370  1.0  -0.1282
  C  C207  1  0.946110  0.958530  0.864120  1.0  0.1781
  C  C208  1  0.711000  0.891700  0.903370  1.0  -0.1957
  C  C209  1  0.870520  0.952300  0.866980  1.0  -0.1746
  C  C210  1  0.634820  0.884280  0.907720  1.0  0.1694
  C  C211  1  0.359560  0.489610  0.640200  1.0  0.1647
  C  C212  1  0.361580  0.336080  0.714300  1.0  0.0267
  C  C213  1  0.816810  0.939770  0.929370  1.0  0.0931
  C  C214  1  0.374090  0.018740  0.867040  1.0  0.7119
  C  C215  1  0.362960  0.255020  0.754240  1.0  0.0723
  C  C216  1  0.432480  0.809520  0.081170  1.0  0.6377
  C  C217  1  0.361570  0.602230  0.530060  1.0  0.1734
  C  C218  1  0.679010  0.963750  0.965710  1.0  -0.2169
  C  C219  1  0.921580  0.940410  0.979290  1.0  0.1618
  C  C220  1  0.399500  0.719160  0.762230  1.0  0.0179
  C  C221  1  0.417520  0.789340  0.842990  1.0  -0.1271
  C  C222  1  0.122260  0.082190  0.805180  1.0  0.6351
  C  C223  1  0.320770  0.133060  0.782260  1.0  -0.014
  C  C224  1  0.380510  0.703490  0.307170  1.0  0.0511
  C  C225  1  0.119440  0.750340  0.331060  1.0  0.0666
  C  C226  1  0.426270  0.826660  0.886200  1.0  0.6987
  C  C227  1  0.734310  0.932010  0.933850  1.0  0.1105
  C  C228  1  0.115590  0.208550  0.799370  1.0  -0.1314
  C  C229  1  0.369010  0.609050  0.639930  1.0  0.1939
  C  C230  1  0.368800  0.100610  0.828820  1.0  -0.1526
  C  C231  1  0.843730  0.934530  0.986300  1.0  -0.2074
  C  C232  1  0.389080  0.681440  0.719770  1.0  0.0716
  C  C233  1  0.172210  0.871600  0.838880  1.0  0.7212
  C  C234  1  0.399640  0.814690  0.196900  1.0  -0.1569
  C  C235  1  0.156180  0.900210  0.030510  1.0  0.694
  C  C236  1  0.340260  0.704410  0.424400  1.0  -0.1488
  C  C237  1  0.317740  0.208690  0.745140  1.0  -0.1309
  C  C238  1  0.422970  0.379480  0.703070  1.0  -0.1157
  C  C239  1  0.409800  0.772140  0.159800  1.0  -0.1165
  C  C240  1  0.423260  0.455870  0.665640  1.0  -0.2162
  C  C241  1  0.335050  0.672990  0.495990  1.0  -0.2502
  C  C242  1  0.409820  0.221900  0.802610  1.0  -0.1411
  C  C243  1  0.125880  0.163760  0.765250  1.0  -0.1044
  C  C244  1  0.603290  0.953420  0.968460  1.0  0.1913
  C  C245  1  0.075960  0.848740  0.151090  1.0  -0.0362
  C  C246  1  0.104480  0.397120  0.653170  1.0  0.0842
  C  C247  1  0.415620  0.712300  0.647530  1.0  -0.1272
  C  C248  1  0.113840  0.317600  0.690950  1.0  0.0609
  C  C249  1  0.161300  0.844520  0.788480  1.0  -0.1492
  C  C250  1  0.390320  0.562680  0.491310  1.0  -0.1459
  C  C251  1  0.099590  0.671030  0.476410  1.0  0.1569
  C  C252  1  0.139870  0.783590  0.701470  1.0  0.0332
  C  C253  1  0.355570  0.741270  0.865230  1.0  -0.0359
  C  C254  1  0.341090  0.577790  0.712590  1.0  -0.1833
  C  C255  1  0.296990  0.448340  0.650500  1.0  -0.2494
  C  C256  1  0.387160  0.780240  0.268990  1.0  -0.097
  C  C257  1  0.147360  0.867020  0.108500  1.0  -0.1484
  C  C258  1  0.392990  0.594890  0.419820  1.0  -0.1012
  C  C259  1  0.403690  0.695890  0.196300  1.0  -0.0486
  C  C260  1  0.370310  0.666420  0.384200  1.0  0.0355
  C  C261  1  0.202100  0.814210  0.210150  1.0  -0.1088
  C  C262  1  0.413720  0.146470  0.837780  1.0  -0.028
  C  C263  1  0.459690  0.766740  0.741590  1.0  -0.1151
  C  C264  1  0.406710  0.676870  0.608390  1.0  -0.1618
  C  C265  1  0.161930  0.649060  0.623150  1.0  -0.1992
  C  C266  1  0.128690  0.272360  0.655840  1.0  -0.1253
  C  C267  1  0.211630  0.850780  0.138110  1.0  -0.0408
  C  C268  1  0.298750  0.372960  0.686700  1.0  -0.1061
  C  C269  1  0.130450  0.793040  0.253420  1.0  0.0472
  C  C270  1  0.350880  0.613210  0.751330  1.0  -0.125
  C  C271  1  0.214000  0.798550  0.703020  1.0  -0.132
  C  C272  1  0.469500  0.802250  0.781410  1.0  -0.0622
  C  C273  1  0.160430  0.769030  0.368090  1.0  -0.1401
  C  C274  1  0.108360  0.282870  0.763290  1.0  -0.1092
  C  C275  1  0.386890  0.662200  0.268660  1.0  -0.1021
  C  C276  1  0.224400  0.829420  0.746020  1.0  -0.0363
  C  C277  1  0.346940  0.706470  0.824460  1.0  -0.1319
  C  C278  1  0.101900  0.668030  0.588360  1.0  0.1737
  C  C279  1  0.066820  0.810750  0.223220  1.0  -0.1511
  C  C280  1  0.134360  0.197010  0.692250  1.0  -0.069
  C  C281  1  0.058300  0.651160  0.439970  1.0  -0.1811
  C  C282  1  0.128250  0.745100  0.660200  1.0  0.0336
  C  C283  1  0.150260  0.729540  0.440300  1.0  -0.1909
  C  C284  1  0.064000  0.438200  0.686670  1.0  -0.1371
  C  C285  1  0.057900  0.512540  0.652740  1.0  -0.2033
  C  C286  1  0.174750  0.688460  0.657920  1.0  -0.1018
  C  C287  1  0.093120  0.552510  0.582580  1.0  0.2259
  C  C288  1  0.068520  0.690610  0.368160  1.0  -0.1257
  C  C289  1  0.088030  0.832610  0.784930  1.0  -0.0442
  C  C290  1  0.077310  0.801800  0.742030  1.0  -0.119
  C  C291  1  0.137300  0.437290  0.582320  1.0  -0.1102
  C  C292  1  0.131700  0.513110  0.548210  1.0  -0.1566
  C  C293  1  0.055800  0.726200  0.588900  1.0  -0.2328
  C  C294  1  0.068400  0.763500  0.624630  1.0  -0.1296
  N  N295  1  0.420190  0.085770  0.059230  1.0  -0.3401
  N  N296  1  0.027080  0.048600  0.080350  1.0  -0.3389
  N  N297  1  0.641140  0.430920  0.396910  1.0  -0.1593
  N  N298  1  0.910930  0.370280  0.449280  1.0  -0.1489
  N  N299  1  0.579810  0.914230  0.940770  1.0  -0.34
  N  N300  1  0.972920  0.951400  0.919650  1.0  -0.3399
  N  N301  1  0.358860  0.569080  0.603090  1.0  -0.159
  N  N302  1  0.089070  0.629720  0.550720  1.0  -0.1498
  O  O303  1  0.761400  0.116010  0.160060  1.0  -0.5905
  O  O304  1  0.905530  0.090530  0.990800  1.0  -0.5883
  O  O305  1  0.575580  0.006040  0.097290  1.0  -0.6227
  O  O306  1  0.778310  0.083510  0.008120  1.0  -0.596
  O  O307  1  0.672260  0.018840  0.140960  1.0  -0.628
  O  O308  1  0.628700  0.170910  0.067090  1.0  -0.6362
  O  O309  1  0.879020  0.944180  0.128730  1.0  -0.5885
  O  O310  1  0.509990  0.145490  0.123340  1.0  -0.5741
  O  O311  1  0.578410  0.122530  0.950490  1.0  -0.5651
  O  O312  1  0.887400  0.121740  0.121110  1.0  -0.6087
  O  O313  1  0.883940  0.957080  0.223280  1.0  -0.5875
  O  O314  1  0.539130  0.228030  0.951060  1.0  -0.6143
  O  O315  1  0.238600  0.883990  0.839940  1.0  -0.5895
  O  O316  1  0.094470  0.909470  0.009200  1.0  -0.5891
  O  O317  1  0.424420  0.993960  0.902710  1.0  -0.6216
  O  O318  1  0.221690  0.916490  0.991880  1.0  -0.5966
  O  O319  1  0.327740  0.981160  0.859040  1.0  -0.6287
  O  O320  1  0.371300  0.829090  0.932910  1.0  -0.6339
  O  O321  1  0.120980  0.055820  0.871270  1.0  -0.5888
  O  O322  1  0.490010  0.854510  0.876660  1.0  -0.5752
  O  O323  1  0.421590  0.877470  0.049510  1.0  -0.5655
  O  O324  1  0.112600  0.878260  0.878890  1.0  -0.6093
  O  O325  1  0.116060  0.042920  0.776720  1.0  -0.5889
  O  O326  1  0.460870  0.771970  0.048940  1.0  -0.6161
