# generated using pymatgen
data_Zn3H58C90(NO3)4
_symmetry_space_group_name_H-M   'P 1'
_cell_length_a   19.60800000
_cell_length_b   21.13300000
_cell_length_c   21.57100000
_cell_angle_alpha   117.42800000
_cell_angle_beta   100.54800000
_cell_angle_gamma   99.06700000
_symmetry_Int_Tables_number   1
_chemical_formula_structural   Zn3H58C90(NO3)4
_chemical_formula_sum   'Zn6 H116 C180 N8 O24'
_cell_volume   7493.93425159
_cell_formula_units_Z   2
loop_
 _symmetry_equiv_pos_site_id
 _symmetry_equiv_pos_as_xyz
  1  'x, y, z'
loop_
 _atom_site_type_symbol
 _atom_site_label
 _atom_site_symmetry_multiplicity
 _atom_site_fract_x
 _atom_site_fract_y
 _atom_site_fract_z
 _atom_site_occupancy
 _atom_site_charge
  Zn  Zn1  1  0.598570  0.131650  0.097040  1.0  0.9536
  Zn  Zn2  1  0.766270  0.207530  0.093450  1.0  0.9712
  Zn  Zn3  1  0.920800  0.170030  0.055860  1.0  0.9247
  Zn  Zn4  1  0.401430  0.868350  0.902960  1.0  0.9541
  Zn  Zn5  1  0.233730  0.792470  0.906550  1.0  0.9712
  Zn  Zn6  1  0.079200  0.829970  0.944140  1.0  0.924
  H  H7  1  0.500600  0.202400  0.182600  1.0  0.0862
  H  H8  1  0.512300  0.925600  0.737400  1.0  0.1294
  H  H9  1  0.744000  0.029000  0.895300  1.0  0.0801
  H  H10  1  0.635800  0.143900  0.347100  1.0  0.1112
  H  H11  1  0.600500  0.887700  0.203600  1.0  0.1148
  H  H12  1  0.710500  0.627800  0.309800  1.0  0.0934
  H  H13  1  0.756800  0.542400  0.322700  1.0  0.0967
  H  H14  1  0.387600  0.207300  0.169000  1.0  0.1248
  H  H15  1  0.660500  0.928300  0.497800  1.0  0.1296
  H  H16  1  0.553800  0.823500  0.247300  1.0  0.1356
  H  H17  1  0.693500  0.847400  0.668100  1.0  0.104
  H  H18  1  0.536000  0.663900  0.431300  1.0  0.1185
  H  H19  1  0.554100  0.750600  0.304100  1.0  0.1061
  H  H20  1  0.538500  0.998000  0.873700  1.0  0.092
  H  H21  1  0.451400  0.039600  0.977800  1.0  0.0976
  H  H22  1  0.732300  0.957900  0.773200  1.0  0.1092
  H  H23  1  0.664400  0.004800  0.445200  1.0  0.1324
  H  H24  1  0.610200  0.962200  0.150200  1.0  0.1206
  H  H25  1  0.330500  0.042500  0.962200  1.0  0.116
  H  H26  1  0.520800  0.922800  0.628300  1.0  0.108
  H  H27  1  0.509500  0.861700  0.504000  1.0  0.1446
  H  H28  1  0.634700  0.073800  0.402800  1.0  0.1195
  H  H29  1  0.780500  0.422800  0.269500  1.0  0.1384
  H  H30  1  0.562900  0.329100  0.203800  1.0  0.1053
  H  H31  1  0.224600  0.057300  0.018400  1.0  0.124
  H  H32  1  0.564200  0.552800  0.385700  1.0  0.1282
  H  H33  1  0.693600  0.746900  0.366400  1.0  0.1162
  H  H34  1  0.547200  0.447900  0.271900  1.0  0.1206
  H  H35  1  0.687400  0.788900  0.548500  1.0  0.1178
  H  H36  1  0.993400  0.055000  0.042200  1.0  0.1055
  H  H37  1  0.109500  0.034300  0.046700  1.0  0.1225
  H  H38  1  0.070600  0.270900  0.105300  1.0  0.1243
  H  H39  1  0.290400  0.201600  0.127300  1.0  0.1192
  H  H40  1  0.191000  0.257300  0.107200  1.0  0.1277
  H  H41  1  0.782100  0.044000  0.292800  1.0  0.1233
  H  H42  1  0.789700  0.781000  0.468000  1.0  0.1248
  H  H43  1  0.942100  0.840300  0.313500  1.0  0.1177
  H  H44  1  0.917900  0.747800  0.443300  1.0  0.1187
  H  H45  1  0.772100  0.108100  0.230600  1.0  0.1033
  H  H46  1  0.934800  0.906600  0.250300  1.0  0.1214
  H  H47  1  0.944500  0.028000  0.603500  1.0  0.1117
  H  H48  1  0.814700  0.361900  0.092500  1.0  0.133
  H  H49  1  0.923900  0.627000  0.388400  1.0  0.1289
  H  H50  1  0.762300  0.957000  0.316300  1.0  0.0997
  H  H51  1  0.813500  0.719700  0.249800  1.0  0.1071
  H  H52  1  0.972200  0.542100  0.324800  1.0  0.1183
  H  H53  1  0.799500  0.479500  0.155000  1.0  0.1157
  H  H54  1  0.903100  0.936700  0.173100  1.0  0.1156
  H  H55  1  0.820700  0.596500  0.188300  1.0  0.1335
  H  H56  1  0.915600  0.096800  0.700900  1.0  0.1159
  H  H57  1  0.990600  0.423000  0.270300  1.0  0.135
  H  H58  1  0.763500  0.884800  0.367700  1.0  0.1185
  H  H59  1  0.928200  0.955400  0.477900  1.0  0.1015
  H  H60  1  0.856200  0.908000  0.706300  1.0  0.1206
  H  H61  1  0.809000  0.856100  0.593300  1.0  0.1095
  H  H62  1  0.910900  0.012600  0.123300  1.0  0.1085
  H  H63  1  0.879800  0.977000  0.835100  1.0  0.1177
  H  H64  1  0.928000  0.168300  0.826600  1.0  0.1163
  H  H65  1  0.499400  0.797600  0.817400  1.0  0.0855
  H  H66  1  0.487700  0.074400  0.262600  1.0  0.1301
  H  H67  1  0.256000  0.971000  0.104700  1.0  0.0801
  H  H68  1  0.364200  0.856100  0.652900  1.0  0.1121
  H  H69  1  0.399500  0.112300  0.796400  1.0  0.1155
  H  H70  1  0.289500  0.372200  0.690200  1.0  0.0933
  H  H71  1  0.243200  0.457600  0.677300  1.0  0.0966
  H  H72  1  0.612400  0.792700  0.831000  1.0  0.1243
  H  H73  1  0.339500  0.071700  0.502200  1.0  0.1296
  H  H74  1  0.446200  0.176500  0.752700  1.0  0.1362
  H  H75  1  0.306500  0.152600  0.331900  1.0  0.1036
  H  H76  1  0.464000  0.336100  0.568700  1.0  0.1175
  H  H77  1  0.445900  0.249400  0.695900  1.0  0.1045
  H  H78  1  0.461500  0.002000  0.126300  1.0  0.0919
  H  H79  1  0.548600  0.960400  0.022200  1.0  0.0982
  H  H80  1  0.267700  0.042100  0.226800  1.0  0.109
  H  H81  1  0.335600  0.995200  0.554800  1.0  0.1323
  H  H82  1  0.389800  0.037800  0.849800  1.0  0.1211
  H  H83  1  0.669500  0.957500  0.037800  1.0  0.1154
  H  H84  1  0.479200  0.077200  0.371700  1.0  0.108
  H  H85  1  0.490500  0.138300  0.496000  1.0  0.1441
  H  H86  1  0.365300  0.926200  0.597200  1.0  0.1196
  H  H87  1  0.219500  0.577200  0.730500  1.0  0.1379
  H  H88  1  0.437100  0.670900  0.796200  1.0  0.1056
  H  H89  1  0.775400  0.942700  0.981600  1.0  0.1249
  H  H90  1  0.435800  0.447200  0.614300  1.0  0.1273
  H  H91  1  0.306400  0.253100  0.633600  1.0  0.1176
  H  H92  1  0.452800  0.552100  0.728100  1.0  0.1209
  H  H93  1  0.312600  0.211100  0.451500  1.0  0.1179
  H  H94  1  0.006600  0.945000  0.957800  1.0  0.1052
  H  H95  1  0.890500  0.965700  0.953300  1.0  0.1216
  H  H96  1  0.929400  0.729100  0.894700  1.0  0.124
  H  H97  1  0.709600  0.798400  0.872700  1.0  0.1194
  H  H98  1  0.809000  0.742700  0.892800  1.0  0.1264
  H  H99  1  0.217900  0.956000  0.707200  1.0  0.1241
  H  H100  1  0.210300  0.219000  0.532000  1.0  0.1258
  H  H101  1  0.057900  0.159700  0.686500  1.0  0.1176
  H  H102  1  0.082100  0.252200  0.556700  1.0  0.118
  H  H103  1  0.227900  0.891900  0.769400  1.0  0.103
  H  H104  1  0.065200  0.093400  0.749700  1.0  0.1217
  H  H105  1  0.055500  0.972000  0.396500  1.0  0.1107
  H  H106  1  0.185300  0.638100  0.907500  1.0  0.1335
  H  H107  1  0.076100  0.373000  0.611600  1.0  0.1299
  H  H108  1  0.237700  0.043000  0.683700  1.0  0.0994
  H  H109  1  0.186500  0.280300  0.750200  1.0  0.1069
  H  H110  1  0.027800  0.457900  0.675200  1.0  0.1182
  H  H111  1  0.200500  0.520500  0.845000  1.0  0.1152
  H  H112  1  0.096900  0.063300  0.826900  1.0  0.1148
  H  H113  1  0.179300  0.403500  0.811700  1.0  0.1344
  H  H114  1  0.084400  0.903200  0.299100  1.0  0.1164
  H  H115  1  0.009400  0.577000  0.729700  1.0  0.1347
  H  H116  1  0.236500  0.115200  0.632300  1.0  0.1184
  H  H117  1  0.071800  0.044600  0.522100  1.0  0.1016
  H  H118  1  0.143800  0.092000  0.293700  1.0  0.1213
  H  H119  1  0.191000  0.143900  0.406700  1.0  0.1098
  H  H120  1  0.089100  0.987400  0.876700  1.0  0.1084
  H  H121  1  0.120200  0.023000  0.164900  1.0  0.1173
  H  H122  1  0.072000  0.831700  0.173400  1.0  0.1162
  C  C123  1  0.466200  0.169000  0.136400  1.0  0.1735
  C  C124  1  0.651300  0.068400  0.971500  1.0  0.6751
  C  C125  1  0.560000  0.945600  0.769600  1.0  -0.1409
  C  C126  1  0.618200  0.974700  0.312500  1.0  -0.004
  C  C127  1  0.622900  0.934700  0.744400  1.0  0.0556
  C  C128  1  0.696500  0.007700  0.862500  1.0  -0.04
  C  C129  1  0.630300  0.092200  0.318700  1.0  -0.0829
  C  C130  1  0.611000  0.894500  0.663600  1.0  0.0311
  C  C131  1  0.610100  0.921300  0.341400  1.0  0.0485
  C  C132  1  0.609300  0.939900  0.232600  1.0  -0.0732
  C  C133  1  0.651400  0.505400  0.303800  1.0  0.0394
  C  C134  1  0.667900  0.363500  0.219100  1.0  -0.1219
  C  C135  1  0.676900  0.636900  0.337300  1.0  -0.1047
  C  C136  1  0.718000  0.498600  0.300400  1.0  -0.1419
  C  C137  1  0.399600  0.170400  0.129800  1.0  -0.1796
  C  C138  1  0.642800  0.022800  0.892900  1.0  0.0214
  C  C139  1  0.637100  0.907800  0.447400  1.0  -0.1442
  C  C140  1  0.575500  0.845700  0.298300  1.0  -0.1776
  C  C141  1  0.657500  0.851400  0.635100  1.0  -0.1021
  C  C142  1  0.642000  0.581700  0.344000  1.0  0.0578
  C  C143  1  0.597800  0.819500  0.512600  1.0  0.1194
  C  C144  1  0.611100  0.717900  0.405900  1.0  0.1368
  C  C145  1  0.624300  0.061400  0.245000  1.0  -0.0864
  C  C146  1  0.573700  0.658100  0.408800  1.0  -0.1096
  C  C147  1  0.573900  0.802900  0.333200  1.0  -0.1315
  C  C148  1  0.621600  0.106200  0.209600  1.0  0.6771
  C  C149  1  0.576800  0.991900  0.852100  1.0  -0.0631
  C  C150  1  0.438200  0.074300  0.017500  1.0  0.1043
  C  C151  1  0.691200  0.965300  0.790100  1.0  -0.1889
  C  C152  1  0.640900  0.953100  0.415800  1.0  -0.1606
  C  C153  1  0.613900  0.983600  0.200700  1.0  -0.1242
  C  C154  1  0.598900  0.832900  0.404800  1.0  0.2263
  C  C155  1  0.365300  0.074000  0.008600  1.0  -0.1385
  C  C156  1  0.554300  0.895900  0.611200  1.0  -0.0805
  C  C157  1  0.677800  0.288300  0.175000  1.0  0.6825
  C  C158  1  0.547100  0.859800  0.537400  1.0  -0.1913
  C  C159  1  0.628600  0.050300  0.351700  1.0  -0.143
  C  C160  1  0.732800  0.427900  0.264500  1.0  -0.0594
  C  C161  1  0.603200  0.371700  0.226700  1.0  -0.0425
  C  C162  1  0.260900  0.102400  0.052200  1.0  -0.0635
  C  C163  1  0.589000  0.591800  0.380600  1.0  -0.2124
  C  C164  1  0.666000  0.707600  0.369100  1.0  -0.2156
  C  C165  1  0.345400  0.118600  0.066100  1.0  0.032
  C  C166  1  0.593900  0.443200  0.268400  1.0  -0.1193
  C  C167  1  0.653900  0.816100  0.564700  1.0  -0.1598
  C  C168  1  0.034000  0.094800  0.055800  1.0  0.1709
  C  C169  1  0.103200  0.081300  0.056400  1.0  -0.083
  C  C170  1  0.080700  0.224800  0.093100  1.0  0.1224
  C  C171  1  0.161900  0.139400  0.071700  1.0  -0.1986
  C  C172  1  0.254300  0.157000  0.091800  1.0  -0.0468
  C  C173  1  0.151600  0.216500  0.093700  1.0  -0.0727
  C  C174  1  0.843500  0.985600  0.237900  1.0  -0.0035
  C  C175  1  0.842800  0.115100  0.135300  1.0  0.6906
  C  C176  1  0.805800  0.036200  0.256200  1.0  -0.1669
  C  C177  1  0.904500  0.380000  0.174600  1.0  -0.1715
  C  C178  1  0.889900  0.995700  0.692200  1.0  -0.0327
  C  C179  1  0.843700  0.070200  0.170000  1.0  -0.0772
  C  C180  1  0.853500  0.856600  0.347100  1.0  0.2424
  C  C181  1  0.848200  0.940300  0.277100  1.0  0.0529
  C  C182  1  0.862000  0.745300  0.351800  1.0  0.161
  C  C183  1  0.886900  0.521300  0.242800  1.0  0.0809
  C  C184  1  0.877600  0.600100  0.283200  1.0  -0.0089
  C  C185  1  0.822500  0.829300  0.494700  1.0  -0.2273
  C  C186  1  0.904200  0.863300  0.312700  1.0  -0.15
  C  C187  1  0.863700  0.859700  0.460900  1.0  0.1565
  C  C188  1  0.897400  0.716700  0.392000  1.0  -0.094
  C  C189  1  0.802300  0.075800  0.221300  1.0  -0.0412
  C  C190  1  0.900700  0.904200  0.275900  1.0  -0.1466
  C  C191  1  0.914500  0.978400  0.577200  1.0  -0.1515
  C  C192  1  0.846500  0.397700  0.139500  1.0  -0.0782
  C  C193  1  0.902800  0.645600  0.359300  1.0  -0.1317
  C  C194  1  0.798800  0.932000  0.313800  1.0  -0.0867
  C  C195  1  0.836000  0.700300  0.277500  1.0  -0.1449
  C  C196  1  0.941500  0.504700  0.277800  1.0  -0.1337
  C  C197  1  0.878800  0.949100  0.614000  1.0  0.0353
  C  C198  1  0.838800  0.467500  0.176000  1.0  -0.1279
  C  C199  1  0.879500  0.974900  0.187000  1.0  -0.1309
  C  C200  1  0.840700  0.626900  0.239700  1.0  -0.1338
  C  C201  1  0.907700  0.072500  0.727700  1.0  -0.1404
  C  C202  1  0.953000  0.434400  0.246200  1.0  -0.0935
  C  C203  1  0.800100  0.890500  0.345800  1.0  -0.2015
  C  C204  1  0.905400  0.934200  0.501800  1.0  -0.1514
  C  C205  1  0.874000  0.960500  0.731400  1.0  -0.131
  C  C206  1  0.834100  0.876100  0.569800  1.0  -0.1077
  C  C207  1  0.882200  0.018300  0.155500  1.0  -0.0843
  C  C208  1  0.884000  0.001500  0.807900  1.0  -0.0932
  C  C209  1  0.914200  0.115700  0.803300  1.0  -0.0433
  C  C210  1  0.900500  0.081500  0.843300  1.0  -0.0275
  C  C211  1  0.914400  0.302400  0.135500  1.0  0.5625
  C  C212  1  0.907600  0.123000  0.920700  1.0  0.6865
  C  C213  1  0.533800  0.831000  0.863600  1.0  0.1755
  C  C214  1  0.348700  0.931600  0.028500  1.0  0.6732
  C  C215  1  0.440000  0.054400  0.230400  1.0  -0.141
  C  C216  1  0.381800  0.025300  0.687500  1.0  -0.0033
  C  C217  1  0.377100  0.065300  0.255600  1.0  0.0564
  C  C218  1  0.303500  0.992300  0.137500  1.0  -0.042
  C  C219  1  0.369700  0.907800  0.681300  1.0  -0.0824
  C  C220  1  0.389000  0.105500  0.336400  1.0  0.0305
  C  C221  1  0.389900  0.078700  0.658600  1.0  0.047
  C  C222  1  0.390700  0.060100  0.767400  1.0  -0.0728
  C  C223  1  0.348600  0.494600  0.696200  1.0  0.0397
  C  C224  1  0.332100  0.636500  0.780900  1.0  -0.1236
  C  C225  1  0.323100  0.363100  0.662700  1.0  -0.1041
  C  C226  1  0.282000  0.501400  0.699600  1.0  -0.142
  C  C227  1  0.600400  0.829600  0.870200  1.0  -0.1769
  C  C228  1  0.357200  0.977200  0.107100  1.0  0.0195
  C  C229  1  0.362900  0.092200  0.552600  1.0  -0.1447
  C  C230  1  0.424500  0.154300  0.701700  1.0  -0.1791
  C  C231  1  0.342500  0.148600  0.364900  1.0  -0.1007
  C  C232  1  0.358000  0.418300  0.656000  1.0  0.0573
  C  C233  1  0.402200  0.180500  0.487400  1.0  0.12
  C  C234  1  0.388900  0.282100  0.594100  1.0  0.1387
  C  C235  1  0.375700  0.938600  0.755000  1.0  -0.0862
  C  C236  1  0.426300  0.341900  0.591200  1.0  -0.1108
  C  C237  1  0.426100  0.197100  0.666800  1.0  -0.1301
  C  C238  1  0.378400  0.893800  0.790400  1.0  0.6777
  C  C239  1  0.423200  0.008100  0.147900  1.0  -0.0669
  C  C240  1  0.561800  0.925700  0.982500  1.0  0.1035
  C  C241  1  0.308800  0.034700  0.209900  1.0  -0.1899
  C  C242  1  0.359100  0.046900  0.584200  1.0  -0.1631
  C  C243  1  0.386100  0.016400  0.799300  1.0  -0.1244
  C  C244  1  0.401100  0.167100  0.595200  1.0  0.2284
  C  C245  1  0.634700  0.926000  0.991400  1.0  -0.1381
  C  C246  1  0.445700  0.104100  0.388800  1.0  -0.0805
  C  C247  1  0.322200  0.711700  0.825000  1.0  0.6829
  C  C248  1  0.452900  0.140200  0.462600  1.0  -0.1887
  C  C249  1  0.371400  0.949700  0.648300  1.0  -0.1426
  C  C250  1  0.267200  0.572100  0.735500  1.0  -0.0612
  C  C251  1  0.396800  0.628300  0.773300  1.0  -0.0453
  C  C252  1  0.739100  0.897600  0.947800  1.0  -0.0611
  C  C253  1  0.411000  0.408200  0.619400  1.0  -0.2121
  C  C254  1  0.334000  0.292400  0.630900  1.0  -0.2138
  C  C255  1  0.654600  0.881400  0.933900  1.0  0.0326
  C  C256  1  0.406100  0.556800  0.731600  1.0  -0.1164
  C  C257  1  0.346100  0.183900  0.435300  1.0  -0.1612
  C  C258  1  0.966000  0.905200  0.944200  1.0  0.1713
  C  C259  1  0.896800  0.918700  0.943600  1.0  -0.0858
  C  C260  1  0.919300  0.775200  0.906900  1.0  0.1237
  C  C261  1  0.838100  0.860600  0.928300  1.0  -0.1995
  C  C262  1  0.745700  0.843000  0.908200  1.0  -0.0516
  C  C263  1  0.848400  0.783500  0.906300  1.0  -0.0734
  C  C264  1  0.156500  0.014400  0.762100  1.0  -0.0033
  C  C265  1  0.157200  0.884900  0.864700  1.0  0.6911
  C  C266  1  0.194200  0.963800  0.743800  1.0  -0.1653
  C  C267  1  0.095500  0.620000  0.825400  1.0  -0.1728
  C  C268  1  0.110100  0.004300  0.307800  1.0  -0.0333
  C  C269  1  0.156300  0.929800  0.830000  1.0  -0.0787
  C  C270  1  0.146500  0.143400  0.652900  1.0  0.2428
  C  C271  1  0.151800  0.059700  0.722900  1.0  0.0534
  C  C272  1  0.138000  0.254700  0.648200  1.0  0.1611
  C  C273  1  0.113100  0.478700  0.757200  1.0  0.0833
  C  C274  1  0.122400  0.399900  0.716800  1.0  -0.0084
  C  C275  1  0.177500  0.170700  0.505300  1.0  -0.2281
  C  C276  1  0.095800  0.136700  0.687300  1.0  -0.1496
  C  C277  1  0.136300  0.140300  0.539100  1.0  0.1553
  C  C278  1  0.102600  0.283300  0.608000  1.0  -0.096
  C  C279  1  0.197700  0.924200  0.778700  1.0  -0.0416
  C  C280  1  0.099300  0.095800  0.724100  1.0  -0.1463
  C  C281  1  0.085500  0.021600  0.422800  1.0  -0.1521
  C  C282  1  0.153500  0.602300  0.860500  1.0  -0.0791
  C  C283  1  0.097200  0.354400  0.640700  1.0  -0.1345
  C  C284  1  0.201200  0.068000  0.686200  1.0  -0.0873
  C  C285  1  0.164000  0.299700  0.722500  1.0  -0.1457
  C  C286  1  0.058500  0.495300  0.722200  1.0  -0.1333
  C  C287  1  0.121200  0.050900  0.386000  1.0  0.0358
  C  C288  1  0.161200  0.532500  0.824000  1.0  -0.1284
  C  C289  1  0.120500  0.025100  0.813000  1.0  -0.1308
  C  C290  1  0.159300  0.373100  0.760300  1.0  -0.1371
  C  C291  1  0.092300  0.927500  0.272300  1.0  -0.1422
  C  C292  1  0.047000  0.565600  0.753800  1.0  -0.0938
  C  C293  1  0.199900  0.109500  0.654200  1.0  -0.2017
  C  C294  1  0.094600  0.065800  0.498200  1.0  -0.1509
  C  C295  1  0.126000  0.039500  0.268600  1.0  -0.1311
  C  C296  1  0.165900  0.123900  0.430200  1.0  -0.1083
  C  C297  1  0.117800  0.981700  0.844500  1.0  -0.0838
  C  C298  1  0.116000  0.998500  0.192100  1.0  -0.0932
  C  C299  1  0.085800  0.884300  0.196700  1.0  -0.045
  C  C300  1  0.099500  0.918500  0.156700  1.0  -0.0288
  C  C301  1  0.085600  0.697600  0.864500  1.0  0.5604
  C  C302  1  0.092400  0.877000  0.079300  1.0  0.6877
  N  N303  1  0.025100  0.159200  0.073000  1.0  -0.3473
  N  N304  1  0.594100  0.788100  0.437300  1.0  -0.2057
  N  N305  1  0.490400  0.123100  0.081700  1.0  -0.3651
  N  N306  1  0.855900  0.817500  0.385700  1.0  -0.1496
  N  N307  1  0.974900  0.840800  0.927000  1.0  -0.3464
  N  N308  1  0.405900  0.211900  0.562700  1.0  -0.2025
  N  N309  1  0.509600  0.876900  0.918300  1.0  -0.3646
  N  N310  1  0.144100  0.182500  0.614300  1.0  -0.1502
  O  O311  1  0.715800  0.104200  0.013600  1.0  -0.6171
  O  O312  1  0.622900  0.234300  0.134100  1.0  -0.6063
  O  O313  1  0.595600  0.080000  0.994000  1.0  -0.5962
  O  O314  1  0.744800  0.285500  0.174800  1.0  -0.5769
  O  O315  1  0.622800  0.073400  0.140800  1.0  -0.5902
  O  O316  1  0.614300  0.168300  0.239000  1.0  -0.4906
  O  O317  1  0.810000  0.167700  0.156000  1.0  -0.5923
  O  O318  1  0.885700  0.108400  0.096100  1.0  -0.5948
  O  O319  1  0.882600  0.092000  0.953200  1.0  -0.5834
  O  O320  1  0.857200  0.244900  0.079900  1.0  -0.671
  O  O321  1  0.973600  0.290800  0.153700  1.0  -0.6997
  O  O322  1  0.942500  0.192100  0.957600  1.0  -0.6205
  O  O323  1  0.284200  0.895800  0.986400  1.0  -0.6163
  O  O324  1  0.377100  0.765700  0.865900  1.0  -0.6068
  O  O325  1  0.404400  0.920000  0.006000  1.0  -0.5961
  O  O326  1  0.255200  0.714500  0.825200  1.0  -0.5788
  O  O327  1  0.377200  0.926600  0.859200  1.0  -0.5899
  O  O328  1  0.385700  0.831700  0.761000  1.0  -0.4902
  O  O329  1  0.190000  0.832300  0.844000  1.0  -0.5904
  O  O330  1  0.114300  0.891600  0.903900  1.0  -0.5941
  O  O331  1  0.117400  0.908000  0.046800  1.0  -0.5822
  O  O332  1  0.142800  0.755100  0.920100  1.0  -0.6709
  O  O333  1  0.026400  0.709200  0.846300  1.0  -0.6949
  O  O334  1  0.057500  0.807900  0.042400  1.0  -0.6189
