# generated using pymatgen
data_Zn3H57C89N5O13
_symmetry_space_group_name_H-M   'P 1'
_cell_length_a   21.21000000
_cell_length_b   36.41000000
_cell_length_c   19.41900000
_cell_angle_alpha   90.00000000
_cell_angle_beta   94.42500000
_cell_angle_gamma   90.00000000
_symmetry_Int_Tables_number   1
_chemical_formula_structural   Zn3H57C89N5O13
_chemical_formula_sum   'Zn12 H228 C356 N20 O52'
_cell_volume   14951.73954889
_cell_formula_units_Z   4
loop_
 _symmetry_equiv_pos_site_id
 _symmetry_equiv_pos_as_xyz
  1  'x, y, z'
loop_
 _atom_site_type_symbol
 _atom_site_label
 _atom_site_symmetry_multiplicity
 _atom_site_fract_x
 _atom_site_fract_y
 _atom_site_fract_z
 _atom_site_occupancy
 _atom_site_charge
  Zn  Zn1  1  0.202850  0.180270  0.468710  1.0  0.9513
  Zn  Zn2  1  0.253750  0.153300  0.637540  1.0  0.9873
  Zn  Zn3  1  0.314760  0.186600  0.808380  1.0  0.953
  Zn  Zn4  1  0.797150  0.680270  0.031290  1.0  0.9507
  Zn  Zn5  1  0.746250  0.653300  0.862460  1.0  0.9848
  Zn  Zn6  1  0.685240  0.686600  0.691620  1.0  0.9524
  Zn  Zn7  1  0.797150  0.819730  0.531290  1.0  0.9511
  Zn  Zn8  1  0.746250  0.846700  0.362460  1.0  0.9849
  Zn  Zn9  1  0.685240  0.813400  0.191620  1.0  0.9528
  Zn  Zn10  1  0.202850  0.319730  0.968710  1.0  0.9522
  Zn  Zn11  1  0.253750  0.346700  0.137540  1.0  0.9877
  Zn  Zn12  1  0.314760  0.313400  0.308380  1.0  0.9539
  H  H13  1  0.790600  0.555100  0.758600  1.0  0.0834
  H  H14  1  0.218600  0.221100  0.024400  1.0  0.1327
  H  H15  1  0.234700  0.221300  0.908800  1.0  0.0731
  H  H16  1  0.373700  0.158000  0.055400  1.0  0.1446
  H  H17  1  0.381200  0.158500  0.939800  1.0  0.0771
  H  H18  1  0.086000  0.283100  0.502900  1.0  0.1095
  H  H19  1  0.998400  0.317800  0.514100  1.0  0.1195
  H  H20  1  0.480700  0.276000  0.641100  1.0  0.1036
  H  H21  1  0.134700  0.157600  0.337100  1.0  0.0871
  H  H22  1  0.142300  0.158300  0.220700  1.0  0.1323
  H  H23  1  0.468100  0.263500  0.436600  1.0  0.0997
  H  H24  1  0.395000  0.238400  0.649100  1.0  0.1052
  H  H25  1  0.979100  0.193400  0.474400  1.0  0.102
  H  H26  1  0.383100  0.224700  0.443400  1.0  0.1182
  H  H27  1  0.889900  0.227900  0.494400  1.0  0.1193
  H  H28  1  0.288000  0.215300  0.368000  1.0  0.0816
  H  H29  1  0.299300  0.218300  0.252100  1.0  0.1277
  H  H30  1  0.904600  0.346400  0.471900  1.0  0.1187
  H  H31  1  0.791700  0.447800  0.668300  1.0  0.1351
  H  H32  1  0.574300  0.273800  0.451100  1.0  0.1083
  H  H33  1  0.522500  0.331800  0.608700  1.0  0.0913
  H  H34  1  0.664600  0.308400  0.447400  1.0  0.1274
  H  H35  1  0.787900  0.388900  0.623600  1.0  0.0995
  H  H36  1  0.811100  0.379000  0.478400  1.0  0.1361
  H  H37  1  0.614100  0.367300  0.607900  1.0  0.1247
  H  H38  1  0.738000  0.293300  0.574000  1.0  0.113
  H  H39  1  0.636800  0.415500  0.500000  1.0  0.1202
  H  H40  1  0.827400  0.260000  0.560900  1.0  0.1135
  H  H41  1  0.640200  0.473700  0.543700  1.0  0.1252
  H  H42  1  0.648600  0.526000  0.583700  1.0  0.1177
  H  H43  1  0.650100  0.583200  0.631500  1.0  0.1033
  H  H44  1  0.792400  0.498000  0.709100  1.0  0.1214
  H  H45  1  0.318300  0.187200  0.152200  1.0  0.2354
  H  H46  1  0.703900  0.268200  0.847300  1.0  0.1105
  H  H47  1  0.045600  0.263000  0.849200  1.0  0.0913
  H  H48  1  0.115000  0.238900  0.636000  1.0  0.0983
  H  H49  1  0.134000  0.227200  0.841000  1.0  0.1301
  H  H50  1  0.435800  0.285500  0.778300  1.0  0.1008
  H  H51  1  0.032900  0.278700  0.644800  1.0  0.1105
  H  H52  1  0.526700  0.320700  0.773500  1.0  0.125
  H  H53  1  0.610500  0.341100  0.731100  1.0  0.104
  H  H54  1  0.857800  0.590200  0.875300  1.0  0.0821
  H  H55  1  0.901300  0.473200  0.823600  1.0  0.1155
  H  H56  1  0.926300  0.286300  0.668300  1.0  0.0988
  H  H57  1  0.009100  0.322600  0.846000  1.0  0.1112
  H  H58  1  0.701100  0.376800  0.729300  1.0  0.1243
  H  H59  1  0.921200  0.358700  0.862400  1.0  0.1347
  H  H60  1  0.894600  0.416500  0.771300  1.0  0.1311
  H  H61  1  0.873400  0.532400  0.834900  1.0  0.1261
  H  H62  1  0.541800  0.195400  0.807800  1.0  0.107
  H  H63  1  0.838100  0.322500  0.681900  1.0  0.1242
  H  H64  1  0.631400  0.229000  0.804100  1.0  0.1186
  H  H65  1  0.781000  0.553100  0.037000  1.0  0.0927
  H  H66  1  0.746000  0.451800  0.918200  1.0  0.1134
  H  H67  1  0.787400  0.492700  0.998000  1.0  0.1286
  H  H68  1  0.741100  0.393800  0.870500  1.0  0.1218
  H  H69  1  0.794600  0.302700  0.847700  1.0  0.1382
  H  H70  1  0.209400  0.055100  0.741400  1.0  0.0837
  H  H71  1  0.781400  0.721100  0.475600  1.0  0.1329
  H  H72  1  0.765300  0.721300  0.591200  1.0  0.0736
  H  H73  1  0.626300  0.658000  0.444600  1.0  0.1441
  H  H74  1  0.618800  0.658500  0.560200  1.0  0.0772
  H  H75  1  0.914000  0.783100  0.997100  1.0  0.1092
  H  H76  1  0.001600  0.817800  0.985900  1.0  0.1209
  H  H77  1  0.519300  0.776000  0.858900  1.0  0.1043
  H  H78  1  0.865300  0.657600  0.162900  1.0  0.0865
  H  H79  1  0.857700  0.658300  0.279300  1.0  0.1317
  H  H80  1  0.531900  0.763500  0.063400  1.0  0.1001
  H  H81  1  0.605000  0.738400  0.850900  1.0  0.1056
  H  H82  1  0.020900  0.693400  0.025600  1.0  0.1026
  H  H83  1  0.616900  0.724700  0.056600  1.0  0.1188
  H  H84  1  0.110100  0.727900  0.005600  1.0  0.12
  H  H85  1  0.712000  0.715300  0.132000  1.0  0.0808
  H  H86  1  0.700700  0.718300  0.247900  1.0  0.1277
  H  H87  1  0.095400  0.846400  0.028100  1.0  0.1208
  H  H88  1  0.208300  0.947800  0.831700  1.0  0.1335
  H  H89  1  0.425700  0.773800  0.048900  1.0  0.108
  H  H90  1  0.477500  0.831800  0.891300  1.0  0.0917
  H  H91  1  0.335400  0.808400  0.052600  1.0  0.1274
  H  H92  1  0.212100  0.888900  0.876400  1.0  0.0989
  H  H93  1  0.188900  0.879000  0.021600  1.0  0.1361
  H  H94  1  0.385900  0.867300  0.892100  1.0  0.1248
  H  H95  1  0.262000  0.793300  0.926000  1.0  0.1125
  H  H96  1  0.363200  0.915500  0.000000  1.0  0.1208
  H  H97  1  0.172600  0.760000  0.939100  1.0  0.1131
  H  H98  1  0.359800  0.973700  0.956300  1.0  0.126
  H  H99  1  0.351400  0.026000  0.916300  1.0  0.1171
  H  H100  1  0.349900  0.083200  0.868500  1.0  0.1032
  H  H101  1  0.207600  0.998000  0.790900  1.0  0.12
  H  H102  1  0.681700  0.687200  0.347800  1.0  0.2358
  H  H103  1  0.296100  0.768200  0.652700  1.0  0.1107
  H  H104  1  0.954400  0.763000  0.650800  1.0  0.0922
  H  H105  1  0.885000  0.738900  0.864000  1.0  0.0979
  H  H106  1  0.866000  0.727200  0.659000  1.0  0.1292
  H  H107  1  0.564200  0.785500  0.721700  1.0  0.1008
  H  H108  1  0.967100  0.778700  0.855200  1.0  0.1103
  H  H109  1  0.473300  0.820700  0.726500  1.0  0.1255
  H  H110  1  0.389500  0.841100  0.768900  1.0  0.1034
  H  H111  1  0.142200  0.090200  0.624700  1.0  0.082
  H  H112  1  0.098700  0.973200  0.676400  1.0  0.1146
  H  H113  1  0.073700  0.786300  0.831700  1.0  0.0991
  H  H114  1  0.990900  0.822600  0.654000  1.0  0.1113
  H  H115  1  0.298900  0.876800  0.770700  1.0  0.1244
  H  H116  1  0.078800  0.858700  0.637600  1.0  0.135
  H  H117  1  0.105400  0.916500  0.728700  1.0  0.13
  H  H118  1  0.126600  0.032400  0.665100  1.0  0.1262
  H  H119  1  0.458200  0.695400  0.692200  1.0  0.1071
  H  H120  1  0.161900  0.822500  0.818100  1.0  0.1252
  H  H121  1  0.368600  0.729000  0.695900  1.0  0.1186
  H  H122  1  0.219000  0.053100  0.463000  1.0  0.0929
  H  H123  1  0.254000  0.951800  0.581800  1.0  0.113
  H  H124  1  0.212600  0.992700  0.502000  1.0  0.1273
  H  H125  1  0.258900  0.893800  0.629500  1.0  0.1223
  H  H126  1  0.205400  0.802700  0.652300  1.0  0.1381
  H  H127  1  0.209400  0.444900  0.241400  1.0  0.0838
  H  H128  1  0.781400  0.778900  0.975600  1.0  0.1332
  H  H129  1  0.765300  0.778700  0.091200  1.0  0.0739
  H  H130  1  0.626300  0.842000  0.944600  1.0  0.1459
  H  H131  1  0.618800  0.841500  0.060200  1.0  0.0775
  H  H132  1  0.914000  0.716900  0.497100  1.0  0.1092
  H  H133  1  0.001600  0.682200  0.485900  1.0  0.1194
  H  H134  1  0.519300  0.724000  0.358900  1.0  0.1044
  H  H135  1  0.865300  0.842400  0.662900  1.0  0.0874
  H  H136  1  0.857700  0.841700  0.779300  1.0  0.1328
  H  H137  1  0.531900  0.736500  0.563400  1.0  0.0996
  H  H138  1  0.605000  0.761600  0.350900  1.0  0.1058
  H  H139  1  0.020900  0.806600  0.525600  1.0  0.1029
  H  H140  1  0.616900  0.775300  0.556600  1.0  0.1184
  H  H141  1  0.110100  0.772100  0.505600  1.0  0.1196
  H  H142  1  0.712000  0.784700  0.632000  1.0  0.0806
  H  H143  1  0.700700  0.781700  0.747900  1.0  0.1274
  H  H144  1  0.095400  0.653600  0.528100  1.0  0.119
  H  H145  1  0.208300  0.552200  0.331700  1.0  0.1344
  H  H146  1  0.425700  0.726200  0.548900  1.0  0.1082
  H  H147  1  0.477500  0.668200  0.391300  1.0  0.0918
  H  H148  1  0.335400  0.691600  0.552600  1.0  0.1275
  H  H149  1  0.212100  0.611100  0.376400  1.0  0.0991
  H  H150  1  0.188900  0.621000  0.521600  1.0  0.1366
  H  H151  1  0.385900  0.632700  0.392100  1.0  0.1247
  H  H152  1  0.262000  0.706700  0.426000  1.0  0.1125
  H  H153  1  0.363200  0.584500  0.500000  1.0  0.1208
  H  H154  1  0.172600  0.740000  0.439100  1.0  0.1141
  H  H155  1  0.359800  0.526300  0.456300  1.0  0.1247
  H  H156  1  0.351400  0.474000  0.416300  1.0  0.1172
  H  H157  1  0.349900  0.416800  0.368500  1.0  0.1035
  H  H158  1  0.207600  0.502000  0.290900  1.0  0.1214
  H  H159  1  0.681700  0.812800  0.847800  1.0  0.2351
  H  H160  1  0.296100  0.731800  0.152700  1.0  0.1111
  H  H161  1  0.954400  0.737000  0.150800  1.0  0.0923
  H  H162  1  0.885000  0.761100  0.364000  1.0  0.098
  H  H163  1  0.866000  0.772800  0.159000  1.0  0.1294
  H  H164  1  0.564200  0.714500  0.221700  1.0  0.1006
  H  H165  1  0.967100  0.721300  0.355200  1.0  0.1106
  H  H166  1  0.473300  0.679300  0.226500  1.0  0.1253
  H  H167  1  0.389500  0.658900  0.268900  1.0  0.1034
  H  H168  1  0.142200  0.409800  0.124700  1.0  0.0818
  H  H169  1  0.098700  0.526800  0.176400  1.0  0.1141
  H  H170  1  0.073700  0.713700  0.331700  1.0  0.0989
  H  H171  1  0.990900  0.677400  0.154000  1.0  0.1106
  H  H172  1  0.298900  0.623200  0.270700  1.0  0.1239
  H  H173  1  0.078800  0.641300  0.137600  1.0  0.1352
  H  H174  1  0.105400  0.583500  0.228700  1.0  0.1314
  H  H175  1  0.126600  0.467600  0.165100  1.0  0.1264
  H  H176  1  0.458200  0.804600  0.192200  1.0  0.1071
  H  H177  1  0.161900  0.677500  0.318100  1.0  0.125
  H  H178  1  0.368600  0.771000  0.195900  1.0  0.1188
  H  H179  1  0.219000  0.446900  0.963000  1.0  0.0915
  H  H180  1  0.254000  0.548200  0.081800  1.0  0.1124
  H  H181  1  0.212600  0.507300  0.002000  1.0  0.1272
  H  H182  1  0.258900  0.606200  0.129500  1.0  0.1224
  H  H183  1  0.205400  0.697300  0.152300  1.0  0.1384
  H  H184  1  0.790600  0.944900  0.258600  1.0  0.0832
  H  H185  1  0.218600  0.278900  0.524400  1.0  0.1326
  H  H186  1  0.234700  0.278700  0.408800  1.0  0.0737
  H  H187  1  0.373700  0.342000  0.555400  1.0  0.1451
  H  H188  1  0.381200  0.341500  0.439800  1.0  0.0778
  H  H189  1  0.086000  0.216900  0.002900  1.0  0.1093
  H  H190  1  0.998400  0.182200  0.014100  1.0  0.1201
  H  H191  1  0.480700  0.224000  0.141100  1.0  0.1037
  H  H192  1  0.134700  0.342400  0.837100  1.0  0.0872
  H  H193  1  0.142300  0.341700  0.720700  1.0  0.1326
  H  H194  1  0.468100  0.236500  0.936600  1.0  0.0997
  H  H195  1  0.395000  0.261600  0.149100  1.0  0.1052
  H  H196  1  0.979100  0.306600  0.974400  1.0  0.1021
  H  H197  1  0.383100  0.275300  0.943400  1.0  0.1182
  H  H198  1  0.889900  0.272100  0.994400  1.0  0.1199
  H  H199  1  0.288000  0.284700  0.868000  1.0  0.0812
  H  H200  1  0.299300  0.281700  0.752100  1.0  0.1278
  H  H201  1  0.904600  0.153600  0.971900  1.0  0.1205
  H  H202  1  0.791700  0.052200  0.168300  1.0  0.134
  H  H203  1  0.574300  0.226200  0.951100  1.0  0.1089
  H  H204  1  0.522500  0.168200  0.108700  1.0  0.0912
  H  H205  1  0.664600  0.191600  0.947400  1.0  0.1274
  H  H206  1  0.787900  0.111100  0.123600  1.0  0.0993
  H  H207  1  0.811100  0.121000  0.978400  1.0  0.1352
  H  H208  1  0.614100  0.132700  0.107900  1.0  0.1252
  H  H209  1  0.738000  0.206700  0.074000  1.0  0.1122
  H  H210  1  0.636800  0.084500  0.000000  1.0  0.1214
  H  H211  1  0.827400  0.240000  0.060900  1.0  0.1136
  H  H212  1  0.640200  0.026300  0.043700  1.0  0.1256
  H  H213  1  0.648600  0.974000  0.083700  1.0  0.1182
  H  H214  1  0.650100  0.916800  0.131500  1.0  0.1034
  H  H215  1  0.792400  0.002000  0.209100  1.0  0.1199
  H  H216  1  0.318300  0.312800  0.652200  1.0  0.2339
  H  H217  1  0.703900  0.231800  0.347300  1.0  0.1102
  H  H218  1  0.045600  0.237000  0.349200  1.0  0.0912
  H  H219  1  0.115000  0.261100  0.136000  1.0  0.0985
  H  H220  1  0.134000  0.272800  0.341000  1.0  0.1299
  H  H221  1  0.435800  0.214500  0.278300  1.0  0.1006
  H  H222  1  0.032900  0.221300  0.144800  1.0  0.1104
  H  H223  1  0.526700  0.179300  0.273500  1.0  0.1248
  H  H224  1  0.610500  0.158900  0.231100  1.0  0.1044
  H  H225  1  0.857800  0.909800  0.375300  1.0  0.0815
  H  H226  1  0.901300  0.026800  0.323600  1.0  0.1149
  H  H227  1  0.926300  0.213700  0.168300  1.0  0.099
  H  H228  1  0.009100  0.177400  0.346000  1.0  0.111
  H  H229  1  0.701100  0.123200  0.229300  1.0  0.1239
  H  H230  1  0.921200  0.141300  0.362400  1.0  0.1348
  H  H231  1  0.894600  0.083500  0.271300  1.0  0.1298
  H  H232  1  0.873400  0.967600  0.334900  1.0  0.1258
  H  H233  1  0.541800  0.304600  0.307800  1.0  0.107
  H  H234  1  0.838100  0.177500  0.181900  1.0  0.1247
  H  H235  1  0.631400  0.271000  0.304100  1.0  0.1192
  H  H236  1  0.781000  0.946900  0.537000  1.0  0.0933
  H  H237  1  0.746000  0.048200  0.418200  1.0  0.1131
  H  H238  1  0.787400  0.007300  0.498000  1.0  0.1284
  H  H239  1  0.741100  0.106200  0.370500  1.0  0.1216
  H  H240  1  0.794600  0.197300  0.347700  1.0  0.1381
  C  C241  1  0.760200  0.549200  0.723200  1.0  -0.0896
  C  C242  1  0.252000  0.208100  0.007800  1.0  -0.2674
  C  C243  1  0.228700  0.186500  0.149400  1.0  0.2863
  C  C244  1  0.261900  0.207560  0.938500  1.0  0.2021
  C  C245  1  0.343900  0.170300  0.026400  1.0  -0.2285
  C  C246  1  0.294200  0.188270  0.051900  1.0  0.2188
  C  C247  1  0.347900  0.171160  0.957300  1.0  0.1833
  C  C248  1  0.098600  0.211740  0.480200  1.0  0.6437
  C  C249  1  0.042200  0.234070  0.489800  1.0  -0.0985
  C  C250  1  0.046500  0.271850  0.500600  1.0  -0.1087
  C  C251  1  0.933800  0.276900  0.505800  1.0  0.062
  C  C252  1  0.994100  0.292610  0.507800  1.0  -0.0901
  C  C253  1  0.379600  0.226780  0.547500  1.0  -0.1361
  C  C254  1  0.325000  0.202910  0.552500  1.0  0.7276
  C  C255  1  0.461300  0.265600  0.601200  1.0  -0.1211
  C  C256  1  0.168600  0.169670  0.319600  1.0  0.1768
  C  C257  1  0.173200  0.169670  0.249800  1.0  -0.1867
  C  C258  1  0.539900  0.297860  0.534500  1.0  0.1184
  C  C259  1  0.454000  0.258090  0.479600  1.0  -0.1148
  C  C260  1  0.409800  0.242950  0.606100  1.0  -0.0383
  C  C261  1  0.983300  0.218280  0.484700  1.0  -0.0657
  C  C262  1  0.402500  0.234900  0.483500  1.0  -0.0336
  C  C263  1  0.929100  0.239300  0.495000  1.0  -0.1432
  C  C264  1  0.484600  0.273150  0.537500  1.0  0.0319
  C  C265  1  0.649600  0.340310  0.529500  1.0  0.1444
  C  C266  1  0.224000  0.186660  0.222900  1.0  0.1109
  C  C267  1  0.258400  0.203620  0.337600  1.0  0.1897
  C  C268  1  0.266100  0.205060  0.268400  1.0  -0.2029
  C  C269  1  0.870600  0.335110  0.490900  1.0  -0.1021
  C  C270  1  0.759800  0.441520  0.634900  1.0  -0.1101
  C  C271  1  0.765000  0.339180  0.527500  1.0  0.1906
  C  C272  1  0.715800  0.504850  0.642100  1.0  0.0597
  C  C273  1  0.582700  0.292130  0.483900  1.0  -0.1231
  C  C274  1  0.877100  0.298880  0.513100  1.0  0.0684
  C  C275  1  0.551800  0.326140  0.577200  1.0  -0.1193
  C  C276  1  0.712400  0.395680  0.557500  1.0  0.2184
  C  C277  1  0.636900  0.312880  0.481300  1.0  -0.2049
  C  C278  1  0.715900  0.466940  0.613200  1.0  0.0378
  C  C279  1  0.717500  0.574070  0.702600  1.0  -0.0892
  C  C280  1  0.757700  0.405910  0.607400  1.0  -0.1652
  C  C281  1  0.719400  0.611800  0.734700  1.0  0.7406
  C  C282  1  0.814800  0.355270  0.495900  1.0  -0.2198
  C  C283  1  0.607000  0.348110  0.576800  1.0  -0.2238
  C  C284  1  0.771000  0.303860  0.552000  1.0  -0.2037
  C  C285  1  0.668100  0.421740  0.534200  1.0  -0.1602
  C  C286  1  0.825000  0.284030  0.544700  1.0  -0.1424
  C  C287  1  0.669900  0.456560  0.560700  1.0  -0.0969
  C  C288  1  0.677900  0.530870  0.620700  1.0  -0.1424
  C  C289  1  0.678300  0.565570  0.649900  1.0  -0.0868
  C  C290  1  0.761200  0.514700  0.694000  1.0  -0.1742
  C  C291  1  0.703100  0.290310  0.823200  1.0  -0.1125
  C  C292  1  0.030000  0.275180  0.748000  1.0  0.0561
  C  C293  1  0.133900  0.230350  0.737500  1.0  -0.123
  C  C294  1  0.060800  0.258970  0.806100  1.0  -0.1297
  C  C295  1  0.421800  0.213750  0.800100  1.0  0.6579
  C  C296  1  0.102200  0.244860  0.679400  1.0  -0.0284
  C  C297  1  0.191600  0.205610  0.731200  1.0  0.7066
  C  C298  1  0.478700  0.236290  0.794600  1.0  -0.0551
  C  C299  1  0.113000  0.237190  0.801500  1.0  -0.0219
  C  C300  1  0.475200  0.274260  0.783900  1.0  -0.0619
  C  C301  1  0.052200  0.267860  0.684400  1.0  -0.1482
  C  C302  1  0.975200  0.299660  0.755100  1.0  0.0649
  C  C303  1  0.648400  0.301510  0.789700  1.0  0.0341
  C  C304  1  0.529800  0.295580  0.781500  1.0  -0.1153
  C  C305  1  0.871600  0.343100  0.774900  1.0  0.1689
  C  C306  1  0.817300  0.399370  0.816600  1.0  0.1764
  C  C307  1  0.589400  0.278740  0.791100  1.0  0.0454
  C  C308  1  0.647900  0.333150  0.754600  1.0  -0.1278
  C  C309  1  0.844000  0.570320  0.900200  1.0  -0.0293
  C  C310  1  0.818000  0.577360  0.960000  1.0  -0.0546
  C  C311  1  0.868600  0.457450  0.832800  1.0  -0.1129
  C  C312  1  0.925200  0.300640  0.707800  1.0  -0.08
  C  C313  1  0.974400  0.322190  0.813700  1.0  -0.1528
  C  C314  1  0.756500  0.342490  0.784400  1.0  0.194
  C  C315  1  0.702500  0.354480  0.752600  1.0  -0.1626
  C  C316  1  0.922000  0.343880  0.823500  1.0  -0.1409
  C  C317  1  0.865100  0.423320  0.801900  1.0  -0.2059
  C  C318  1  0.851500  0.536050  0.874000  1.0  -0.1826
  C  C319  1  0.538500  0.220720  0.801500  1.0  -0.0595
  C  C320  1  0.871900  0.322190  0.715300  1.0  -0.216
  C  C321  1  0.807000  0.615110  0.983900  1.0  0.6967
  C  C322  1  0.592400  0.240680  0.799700  1.0  -0.1321
  C  C323  1  0.797900  0.548750  0.995000  1.0  -0.0493
  C  C324  1  0.824800  0.506120  0.908500  1.0  0.0586
  C  C325  1  0.824200  0.468690  0.877200  1.0  0.0189
  C  C326  1  0.776800  0.444570  0.889400  1.0  -0.1215
  C  C327  1  0.800900  0.512130  0.971700  1.0  -0.1563
  C  C328  1  0.773300  0.409850  0.860400  1.0  -0.1791
  C  C329  1  0.757700  0.310420  0.822800  1.0  -0.1858
  C  C330  1  0.239800  0.049200  0.776800  1.0  -0.0899
  C  C331  1  0.748000  0.708100  0.492200  1.0  -0.2677
  C  C332  1  0.771300  0.686500  0.350600  1.0  0.2852
  C  C333  1  0.738100  0.707560  0.561500  1.0  0.2022
  C  C334  1  0.656100  0.670300  0.473600  1.0  -0.2282
  C  C335  1  0.705800  0.688270  0.448100  1.0  0.2193
  C  C336  1  0.652100  0.671160  0.542700  1.0  0.1844
  C  C337  1  0.901400  0.711740  0.019800  1.0  0.6428
  C  C338  1  0.957800  0.734070  0.010200  1.0  -0.0978
  C  C339  1  0.953500  0.771850  0.999400  1.0  -0.1084
  C  C340  1  0.066200  0.776900  0.994200  1.0  0.0599
  C  C341  1  0.005900  0.792610  0.992200  1.0  -0.0906
  C  C342  1  0.620400  0.726780  0.952500  1.0  -0.1364
  C  C343  1  0.675000  0.702910  0.947500  1.0  0.7261
  C  C344  1  0.538700  0.765600  0.898800  1.0  -0.1206
  C  C345  1  0.831400  0.669670  0.180400  1.0  0.1758
  C  C346  1  0.826800  0.669670  0.250200  1.0  -0.1882
  C  C347  1  0.460100  0.797860  0.965500  1.0  0.118
  C  C348  1  0.546000  0.758090  0.020400  1.0  -0.1153
  C  C349  1  0.590200  0.742950  0.893900  1.0  -0.0378
  C  C350  1  0.016700  0.718280  0.015300  1.0  -0.0668
  C  C351  1  0.597500  0.734900  0.016500  1.0  -0.037
  C  C352  1  0.070900  0.739300  0.005000  1.0  -0.144
  C  C353  1  0.515400  0.773150  0.962500  1.0  0.0321
  C  C354  1  0.350400  0.840310  0.970500  1.0  0.1434
  C  C355  1  0.776000  0.686660  0.277100  1.0  0.1113
  C  C356  1  0.741600  0.703620  0.162400  1.0  0.1892
  C  C357  1  0.733900  0.705060  0.231600  1.0  -0.2029
  C  C358  1  0.129400  0.835110  0.009100  1.0  -0.1023
  C  C359  1  0.240200  0.941520  0.865100  1.0  -0.111
  C  C360  1  0.235000  0.839180  0.972500  1.0  0.1889
  C  C361  1  0.284200  0.004850  0.857900  1.0  0.0593
  C  C362  1  0.417300  0.792130  0.016100  1.0  -0.1224
  C  C363  1  0.122900  0.798880  0.986900  1.0  0.0693
  C  C364  1  0.448200  0.826140  0.922800  1.0  -0.1178
  C  C365  1  0.287600  0.895680  0.942500  1.0  0.2172
  C  C366  1  0.363100  0.812880  0.018700  1.0  -0.2049
  C  C367  1  0.284100  0.966940  0.886800  1.0  0.0388
  C  C368  1  0.282500  0.074070  0.797400  1.0  -0.091
  C  C369  1  0.242300  0.905910  0.892600  1.0  -0.1646
  C  C370  1  0.280600  0.111800  0.765300  1.0  0.7415
  C  C371  1  0.185200  0.855270  0.004100  1.0  -0.2242
  C  C372  1  0.393000  0.848110  0.923200  1.0  -0.2218
  C  C373  1  0.229000  0.803860  0.948000  1.0  -0.2056
  C  C374  1  0.331900  0.921740  0.965800  1.0  -0.16
  C  C375  1  0.175000  0.784030  0.955300  1.0  -0.1428
  C  C376  1  0.330100  0.956560  0.939300  1.0  -0.0965
  C  C377  1  0.322100  0.030870  0.879300  1.0  -0.1401
  C  C378  1  0.321700  0.065570  0.850100  1.0  -0.0866
  C  C379  1  0.238800  0.014700  0.806000  1.0  -0.174
  C  C380  1  0.296900  0.790310  0.676800  1.0  -0.1125
  C  C381  1  0.970000  0.775180  0.752000  1.0  0.056
  C  C382  1  0.866100  0.730350  0.762500  1.0  -0.124
  C  C383  1  0.939200  0.758970  0.693900  1.0  -0.1283
  C  C384  1  0.578200  0.713750  0.699900  1.0  0.6581
  C  C385  1  0.897800  0.744860  0.820600  1.0  -0.0289
  C  C386  1  0.808400  0.705610  0.768800  1.0  0.707
  C  C387  1  0.521300  0.736290  0.705400  1.0  -0.0558
  C  C388  1  0.887000  0.737190  0.698500  1.0  -0.022
  C  C389  1  0.524800  0.774260  0.716100  1.0  -0.0623
  C  C390  1  0.947800  0.767860  0.815600  1.0  -0.1479
  C  C391  1  0.024800  0.799660  0.744900  1.0  0.0656
  C  C392  1  0.351600  0.801510  0.710300  1.0  0.0342
  C  C393  1  0.470200  0.795580  0.718500  1.0  -0.1161
  C  C394  1  0.128400  0.843100  0.725100  1.0  0.1684
  C  C395  1  0.182700  0.899370  0.683400  1.0  0.1768
  C  C396  1  0.410600  0.778740  0.708900  1.0  0.0455
  C  C397  1  0.352100  0.833150  0.745400  1.0  -0.1257
  C  C398  1  0.156000  0.070320  0.599800  1.0  -0.0294
  C  C399  1  0.182000  0.077360  0.540000  1.0  -0.0556
  C  C400  1  0.131400  0.957450  0.667200  1.0  -0.1155
  C  C401  1  0.074800  0.800640  0.792200  1.0  -0.0801
  C  C402  1  0.025600  0.822190  0.686300  1.0  -0.1521
  C  C403  1  0.243500  0.842490  0.715600  1.0  0.1948
  C  C404  1  0.297500  0.854480  0.747400  1.0  -0.1637
  C  C405  1  0.078000  0.843880  0.676500  1.0  -0.1408
  C  C406  1  0.134900  0.923320  0.698100  1.0  -0.2071
  C  C407  1  0.148500  0.036050  0.626000  1.0  -0.1823
  C  C408  1  0.461500  0.720720  0.698500  1.0  -0.0595
  C  C409  1  0.128100  0.822190  0.784700  1.0  -0.2169
  C  C410  1  0.193000  0.115110  0.516100  1.0  0.6971
  C  C411  1  0.407600  0.740680  0.700300  1.0  -0.1308
  C  C412  1  0.202100  0.048750  0.505000  1.0  -0.0481
  C  C413  1  0.175200  0.006120  0.591500  1.0  0.0585
  C  C414  1  0.175800  0.968690  0.622800  1.0  0.0185
  C  C415  1  0.223200  0.944570  0.610600  1.0  -0.1205
  C  C416  1  0.199100  0.012130  0.528300  1.0  -0.1532
  C  C417  1  0.226700  0.909850  0.639600  1.0  -0.1776
  C  C418  1  0.242300  0.810420  0.677200  1.0  -0.1856
  C  C419  1  0.239800  0.450800  0.276800  1.0  -0.09
  C  C420  1  0.748000  0.791900  0.992200  1.0  -0.2686
  C  C421  1  0.771300  0.813500  0.850600  1.0  0.284
  C  C422  1  0.738100  0.792440  0.061500  1.0  0.2025
  C  C423  1  0.656100  0.829700  0.973600  1.0  -0.2273
  C  C424  1  0.705800  0.811730  0.948100  1.0  0.2181
  C  C425  1  0.652100  0.828840  0.042700  1.0  0.1841
  C  C426  1  0.901400  0.788260  0.519800  1.0  0.6419
  C  C427  1  0.957800  0.765930  0.510200  1.0  -0.0967
  C  C428  1  0.953500  0.728150  0.499400  1.0  -0.1086
  C  C429  1  0.066200  0.723100  0.494200  1.0  0.0606
  C  C430  1  0.005900  0.707390  0.492200  1.0  -0.0902
  C  C431  1  0.620400  0.773220  0.452500  1.0  -0.1358
  C  C432  1  0.675000  0.797090  0.447500  1.0  0.7271
  C  C433  1  0.538700  0.734400  0.398800  1.0  -0.1212
  C  C434  1  0.831400  0.830330  0.680400  1.0  0.1793
  C  C435  1  0.826800  0.830330  0.750200  1.0  -0.1846
  C  C436  1  0.460100  0.702140  0.465500  1.0  0.1181
  C  C437  1  0.546000  0.741910  0.520400  1.0  -0.1152
  C  C438  1  0.590200  0.757050  0.393900  1.0  -0.037
  C  C439  1  0.016700  0.781720  0.515300  1.0  -0.0685
  C  C440  1  0.597500  0.765100  0.516500  1.0  -0.0342
  C  C441  1  0.070900  0.760700  0.505000  1.0  -0.1442
  C  C442  1  0.515400  0.726850  0.462500  1.0  0.0323
  C  C443  1  0.350400  0.659690  0.470500  1.0  0.1441
  C  C444  1  0.776000  0.813340  0.777100  1.0  0.112
  C  C445  1  0.741600  0.796380  0.662400  1.0  0.189
  C  C446  1  0.733900  0.794940  0.731600  1.0  -0.2037
  C  C447  1  0.129400  0.664890  0.509100  1.0  -0.1015
  C  C448  1  0.240200  0.558480  0.365100  1.0  -0.1103
  C  C449  1  0.235000  0.660820  0.472500  1.0  0.1891
  C  C450  1  0.284200  0.495150  0.357900  1.0  0.059
  C  C451  1  0.417300  0.707870  0.516100  1.0  -0.1222
  C  C452  1  0.122900  0.701120  0.486900  1.0  0.0689
  C  C453  1  0.448200  0.673860  0.422800  1.0  -0.1179
  C  C454  1  0.287600  0.604320  0.442500  1.0  0.217
  C  C455  1  0.363100  0.687120  0.518700  1.0  -0.2047
  C  C456  1  0.284100  0.533060  0.386800  1.0  0.0376
  C  C457  1  0.282500  0.425930  0.297400  1.0  -0.0902
  C  C458  1  0.242300  0.594090  0.392600  1.0  -0.1655
  C  C459  1  0.280600  0.388200  0.265300  1.0  0.7407
  C  C460  1  0.185200  0.644730  0.504100  1.0  -0.2223
  C  C461  1  0.393000  0.651890  0.423200  1.0  -0.223
  C  C462  1  0.229000  0.696140  0.448000  1.0  -0.2054
  C  C463  1  0.331900  0.578260  0.465800  1.0  -0.1599
  C  C464  1  0.175000  0.715970  0.455300  1.0  -0.1436
  C  C465  1  0.330100  0.543440  0.439300  1.0  -0.096
  C  C466  1  0.322100  0.469130  0.379300  1.0  -0.1398
  C  C467  1  0.321700  0.434430  0.350100  1.0  -0.0858
  C  C468  1  0.238800  0.485300  0.306000  1.0  -0.1734
  C  C469  1  0.296900  0.709690  0.176800  1.0  -0.1128
  C  C470  1  0.970000  0.724820  0.252000  1.0  0.0558
  C  C471  1  0.866100  0.769650  0.262500  1.0  -0.125
  C  C472  1  0.939200  0.741030  0.193900  1.0  -0.1276
  C  C473  1  0.578200  0.786250  0.199900  1.0  0.6577
  C  C474  1  0.897800  0.755140  0.320600  1.0  -0.0285
  C  C475  1  0.808400  0.794390  0.268800  1.0  0.708
  C  C476  1  0.521300  0.763710  0.205400  1.0  -0.0552
  C  C477  1  0.887000  0.762810  0.198500  1.0  -0.0207
  C  C478  1  0.524800  0.725740  0.216100  1.0  -0.0635
  C  C479  1  0.947800  0.732140  0.315600  1.0  -0.1485
  C  C480  1  0.024800  0.700340  0.244900  1.0  0.0656
  C  C481  1  0.351600  0.698490  0.210300  1.0  0.0343
  C  C482  1  0.470200  0.704420  0.218500  1.0  -0.1172
  C  C483  1  0.128400  0.656900  0.225100  1.0  0.1688
  C  C484  1  0.182700  0.600630  0.183400  1.0  0.1767
  C  C485  1  0.410600  0.721260  0.208900  1.0  0.0454
  C  C486  1  0.352100  0.666850  0.245400  1.0  -0.1257
  C  C487  1  0.156000  0.429680  0.099800  1.0  -0.0283
  C  C488  1  0.182000  0.422640  0.040000  1.0  -0.0556
  C  C489  1  0.131400  0.542550  0.167200  1.0  -0.116
  C  C490  1  0.074800  0.699360  0.292200  1.0  -0.0803
  C  C491  1  0.025600  0.677810  0.186300  1.0  -0.1521
  C  C492  1  0.243500  0.657510  0.215600  1.0  0.1948
  C  C493  1  0.297500  0.645520  0.247400  1.0  -0.1638
  C  C494  1  0.078000  0.656120  0.176500  1.0  -0.1409
  C  C495  1  0.134900  0.576680  0.198100  1.0  -0.2075
  C  C496  1  0.148500  0.463950  0.126000  1.0  -0.1823
  C  C497  1  0.461500  0.779280  0.198500  1.0  -0.0605
  C  C498  1  0.128100  0.677810  0.284700  1.0  -0.217
  C  C499  1  0.193000  0.384890  0.016100  1.0  0.6966
  C  C500  1  0.407600  0.759320  0.200300  1.0  -0.1312
  C  C501  1  0.202100  0.451250  0.005000  1.0  -0.0486
  C  C502  1  0.175200  0.493880  0.091500  1.0  0.0586
  C  C503  1  0.175800  0.531310  0.122800  1.0  0.0176
  C  C504  1  0.223200  0.555430  0.110600  1.0  -0.121
  C  C505  1  0.199100  0.487870  0.028300  1.0  -0.1535
  C  C506  1  0.226700  0.590150  0.139600  1.0  -0.1766
  C  C507  1  0.242300  0.689580  0.177200  1.0  -0.1849
  C  C508  1  0.760200  0.950800  0.223200  1.0  -0.0894
  C  C509  1  0.252000  0.291900  0.507800  1.0  -0.2684
  C  C510  1  0.228700  0.313500  0.649400  1.0  0.2856
  C  C511  1  0.261900  0.292440  0.438500  1.0  0.2024
  C  C512  1  0.343900  0.329700  0.526400  1.0  -0.2257
  C  C513  1  0.294200  0.311730  0.551900  1.0  0.2178
  C  C514  1  0.347900  0.328840  0.457300  1.0  0.1845
  C  C515  1  0.098600  0.288260  0.980200  1.0  0.6433
  C  C516  1  0.042200  0.265930  0.989800  1.0  -0.0978
  C  C517  1  0.046500  0.228150  0.000600  1.0  -0.1089
  C  C518  1  0.933800  0.223100  0.005800  1.0  0.0616
  C  C519  1  0.994100  0.207390  0.007800  1.0  -0.0911
  C  C520  1  0.379600  0.273220  0.047500  1.0  -0.1362
  C  C521  1  0.325000  0.297090  0.052500  1.0  0.7275
  C  C522  1  0.461300  0.234400  0.101200  1.0  -0.1211
  C  C523  1  0.168600  0.330330  0.819600  1.0  0.1795
  C  C524  1  0.173200  0.330330  0.749800  1.0  -0.1843
  C  C525  1  0.539900  0.202140  0.034500  1.0  0.1183
  C  C526  1  0.454000  0.241910  0.979600  1.0  -0.115
  C  C527  1  0.409800  0.257050  0.106100  1.0  -0.0365
  C  C528  1  0.983300  0.281720  0.984700  1.0  -0.0676
  C  C529  1  0.402500  0.265100  0.983500  1.0  -0.0332
  C  C530  1  0.929100  0.260700  0.995000  1.0  -0.1437
  C  C531  1  0.484600  0.226850  0.037500  1.0  0.0321
  C  C532  1  0.649600  0.159690  0.029500  1.0  0.1441
  C  C533  1  0.224000  0.313340  0.722900  1.0  0.1121
  C  C534  1  0.258400  0.296380  0.837600  1.0  0.1892
  C  C535  1  0.266100  0.294940  0.768400  1.0  -0.2032
  C  C536  1  0.870600  0.164890  0.990900  1.0  -0.1003
  C  C537  1  0.759800  0.058480  0.134900  1.0  -0.1093
  C  C538  1  0.765000  0.160820  0.027500  1.0  0.1906
  C  C539  1  0.715800  0.995150  0.142100  1.0  0.0598
  C  C540  1  0.582700  0.207870  0.983900  1.0  -0.1219
  C  C541  1  0.877100  0.201120  0.013100  1.0  0.0684
  C  C542  1  0.551800  0.173860  0.077200  1.0  -0.1183
  C  C543  1  0.712400  0.104320  0.057500  1.0  0.2181
  C  C544  1  0.636900  0.187120  0.981300  1.0  -0.2048
  C  C545  1  0.715900  0.033060  0.113200  1.0  0.0363
  C  C546  1  0.717500  0.925930  0.202600  1.0  -0.089
  C  C547  1  0.757700  0.094090  0.107400  1.0  -0.1662
  C  C548  1  0.719400  0.888200  0.234700  1.0  0.7399
  C  C549  1  0.814800  0.144730  0.995900  1.0  -0.2201
  C  C550  1  0.607000  0.151890  0.076800  1.0  -0.2249
  C  C551  1  0.771000  0.196140  0.052000  1.0  -0.205
  C  C552  1  0.668100  0.078260  0.034200  1.0  -0.1601
  C  C553  1  0.825000  0.215970  0.044700  1.0  -0.1431
  C  C554  1  0.669900  0.043440  0.060700  1.0  -0.0971
  C  C555  1  0.677900  0.969130  0.120700  1.0  -0.1417
  C  C556  1  0.678300  0.934430  0.149900  1.0  -0.0866
  C  C557  1  0.761200  0.985300  0.194000  1.0  -0.1746
  C  C558  1  0.703100  0.209690  0.323200  1.0  -0.1114
  C  C559  1  0.030000  0.224820  0.248000  1.0  0.0559
  C  C560  1  0.133900  0.269650  0.237500  1.0  -0.1243
  C  C561  1  0.060800  0.241030  0.306100  1.0  -0.128
  C  C562  1  0.421800  0.286250  0.300100  1.0  0.6568
  C  C563  1  0.102200  0.255140  0.179400  1.0  -0.0283
  C  C564  1  0.191600  0.294390  0.231200  1.0  0.7084
  C  C565  1  0.478700  0.263710  0.294600  1.0  -0.0535
  C  C566  1  0.113000  0.262810  0.301500  1.0  -0.0201
  C  C567  1  0.475200  0.225740  0.283900  1.0  -0.0621
  C  C568  1  0.052200  0.232140  0.184400  1.0  -0.1488
  C  C569  1  0.975200  0.200340  0.255100  1.0  0.065
  C  C570  1  0.648400  0.198490  0.289700  1.0  0.034
  C  C571  1  0.529800  0.204420  0.281500  1.0  -0.1152
  C  C572  1  0.871600  0.156900  0.274900  1.0  0.1693
  C  C573  1  0.817300  0.100630  0.316600  1.0  0.1762
  C  C574  1  0.589400  0.221260  0.291100  1.0  0.0457
  C  C575  1  0.647900  0.166850  0.254600  1.0  -0.1281
  C  C576  1  0.844000  0.929680  0.400200  1.0  -0.0286
  C  C577  1  0.818000  0.922640  0.460000  1.0  -0.0534
  C  C578  1  0.868600  0.042550  0.332800  1.0  -0.1135
  C  C579  1  0.925200  0.199360  0.207800  1.0  -0.0797
  C  C580  1  0.974400  0.177810  0.313700  1.0  -0.1528
  C  C581  1  0.756500  0.157510  0.284400  1.0  0.194
  C  C582  1  0.702500  0.145520  0.252600  1.0  -0.1636
  C  C583  1  0.922000  0.156120  0.323500  1.0  -0.1399
  C  C584  1  0.865100  0.076680  0.301900  1.0  -0.2059
  C  C585  1  0.851500  0.963950  0.374000  1.0  -0.1823
  C  C586  1  0.538500  0.279280  0.301500  1.0  -0.061
  C  C587  1  0.871900  0.177810  0.215300  1.0  -0.2159
  C  C588  1  0.807000  0.884890  0.483900  1.0  0.6959
  C  C589  1  0.592400  0.259320  0.299700  1.0  -0.1307
  C  C590  1  0.797900  0.951250  0.495000  1.0  -0.0492
  C  C591  1  0.824800  0.993880  0.408500  1.0  0.058
  C  C592  1  0.824200  0.031310  0.377200  1.0  0.0193
  C  C593  1  0.776800  0.055430  0.389400  1.0  -0.1219
  C  C594  1  0.800900  0.987870  0.471700  1.0  -0.1575
  C  C595  1  0.773300  0.090150  0.360400  1.0  -0.179
  C  C596  1  0.757700  0.189580  0.322800  1.0  -0.1856
  N  N597  1  0.285200  0.187290  0.123700  1.0  -0.3916
  N  N598  1  0.307150  0.188960  0.911510  1.0  -0.3398
  N  N599  1  0.210220  0.186120  0.363210  1.0  -0.3143
  N  N600  1  0.708590  0.359720  0.530800  1.0  -0.1576
  N  N601  1  0.813960  0.364250  0.784200  1.0  -0.2184
  N  N602  1  0.714800  0.687290  0.376300  1.0  -0.391
  N  N603  1  0.692850  0.688960  0.588490  1.0  -0.3392
  N  N604  1  0.789780  0.686120  0.136790  1.0  -0.3148
  N  N605  1  0.291410  0.859720  0.969200  1.0  -0.159
  N  N606  1  0.186040  0.864250  0.715800  1.0  -0.2194
  N  N607  1  0.714800  0.812710  0.876300  1.0  -0.3892
  N  N608  1  0.692850  0.811040  0.088490  1.0  -0.3379
  N  N609  1  0.789780  0.813880  0.636790  1.0  -0.3152
  N  N610  1  0.291410  0.640280  0.469200  1.0  -0.1586
  N  N611  1  0.186040  0.635750  0.215800  1.0  -0.2196
  N  N612  1  0.285200  0.312710  0.623700  1.0  -0.3902
  N  N613  1  0.307150  0.311040  0.411510  1.0  -0.3396
  N  N614  1  0.210220  0.313880  0.863210  1.0  -0.3128
  N  N615  1  0.708590  0.140280  0.030800  1.0  -0.1581
  N  N616  1  0.813960  0.135750  0.284200  1.0  -0.2189
  O  O617  1  0.092090  0.179620  0.455440  1.0  -0.6066
  O  O618  1  0.152390  0.224910  0.494920  1.0  -0.5663
  O  O619  1  0.169700  0.184120  0.106500  1.0  -0.6209
  O  O620  1  0.313520  0.191720  0.609250  1.0  -0.5947
  O  O621  1  0.291870  0.195280  0.496280  1.0  -0.65
  O  O622  1  0.757310  0.616600  0.786480  1.0  -0.6019
  O  O623  1  0.680730  0.633980  0.709400  1.0  -0.6061
  O  O624  1  0.368160  0.227200  0.780710  1.0  -0.572
  O  O625  1  0.227250  0.201620  0.783110  1.0  -0.6014
  O  O626  1  0.426560  0.181840  0.823510  1.0  -0.6134
  O  O627  1  0.197840  0.191600  0.672070  1.0  -0.6249
  O  O628  1  0.799160  0.621680  0.044690  1.0  -0.5465
  O  O629  1  0.809970  0.641960  0.940750  1.0  -0.6646
  O  O630  1  0.907910  0.679620  0.044560  1.0  -0.6062
  O  O631  1  0.847610  0.724910  0.005080  1.0  -0.5648
  O  O632  1  0.830300  0.684120  0.393500  1.0  -0.621
  O  O633  1  0.686480  0.691720  0.890750  1.0  -0.5953
  O  O634  1  0.708130  0.695280  0.003720  1.0  -0.6497
  O  O635  1  0.242690  0.116600  0.713520  1.0  -0.6021
  O  O636  1  0.319270  0.133980  0.790600  1.0  -0.6053
  O  O637  1  0.631840  0.727200  0.719290  1.0  -0.572
  O  O638  1  0.772750  0.701620  0.716890  1.0  -0.6026
  O  O639  1  0.573440  0.681840  0.676490  1.0  -0.6155
  O  O640  1  0.802160  0.691600  0.827930  1.0  -0.6245
  O  O641  1  0.200840  0.121680  0.455310  1.0  -0.5463
  O  O642  1  0.190030  0.141960  0.559250  1.0  -0.6658
  O  O643  1  0.907910  0.820380  0.544560  1.0  -0.6062
  O  O644  1  0.847610  0.775090  0.505080  1.0  -0.5657
  O  O645  1  0.830300  0.815880  0.893500  1.0  -0.6205
  O  O646  1  0.686480  0.808280  0.390750  1.0  -0.5953
  O  O647  1  0.708130  0.804720  0.503720  1.0  -0.6516
  O  O648  1  0.242690  0.383400  0.213520  1.0  -0.6024
  O  O649  1  0.319270  0.366020  0.290600  1.0  -0.606
  O  O650  1  0.631840  0.772800  0.219290  1.0  -0.5712
  O  O651  1  0.772750  0.798380  0.216890  1.0  -0.6023
  O  O652  1  0.573440  0.818160  0.176490  1.0  -0.6136
  O  O653  1  0.802160  0.808400  0.327930  1.0  -0.6238
  O  O654  1  0.200840  0.378320  0.955310  1.0  -0.5475
  O  O655  1  0.190030  0.358040  0.059250  1.0  -0.6661
  O  O656  1  0.092090  0.320380  0.955440  1.0  -0.6073
  O  O657  1  0.152390  0.275090  0.994920  1.0  -0.567
  O  O658  1  0.169700  0.315880  0.606500  1.0  -0.6195
  O  O659  1  0.313520  0.308280  0.109250  1.0  -0.5961
  O  O660  1  0.291870  0.304720  0.996280  1.0  -0.6517
  O  O661  1  0.757310  0.883400  0.286480  1.0  -0.6013
  O  O662  1  0.680730  0.866020  0.209400  1.0  -0.6069
  O  O663  1  0.368160  0.272800  0.280710  1.0  -0.5707
  O  O664  1  0.227250  0.298380  0.283110  1.0  -0.6022
  O  O665  1  0.426560  0.318160  0.323510  1.0  -0.6105
  O  O666  1  0.197840  0.308400  0.172070  1.0  -0.6238
  O  O667  1  0.799160  0.878320  0.544690  1.0  -0.5458
  O  O668  1  0.809970  0.858040  0.440750  1.0  -0.665
