# generated using pymatgen
data_Zn3H56C88(NO2)6
_symmetry_space_group_name_H-M   'P 1'
_cell_length_a   19.61200000
_cell_length_b   20.64000000
_cell_length_c   21.56700000
_cell_angle_alpha   115.92200000
_cell_angle_beta   98.94400000
_cell_angle_gamma   100.42100000
_symmetry_Int_Tables_number   1
_chemical_formula_structural   Zn3H56C88(NO2)6
_chemical_formula_sum   'Zn6 H112 C176 N12 O24'
_cell_volume   7445.88551484
_cell_formula_units_Z   2
loop_
 _symmetry_equiv_pos_site_id
 _symmetry_equiv_pos_as_xyz
  1  'x, y, z'
loop_
 _atom_site_type_symbol
 _atom_site_label
 _atom_site_symmetry_multiplicity
 _atom_site_fract_x
 _atom_site_fract_y
 _atom_site_fract_z
 _atom_site_occupancy
 _atom_site_charge
  Zn  Zn1  1  0.764750  0.202500  0.090870  1.0  0.9798
  Zn  Zn2  1  0.591830  0.129180  0.092380  1.0  0.9565
  Zn  Zn3  1  0.926330  0.164930  0.050370  1.0  0.9292
  Zn  Zn4  1  0.235250  0.797500  0.909130  1.0  0.9798
  Zn  Zn5  1  0.408170  0.870820  0.907620  1.0  0.9572
  Zn  Zn6  1  0.073670  0.835070  0.949630  1.0  0.9286
  H  H7  1  0.563400  0.330600  0.199300  1.0  0.0998
  H  H8  1  0.552100  0.446500  0.272700  1.0  0.1125
  H  H9  1  0.765100  0.531100  0.333100  1.0  0.0979
  H  H10  1  0.777800  0.414600  0.263900  1.0  0.0982
  H  H11  1  0.569600  0.551500  0.391900  1.0  0.1161
  H  H12  1  0.724800  0.631600  0.321900  1.0  0.0954
  H  H13  1  0.602900  0.953800  0.149900  1.0  0.1148
  H  H14  1  0.602700  0.884100  0.207800  1.0  0.1115
  H  H15  1  0.634500  0.068300  0.395300  1.0  0.1163
  H  H16  1  0.634600  0.138900  0.337900  1.0  0.1125
  H  H17  1  0.562600  0.822400  0.262100  1.0  0.1132
  H  H18  1  0.559800  0.753500  0.321300  1.0  0.1201
  H  H19  1  0.680100  0.004800  0.441800  1.0  0.1163
  H  H20  1  0.535400  0.008200  0.862000  1.0  0.0979
  H  H21  1  0.524900  0.937600  0.742000  1.0  0.0989
  H  H22  1  0.736800  0.962100  0.785200  1.0  0.0939
  H  H23  1  0.747100  0.030700  0.904400  1.0  0.1108
  H  H24  1  0.545100  0.936100  0.637000  1.0  0.1023
  H  H25  1  0.542600  0.879400  0.519400  1.0  0.1197
  H  H26  1  0.694100  0.785800  0.559800  1.0  0.1092
  H  H27  1  0.698000  0.845200  0.678500  1.0  0.1106
  H  H28  1  0.678400  0.932900  0.499400  1.0  0.0967
  H  H29  1  0.708700  0.747900  0.377700  1.0  0.0986
  H  H30  1  0.555100  0.669800  0.449500  1.0  0.1199
  H  H31  1  0.453400  0.047200  0.975800  1.0  0.1
  H  H32  1  0.493500  0.190800  0.179800  1.0  0.0872
  H  H33  1  0.376700  0.189300  0.167700  1.0  0.1302
  H  H34  1  0.332900  0.039200  0.960400  1.0  0.1274
  H  H35  1  0.010400  0.060100  0.974800  1.0  0.0765
  H  H36  1  0.126600  0.046900  0.990700  1.0  0.1161
  H  H37  1  0.064400  0.226800  0.165200  1.0  0.0883
  H  H38  1  0.177100  0.214500  0.184800  1.0  0.1192
  H  H39  1  0.937700  0.039900  0.152700  1.0  0.1012
  H  H40  1  0.941600  0.971000  0.211700  1.0  0.1132
  H  H41  1  0.951700  0.922700  0.274800  1.0  0.1113
  H  H42  1  0.762400  0.943200  0.311400  1.0  0.1266
  H  H43  1  0.991800  0.408400  0.246700  1.0  0.1104
  H  H44  1  0.981100  0.528700  0.310800  1.0  0.1124
  H  H45  1  0.807100  0.479100  0.158700  1.0  0.1123
  H  H46  1  0.818300  0.359000  0.095400  1.0  0.1075
  H  H47  1  0.933100  0.615000  0.381900  1.0  0.1115
  H  H48  1  0.882700  0.968200  0.835200  1.0  0.0974
  H  H49  1  0.874800  0.898700  0.716800  1.0  0.1117
  H  H50  1  0.894500  0.082800  0.695000  1.0  0.108
  H  H51  1  0.907400  0.153600  0.815900  1.0  0.1116
  H  H52  1  0.830500  0.835700  0.601600  1.0  0.1122
  H  H53  1  0.821200  0.767600  0.482000  1.0  0.1102
  H  H54  1  0.922500  0.953800  0.481900  1.0  0.1084
  H  H55  1  0.926500  0.023200  0.599600  1.0  0.107
  H  H56  1  0.955500  0.850400  0.331700  1.0  0.1306
  H  H57  1  0.765600  0.871600  0.366000  1.0  0.1041
  H  H58  1  0.921200  0.733900  0.443300  1.0  0.1114
  H  H59  1  0.834500  0.601400  0.198500  1.0  0.1141
  H  H60  1  0.824100  0.719400  0.259900  1.0  0.1051
  H  H61  1  0.766500  0.092500  0.216200  1.0  0.0937
  H  H62  1  0.768700  0.021200  0.273900  1.0  0.1118
  H  H63  1  0.436600  0.669400  0.800700  1.0  0.0999
  H  H64  1  0.447900  0.553500  0.727300  1.0  0.1119
  H  H65  1  0.234900  0.468900  0.666900  1.0  0.0974
  H  H66  1  0.222200  0.585400  0.736100  1.0  0.0987
  H  H67  1  0.430400  0.448500  0.608100  1.0  0.1159
  H  H68  1  0.275200  0.368400  0.678100  1.0  0.096
  H  H69  1  0.397100  0.046200  0.850100  1.0  0.1148
  H  H70  1  0.397300  0.115900  0.792200  1.0  0.1109
  H  H71  1  0.365500  0.931700  0.604700  1.0  0.116
  H  H72  1  0.365400  0.861100  0.662100  1.0  0.1122
  H  H73  1  0.437400  0.177600  0.737900  1.0  0.1145
  H  H74  1  0.440200  0.246500  0.678700  1.0  0.1197
  H  H75  1  0.319900  0.995200  0.558200  1.0  0.1173
  H  H76  1  0.464600  0.991800  0.138000  1.0  0.0984
  H  H77  1  0.475100  0.062400  0.258000  1.0  0.0989
  H  H78  1  0.263200  0.037900  0.214800  1.0  0.0942
  H  H79  1  0.252900  0.969300  0.095600  1.0  0.1106
  H  H80  1  0.454900  0.063900  0.363000  1.0  0.1025
  H  H81  1  0.457400  0.120600  0.480600  1.0  0.1194
  H  H82  1  0.305900  0.214200  0.440200  1.0  0.1085
  H  H83  1  0.302000  0.154800  0.321500  1.0  0.1104
  H  H84  1  0.321600  0.067100  0.500600  1.0  0.0967
  H  H85  1  0.291300  0.252100  0.622300  1.0  0.0982
  H  H86  1  0.444900  0.330200  0.550500  1.0  0.1195
  H  H87  1  0.546600  0.952800  0.024200  1.0  0.1001
  H  H88  1  0.506500  0.809200  0.820200  1.0  0.0868
  H  H89  1  0.623300  0.810700  0.832300  1.0  0.1295
  H  H90  1  0.667100  0.960800  0.039600  1.0  0.1278
  H  H91  1  0.989600  0.939900  0.025200  1.0  0.0759
  H  H92  1  0.873400  0.953100  0.009300  1.0  0.1154
  H  H93  1  0.935600  0.773200  0.834800  1.0  0.0878
  H  H94  1  0.822900  0.785500  0.815200  1.0  0.1172
  H  H95  1  0.062300  0.960100  0.847300  1.0  0.1011
  H  H96  1  0.058400  0.029000  0.788300  1.0  0.1134
  H  H97  1  0.048300  0.077300  0.725200  1.0  0.1119
  H  H98  1  0.237600  0.056800  0.688600  1.0  0.127
  H  H99  1  0.008200  0.591600  0.753300  1.0  0.1103
  H  H100  1  0.018900  0.471300  0.689200  1.0  0.1124
  H  H101  1  0.192900  0.520900  0.841300  1.0  0.1126
  H  H102  1  0.181700  0.641000  0.904600  1.0  0.1086
  H  H103  1  0.066900  0.385000  0.618100  1.0  0.1122
  H  H104  1  0.117300  0.031800  0.164800  1.0  0.0975
  H  H105  1  0.125200  0.101300  0.283200  1.0  0.1119
  H  H106  1  0.105500  0.917200  0.305000  1.0  0.107
  H  H107  1  0.092600  0.846400  0.184100  1.0  0.1112
  H  H108  1  0.169500  0.164300  0.398400  1.0  0.1128
  H  H109  1  0.178800  0.232400  0.518000  1.0  0.1093
  H  H110  1  0.077500  0.046200  0.518100  1.0  0.1083
  H  H111  1  0.073500  0.976800  0.400400  1.0  0.1074
  H  H112  1  0.044500  0.149600  0.668300  1.0  0.1293
  H  H113  1  0.234400  0.128400  0.634000  1.0  0.1039
  H  H114  1  0.078800  0.266100  0.556700  1.0  0.1111
  H  H115  1  0.165500  0.398600  0.801500  1.0  0.1151
  H  H116  1  0.175900  0.280600  0.740100  1.0  0.1038
  H  H117  1  0.233500  0.907500  0.783800  1.0  0.0936
  H  H118  1  0.231300  0.978800  0.726100  1.0  0.1107
  C  C119  1  0.678500  0.286410  0.172390  1.0  0.7312
  C  C120  1  0.671830  0.360590  0.222580  1.0  -0.1561
  C  C121  1  0.604320  0.371000  0.226300  1.0  -0.0411
  C  C122  1  0.597580  0.440700  0.269600  1.0  -0.1165
  C  C123  1  0.657330  0.502370  0.308780  1.0  0.0541
  C  C124  1  0.724260  0.490720  0.305990  1.0  -0.127
  C  C125  1  0.732080  0.421070  0.264200  1.0  -0.0556
  C  C126  1  0.649360  0.578640  0.349800  1.0  0.0545
  C  C127  1  0.597800  0.591030  0.389100  1.0  -0.1445
  C  C128  1  0.690200  0.638780  0.347260  1.0  -0.1275
  C  C129  1  0.615030  0.100400  0.200890  1.0  0.6571
  C  C130  1  0.618910  0.054000  0.237310  1.0  -0.1469
  C  C131  1  0.609400  0.977030  0.199170  1.0  -0.0893
  C  C132  1  0.609690  0.935500  0.234340  1.0  -0.0946
  C  C133  1  0.620030  0.967000  0.308450  1.0  0.0517
  C  C134  1  0.628610  0.045200  0.346150  1.0  -0.1342
  C  C135  1  0.628420  0.087500  0.311750  1.0  -0.0684
  C  C136  1  0.620600  0.922000  0.345000  1.0  0.0341
  C  C137  1  0.585900  0.846000  0.310600  1.0  -0.1348
  C  C138  1  0.584700  0.804200  0.346000  1.0  -0.1954
  C  C139  1  0.655600  0.954000  0.416500  1.0  -0.1767
  C  C140  1  0.648840  0.073300  0.973590  1.0  0.6803
  C  C141  1  0.641880  0.026970  0.895210  1.0  -0.1233
  C  C142  1  0.575930  0.998790  0.846510  1.0  -0.0204
  C  C143  1  0.569780  0.956580  0.774610  1.0  -0.1255
  C  C144  1  0.630120  0.941960  0.750070  1.0  0.0614
  C  C145  1  0.695940  0.971000  0.800410  1.0  -0.0947
  C  C146  1  0.702340  0.012320  0.871570  1.0  -0.0384
  C  C147  1  0.623330  0.899820  0.672110  1.0  0.0919
  C  C148  1  0.576100  0.906830  0.621910  1.0  -0.1096
  C  C149  1  0.573800  0.872200  0.551300  1.0  -0.2234
  C  C150  1  0.617700  0.826090  0.526500  1.0  0.1765
  C  C151  1  0.664400  0.816590  0.575420  1.0  -0.1914
  C  C152  1  0.666800  0.852430  0.646500  1.0  -0.1239
  C  C153  1  0.619800  0.836500  0.417500  1.0  0.2256
  C  C154  1  0.654400  0.910100  0.451200  1.0  -0.1779
  C  C155  1  0.680900  0.708600  0.381070  1.0  -0.2104
  C  C156  1  0.589200  0.661900  0.423600  1.0  -0.1896
  C  C157  1  0.437100  0.075270  0.014690  1.0  0.1566
  C  C158  1  0.460820  0.160640  0.135170  1.0  0.1576
  C  C159  1  0.391400  0.159400  0.128400  1.0  -0.1371
  C  C160  1  0.341270  0.113100  0.062200  1.0  0.0944
  C  C161  1  0.365150  0.070720  0.005100  1.0  -0.1158
  C  C162  1  0.166200  0.135300  0.086900  1.0  0.2054
  C  C163  1  0.630800  0.721700  0.420180  1.0  0.1887
  C  C164  1  0.045200  0.094700  0.016900  1.0  0.1574
  C  C165  1  0.115600  0.086200  0.026300  1.0  -0.1386
  C  C166  1  0.077100  0.191200  0.127700  1.0  0.1704
  C  C167  1  0.145100  0.184600  0.139700  1.0  -0.1463
  C  C168  1  0.849870  0.119440  0.141000  1.0  0.7078
  C  C169  1  0.851380  0.073720  0.178570  1.0  -0.1166
  C  C170  1  0.903600  0.036700  0.177500  1.0  -0.0539
  C  C171  1  0.905600  0.994900  0.212800  1.0  -0.1136
  C  C172  1  0.856030  0.987410  0.249680  1.0  0.0106
  C  C173  1  0.857610  0.941540  0.285490  1.0  0.0107
  C  C174  1  0.913700  0.912900  0.293300  1.0  -0.1001
  C  C175  1  0.801800  0.924700  0.315000  1.0  -0.1018
  C  C176  1  0.913800  0.295500  0.124900  1.0  0.6724
  C  C177  1  0.905640  0.371700  0.164900  1.0  -0.1051
  C  C178  1  0.954100  0.422300  0.228600  1.0  -0.0878
  C  C179  1  0.947700  0.495070  0.267300  1.0  -0.1094
  C  C180  1  0.844800  0.465420  0.177100  1.0  -0.1349
  C  C181  1  0.851400  0.392890  0.138920  1.0  -0.0229
  C  C182  1  0.886070  0.593740  0.283200  1.0  0.0549
  C  C183  1  0.910870  0.635490  0.356490  1.0  -0.1256
  C  C184  1  0.904500  0.113900  0.916700  1.0  0.6458
  C  C185  1  0.895900  0.068800  0.838600  1.0  -0.1388
  C  C186  1  0.885970  0.991900  0.807290  1.0  -0.0643
  C  C187  1  0.880890  0.950050  0.735980  1.0  -0.1133
  C  C188  1  0.884530  0.982060  0.692260  1.0  0.0643
  C  C189  1  0.893200  0.059500  0.723300  1.0  -0.132
  C  C190  1  0.900000  0.102000  0.796000  1.0  -0.0443
  C  C191  1  0.880440  0.938170  0.616140  1.0  0.0845
  C  C192  1  0.848650  0.860260  0.577810  1.0  -0.1198
  C  C193  1  0.843450  0.818960  0.505930  1.0  -0.2122
  C  C194  1  0.871060  0.853390  0.469280  1.0  0.2095
  C  C195  1  0.903100  0.930090  0.505750  1.0  -0.1439
  C  C196  1  0.906400  0.971500  0.576800  1.0  -0.1155
  C  C197  1  0.860800  0.855790  0.356010  1.0  0.1911
  C  C198  1  0.916600  0.869600  0.327800  1.0  -0.258
  C  C199  1  0.803900  0.882400  0.348200  1.0  -0.1831
  C  C200  1  0.871300  0.739440  0.358390  1.0  0.1588
  C  C201  1  0.903750  0.707410  0.393800  1.0  -0.1747
  C  C202  1  0.852600  0.627650  0.247960  1.0  -0.1513
  C  C203  1  0.846100  0.698330  0.284930  1.0  -0.1684
  C  C204  1  0.801830  0.067700  0.214800  1.0  -0.0154
  C  C205  1  0.893700  0.516890  0.241910  1.0  0.069
  C  C206  1  0.803500  0.024900  0.249800  1.0  -0.1197
  C  C207  1  0.321500  0.713590  0.827610  1.0  0.7316
  C  C208  1  0.328170  0.639410  0.777420  1.0  -0.1565
  C  C209  1  0.395680  0.629000  0.773700  1.0  -0.0394
  C  C210  1  0.402420  0.559300  0.730400  1.0  -0.1142
  C  C211  1  0.342670  0.497630  0.691220  1.0  0.0552
  C  C212  1  0.275740  0.509280  0.694010  1.0  -0.126
  C  C213  1  0.267920  0.578930  0.735800  1.0  -0.0564
  C  C214  1  0.350640  0.421360  0.650200  1.0  0.0552
  C  C215  1  0.402200  0.408970  0.610900  1.0  -0.1445
  C  C216  1  0.309800  0.361220  0.652740  1.0  -0.1281
  C  C217  1  0.384970  0.899600  0.799110  1.0  0.6556
  C  C218  1  0.381090  0.946000  0.762690  1.0  -0.1482
  C  C219  1  0.390600  0.022970  0.800830  1.0  -0.0904
  C  C220  1  0.390310  0.064500  0.765660  1.0  -0.0958
  C  C221  1  0.379970  0.033000  0.691550  1.0  0.0511
  C  C222  1  0.371390  0.954800  0.653850  1.0  -0.1346
  C  C223  1  0.371580  0.912500  0.688250  1.0  -0.0672
  C  C224  1  0.379400  0.078000  0.655000  1.0  0.0333
  C  C225  1  0.414100  0.154000  0.689400  1.0  -0.1324
  C  C226  1  0.415300  0.195800  0.654000  1.0  -0.1922
  C  C227  1  0.344400  0.046000  0.583500  1.0  -0.1763
  C  C228  1  0.351160  0.926700  0.026410  1.0  0.678
  C  C229  1  0.358120  0.973030  0.104790  1.0  -0.1227
  C  C230  1  0.424070  0.001210  0.153490  1.0  -0.0194
  C  C231  1  0.430220  0.043420  0.225390  1.0  -0.1257
  C  C232  1  0.369880  0.058040  0.249930  1.0  0.0623
  C  C233  1  0.304060  0.029000  0.199590  1.0  -0.0956
  C  C234  1  0.297660  0.987680  0.128430  1.0  -0.0399
  C  C235  1  0.376670  0.100180  0.327890  1.0  0.0916
  C  C236  1  0.423900  0.093170  0.378090  1.0  -0.1105
  C  C237  1  0.426200  0.127800  0.448700  1.0  -0.2205
  C  C238  1  0.382300  0.173910  0.473500  1.0  0.1765
  C  C239  1  0.335600  0.183410  0.424580  1.0  -0.1906
  C  C240  1  0.333200  0.147570  0.353500  1.0  -0.1252
  C  C241  1  0.380200  0.163500  0.582500  1.0  0.2272
  C  C242  1  0.345600  0.089900  0.548800  1.0  -0.179
  C  C243  1  0.319100  0.291400  0.618930  1.0  -0.2118
  C  C244  1  0.410800  0.338100  0.576400  1.0  -0.1869
  C  C245  1  0.562900  0.924730  0.985310  1.0  0.1575
  C  C246  1  0.539180  0.839360  0.864830  1.0  0.1577
  C  C247  1  0.608600  0.840600  0.871600  1.0  -0.1375
  C  C248  1  0.658730  0.886900  0.937800  1.0  0.0911
  C  C249  1  0.634850  0.929280  0.994900  1.0  -0.1154
  C  C250  1  0.833800  0.864700  0.913100  1.0  0.205
  C  C251  1  0.369200  0.278300  0.579820  1.0  0.1894
  C  C252  1  0.954800  0.905300  0.983100  1.0  0.1584
  C  C253  1  0.884400  0.913800  0.973700  1.0  -0.1392
  C  C254  1  0.922900  0.808800  0.872300  1.0  0.1711
  C  C255  1  0.854900  0.815400  0.860300  1.0  -0.1472
  C  C256  1  0.150130  0.880560  0.859000  1.0  0.7074
  C  C257  1  0.148620  0.926280  0.821430  1.0  -0.1132
  C  C258  1  0.096400  0.963300  0.822500  1.0  -0.0533
  C  C259  1  0.094400  0.005100  0.787200  1.0  -0.1124
  C  C260  1  0.143970  0.012590  0.750320  1.0  0.0114
  C  C261  1  0.142390  0.058460  0.714510  1.0  0.0101
  C  C262  1  0.086300  0.087100  0.706700  1.0  -0.1001
  C  C263  1  0.198200  0.075300  0.685000  1.0  -0.1025
  C  C264  1  0.086200  0.704500  0.875100  1.0  0.6733
  C  C265  1  0.094360  0.628300  0.835100  1.0  -0.1066
  C  C266  1  0.045900  0.577700  0.771400  1.0  -0.09
  C  C267  1  0.052300  0.504930  0.732700  1.0  -0.1102
  C  C268  1  0.155200  0.534580  0.822900  1.0  -0.1345
  C  C269  1  0.148600  0.607110  0.861080  1.0  -0.0233
  C  C270  1  0.113930  0.406260  0.716800  1.0  0.0559
  C  C271  1  0.089130  0.364510  0.643510  1.0  -0.1274
  C  C272  1  0.095500  0.886100  0.083300  1.0  0.648
  C  C273  1  0.104100  0.931200  0.161400  1.0  -0.1406
  C  C274  1  0.114030  0.008100  0.192710  1.0  -0.0651
  C  C275  1  0.119110  0.049950  0.264020  1.0  -0.1139
  C  C276  1  0.115470  0.017940  0.307740  1.0  0.0645
  C  C277  1  0.106800  0.940500  0.276700  1.0  -0.1302
  C  C278  1  0.100000  0.898000  0.204000  1.0  -0.0436
  C  C279  1  0.119560  0.061830  0.383860  1.0  0.0855
  C  C280  1  0.151350  0.139740  0.422190  1.0  -0.119
  C  C281  1  0.156550  0.181040  0.494070  1.0  -0.2149
  C  C282  1  0.128940  0.146610  0.530720  1.0  0.2088
  C  C283  1  0.096900  0.069910  0.494250  1.0  -0.1444
  C  C284  1  0.093600  0.028500  0.423200  1.0  -0.1159
  C  C285  1  0.139200  0.144210  0.643990  1.0  0.1912
  C  C286  1  0.083400  0.130400  0.672200  1.0  -0.2566
  C  C287  1  0.196100  0.117600  0.651800  1.0  -0.1847
  C  C288  1  0.128700  0.260560  0.641610  1.0  0.1593
  C  C289  1  0.096250  0.292590  0.606200  1.0  -0.1783
  C  C290  1  0.147400  0.372350  0.752040  1.0  -0.1547
  C  C291  1  0.153900  0.301670  0.715070  1.0  -0.1684
  C  C292  1  0.198170  0.932300  0.785200  1.0  -0.018
  C  C293  1  0.106300  0.483110  0.758090  1.0  0.0707
  C  C294  1  0.196500  0.975100  0.750200  1.0  -0.1208
  N  N295  1  0.484800  0.119680  0.079400  1.0  -0.3391
  N  N296  1  0.264400  0.107740  0.048310  1.0  -0.195
  N  N297  1  0.242040  0.135700  0.100700  1.0  -0.1882
  N  N298  1  0.027500  0.149210  0.064840  1.0  -0.321
  N  N299  1  0.617400  0.793240  0.452680  1.0  -0.1646
  N  N300  1  0.864060  0.813420  0.394000  1.0  -0.1937
  N  N301  1  0.515200  0.880320  0.920600  1.0  -0.3407
  N  N302  1  0.735600  0.892260  0.951690  1.0  -0.1944
  N  N303  1  0.757960  0.864300  0.899300  1.0  -0.1869
  N  N304  1  0.972500  0.850790  0.935160  1.0  -0.3204
  N  N305  1  0.382600  0.206760  0.547320  1.0  -0.1633
  N  N306  1  0.135940  0.186580  0.606000  1.0  -0.1948
  O  O307  1  0.620910  0.237120  0.131620  1.0  -0.6159
  O  O308  1  0.740630  0.278830  0.171560  1.0  -0.595
  O  O309  1  0.617090  0.068790  0.134820  1.0  -0.5949
  O  O310  1  0.710760  0.099300  0.016190  1.0  -0.6167
  O  O311  1  0.591710  0.082760  0.991230  1.0  -0.5833
  O  O312  1  0.607780  0.163850  0.231850  1.0  -0.5704
  O  O313  1  0.809120  0.161550  0.152410  1.0  -0.6125
  O  O314  1  0.859970  0.242440  0.077110  1.0  -0.6541
  O  O315  1  0.972890  0.282470  0.134490  1.0  -0.5598
  O  O316  1  0.885350  0.080200  0.950580  1.0  -0.575
  O  O317  1  0.890680  0.111060  0.100190  1.0  -0.6041
  O  O318  1  0.931980  0.182250  0.947970  1.0  -0.5757
  O  O319  1  0.379090  0.762880  0.868380  1.0  -0.6143
  O  O320  1  0.259370  0.721170  0.828440  1.0  -0.5943
  O  O321  1  0.382910  0.931210  0.865180  1.0  -0.5951
  O  O322  1  0.289240  0.900700  0.983810  1.0  -0.6173
  O  O323  1  0.408290  0.917240  0.008770  1.0  -0.5848
  O  O324  1  0.392220  0.836150  0.768150  1.0  -0.5725
  O  O325  1  0.190880  0.838450  0.847590  1.0  -0.6116
  O  O326  1  0.140030  0.757560  0.922890  1.0  -0.6527
  O  O327  1  0.027110  0.717530  0.865510  1.0  -0.5588
  O  O328  1  0.114650  0.919800  0.049420  1.0  -0.5749
  O  O329  1  0.109320  0.888940  0.899810  1.0  -0.6042
  O  O330  1  0.068020  0.817750  0.052030  1.0  -0.5774
