# generated using pymatgen
data_Zn5H34C36N12O13
_symmetry_space_group_name_H-M   'P 1'
_cell_length_a   15.47750000
_cell_length_b   19.13130000
_cell_length_c   25.54400000
_cell_angle_alpha   90.00000000
_cell_angle_beta   90.00000000
_cell_angle_gamma   90.00000000
_symmetry_Int_Tables_number   1
_chemical_formula_structural   Zn5H34C36N12O13
_chemical_formula_sum   'Zn20 H136 C144 N48 O52'
_cell_volume   7563.69834824
_cell_formula_units_Z   4
loop_
 _symmetry_equiv_pos_site_id
 _symmetry_equiv_pos_as_xyz
  1  'x, y, z'
loop_
 _atom_site_type_symbol
 _atom_site_label
 _atom_site_symmetry_multiplicity
 _atom_site_fract_x
 _atom_site_fract_y
 _atom_site_fract_z
 _atom_site_occupancy
 _atom_site_charge
  Zn  Zn1  1  0.443260  0.661280  0.517020  1.0  0.9612
  Zn  Zn2  1  0.434030  0.837070  0.518010  1.0  0.8873
  Zn  Zn3  1  0.308360  0.741040  0.441990  1.0  0.875
  Zn  Zn4  1  0.041000  0.039390  0.797450  1.0  0.9244
  Zn  Zn5  1  0.982340  0.969350  0.700180  1.0  0.9257
  Zn  Zn6  1  0.056740  0.338720  0.017020  1.0  0.961
  Zn  Zn7  1  0.065970  0.162930  0.018010  1.0  0.8883
  Zn  Zn8  1  0.191640  0.258960  0.941990  1.0  0.8755
  Zn  Zn9  1  0.459000  0.960610  0.297450  1.0  0.9249
  Zn  Zn10  1  0.517660  0.030650  0.200180  1.0  0.926
  Zn  Zn11  1  0.556740  0.161280  0.982980  1.0  0.9603
  Zn  Zn12  1  0.565970  0.337070  0.981990  1.0  0.888
  Zn  Zn13  1  0.691640  0.241040  0.058010  1.0  0.8754
  Zn  Zn14  1  0.959000  0.539390  0.702550  1.0  0.9248
  Zn  Zn15  1  0.017660  0.469350  0.799820  1.0  0.9257
  Zn  Zn16  1  0.943260  0.838720  0.482980  1.0  0.9604
  Zn  Zn17  1  0.934030  0.662930  0.481990  1.0  0.8861
  Zn  Zn18  1  0.808360  0.758960  0.558010  1.0  0.8751
  Zn  Zn19  1  0.541000  0.460610  0.202550  1.0  0.9247
  Zn  Zn20  1  0.482340  0.530650  0.299820  1.0  0.9259
  H  H21  1  0.614900  0.595700  0.540800  1.0  0.1422
  H  H22  1  0.691000  0.619300  0.577200  1.0  0.1486
  H  H23  1  0.703800  0.617900  0.516400  1.0  0.1457
  H  H24  1  0.685300  0.898500  0.511400  1.0  0.1495
  H  H25  1  0.697100  0.891400  0.572100  1.0  0.1517
  H  H26  1  0.608000  0.915200  0.549100  1.0  0.1336
  H  H27  1  0.529500  0.957900  0.465900  1.0  0.1384
  H  H28  1  0.489100  0.013700  0.428200  1.0  0.1359
  H  H29  1  0.564500  0.965700  0.408700  1.0  0.1405
  H  H30  1  0.272800  0.794100  0.330900  1.0  0.1393
  H  H31  1  0.345900  0.816100  0.291800  1.0  0.1379
  H  H32  1  0.273800  0.869800  0.307400  1.0  0.1409
  H  H33  1  0.598600  0.561400  0.422000  1.0  0.1405
  H  H34  1  0.544100  0.493500  0.412600  1.0  0.1541
  H  H35  1  0.542500  0.530200  0.467500  1.0  0.1401
  H  H36  1  0.273500  0.678600  0.332000  1.0  0.1422
  H  H37  1  0.277400  0.599800  0.315300  1.0  0.1437
  H  H38  1  0.343700  0.653300  0.292000  1.0  0.143
  H  H39  1  0.786400  0.060200  0.869600  1.0  0.1249
  H  H40  1  0.712500  0.012300  0.723400  1.0  0.1078
  H  H41  1  0.535000  0.059500  0.830500  1.0  0.1198
  H  H42  1  0.248700  0.921900  0.639900  1.0  0.1154
  H  H43  1  0.273200  0.101900  0.720600  1.0  0.1111
  H  H44  1  0.452900  0.048300  0.613900  1.0  0.1193
  H  H45  1  0.010300  0.255300  0.737100  1.0  0.11
  H  H46  1  0.976500  0.359600  0.601800  1.0  0.1165
  H  H47  1  0.999900  0.149900  0.600300  1.0  0.1163
  H  H48  1  0.561600  0.010000  0.701700  1.0  0.3511
  H  H49  1  0.494700  0.028600  0.741300  1.0  0.3406
  H  H50  1  0.394700  0.174500  0.704500  1.0  0.3535
  H  H51  1  0.462300  0.155900  0.665400  1.0  0.3581
  H  H52  1  0.988600  0.217700  0.519300  1.0  0.377
  H  H53  1  0.984000  0.295500  0.520200  1.0  0.377
  H  H54  1  0.326000  0.754100  0.532500  1.0  0.4811
  H  H55  1  0.885100  0.404300  0.040800  1.0  0.1417
  H  H56  1  0.809000  0.380700  0.077200  1.0  0.1476
  H  H57  1  0.796200  0.382100  0.016400  1.0  0.1462
  H  H58  1  0.814700  0.101500  0.011400  1.0  0.1493
  H  H59  1  0.802900  0.108600  0.072100  1.0  0.1521
  H  H60  1  0.892000  0.084800  0.049100  1.0  0.1336
  H  H61  1  0.970500  0.042100  0.965900  1.0  0.1401
  H  H62  1  0.010900  0.986300  0.928200  1.0  0.134
  H  H63  1  0.935500  0.034300  0.908700  1.0  0.14
  H  H64  1  0.227200  0.205900  0.830900  1.0  0.14
  H  H65  1  0.154100  0.183900  0.791800  1.0  0.138
  H  H66  1  0.226200  0.130200  0.807400  1.0  0.1401
  H  H67  1  0.901400  0.438600  0.922000  1.0  0.1403
  H  H68  1  0.955900  0.506500  0.912600  1.0  0.1547
  H  H69  1  0.957500  0.469800  0.967500  1.0  0.14
  H  H70  1  0.226500  0.321400  0.832000  1.0  0.1417
  H  H71  1  0.222600  0.400200  0.815300  1.0  0.1437
  H  H72  1  0.156300  0.346700  0.792000  1.0  0.1431
  H  H73  1  0.713600  0.939800  0.369600  1.0  0.1244
  H  H74  1  0.787500  0.987700  0.223400  1.0  0.1075
  H  H75  1  0.965000  0.940500  0.330500  1.0  0.1196
  H  H76  1  0.251300  0.078100  0.139900  1.0  0.1151
  H  H77  1  0.226800  0.898100  0.220600  1.0  0.1106
  H  H78  1  0.047100  0.951700  0.113900  1.0  0.1192
  H  H79  1  0.489700  0.744700  0.237100  1.0  0.1098
  H  H80  1  0.523500  0.640400  0.101800  1.0  0.1163
  H  H81  1  0.500100  0.850100  0.100300  1.0  0.1166
  H  H82  1  0.938400  0.990000  0.201700  1.0  0.3506
  H  H83  1  0.005300  0.971400  0.241300  1.0  0.339
  H  H84  1  0.105300  0.825500  0.204500  1.0  0.3538
  H  H85  1  0.037700  0.844100  0.165400  1.0  0.359
  H  H86  1  0.511400  0.782300  0.019300  1.0  0.3721
  H  H87  1  0.516000  0.704500  0.020200  1.0  0.3821
  H  H88  1  0.174000  0.245900  0.032500  1.0  0.4815
  H  H89  1  0.385100  0.095700  0.959200  1.0  0.142
  H  H90  1  0.309000  0.119300  0.922800  1.0  0.1486
  H  H91  1  0.296200  0.117900  0.983600  1.0  0.1462
  H  H92  1  0.314700  0.398500  0.988600  1.0  0.1497
  H  H93  1  0.302900  0.391400  0.927900  1.0  0.1512
  H  H94  1  0.392000  0.415200  0.950900  1.0  0.1328
  H  H95  1  0.470500  0.457900  0.034100  1.0  0.1378
  H  H96  1  0.510900  0.513700  0.071800  1.0  0.1354
  H  H97  1  0.435500  0.465700  0.091300  1.0  0.1397
  H  H98  1  0.727200  0.294100  0.169100  1.0  0.1403
  H  H99  1  0.654100  0.316100  0.208200  1.0  0.1384
  H  H100  1  0.726200  0.369800  0.192600  1.0  0.1403
  H  H101  1  0.401400  0.061400  0.078000  1.0  0.1403
  H  H102  1  0.455900  0.993500  0.087400  1.0  0.1537
  H  H103  1  0.457500  0.030200  0.032500  1.0  0.1398
  H  H104  1  0.726500  0.178600  0.168000  1.0  0.1414
  H  H105  1  0.722600  0.099800  0.184700  1.0  0.1434
  H  H106  1  0.656300  0.153300  0.208000  1.0  0.1426
  H  H107  1  0.213600  0.560200  0.630400  1.0  0.1246
  H  H108  1  0.287500  0.512300  0.776600  1.0  0.1063
  H  H109  1  0.465000  0.559500  0.669500  1.0  0.1198
  H  H110  1  0.751300  0.421900  0.860100  1.0  0.1151
  H  H111  1  0.726800  0.601900  0.779400  1.0  0.1119
  H  H112  1  0.547100  0.548300  0.886100  1.0  0.1191
  H  H113  1  0.989700  0.755300  0.762900  1.0  0.1104
  H  H114  1  0.023500  0.859600  0.898200  1.0  0.1152
  H  H115  1  0.000100  0.649900  0.899700  1.0  0.1167
  H  H116  1  0.438400  0.510000  0.798300  1.0  0.3511
  H  H117  1  0.505300  0.528600  0.758700  1.0  0.339
  H  H118  1  0.605300  0.674500  0.795500  1.0  0.3534
  H  H119  1  0.537700  0.655900  0.834600  1.0  0.3606
  H  H120  1  0.011400  0.717700  0.980700  1.0  0.3772
  H  H121  1  0.016000  0.795500  0.979800  1.0  0.3768
  H  H122  1  0.674000  0.254100  0.967500  1.0  0.4823
  H  H123  1  0.114900  0.904300  0.459200  1.0  0.1418
  H  H124  1  0.191000  0.880700  0.422800  1.0  0.1478
  H  H125  1  0.203800  0.882100  0.483600  1.0  0.1453
  H  H126  1  0.185300  0.601500  0.488600  1.0  0.1495
  H  H127  1  0.197100  0.608600  0.427900  1.0  0.151
  H  H128  1  0.108000  0.584800  0.450900  1.0  0.1323
  H  H129  1  0.029500  0.542100  0.534100  1.0  0.1384
  H  H130  1  0.989100  0.486300  0.571800  1.0  0.1349
  H  H131  1  0.064500  0.534300  0.591300  1.0  0.1404
  H  H132  1  0.772800  0.705900  0.669100  1.0  0.1398
  H  H133  1  0.845900  0.683900  0.708200  1.0  0.1381
  H  H134  1  0.773800  0.630200  0.692600  1.0  0.1401
  H  H135  1  0.098600  0.938600  0.578000  1.0  0.1415
  H  H136  1  0.044100  0.006500  0.587400  1.0  0.1545
  H  H137  1  0.042500  0.969800  0.532500  1.0  0.1404
  H  H138  1  0.773500  0.821400  0.668000  1.0  0.1422
  H  H139  1  0.777400  0.900200  0.684700  1.0  0.1436
  H  H140  1  0.843700  0.846700  0.708000  1.0  0.1444
  H  H141  1  0.286400  0.439800  0.130400  1.0  0.1247
  H  H142  1  0.212500  0.487700  0.276600  1.0  0.1071
  H  H143  1  0.035000  0.440500  0.169500  1.0  0.1202
  H  H144  1  0.748700  0.578100  0.360100  1.0  0.1151
  H  H145  1  0.773200  0.398100  0.279400  1.0  0.111
  H  H146  1  0.952900  0.451700  0.386100  1.0  0.1195
  H  H147  1  0.510300  0.244700  0.262900  1.0  0.1104
  H  H148  1  0.476500  0.140400  0.398200  1.0  0.1154
  H  H149  1  0.499900  0.350100  0.399700  1.0  0.1165
  H  H150  1  0.061600  0.490000  0.298300  1.0  0.3503
  H  H151  1  0.994700  0.471400  0.258700  1.0  0.34
  H  H152  1  0.894700  0.325500  0.295500  1.0  0.3528
  H  H153  1  0.962300  0.344100  0.334600  1.0  0.3585
  H  H154  1  0.488600  0.282300  0.480700  1.0  0.372
  H  H155  1  0.484000  0.204500  0.479800  1.0  0.3826
  H  H156  1  0.826000  0.745900  0.467500  1.0  0.4831
  C  C157  1  0.663400  0.626800  0.544100  1.0  -0.4468
  C  C158  1  0.632900  0.700400  0.540800  1.0  0.4469
  C  C159  1  0.629100  0.811800  0.540800  1.0  0.3233
  C  C160  1  0.657400  0.885700  0.543600  1.0  -0.4351
  C  C161  1  0.513900  0.967800  0.430300  1.0  -0.4481
  C  C162  1  0.449300  0.914900  0.411700  1.0  0.3997
  C  C163  1  0.363300  0.856300  0.364600  1.0  0.4409
  C  C164  1  0.309100  0.831900  0.319600  1.0  -0.4117
  C  C165  1  0.545700  0.537700  0.430400  1.0  -0.4173
  C  C166  1  0.471500  0.581000  0.413400  1.0  0.3072
  C  C167  1  0.371300  0.626100  0.366500  1.0  0.4266
  C  C168  1  0.311100  0.640700  0.322600  1.0  -0.421
  C  C169  1  0.634500  0.085900  0.913100  1.0  0.6758
  C  C170  1  0.656000  0.062500  0.858200  1.0  -0.1522
  C  C171  1  0.743100  0.053500  0.844900  1.0  0.0086
  C  C172  1  0.763400  0.034200  0.793800  1.0  -0.1648
  C  C173  1  0.855600  0.024900  0.778300  1.0  0.6982
  C  C174  1  0.698200  0.025000  0.757500  1.0  -0.1239
  C  C175  1  0.613300  0.034200  0.770300  1.0  0.2343
  C  C176  1  0.592500  0.053100  0.821300  1.0  -0.0955
  C  C177  1  0.391000  0.927700  0.581700  1.0  0.693
  C  C178  1  0.356800  0.977100  0.621300  1.0  -0.1466
  C  C179  1  0.279300  0.962500  0.647500  1.0  0.0115
  C  C180  1  0.248500  0.009100  0.684700  1.0  -0.1326
  C  C181  1  0.164100  0.995600  0.712200  1.0  0.7591
  C  C182  1  0.294400  0.070800  0.695700  1.0  -0.1114
  C  C183  1  0.371100  0.085800  0.669700  1.0  0.2016
  C  C184  1  0.402100  0.038600  0.631900  1.0  -0.1317
  C  C185  1  0.009000  0.124100  0.701300  1.0  0.696
  C  C186  1  0.005000  0.191900  0.673300  1.0  -0.1638
  C  C187  1  0.003800  0.255100  0.700900  1.0  0.0334
  C  C188  1  0.992900  0.317600  0.673900  1.0  -0.1538
  C  C189  1  0.988800  0.385800  0.702900  1.0  0.7136
  C  C190  1  0.985900  0.317900  0.619500  1.0  -0.0916
  C  C191  1  0.993100  0.255300  0.591800  1.0  0.1638
  C  C192  1  0.999400  0.191900  0.618700  1.0  -0.1162
  C  C193  1  0.836600  0.373200  0.044100  1.0  -0.4466
  C  C194  1  0.867100  0.299600  0.040800  1.0  0.4462
  C  C195  1  0.870900  0.188200  0.040800  1.0  0.3241
  C  C196  1  0.842600  0.114300  0.043600  1.0  -0.4359
  C  C197  1  0.986100  0.032200  0.930300  1.0  -0.4478
  C  C198  1  0.050700  0.085100  0.911700  1.0  0.399
  C  C199  1  0.136700  0.143700  0.864600  1.0  0.4412
  C  C200  1  0.190900  0.168100  0.819600  1.0  -0.4119
  C  C201  1  0.954300  0.462300  0.930400  1.0  -0.4162
  C  C202  1  0.028500  0.419000  0.913400  1.0  0.3068
  C  C203  1  0.128700  0.373900  0.866500  1.0  0.4264
  C  C204  1  0.188900  0.359300  0.822600  1.0  -0.4226
  C  C205  1  0.865500  0.914100  0.413100  1.0  0.6761
  C  C206  1  0.844000  0.937500  0.358200  1.0  -0.1517
  C  C207  1  0.756900  0.946500  0.344900  1.0  0.0091
  C  C208  1  0.736600  0.965800  0.293800  1.0  -0.1646
  C  C209  1  0.644400  0.975100  0.278300  1.0  0.6981
  C  C210  1  0.801800  0.975000  0.257500  1.0  -0.1244
  C  C211  1  0.886700  0.965800  0.270300  1.0  0.2337
  C  C212  1  0.907500  0.946900  0.321300  1.0  -0.0943
  C  C213  1  0.109000  0.072300  0.081700  1.0  0.6938
  C  C214  1  0.143200  0.022900  0.121300  1.0  -0.1463
  C  C215  1  0.220700  0.037500  0.147500  1.0  0.0127
  C  C216  1  0.251500  0.990900  0.184700  1.0  -0.1326
  C  C217  1  0.335900  0.004400  0.212200  1.0  0.7608
  C  C218  1  0.205600  0.929200  0.195700  1.0  -0.112
  C  C219  1  0.128900  0.914200  0.169700  1.0  0.202
  C  C220  1  0.097900  0.961400  0.131900  1.0  -0.1309
  C  C221  1  0.491000  0.875900  0.201300  1.0  0.6973
  C  C222  1  0.495000  0.808100  0.173300  1.0  -0.1639
  C  C223  1  0.496200  0.744900  0.200900  1.0  0.0334
  C  C224  1  0.507100  0.682400  0.173900  1.0  -0.1542
  C  C225  1  0.511200  0.614200  0.202900  1.0  0.7142
  C  C226  1  0.514100  0.682100  0.119500  1.0  -0.0927
  C  C227  1  0.506900  0.744700  0.091800  1.0  0.1635
  C  C228  1  0.500600  0.808100  0.118700  1.0  -0.1166
  C  C229  1  0.336600  0.126800  0.955900  1.0  -0.447
  C  C230  1  0.367100  0.200400  0.959200  1.0  0.4468
  C  C231  1  0.370900  0.311800  0.959200  1.0  0.324
  C  C232  1  0.342600  0.385700  0.956400  1.0  -0.4357
  C  C233  1  0.486100  0.467800  0.069700  1.0  -0.4473
  C  C234  1  0.550700  0.414900  0.088300  1.0  0.3998
  C  C235  1  0.636700  0.356300  0.135400  1.0  0.441
  C  C236  1  0.690900  0.331900  0.180400  1.0  -0.4121
  C  C237  1  0.454300  0.037700  0.069600  1.0  -0.4167
  C  C238  1  0.528500  0.081000  0.086600  1.0  0.3072
  C  C239  1  0.628700  0.126100  0.133500  1.0  0.4266
  C  C240  1  0.688900  0.140700  0.177400  1.0  -0.4217
  C  C241  1  0.365500  0.585900  0.586900  1.0  0.6749
  C  C242  1  0.344000  0.562500  0.641800  1.0  -0.1505
  C  C243  1  0.256900  0.553500  0.655100  1.0  0.0089
  C  C244  1  0.236600  0.534200  0.706200  1.0  -0.1646
  C  C245  1  0.144400  0.524900  0.721700  1.0  0.6979
  C  C246  1  0.301800  0.525000  0.742500  1.0  -0.1247
  C  C247  1  0.386700  0.534200  0.729700  1.0  0.2336
  C  C248  1  0.407500  0.553100  0.678700  1.0  -0.0939
  C  C249  1  0.609000  0.427700  0.918300  1.0  0.6934
  C  C250  1  0.643200  0.477100  0.878700  1.0  -0.147
  C  C251  1  0.720700  0.462500  0.852500  1.0  0.0124
  C  C252  1  0.751500  0.509100  0.815300  1.0  -0.1329
  C  C253  1  0.835900  0.495600  0.787800  1.0  0.7613
  C  C254  1  0.705600  0.570800  0.804300  1.0  -0.1122
  C  C255  1  0.628900  0.585800  0.830300  1.0  0.2007
  C  C256  1  0.597900  0.538600  0.868100  1.0  -0.1319
  C  C257  1  0.991000  0.624100  0.798700  1.0  0.6969
  C  C258  1  0.995000  0.691900  0.826700  1.0  -0.1635
  C  C259  1  0.996200  0.755100  0.799100  1.0  0.0328
  C  C260  1  0.007100  0.817600  0.826100  1.0  -0.1541
  C  C261  1  0.011200  0.885800  0.797100  1.0  0.7144
  C  C262  1  0.014100  0.817900  0.880500  1.0  -0.092
  C  C263  1  0.006900  0.755300  0.908200  1.0  0.1651
  C  C264  1  0.000600  0.691900  0.881300  1.0  -0.117
  C  C265  1  0.163400  0.873200  0.455900  1.0  -0.4466
  C  C266  1  0.132900  0.799600  0.459200  1.0  0.4467
  C  C267  1  0.129100  0.688200  0.459200  1.0  0.3235
  C  C268  1  0.157400  0.614300  0.456400  1.0  -0.4359
  C  C269  1  0.013900  0.532200  0.569700  1.0  -0.4487
  C  C270  1  0.949300  0.585100  0.588300  1.0  0.3997
  C  C271  1  0.863300  0.643700  0.635400  1.0  0.4413
  C  C272  1  0.809100  0.668100  0.680400  1.0  -0.4112
  C  C273  1  0.045700  0.962300  0.569600  1.0  -0.4168
  C  C274  1  0.971500  0.919000  0.586600  1.0  0.3071
  C  C275  1  0.871300  0.873900  0.633500  1.0  0.4261
  C  C276  1  0.811100  0.859300  0.677400  1.0  -0.4213
  C  C277  1  0.134500  0.414100  0.086900  1.0  0.676
  C  C278  1  0.156000  0.437500  0.141800  1.0  -0.1509
  C  C279  1  0.243100  0.446500  0.155100  1.0  0.0084
  C  C280  1  0.263400  0.465800  0.206200  1.0  -0.1645
  C  C281  1  0.355600  0.475100  0.221700  1.0  0.6982
  C  C282  1  0.198200  0.475000  0.242500  1.0  -0.1251
  C  C283  1  0.113300  0.465800  0.229700  1.0  0.2344
  C  C284  1  0.092500  0.446900  0.178700  1.0  -0.0955
  C  C285  1  0.891000  0.572300  0.418300  1.0  0.693
  C  C286  1  0.856800  0.522900  0.378700  1.0  -0.1468
  C  C287  1  0.779300  0.537500  0.352500  1.0  0.0109
  C  C288  1  0.748500  0.490900  0.315300  1.0  -0.1321
  C  C289  1  0.664100  0.504400  0.287800  1.0  0.7605
  C  C290  1  0.794400  0.429200  0.304300  1.0  -0.1119
  C  C291  1  0.871100  0.414200  0.330300  1.0  0.1991
  C  C292  1  0.902100  0.461400  0.368100  1.0  -0.1302
  C  C293  1  0.509000  0.375900  0.298700  1.0  0.6967
  C  C294  1  0.505000  0.308100  0.326700  1.0  -0.1636
  C  C295  1  0.503800  0.244900  0.299100  1.0  0.0329
  C  C296  1  0.492900  0.182400  0.326100  1.0  -0.154
  C  C297  1  0.488800  0.114200  0.297100  1.0  0.7139
  C  C298  1  0.485900  0.182100  0.380500  1.0  -0.0931
  C  C299  1  0.493100  0.244700  0.408200  1.0  0.1653
  C  C300  1  0.499400  0.308100  0.381300  1.0  -0.1155
  N  N301  1  0.552900  0.717900  0.528100  1.0  -0.3779
  N  N302  1  0.550400  0.790000  0.528300  1.0  -0.3626
  N  N303  1  0.682200  0.756800  0.549300  1.0  -0.4571
  N  N304  1  0.416900  0.865900  0.442700  1.0  -0.411
  N  N305  1  0.361000  0.827500  0.411700  1.0  -0.3852
  N  N306  1  0.417700  0.910800  0.363100  1.0  -0.462
  N  N307  1  0.431500  0.626800  0.442800  1.0  -0.3421
  N  N308  1  0.366500  0.656500  0.412900  1.0  -0.3891
  N  N309  1  0.435800  0.579300  0.364800  1.0  -0.4675
  N  N310  1  0.548100  0.022800  0.732900  1.0  -0.7225
  N  N311  1  0.414800  0.146300  0.681300  1.0  -0.6917
  N  N312  1  0.987900  0.256300  0.536600  1.0  -0.7129
  N  N313  1  0.947100  0.282100  0.028100  1.0  -0.3782
  N  N314  1  0.949600  0.210000  0.028300  1.0  -0.3615
  N  N315  1  0.817800  0.243200  0.049300  1.0  -0.459
  N  N316  1  0.083100  0.134100  0.942700  1.0  -0.4103
  N  N317  1  0.139000  0.172500  0.911700  1.0  -0.385
  N  N318  1  0.082300  0.089200  0.863100  1.0  -0.4619
  N  N319  1  0.068500  0.373200  0.942800  1.0  -0.3419
  N  N320  1  0.133500  0.343500  0.912900  1.0  -0.3907
  N  N321  1  0.064200  0.420700  0.864800  1.0  -0.467
  N  N322  1  0.951900  0.977200  0.232900  1.0  -0.7239
  N  N323  1  0.085200  0.853700  0.181300  1.0  -0.6902
  N  N324  1  0.512100  0.743700  0.036600  1.0  -0.7144
  N  N325  1  0.447100  0.217900  0.971900  1.0  -0.3781
  N  N326  1  0.449600  0.290000  0.971700  1.0  -0.3624
  N  N327  1  0.317800  0.256800  0.950700  1.0  -0.4578
  N  N328  1  0.583100  0.365900  0.057300  1.0  -0.4115
  N  N329  1  0.639000  0.327500  0.088300  1.0  -0.3846
  N  N330  1  0.582300  0.410800  0.136900  1.0  -0.462
  N  N331  1  0.568500  0.126800  0.057200  1.0  -0.3417
  N  N332  1  0.633500  0.156500  0.087100  1.0  -0.39
  N  N333  1  0.564200  0.079300  0.135200  1.0  -0.4685
  N  N334  1  0.451900  0.522800  0.767100  1.0  -0.7236
  N  N335  1  0.585200  0.646300  0.818700  1.0  -0.6918
  N  N336  1  0.012100  0.756300  0.963400  1.0  -0.7117
  N  N337  1  0.052900  0.782100  0.471900  1.0  -0.3782
  N  N338  1  0.050400  0.710000  0.471700  1.0  -0.3637
  N  N339  1  0.182200  0.743200  0.450700  1.0  -0.4558
  N  N340  1  0.916900  0.634100  0.557300  1.0  -0.4113
  N  N341  1  0.861000  0.672500  0.588300  1.0  -0.3843
  N  N342  1  0.917700  0.589200  0.636900  1.0  -0.4632
  N  N343  1  0.931500  0.873200  0.557200  1.0  -0.3418
  N  N344  1  0.866500  0.843500  0.587100  1.0  -0.3895
  N  N345  1  0.935800  0.920700  0.635200  1.0  -0.4682
  N  N346  1  0.048100  0.477200  0.267100  1.0  -0.7227
  N  N347  1  0.914800  0.353700  0.318700  1.0  -0.6908
  N  N348  1  0.487900  0.243700  0.463400  1.0  -0.7115
  O  O349  1  0.555400  0.105800  0.920300  1.0  -0.595
  O  O350  1  0.689000  0.088100  0.947900  1.0  -0.5797
  O  O351  1  0.911900  0.036900  0.812300  1.0  -0.5757
  O  O352  1  0.869900  0.004500  0.732200  1.0  -0.6056
  O  O353  1  0.349900  0.872400  0.572900  1.0  -0.5715
  O  O354  1  0.459200  0.940100  0.556800  1.0  -0.601
  O  O355  1  0.113200  0.954000  0.690800  1.0  -0.5753
  O  O356  1  0.151500  0.028800  0.754000  1.0  -0.604
  O  O357  1  0.016500  0.125600  0.750700  1.0  -0.5922
  O  O358  1  0.005800  0.069500  0.674500  1.0  -0.5997
  O  O359  1  0.019800  0.386800  0.748800  1.0  -0.6037
  O  O360  1  0.954900  0.437000  0.679800  1.0  -0.5916
  O  O361  1  0.366400  0.744300  0.511070  1.0  -1.0127
  O  O362  1  0.944600  0.894200  0.420300  1.0  -0.5952
  O  O363  1  0.811000  0.911900  0.447900  1.0  -0.5791
  O  O364  1  0.588100  0.963100  0.312300  1.0  -0.5751
  O  O365  1  0.630100  0.995500  0.232200  1.0  -0.6054
  O  O366  1  0.150100  0.127600  0.072900  1.0  -0.5704
  O  O367  1  0.040800  0.059900  0.056800  1.0  -0.5998
  O  O368  1  0.386800  0.046000  0.190800  1.0  -0.5744
  O  O369  1  0.348500  0.971200  0.254000  1.0  -0.6051
  O  O370  1  0.483500  0.874400  0.250700  1.0  -0.5923
  O  O371  1  0.494200  0.930500  0.174500  1.0  -0.5992
  O  O372  1  0.480200  0.613200  0.248800  1.0  -0.6045
  O  O373  1  0.545100  0.563000  0.179800  1.0  -0.5908
  O  O374  1  0.133600  0.255700  0.011070  1.0  -1.0123
  O  O375  1  0.444600  0.605800  0.579700  1.0  -0.5951
  O  O376  1  0.311000  0.588100  0.552100  1.0  -0.5782
  O  O377  1  0.088100  0.536900  0.687700  1.0  -0.5756
  O  O378  1  0.130100  0.504500  0.767800  1.0  -0.6052
  O  O379  1  0.650100  0.372400  0.927100  1.0  -0.5697
  O  O380  1  0.540800  0.440100  0.943200  1.0  -0.5999
  O  O381  1  0.886800  0.454000  0.809200  1.0  -0.5753
  O  O382  1  0.848500  0.528800  0.746000  1.0  -0.6035
  O  O383  1  0.983500  0.625600  0.749300  1.0  -0.593
  O  O384  1  0.994200  0.569500  0.825500  1.0  -0.5998
  O  O385  1  0.980200  0.886800  0.751200  1.0  -0.6053
  O  O386  1  0.045100  0.937000  0.820200  1.0  -0.5917
  O  O387  1  0.633600  0.244300  0.988930  1.0  -1.0131
  O  O388  1  0.055400  0.394200  0.079700  1.0  -0.5959
  O  O389  1  0.189000  0.411900  0.052100  1.0  -0.5792
  O  O390  1  0.411900  0.463100  0.187700  1.0  -0.5764
  O  O391  1  0.369900  0.495500  0.267800  1.0  -0.6052
  O  O392  1  0.849900  0.627600  0.427100  1.0  -0.5704
  O  O393  1  0.959200  0.559900  0.443200  1.0  -0.6012
  O  O394  1  0.613200  0.546000  0.309200  1.0  -0.5749
  O  O395  1  0.651500  0.471200  0.246000  1.0  -0.6041
  O  O396  1  0.516500  0.374400  0.249300  1.0  -0.5942
  O  O397  1  0.505800  0.430500  0.325500  1.0  -0.5998
  O  O398  1  0.519800  0.113200  0.251200  1.0  -0.6051
  O  O399  1  0.454900  0.063000  0.320200  1.0  -0.5918
  O  O400  1  0.866400  0.755700  0.488930  1.0  -1.0141
