# generated using pymatgen
data_Zn5H37C36N12O13
_symmetry_space_group_name_H-M   'P 1'
_cell_length_a   15.41150000
_cell_length_b   19.18500000
_cell_length_c   25.47100000
_cell_angle_alpha   90.00000000
_cell_angle_beta   90.00000000
_cell_angle_gamma   90.00000000
_symmetry_Int_Tables_number   1
_chemical_formula_structural   Zn5H37C36N12O13
_chemical_formula_sum   'Zn20 H148 C144 N48 O52'
_cell_volume   7531.00108205
_cell_formula_units_Z   4
loop_
 _symmetry_equiv_pos_site_id
 _symmetry_equiv_pos_as_xyz
  1  'x, y, z'
loop_
 _atom_site_type_symbol
 _atom_site_label
 _atom_site_symmetry_multiplicity
 _atom_site_fract_x
 _atom_site_fract_y
 _atom_site_fract_z
 _atom_site_occupancy
 _atom_site_charge
  Zn  Zn1  1  0.937330  0.162120  0.231220  1.0  0.9337
  Zn  Zn2  1  0.971660  0.035810  0.450950  1.0  0.9199
  Zn  Zn3  1  0.562670  0.837880  0.731220  1.0  0.9342
  Zn  Zn4  1  0.528340  0.964190  0.950950  1.0  0.92
  Zn  Zn5  1  0.062670  0.662120  0.768780  1.0  0.935
  Zn  Zn6  1  0.028340  0.535810  0.549050  1.0  0.92
  Zn  Zn7  1  0.437330  0.337880  0.268780  1.0  0.9348
  Zn  Zn8  1  0.471660  0.464190  0.049050  1.0  0.92
  Zn  Zn9  1  0.062670  0.837880  0.768780  1.0  0.9351
  Zn  Zn10  1  0.028340  0.964190  0.549050  1.0  0.92
  Zn  Zn11  1  0.437330  0.162120  0.268780  1.0  0.9347
  Zn  Zn12  1  0.471660  0.035810  0.049050  1.0  0.9199
  Zn  Zn13  1  0.937330  0.337880  0.231220  1.0  0.9339
  Zn  Zn14  1  0.971660  0.464190  0.450950  1.0  0.9199
  Zn  Zn15  1  0.562670  0.662120  0.731220  1.0  0.934
  Zn  Zn16  1  0.528340  0.535810  0.950950  1.0  0.9199
  Zn  Zn17  1  0.808090  0.250000  0.308130  1.0  0.8449
  Zn  Zn18  1  0.691910  0.750000  0.808130  1.0  0.8449
  Zn  Zn19  1  0.191910  0.750000  0.691870  1.0  0.8448
  Zn  Zn20  1  0.308090  0.250000  0.191870  1.0  0.8448
  H  H21  1  0.027700  0.288800  0.729300  1.0  0.2629
  H  H22  1  0.006400  0.911200  0.040500  1.0  0.2632
  H  H23  1  0.943000  0.888300  0.999900  1.0  0.2739
  H  H24  1  0.084100  0.054700  0.322900  1.0  0.1325
  H  H25  1  0.019100  0.022900  0.282100  1.0  0.1432
  H  H26  1  0.025200  0.991500  0.338800  1.0  0.1401
  H  H27  1  0.762500  0.181500  0.414900  1.0  0.1264
  H  H28  1  0.844000  0.187400  0.451400  1.0  0.1303
  H  H29  1  0.793700  0.116600  0.447200  1.0  0.1255
  H  H30  1  0.024700  0.146100  0.647800  1.0  0.1003
  H  H31  1  0.972600  0.992300  0.104500  1.0  0.1163
  H  H32  1  0.790900  0.938800  0.000300  1.0  0.0963
  H  H33  1  0.733400  0.070200  0.115900  1.0  0.1018
  H  H34  1  0.111200  0.090500  0.210800  1.0  0.1431
  H  H35  1  0.203000  0.113000  0.231200  1.0  0.1435
  H  H36  1  0.183400  0.112300  0.170800  1.0  0.1407
  H  H37  1  0.930100  0.927700  0.033400  1.0  0.279
  H  H38  1  0.472300  0.711200  0.229300  1.0  0.2657
  H  H39  1  0.493600  0.088800  0.540500  1.0  0.2568
  H  H40  1  0.557000  0.111700  0.499900  1.0  0.278
  H  H41  1  0.415900  0.945300  0.822900  1.0  0.1328
  H  H42  1  0.480900  0.977100  0.782100  1.0  0.1429
  H  H43  1  0.474800  0.008500  0.838800  1.0  0.1404
  H  H44  1  0.737500  0.818500  0.914900  1.0  0.1271
  H  H45  1  0.656000  0.812600  0.951400  1.0  0.1308
  H  H46  1  0.706300  0.883400  0.947200  1.0  0.1198
  H  H47  1  0.475300  0.853900  0.147800  1.0  0.1008
  H  H48  1  0.527400  0.007700  0.604500  1.0  0.1156
  H  H49  1  0.709100  0.061200  0.500300  1.0  0.0975
  H  H50  1  0.766600  0.929800  0.615900  1.0  0.1017
  H  H51  1  0.388800  0.909500  0.710800  1.0  0.1419
  H  H52  1  0.297000  0.887000  0.731200  1.0  0.1428
  H  H53  1  0.316600  0.887700  0.670800  1.0  0.1399
  H  H54  1  0.569900  0.072300  0.533400  1.0  0.2797
  H  H55  1  0.972300  0.788800  0.270700  1.0  0.2594
  H  H56  1  0.993600  0.411200  0.959500  1.0  0.2622
  H  H57  1  0.057000  0.388300  0.000100  1.0  0.2784
  H  H58  1  0.915900  0.554700  0.677100  1.0  0.1334
  H  H59  1  0.980900  0.522900  0.717900  1.0  0.1416
  H  H60  1  0.974800  0.491500  0.661200  1.0  0.1405
  H  H61  1  0.237500  0.681500  0.585100  1.0  0.1249
  H  H62  1  0.156000  0.687400  0.548600  1.0  0.1315
  H  H63  1  0.206300  0.616600  0.552800  1.0  0.1228
  H  H64  1  0.975300  0.646100  0.352200  1.0  0.0988
  H  H65  1  0.027400  0.492300  0.895500  1.0  0.115
  H  H66  1  0.209100  0.438800  0.999700  1.0  0.0973
  H  H67  1  0.266600  0.570200  0.884100  1.0  0.1017
  H  H68  1  0.888800  0.590500  0.789200  1.0  0.1423
  H  H69  1  0.797000  0.613000  0.768800  1.0  0.1427
  H  H70  1  0.816600  0.612300  0.829200  1.0  0.1409
  H  H71  1  0.069900  0.427700  0.966600  1.0  0.28
  H  H72  1  0.527700  0.211200  0.770700  1.0  0.2641
  H  H73  1  0.506400  0.588800  0.459500  1.0  0.2604
  H  H74  1  0.443000  0.611700  0.500100  1.0  0.2774
  H  H75  1  0.584100  0.445300  0.177100  1.0  0.1332
  H  H76  1  0.519100  0.477100  0.217900  1.0  0.1422
  H  H77  1  0.525200  0.508500  0.161200  1.0  0.141
  H  H78  1  0.262500  0.318500  0.085100  1.0  0.1249
  H  H79  1  0.344000  0.312600  0.048600  1.0  0.13
  H  H80  1  0.293700  0.383400  0.052800  1.0  0.1256
  H  H81  1  0.524700  0.353900  0.852200  1.0  0.101
  H  H82  1  0.472600  0.507700  0.395500  1.0  0.1164
  H  H83  1  0.290900  0.561200  0.499700  1.0  0.0969
  H  H84  1  0.233400  0.429800  0.384100  1.0  0.0991
  H  H85  1  0.611200  0.409500  0.289200  1.0  0.1449
  H  H86  1  0.703000  0.387000  0.268800  1.0  0.1423
  H  H87  1  0.683400  0.387700  0.329200  1.0  0.1413
  H  H88  1  0.430100  0.572300  0.466600  1.0  0.2783
  H  H89  1  0.972300  0.711200  0.270700  1.0  0.2635
  H  H90  1  0.993600  0.088800  0.959500  1.0  0.2568
  H  H91  1  0.057000  0.111700  0.000100  1.0  0.2803
  H  H92  1  0.915900  0.945300  0.677100  1.0  0.1332
  H  H93  1  0.980900  0.977100  0.717900  1.0  0.1419
  H  H94  1  0.974800  0.008500  0.661200  1.0  0.1411
  H  H95  1  0.237500  0.818500  0.585100  1.0  0.1253
  H  H96  1  0.156000  0.812600  0.548600  1.0  0.1308
  H  H97  1  0.206300  0.883400  0.552800  1.0  0.1218
  H  H98  1  0.975300  0.853900  0.352200  1.0  0.1003
  H  H99  1  0.027400  0.007700  0.895500  1.0  0.1154
  H  H100  1  0.209100  0.061200  0.999700  1.0  0.0976
  H  H101  1  0.266600  0.929800  0.884100  1.0  0.1014
  H  H102  1  0.888800  0.909500  0.789200  1.0  0.1419
  H  H103  1  0.797000  0.887000  0.768800  1.0  0.1428
  H  H104  1  0.816600  0.887700  0.829200  1.0  0.1411
  H  H105  1  0.069900  0.072300  0.966600  1.0  0.2786
  H  H106  1  0.527700  0.288800  0.770700  1.0  0.2599
  H  H107  1  0.506400  0.911200  0.459500  1.0  0.265
  H  H108  1  0.443000  0.888300  0.500100  1.0  0.2754
  H  H109  1  0.584100  0.054700  0.177100  1.0  0.1328
  H  H110  1  0.519100  0.022900  0.217900  1.0  0.1417
  H  H111  1  0.525200  0.991500  0.161200  1.0  0.1404
  H  H112  1  0.262500  0.181500  0.085100  1.0  0.1245
  H  H113  1  0.344000  0.187400  0.048600  1.0  0.1306
  H  H114  1  0.293700  0.116600  0.052800  1.0  0.1294
  H  H115  1  0.524700  0.146100  0.852200  1.0  0.101
  H  H116  1  0.472600  0.992300  0.395500  1.0  0.1154
  H  H117  1  0.290900  0.938800  0.499700  1.0  0.0968
  H  H118  1  0.233400  0.070200  0.384100  1.0  0.1016
  H  H119  1  0.611200  0.090500  0.289200  1.0  0.1435
  H  H120  1  0.703000  0.113000  0.268800  1.0  0.1426
  H  H121  1  0.683400  0.112300  0.329200  1.0  0.1415
  H  H122  1  0.430100  0.927700  0.466600  1.0  0.2782
  H  H123  1  0.027700  0.211200  0.729300  1.0  0.267
  H  H124  1  0.006400  0.588800  0.040500  1.0  0.2599
  H  H125  1  0.943000  0.611700  0.999900  1.0  0.2755
  H  H126  1  0.084100  0.445300  0.322900  1.0  0.1328
  H  H127  1  0.019100  0.477100  0.282100  1.0  0.1435
  H  H128  1  0.025200  0.508500  0.338800  1.0  0.14
  H  H129  1  0.762500  0.318500  0.414900  1.0  0.1269
  H  H130  1  0.844000  0.312600  0.451400  1.0  0.1306
  H  H131  1  0.793700  0.383400  0.447200  1.0  0.1206
  H  H132  1  0.024700  0.353900  0.647800  1.0  0.1013
  H  H133  1  0.972600  0.507700  0.104500  1.0  0.1164
  H  H134  1  0.790900  0.561200  0.000300  1.0  0.0968
  H  H135  1  0.733400  0.429800  0.115900  1.0  0.0994
  H  H136  1  0.111200  0.409500  0.210800  1.0  0.143
  H  H137  1  0.203000  0.387000  0.231200  1.0  0.1426
  H  H138  1  0.183400  0.387700  0.170800  1.0  0.1399
  H  H139  1  0.930100  0.572300  0.033400  1.0  0.2794
  H  H140  1  0.472300  0.788800  0.229300  1.0  0.261
  H  H141  1  0.493600  0.411200  0.540500  1.0  0.26
  H  H142  1  0.557000  0.388300  0.499900  1.0  0.2768
  H  H143  1  0.415900  0.554700  0.822900  1.0  0.1331
  H  H144  1  0.480900  0.522900  0.782100  1.0  0.143
  H  H145  1  0.474800  0.491500  0.838800  1.0  0.1406
  H  H146  1  0.737500  0.681500  0.914900  1.0  0.1263
  H  H147  1  0.656000  0.687400  0.951400  1.0  0.1308
  H  H148  1  0.706300  0.616600  0.947200  1.0  0.1203
  H  H149  1  0.475300  0.646100  0.147800  1.0  0.0988
  H  H150  1  0.527400  0.492300  0.604500  1.0  0.115
  H  H151  1  0.709100  0.438800  0.500300  1.0  0.097
  H  H152  1  0.766600  0.570200  0.615900  1.0  0.1018
  H  H153  1  0.388800  0.590500  0.710800  1.0  0.1421
  H  H154  1  0.297000  0.613000  0.731200  1.0  0.143
  H  H155  1  0.316600  0.612300  0.670800  1.0  0.1404
  H  H156  1  0.569900  0.427700  0.533400  1.0  0.2814
  H  H157  1  0.824000  0.250000  0.213700  1.0  0.3771
  H  H158  1  0.991300  0.250000  0.513000  1.0  0.1091
  H  H159  1  0.023100  0.250000  0.693400  1.0  0.1789
  H  H160  1  0.676000  0.750000  0.713700  1.0  0.376
  H  H161  1  0.508700  0.750000  0.013000  1.0  0.1085
  H  H162  1  0.476900  0.750000  0.193400  1.0  0.1792
  H  H163  1  0.176000  0.750000  0.786300  1.0  0.3747
  H  H164  1  0.008700  0.750000  0.487000  1.0  0.1084
  H  H165  1  0.976900  0.750000  0.306600  1.0  0.18
  H  H166  1  0.324000  0.250000  0.286300  1.0  0.376
  H  H167  1  0.491300  0.250000  0.987000  1.0  0.1086
  H  H168  1  0.523100  0.250000  0.806600  1.0  0.1776
  C  C169  1  0.028100  0.033600  0.318500  1.0  -0.437
  C  C170  1  0.960300  0.082400  0.336480  1.0  0.3302
  C  C171  1  0.869100  0.135800  0.383820  1.0  0.4313
  C  C172  1  0.812300  0.157200  0.428300  1.0  -0.3934
  C  C173  1  0.006900  0.118700  0.547100  1.0  0.7058
  C  C174  1  0.010000  0.187500  0.576000  1.0  -0.1424
  C  C175  1  0.019400  0.188000  0.629700  1.0  -0.2002
  C  C176  1  0.883300  0.079600  0.164300  1.0  0.6378
  C  C177  1  0.856100  0.037300  0.117100  1.0  -0.1535
  C  C178  1  0.915900  0.995100  0.092200  1.0  -0.188
  C  C179  1  0.891000  0.957800  0.049600  1.0  -0.1052
  C  C180  1  0.806800  0.964300  0.029800  1.0  -0.1554
  C  C181  1  0.747700  0.007100  0.052900  1.0  -0.1502
  C  C182  1  0.773400  0.042500  0.098200  1.0  0.0142
  C  C183  1  0.656700  0.010800  0.032900  1.0  0.7114
  C  C184  1  0.159400  0.121100  0.204900  1.0  -0.447
  C  C185  1  0.129600  0.194600  0.207900  1.0  0.4304
  C  C186  1  0.471900  0.966400  0.818500  1.0  -0.4352
  C  C187  1  0.539700  0.917600  0.836480  1.0  0.3321
  C  C188  1  0.630900  0.864200  0.883820  1.0  0.4369
  C  C189  1  0.687700  0.842800  0.928300  1.0  -0.3918
  C  C190  1  0.493100  0.881300  0.047100  1.0  0.7067
  C  C191  1  0.490000  0.812500  0.076000  1.0  -0.1432
  C  C192  1  0.480600  0.812000  0.129700  1.0  -0.2005
  C  C193  1  0.616700  0.920400  0.664300  1.0  0.6396
  C  C194  1  0.643900  0.962700  0.617100  1.0  -0.1534
  C  C195  1  0.584100  0.004900  0.592200  1.0  -0.191
  C  C196  1  0.609000  0.042200  0.549600  1.0  -0.1034
  C  C197  1  0.693200  0.035700  0.529800  1.0  -0.1523
  C  C198  1  0.752300  0.992900  0.552900  1.0  -0.1499
  C  C199  1  0.726600  0.957500  0.598200  1.0  0.016
  C  C200  1  0.843300  0.989200  0.532900  1.0  0.7102
  C  C201  1  0.340600  0.878900  0.704900  1.0  -0.4474
  C  C202  1  0.370400  0.805400  0.707900  1.0  0.4268
  C  C203  1  0.971900  0.533600  0.681500  1.0  -0.4364
  C  C204  1  0.039700  0.582400  0.663520  1.0  0.3406
  C  C205  1  0.130900  0.635800  0.616180  1.0  0.4343
  C  C206  1  0.187700  0.657200  0.571700  1.0  -0.3922
  C  C207  1  0.993100  0.618700  0.452900  1.0  0.7057
  C  C208  1  0.990000  0.687500  0.424000  1.0  -0.1429
  C  C209  1  0.980600  0.688000  0.370300  1.0  -0.2004
  C  C210  1  0.116700  0.579600  0.835700  1.0  0.6394
  C  C211  1  0.143900  0.537300  0.882900  1.0  -0.1532
  C  C212  1  0.084100  0.495100  0.907800  1.0  -0.1906
  C  C213  1  0.109000  0.457800  0.950400  1.0  -0.1051
  C  C214  1  0.193200  0.464300  0.970200  1.0  -0.1546
  C  C215  1  0.252300  0.507100  0.947100  1.0  -0.1501
  C  C216  1  0.226600  0.542500  0.901800  1.0  0.0152
  C  C217  1  0.343300  0.510800  0.967100  1.0  0.7104
  C  C218  1  0.840600  0.621100  0.795100  1.0  -0.4467
  C  C219  1  0.870400  0.694600  0.792100  1.0  0.4302
  C  C220  1  0.528100  0.466400  0.181500  1.0  -0.4377
  C  C221  1  0.460300  0.417600  0.163520  1.0  0.3402
  C  C222  1  0.369100  0.364200  0.116180  1.0  0.4297
  C  C223  1  0.312300  0.342800  0.071700  1.0  -0.3928
  C  C224  1  0.506900  0.381300  0.952900  1.0  0.707
  C  C225  1  0.510000  0.312500  0.924000  1.0  -0.1436
  C  C226  1  0.519400  0.312000  0.870300  1.0  -0.1992
  C  C227  1  0.383300  0.420400  0.335700  1.0  0.6389
  C  C228  1  0.356100  0.462700  0.382900  1.0  -0.1562
  C  C229  1  0.415900  0.504900  0.407800  1.0  -0.1861
  C  C230  1  0.391000  0.542200  0.450400  1.0  -0.1041
  C  C231  1  0.306800  0.535700  0.470200  1.0  -0.1503
  C  C232  1  0.247700  0.492900  0.447100  1.0  -0.151
  C  C233  1  0.273400  0.457500  0.401800  1.0  0.0155
  C  C234  1  0.156700  0.489200  0.467100  1.0  0.7115
  C  C235  1  0.659400  0.378900  0.295100  1.0  -0.4467
  C  C236  1  0.629600  0.305400  0.292100  1.0  0.4324
  C  C237  1  0.971900  0.966400  0.681500  1.0  -0.4356
  C  C238  1  0.039700  0.917600  0.663520  1.0  0.3411
  C  C239  1  0.130900  0.864200  0.616180  1.0  0.4337
  C  C240  1  0.187700  0.842800  0.571700  1.0  -0.3921
  C  C241  1  0.993100  0.881300  0.452900  1.0  0.7068
  C  C242  1  0.990000  0.812500  0.424000  1.0  -0.1432
  C  C243  1  0.980600  0.812000  0.370300  1.0  -0.2009
  C  C244  1  0.116700  0.920400  0.835700  1.0  0.6384
  C  C245  1  0.143900  0.962700  0.882900  1.0  -0.1535
  C  C246  1  0.084100  0.004900  0.907800  1.0  -0.1896
  C  C247  1  0.109000  0.042200  0.950400  1.0  -0.1044
  C  C248  1  0.193200  0.035700  0.970200  1.0  -0.1531
  C  C249  1  0.252300  0.992900  0.947100  1.0  -0.1498
  C  C250  1  0.226600  0.957500  0.901800  1.0  0.0158
  C  C251  1  0.343300  0.989200  0.967100  1.0  0.7103
  C  C252  1  0.840600  0.878900  0.795100  1.0  -0.447
  C  C253  1  0.870400  0.805400  0.792100  1.0  0.4219
  C  C254  1  0.528100  0.033600  0.181500  1.0  -0.4384
  C  C255  1  0.460300  0.082400  0.163520  1.0  0.3395
  C  C256  1  0.369100  0.135800  0.116180  1.0  0.4303
  C  C257  1  0.312300  0.157200  0.071700  1.0  -0.3929
  C  C258  1  0.506900  0.118700  0.952900  1.0  0.7061
  C  C259  1  0.510000  0.187500  0.924000  1.0  -0.1431
  C  C260  1  0.519400  0.188000  0.870300  1.0  -0.2005
  C  C261  1  0.383300  0.079600  0.335700  1.0  0.6382
  C  C262  1  0.356100  0.037300  0.382900  1.0  -0.1559
  C  C263  1  0.415900  0.995100  0.407800  1.0  -0.1866
  C  C264  1  0.391000  0.957800  0.450400  1.0  -0.1051
  C  C265  1  0.306800  0.964300  0.470200  1.0  -0.1558
  C  C266  1  0.247700  0.007100  0.447100  1.0  -0.15
  C  C267  1  0.273400  0.042500  0.401800  1.0  0.0146
  C  C268  1  0.156700  0.010800  0.467100  1.0  0.7108
  C  C269  1  0.659400  0.121100  0.295100  1.0  -0.4466
  C  C270  1  0.629600  0.194600  0.292100  1.0  0.4285
  C  C271  1  0.028100  0.466400  0.318500  1.0  -0.436
  C  C272  1  0.960300  0.417600  0.336480  1.0  0.331
  C  C273  1  0.869100  0.364200  0.383820  1.0  0.4318
  C  C274  1  0.812300  0.342800  0.428300  1.0  -0.3933
  C  C275  1  0.006900  0.381300  0.547100  1.0  0.7068
  C  C276  1  0.010000  0.312500  0.576000  1.0  -0.1428
  C  C277  1  0.019400  0.312000  0.629700  1.0  -0.199
  C  C278  1  0.883300  0.420400  0.164300  1.0  0.6379
  C  C279  1  0.856100  0.462700  0.117100  1.0  -0.1529
  C  C280  1  0.915900  0.504900  0.092200  1.0  -0.188
  C  C281  1  0.891000  0.542200  0.049600  1.0  -0.1025
  C  C282  1  0.806800  0.535700  0.029800  1.0  -0.1533
  C  C283  1  0.747700  0.492900  0.052900  1.0  -0.1512
  C  C284  1  0.773400  0.457500  0.098200  1.0  0.0154
  C  C285  1  0.656700  0.489200  0.032900  1.0  0.7114
  C  C286  1  0.159400  0.378900  0.204900  1.0  -0.4471
  C  C287  1  0.129600  0.305400  0.207900  1.0  0.4302
  C  C288  1  0.471900  0.533600  0.818500  1.0  -0.4355
  C  C289  1  0.539700  0.582400  0.836480  1.0  0.3315
  C  C290  1  0.630900  0.635800  0.883820  1.0  0.4362
  C  C291  1  0.687700  0.657200  0.928300  1.0  -0.3932
  C  C292  1  0.493100  0.618700  0.047100  1.0  0.7057
  C  C293  1  0.490000  0.687500  0.076000  1.0  -0.1434
  C  C294  1  0.480600  0.688000  0.129700  1.0  -0.2006
  C  C295  1  0.616700  0.579600  0.664300  1.0  0.6392
  C  C296  1  0.643900  0.537300  0.617100  1.0  -0.154
  C  C297  1  0.584100  0.495100  0.592200  1.0  -0.1919
  C  C298  1  0.609000  0.457800  0.549600  1.0  -0.1058
  C  C299  1  0.693200  0.464300  0.529800  1.0  -0.1536
  C  C300  1  0.752300  0.507100  0.552900  1.0  -0.15
  C  C301  1  0.726600  0.542500  0.598200  1.0  0.015
  C  C302  1  0.843300  0.510800  0.532900  1.0  0.7105
  C  C303  1  0.340600  0.621100  0.704900  1.0  -0.447
  C  C304  1  0.370400  0.694600  0.707900  1.0  0.4219
  C  C305  1  0.021000  0.250000  0.656900  1.0  -0.0942
  C  C306  1  0.002000  0.250000  0.548900  1.0  0.0279
  C  C307  1  0.479000  0.750000  0.156900  1.0  -0.0936
  C  C308  1  0.498000  0.750000  0.048900  1.0  0.0275
  C  C309  1  0.979000  0.750000  0.343100  1.0  -0.0967
  C  C310  1  0.998000  0.750000  0.451100  1.0  0.0279
  C  C311  1  0.521000  0.250000  0.843100  1.0  -0.0977
  C  C312  1  0.502000  0.250000  0.951100  1.0  0.028
  N  N313  1  0.924500  0.130900  0.306550  1.0  -0.3777
  N  N314  1  0.865000  0.165300  0.337500  1.0  -0.352
  N  N315  1  0.928200  0.084800  0.385420  1.0  -0.461
  N  N316  1  0.050500  0.213700  0.219810  1.0  -0.3543
  N  N317  1  0.955300  0.913200  0.027000  1.0  -0.2748
  N  N318  1  0.575500  0.869100  0.806550  1.0  -0.3784
  N  N319  1  0.635000  0.834700  0.837500  1.0  -0.3522
  N  N320  1  0.571800  0.915200  0.885420  1.0  -0.4606
  N  N321  1  0.449500  0.786300  0.719810  1.0  -0.3523
  N  N322  1  0.544700  0.086800  0.527000  1.0  -0.2785
  N  N323  1  0.075500  0.630900  0.693450  1.0  -0.3812
  N  N324  1  0.135000  0.665300  0.662500  1.0  -0.3527
  N  N325  1  0.071800  0.584800  0.614580  1.0  -0.4609
  N  N326  1  0.949500  0.713700  0.780190  1.0  -0.3521
  N  N327  1  0.044700  0.413200  0.973000  1.0  -0.276
  N  N328  1  0.424500  0.369100  0.193450  1.0  -0.3807
  N  N329  1  0.365000  0.334700  0.162500  1.0  -0.3521
  N  N330  1  0.428200  0.415200  0.114580  1.0  -0.4597
  N  N331  1  0.550500  0.286300  0.280190  1.0  -0.3538
  N  N332  1  0.455300  0.586800  0.473000  1.0  -0.2771
  N  N333  1  0.075500  0.869100  0.693450  1.0  -0.3806
  N  N334  1  0.135000  0.834700  0.662500  1.0  -0.3522
  N  N335  1  0.071800  0.915200  0.614580  1.0  -0.4595
  N  N336  1  0.949500  0.786300  0.780190  1.0  -0.3523
  N  N337  1  0.044700  0.086800  0.973000  1.0  -0.2789
  N  N338  1  0.424500  0.130900  0.193450  1.0  -0.3811
  N  N339  1  0.365000  0.165300  0.162500  1.0  -0.3525
  N  N340  1  0.428200  0.084800  0.114580  1.0  -0.4609
  N  N341  1  0.550500  0.213700  0.280190  1.0  -0.3538
  N  N342  1  0.455300  0.913200  0.473000  1.0  -0.2741
  N  N343  1  0.924500  0.369100  0.306550  1.0  -0.3781
  N  N344  1  0.865000  0.334700  0.337500  1.0  -0.352
  N  N345  1  0.928200  0.415200  0.385420  1.0  -0.4605
  N  N346  1  0.050500  0.286300  0.219810  1.0  -0.3544
  N  N347  1  0.955300  0.586800  0.027000  1.0  -0.2779
  N  N348  1  0.575500  0.630900  0.806550  1.0  -0.3781
  N  N349  1  0.635000  0.665300  0.837500  1.0  -0.352
  N  N350  1  0.571800  0.584800  0.885420  1.0  -0.4613
  N  N351  1  0.449500  0.713700  0.719810  1.0  -0.3521
  N  N352  1  0.544700  0.413200  0.527000  1.0  -0.2754
  N  N353  1  0.182100  0.250000  0.199700  1.0  -0.4658
  N  N354  1  0.026000  0.250000  0.712400  1.0  -0.2198
  N  N355  1  0.317900  0.750000  0.699700  1.0  -0.4673
  N  N356  1  0.474000  0.750000  0.212400  1.0  -0.2188
  N  N357  1  0.817900  0.750000  0.800300  1.0  -0.4672
  N  N358  1  0.974000  0.750000  0.287600  1.0  -0.2234
  N  N359  1  0.682100  0.250000  0.300300  1.0  -0.466
  N  N360  1  0.526000  0.250000  0.787600  1.0  -0.224
  O  O361  1  0.986100  0.120800  0.499410  1.0  -0.6001
  O  O362  1  0.023600  0.065700  0.572360  1.0  -0.6141
  O  O363  1  0.601800  0.039900  0.061670  1.0  -0.5966
  O  O364  1  0.642400  0.983400  0.989780  1.0  -0.6029
  O  O365  1  0.834200  0.114900  0.186100  1.0  -0.5598
  O  O366  1  0.957700  0.077600  0.180400  1.0  -0.5769
  O  O367  1  0.513900  0.879200  0.999410  1.0  -0.6016
  O  O368  1  0.476400  0.934300  0.072360  1.0  -0.6135
  O  O369  1  0.898200  0.960100  0.561670  1.0  -0.5952
  O  O370  1  0.857600  0.016600  0.489780  1.0  -0.6033
  O  O371  1  0.665800  0.885100  0.686100  1.0  -0.561
  O  O372  1  0.542300  0.922400  0.680400  1.0  -0.5754
  O  O373  1  0.013900  0.620800  0.500590  1.0  -0.6009
  O  O374  1  0.976400  0.565700  0.427640  1.0  -0.6133
  O  O375  1  0.398200  0.539900  0.938330  1.0  -0.5958
  O  O376  1  0.357600  0.483400  0.010220  1.0  -0.6037
  O  O377  1  0.165800  0.614900  0.813900  1.0  -0.5608
  O  O378  1  0.042300  0.577600  0.819600  1.0  -0.5752
  O  O379  1  0.486100  0.379200  0.000590  1.0  -0.6004
  O  O380  1  0.523600  0.434300  0.927640  1.0  -0.6132
  O  O381  1  0.101800  0.460100  0.438330  1.0  -0.5968
  O  O382  1  0.142400  0.516600  0.510220  1.0  -0.6022
  O  O383  1  0.334200  0.385100  0.313900  1.0  -0.5607
  O  O384  1  0.457700  0.422400  0.319600  1.0  -0.5758
  O  O385  1  0.013900  0.879200  0.500590  1.0  -0.6005
  O  O386  1  0.976400  0.934300  0.427640  1.0  -0.613
  O  O387  1  0.398200  0.960100  0.938330  1.0  -0.5959
  O  O388  1  0.357600  0.016600  0.010220  1.0  -0.6026
  O  O389  1  0.165800  0.885100  0.813900  1.0  -0.5612
  O  O390  1  0.042300  0.922400  0.819600  1.0  -0.5755
  O  O391  1  0.486100  0.120800  0.000590  1.0  -0.6006
  O  O392  1  0.523600  0.065700  0.927640  1.0  -0.6136
  O  O393  1  0.101800  0.039900  0.438330  1.0  -0.5963
  O  O394  1  0.142400  0.983400  0.510220  1.0  -0.603
  O  O395  1  0.334200  0.114900  0.313900  1.0  -0.5602
  O  O396  1  0.457700  0.077600  0.319600  1.0  -0.5768
  O  O397  1  0.986100  0.379200  0.499410  1.0  -0.6009
  O  O398  1  0.023600  0.434300  0.572360  1.0  -0.6136
  O  O399  1  0.601800  0.460100  0.061670  1.0  -0.5961
  O  O400  1  0.642400  0.516600  0.989780  1.0  -0.6029
  O  O401  1  0.834200  0.385100  0.186100  1.0  -0.5605
  O  O402  1  0.957700  0.422400  0.180400  1.0  -0.5764
  O  O403  1  0.513900  0.620800  0.999410  1.0  -0.6012
  O  O404  1  0.476400  0.565700  0.072360  1.0  -0.614
  O  O405  1  0.898200  0.539900  0.561670  1.0  -0.5957
  O  O406  1  0.857600  0.483400  0.489780  1.0  -0.6037
  O  O407  1  0.665800  0.614900  0.686100  1.0  -0.5609
  O  O408  1  0.542300  0.577600  0.680400  1.0  -0.5752
  O  O409  1  0.864800  0.250000  0.238500  1.0  -0.9417
  O  O410  1  0.635200  0.750000  0.738500  1.0  -0.9417
  O  O411  1  0.135200  0.750000  0.761500  1.0  -0.944
  O  O412  1  0.364800  0.250000  0.261500  1.0  -0.9442
