# generated using pymatgen
data_Ni3H32C40(NO6)2
_symmetry_space_group_name_H-M   'P 1'
_cell_length_a   11.38500000
_cell_length_b   11.60600000
_cell_length_c   19.12500000
_cell_angle_alpha   90.00000000
_cell_angle_beta   90.00000000
_cell_angle_gamma   115.68400000
_symmetry_Int_Tables_number   1
_chemical_formula_structural   Ni3H32C40(NO6)2
_chemical_formula_sum   'Ni6 H64 C80 N4 O24'
_cell_volume   2277.38945812
_cell_formula_units_Z   2
loop_
 _symmetry_equiv_pos_site_id
 _symmetry_equiv_pos_as_xyz
  1  'x, y, z'
loop_
 _atom_site_type_symbol
 _atom_site_label
 _atom_site_symmetry_multiplicity
 _atom_site_fract_x
 _atom_site_fract_y
 _atom_site_fract_z
 _atom_site_occupancy
 _atom_site_charge
  Ni  Ni1  1  0.673510  0.829160  0.495060  1.0  0.8472
  Ni  Ni2  1  0.826490  0.670840  0.995060  1.0  0.8477
  Ni  Ni3  1  0.326490  0.170840  0.504940  1.0  0.8491
  Ni  Ni4  1  0.173510  0.329160  0.004940  1.0  0.8484
  Ni  Ni5  1  0.500000  0.500000  0.500000  1.0  1.1056
  Ni  Ni6  1  0.000000  0.000000  0.000000  1.0  1.1056
  H  H7  1  0.791900  0.515900  0.551900  1.0  0.103
  H  H8  1  0.870600  0.367000  0.610100  1.0  0.0965
  H  H9  1  0.990400  0.726900  0.388200  1.0  0.1107
  H  H10  1  0.076000  0.608500  0.146200  1.0  0.1014
  H  H11  1  0.158400  0.485300  0.227400  1.0  0.1067
  H  H12  1  0.293000  0.487500  0.316200  1.0  0.1084
  H  H13  1  0.449400  0.869900  0.325800  1.0  0.0989
  H  H14  1  0.376000  0.989900  0.244100  1.0  0.1103
  H  H15  1  0.247600  0.991900  0.153000  1.0  0.0974
  H  H16  1  0.596300  0.044600  0.540500  1.0  0.1004
  H  H17  1  0.708600  0.173400  0.513800  1.0  0.0877
  H  H18  1  0.738300  0.089800  0.569700  1.0  0.099
  H  H19  1  0.864600  0.044800  0.409000  1.0  0.1115
  H  H20  1  0.865900  0.174300  0.434600  1.0  0.086
  H  H21  1  0.910400  0.093000  0.485400  1.0  0.1048
  H  H22  1  0.665200  0.014100  0.437500  1.0  0.2833
  H  H23  1  0.708100  0.984100  0.051900  1.0  0.1033
  H  H24  1  0.629400  0.133000  0.110100  1.0  0.0967
  H  H25  1  0.509600  0.773100  0.888200  1.0  0.1114
  H  H26  1  0.424000  0.891500  0.646200  1.0  0.1005
  H  H27  1  0.341600  0.014700  0.727400  1.0  0.1066
  H  H28  1  0.207000  0.012500  0.816200  1.0  0.1087
  H  H29  1  0.050600  0.630100  0.825800  1.0  0.0993
  H  H30  1  0.124000  0.510100  0.744100  1.0  0.1106
  H  H31  1  0.252400  0.508100  0.653000  1.0  0.0973
  H  H32  1  0.903700  0.455400  0.040500  1.0  0.1011
  H  H33  1  0.791400  0.326600  0.013800  1.0  0.0856
  H  H34  1  0.761700  0.410200  0.069700  1.0  0.1005
  H  H35  1  0.635400  0.455200  0.909000  1.0  0.1104
  H  H36  1  0.634100  0.325700  0.934600  1.0  0.0834
  H  H37  1  0.589600  0.407000  0.985400  1.0  0.1038
  H  H38  1  0.834800  0.485900  0.937500  1.0  0.2852
  H  H39  1  0.208100  0.484100  0.448100  1.0  0.1032
  H  H40  1  0.129400  0.633000  0.389900  1.0  0.0967
  H  H41  1  0.009600  0.273100  0.611800  1.0  0.111
  H  H42  1  0.924000  0.391500  0.853800  1.0  0.1002
  H  H43  1  0.841600  0.514700  0.772600  1.0  0.1067
  H  H44  1  0.707000  0.512500  0.683800  1.0  0.1085
  H  H45  1  0.550600  0.130100  0.674200  1.0  0.0992
  H  H46  1  0.624000  0.010100  0.755900  1.0  0.1109
  H  H47  1  0.752400  0.008100  0.847000  1.0  0.097
  H  H48  1  0.403700  0.955400  0.459500  1.0  0.1028
  H  H49  1  0.291400  0.826600  0.486200  1.0  0.0854
  H  H50  1  0.261700  0.910200  0.430300  1.0  0.0993
  H  H51  1  0.135400  0.955200  0.591000  1.0  0.111
  H  H52  1  0.134100  0.825700  0.565400  1.0  0.0835
  H  H53  1  0.089600  0.907000  0.514600  1.0  0.1038
  H  H54  1  0.334800  0.985900  0.562500  1.0  0.2829
  H  H55  1  0.291900  0.015900  0.948100  1.0  0.1032
  H  H56  1  0.370600  0.867000  0.889900  1.0  0.0968
  H  H57  1  0.490400  0.226900  0.111800  1.0  0.1105
  H  H58  1  0.576000  0.108500  0.353800  1.0  0.1009
  H  H59  1  0.658400  0.985300  0.272600  1.0  0.1066
  H  H60  1  0.793000  0.987500  0.183800  1.0  0.1087
  H  H61  1  0.949400  0.369900  0.174200  1.0  0.0989
  H  H62  1  0.876000  0.489900  0.255900  1.0  0.1105
  H  H63  1  0.747600  0.491900  0.347000  1.0  0.0975
  H  H64  1  0.096300  0.544600  0.959500  1.0  0.1019
  H  H65  1  0.208600  0.673400  0.986200  1.0  0.0875
  H  H66  1  0.238300  0.589800  0.930300  1.0  0.0993
  H  H67  1  0.364600  0.544800  0.091000  1.0  0.111
  H  H68  1  0.365900  0.674300  0.065400  1.0  0.0844
  H  H69  1  0.410400  0.593000  0.014600  1.0  0.1047
  H  H70  1  0.165200  0.514100  0.062500  1.0  0.2821
  C  C71  1  0.472600  0.679600  0.390100  1.0  0.6763
  C  C72  1  0.791000  0.698600  0.470800  1.0  0.6648
  C  C73  1  0.877100  0.629500  0.470800  1.0  -0.1286
  C  C74  1  0.861400  0.540000  0.520600  1.0  -0.0592
  C  C75  1  0.948600  0.482200  0.524400  1.0  0.0329
  C  C76  1  0.937100  0.390600  0.576800  1.0  -0.108
  C  C77  1  0.980700  0.666000  0.421900  1.0  -0.0697
  C  C78  1  0.058400  0.805000  0.083700  1.0  0.6825
  C  C79  1  0.147000  0.799200  0.141600  1.0  -0.123
  C  C80  1  0.137600  0.684700  0.166100  1.0  -0.0981
  C  C81  1  0.219500  0.680300  0.221200  1.0  0.0414
  C  C82  1  0.215900  0.563000  0.247200  1.0  -0.1225
  C  C83  1  0.296200  0.564100  0.300100  1.0  -0.0398
  C  C84  1  0.384200  0.679700  0.330800  1.0  -0.1264
  C  C85  1  0.390000  0.793000  0.306500  1.0  -0.1021
  C  C86  1  0.309300  0.796600  0.251400  1.0  0.0396
  C  C87  1  0.317000  0.913100  0.224700  1.0  -0.1443
  C  C88  1  0.239700  0.914200  0.171100  1.0  -0.038
  C  C89  1  0.687400  0.087500  0.529100  1.0  -0.1384
  C  C90  1  0.851000  0.088500  0.448500  1.0  -0.1563
  C  C91  1  0.027400  0.820400  0.890100  1.0  0.6768
  C  C92  1  0.709000  0.801400  0.970800  1.0  0.666
  C  C93  1  0.622900  0.870500  0.970800  1.0  -0.1281
  C  C94  1  0.638600  0.960000  0.020600  1.0  -0.0598
  C  C95  1  0.551400  0.017800  0.024400  1.0  0.0329
  C  C96  1  0.562900  0.109400  0.076800  1.0  -0.1093
  C  C97  1  0.519300  0.834000  0.921900  1.0  -0.0725
  C  C98  1  0.441600  0.695000  0.583700  1.0  0.6833
  C  C99  1  0.353000  0.700800  0.641600  1.0  -0.1213
  C  C100  1  0.362400  0.815300  0.666100  1.0  -0.0984
  C  C101  1  0.280500  0.819700  0.721200  1.0  0.0412
  C  C102  1  0.284100  0.937000  0.747200  1.0  -0.1246
  C  C103  1  0.203800  0.935900  0.800100  1.0  -0.0411
  C  C104  1  0.115800  0.820300  0.830800  1.0  -0.1259
  C  C105  1  0.110000  0.707000  0.806500  1.0  -0.102
  C  C106  1  0.190700  0.703400  0.751400  1.0  0.0399
  C  C107  1  0.183000  0.586900  0.724700  1.0  -0.1439
  C  C108  1  0.260300  0.585800  0.671100  1.0  -0.0382
  C  C109  1  0.812600  0.412500  0.029100  1.0  -0.1405
  C  C110  1  0.649000  0.411500  0.948500  1.0  -0.1567
  C  C111  1  0.527400  0.320400  0.609900  1.0  0.677
  C  C112  1  0.209000  0.301400  0.529200  1.0  0.666
  C  C113  1  0.122900  0.370500  0.529200  1.0  -0.1282
  C  C114  1  0.138600  0.460000  0.479400  1.0  -0.0609
  C  C115  1  0.051400  0.517800  0.475600  1.0  0.0327
  C  C116  1  0.062900  0.609400  0.423200  1.0  -0.1192
  C  C117  1  0.019300  0.334000  0.578100  1.0  -0.0694
  C  C118  1  0.941600  0.195000  0.916300  1.0  0.6824
  C  C119  1  0.853000  0.200800  0.858400  1.0  -0.1214
  C  C120  1  0.862400  0.315300  0.833900  1.0  -0.0973
  C  C121  1  0.780500  0.319700  0.778800  1.0  0.0411
  C  C122  1  0.784100  0.437000  0.752800  1.0  -0.1248
  C  C123  1  0.703800  0.435900  0.699900  1.0  -0.041
  C  C124  1  0.615800  0.320300  0.669200  1.0  -0.1261
  C  C125  1  0.610000  0.207000  0.693500  1.0  -0.1022
  C  C126  1  0.690700  0.203400  0.748600  1.0  0.0398
  C  C127  1  0.683000  0.086900  0.775300  1.0  -0.1438
  C  C128  1  0.760300  0.085800  0.828900  1.0  -0.038
  C  C129  1  0.312600  0.912500  0.470900  1.0  -0.1406
  C  C130  1  0.149000  0.911500  0.551500  1.0  -0.1551
  C  C131  1  0.972600  0.179600  0.109900  1.0  0.6764
  C  C132  1  0.291000  0.198600  0.029200  1.0  0.6648
  C  C133  1  0.377100  0.129500  0.029200  1.0  -0.1285
  C  C134  1  0.361400  0.040000  0.979400  1.0  -0.0601
  C  C135  1  0.448600  0.982200  0.975600  1.0  0.0328
  C  C136  1  0.437100  0.890600  0.923200  1.0  -0.1186
  C  C137  1  0.480700  0.166000  0.078100  1.0  -0.0678
  C  C138  1  0.558400  0.305000  0.416300  1.0  0.6819
  C  C139  1  0.647000  0.299200  0.358400  1.0  -0.123
  C  C140  1  0.637600  0.184700  0.333900  1.0  -0.0972
  C  C141  1  0.719500  0.180300  0.278800  1.0  0.0414
  C  C142  1  0.715900  0.063000  0.252800  1.0  -0.1221
  C  C143  1  0.796200  0.064100  0.199900  1.0  -0.0398
  C  C144  1  0.884200  0.179700  0.169200  1.0  -0.1266
  C  C145  1  0.890000  0.293000  0.193500  1.0  -0.1019
  C  C146  1  0.809300  0.296600  0.248600  1.0  0.0395
  C  C147  1  0.817000  0.413100  0.275300  1.0  -0.1441
  C  C148  1  0.739700  0.414200  0.328900  1.0  -0.0379
  C  C149  1  0.187400  0.587500  0.970900  1.0  -0.1387
  C  C150  1  0.351000  0.588500  0.051500  1.0  -0.1535
  N  N151  1  0.716300  0.016800  0.473070  1.0  -0.3409
  N  N152  1  0.783700  0.483200  0.973070  1.0  -0.3403
  N  N153  1  0.283700  0.983200  0.526930  1.0  -0.3404
  N  N154  1  0.216300  0.516800  0.026930  1.0  -0.3419
  O  O155  1  0.448000  0.570700  0.414920  1.0  -0.5922
  O  O156  1  0.559100  0.785300  0.409150  1.0  -0.5755
  O  O157  1  0.685700  0.654900  0.507000  1.0  -0.6267
  O  O158  1  0.827400  0.803800  0.440340  1.0  -0.5513
  O  O159  1  0.976900  0.699200  0.059230  1.0  -0.6066
  O  O160  1  0.072100  0.914600  0.067480  1.0  -0.588
  O  O161  1  0.052000  0.929300  0.914920  1.0  -0.5921
  O  O162  1  0.940900  0.714700  0.909150  1.0  -0.5767
  O  O163  1  0.814300  0.845100  0.007000  1.0  -0.6266
  O  O164  1  0.672600  0.696200  0.940340  1.0  -0.5526
  O  O165  1  0.523100  0.800800  0.559230  1.0  -0.6064
  O  O166  1  0.427900  0.585400  0.567480  1.0  -0.5877
  O  O167  1  0.552000  0.429300  0.585080  1.0  -0.5926
  O  O168  1  0.440900  0.214700  0.590850  1.0  -0.5766
  O  O169  1  0.314300  0.345100  0.493000  1.0  -0.6273
  O  O170  1  0.172600  0.196200  0.559660  1.0  -0.5524
  O  O171  1  0.023100  0.300800  0.940770  1.0  -0.6059
  O  O172  1  0.927900  0.085400  0.932520  1.0  -0.5879
  O  O173  1  0.948000  0.070700  0.085080  1.0  -0.5923
  O  O174  1  0.059100  0.285300  0.090850  1.0  -0.5752
  O  O175  1  0.185700  0.154900  0.993000  1.0  -0.6275
  O  O176  1  0.327400  0.303800  0.059660  1.0  -0.5509
  O  O177  1  0.476900  0.199200  0.440770  1.0  -0.6067
  O  O178  1  0.572100  0.414600  0.432520  1.0  -0.5879
