# generated using pymatgen
data_Ni3H32C40(NO6)2
_symmetry_space_group_name_H-M   'P 1'
_cell_length_a   11.37800000
_cell_length_b   11.62590000
_cell_length_c   19.10600000
_cell_angle_alpha   90.00000000
_cell_angle_beta   90.00000000
_cell_angle_gamma   115.75300000
_symmetry_Int_Tables_number   1
_chemical_formula_structural   Ni3H32C40(NO6)2
_chemical_formula_sum   'Ni6 H64 C80 N4 O24'
_cell_volume   2276.30593472
_cell_formula_units_Z   2
loop_
 _symmetry_equiv_pos_site_id
 _symmetry_equiv_pos_as_xyz
  1  'x, y, z'
loop_
 _atom_site_type_symbol
 _atom_site_label
 _atom_site_symmetry_multiplicity
 _atom_site_fract_x
 _atom_site_fract_y
 _atom_site_fract_z
 _atom_site_occupancy
 _atom_site_charge
  Ni  Ni1  1  0.174030  0.829330  0.005150  1.0  0.8486
  Ni  Ni2  1  0.325970  0.670670  0.505150  1.0  0.8487
  Ni  Ni3  1  0.825970  0.170670  0.994850  1.0  0.8473
  Ni  Ni4  1  0.674030  0.329330  0.494850  1.0  0.8469
  Ni  Ni5  1  0.000000  0.500000  0.000000  1.0  1.0958
  Ni  Ni6  1  0.500000  0.000000  0.500000  1.0  1.0958
  H  H7  1  0.164200  0.015200  0.065000  1.0  0.2541
  H  H8  1  0.292100  0.515200  0.947400  1.0  0.1087
  H  H9  1  0.491400  0.729200  0.110900  1.0  0.1158
  H  H10  1  0.371200  0.368100  0.890100  1.0  0.0969
  H  H11  1  0.207500  0.513200  0.815900  1.0  0.1103
  H  H12  1  0.343400  0.513400  0.728100  1.0  0.1013
  H  H13  1  0.425400  0.391100  0.647700  1.0  0.0959
  H  H14  1  0.254400  0.009400  0.653500  1.0  0.0941
  H  H15  1  0.123000  0.010000  0.744100  1.0  0.115
  H  H16  1  0.051700  0.133000  0.827200  1.0  0.0974
  H  H17  1  0.367200  0.175000  0.065100  1.0  0.0905
  H  H18  1  0.366900  0.048000  0.092900  1.0  0.1155
  H  H19  1  0.412600  0.093700  0.016200  1.0  0.1028
  H  H20  1  0.205800  0.172600  0.987300  1.0  0.0931
  H  H21  1  0.240500  0.094200  0.931000  1.0  0.0988
  H  H22  1  0.097000  0.043900  0.958700  1.0  0.1028
  H  H23  1  0.335800  0.484800  0.565000  1.0  0.2554
  H  H24  1  0.207900  0.984800  0.447400  1.0  0.1086
  H  H25  1  0.008600  0.770800  0.610900  1.0  0.1157
  H  H26  1  0.128800  0.131900  0.390100  1.0  0.097
  H  H27  1  0.292500  0.986800  0.315900  1.0  0.1099
  H  H28  1  0.156600  0.986600  0.228100  1.0  0.1014
  H  H29  1  0.074600  0.108900  0.147700  1.0  0.0967
  H  H30  1  0.245600  0.490600  0.153500  1.0  0.0945
  H  H31  1  0.377000  0.490000  0.244100  1.0  0.1148
  H  H32  1  0.448300  0.367000  0.327200  1.0  0.098
  H  H33  1  0.132800  0.325000  0.565100  1.0  0.0884
  H  H34  1  0.133100  0.452000  0.592900  1.0  0.1152
  H  H35  1  0.087400  0.406300  0.516200  1.0  0.1013
  H  H36  1  0.294200  0.327400  0.487300  1.0  0.0907
  H  H37  1  0.259500  0.405800  0.431000  1.0  0.0986
  H  H38  1  0.403000  0.456100  0.458700  1.0  0.1036
  H  H39  1  0.835800  0.984800  0.935000  1.0  0.256
  H  H40  1  0.707900  0.484800  0.052600  1.0  0.1088
  H  H41  1  0.508600  0.270800  0.889100  1.0  0.1156
  H  H42  1  0.628800  0.631900  0.109900  1.0  0.097
  H  H43  1  0.792500  0.486800  0.184100  1.0  0.1102
  H  H44  1  0.656600  0.486600  0.271900  1.0  0.1009
  H  H45  1  0.574600  0.608900  0.352300  1.0  0.0965
  H  H46  1  0.745600  0.990600  0.346500  1.0  0.094
  H  H47  1  0.877000  0.990000  0.255900  1.0  0.115
  H  H48  1  0.948300  0.867000  0.172800  1.0  0.0979
  H  H49  1  0.632800  0.825000  0.934900  1.0  0.0879
  H  H50  1  0.633100  0.952000  0.907100  1.0  0.1145
  H  H51  1  0.587400  0.906300  0.983800  1.0  0.102
  H  H52  1  0.794200  0.827400  0.012700  1.0  0.0908
  H  H53  1  0.759500  0.905800  0.069000  1.0  0.1013
  H  H54  1  0.903000  0.956100  0.041300  1.0  0.1044
  H  H55  1  0.664200  0.515200  0.435000  1.0  0.2549
  H  H56  1  0.792100  0.015200  0.552600  1.0  0.1087
  H  H57  1  0.991400  0.229200  0.389100  1.0  0.1157
  H  H58  1  0.871200  0.868100  0.609900  1.0  0.0967
  H  H59  1  0.707500  0.013200  0.684100  1.0  0.1102
  H  H60  1  0.843400  0.013400  0.771900  1.0  0.1013
  H  H61  1  0.925400  0.891100  0.852300  1.0  0.0958
  H  H62  1  0.754400  0.509400  0.846500  1.0  0.0939
  H  H63  1  0.623000  0.510000  0.755900  1.0  0.1153
  H  H64  1  0.551700  0.633000  0.672800  1.0  0.0974
  H  H65  1  0.867200  0.675000  0.434900  1.0  0.0917
  H  H66  1  0.866900  0.548000  0.407100  1.0  0.1158
  H  H67  1  0.912600  0.593700  0.483800  1.0  0.103
  H  H68  1  0.705800  0.672600  0.512700  1.0  0.0933
  H  H69  1  0.740500  0.594200  0.569000  1.0  0.0994
  H  H70  1  0.597000  0.543900  0.541300  1.0  0.1039
  C  C71  1  0.291800  0.698600  0.028700  1.0  0.655
  C  C72  1  0.376500  0.629100  0.029000  1.0  -0.1207
  C  C73  1  0.360600  0.539500  0.979200  1.0  -0.0588
  C  C74  1  0.449500  0.483300  0.976100  1.0  0.0318
  C  C75  1  0.480000  0.666400  0.077900  1.0  -0.0682
  C  C76  1  0.436900  0.390200  0.923600  1.0  -0.1032
  C  C77  1  0.028900  0.323200  0.890100  1.0  0.6791
  C  C78  1  0.115900  0.321400  0.830600  1.0  -0.1335
  C  C79  1  0.204100  0.436200  0.800000  1.0  -0.0472
  C  C80  1  0.284600  0.436200  0.747300  1.0  -0.1324
  C  C81  1  0.363000  0.315300  0.666400  1.0  -0.0982
  C  C82  1  0.352300  0.200300  0.641000  1.0  -0.1256
  C  C83  1  0.261500  0.087000  0.670800  1.0  -0.0271
  C  C84  1  0.182100  0.086900  0.724900  1.0  -0.1186
  C  C85  1  0.190300  0.204100  0.751600  1.0  0.0407
  C  C86  1  0.280000  0.319800  0.721100  1.0  0.0357
  C  C87  1  0.110100  0.208900  0.806700  1.0  -0.085
  C  C88  1  0.443000  0.194900  0.584100  1.0  0.6813
  C  C89  1  0.352900  0.089900  0.052600  1.0  -0.1587
  C  C90  1  0.187600  0.088300  0.971200  1.0  -0.1327
  C  C91  1  0.208200  0.801400  0.528700  1.0  0.6558
  C  C92  1  0.123500  0.870900  0.529000  1.0  -0.1197
  C  C93  1  0.139400  0.960500  0.479200  1.0  -0.06
  C  C94  1  0.050500  0.016700  0.476100  1.0  0.0316
  C  C95  1  0.020000  0.833600  0.577900  1.0  -0.0684
  C  C96  1  0.063100  0.109800  0.423600  1.0  -0.1054
  C  C97  1  0.471100  0.176800  0.390100  1.0  0.6805
  C  C98  1  0.384100  0.178600  0.330600  1.0  -0.1337
  C  C99  1  0.295900  0.063800  0.300000  1.0  -0.0457
  C  C100  1  0.215400  0.063800  0.247300  1.0  -0.1321
  C  C101  1  0.137000  0.184700  0.166400  1.0  -0.0976
  C  C102  1  0.147700  0.299700  0.141000  1.0  -0.1259
  C  C103  1  0.238500  0.413000  0.170800  1.0  -0.0278
  C  C104  1  0.317900  0.413100  0.224900  1.0  -0.1193
  C  C105  1  0.309700  0.295900  0.251600  1.0  0.0405
  C  C106  1  0.220000  0.180200  0.221100  1.0  0.036
  C  C107  1  0.389900  0.291100  0.306700  1.0  -0.0849
  C  C108  1  0.057000  0.305100  0.084100  1.0  0.68
  C  C109  1  0.147100  0.410100  0.552600  1.0  -0.1622
  C  C110  1  0.312400  0.411700  0.471200  1.0  -0.134
  C  C111  1  0.708200  0.301400  0.971300  1.0  0.6557
  C  C112  1  0.623500  0.370900  0.971000  1.0  -0.1194
  C  C113  1  0.639400  0.460500  0.020800  1.0  -0.0585
  C  C114  1  0.550500  0.516700  0.023900  1.0  0.0315
  C  C115  1  0.520000  0.333600  0.922100  1.0  -0.0691
  C  C116  1  0.563100  0.609800  0.076400  1.0  -0.1156
  C  C117  1  0.971100  0.676800  0.109900  1.0  0.6806
  C  C118  1  0.884100  0.678600  0.169400  1.0  -0.1339
  C  C119  1  0.795900  0.563800  0.200000  1.0  -0.0459
  C  C120  1  0.715400  0.563800  0.252700  1.0  -0.1317
  C  C121  1  0.637000  0.684700  0.333600  1.0  -0.0971
  C  C122  1  0.647700  0.799700  0.359000  1.0  -0.1255
  C  C123  1  0.738500  0.913000  0.329200  1.0  -0.0287
  C  C124  1  0.817900  0.913100  0.275100  1.0  -0.1188
  C  C125  1  0.809700  0.795900  0.248400  1.0  0.0404
  C  C126  1  0.720000  0.680200  0.278900  1.0  0.0361
  C  C127  1  0.889900  0.791100  0.193300  1.0  -0.0855
  C  C128  1  0.557000  0.805100  0.415900  1.0  0.6787
  C  C129  1  0.647100  0.910100  0.947400  1.0  -0.164
  C  C130  1  0.812400  0.911700  0.028800  1.0  -0.1344
  C  C131  1  0.791800  0.198600  0.471300  1.0  0.6549
  C  C132  1  0.876500  0.129100  0.471000  1.0  -0.1206
  C  C133  1  0.860600  0.039500  0.520800  1.0  -0.0576
  C  C134  1  0.949500  0.983300  0.523900  1.0  0.0318
  C  C135  1  0.980000  0.166400  0.422100  1.0  -0.0679
  C  C136  1  0.936900  0.890200  0.576400  1.0  -0.1129
  C  C137  1  0.528900  0.823200  0.609900  1.0  0.6797
  C  C138  1  0.615900  0.821400  0.669400  1.0  -0.1334
  C  C139  1  0.704100  0.936200  0.700000  1.0  -0.0471
  C  C140  1  0.784600  0.936200  0.752700  1.0  -0.1324
  C  C141  1  0.863000  0.815300  0.833600  1.0  -0.0978
  C  C142  1  0.852300  0.700300  0.859000  1.0  -0.1253
  C  C143  1  0.761500  0.587000  0.829200  1.0  -0.0279
  C  C144  1  0.682100  0.586900  0.775100  1.0  -0.1185
  C  C145  1  0.690300  0.704100  0.748400  1.0  0.0405
  C  C146  1  0.780000  0.819800  0.778900  1.0  0.0357
  C  C147  1  0.610100  0.708900  0.693300  1.0  -0.0857
  C  C148  1  0.943000  0.694900  0.915900  1.0  0.6804
  C  C149  1  0.852900  0.589900  0.447400  1.0  -0.1618
  C  C150  1  0.687600  0.588300  0.528800  1.0  -0.1328
  N  N151  1  0.217400  0.017700  0.027500  1.0  -0.3557
  N  N152  1  0.282600  0.482300  0.527500  1.0  -0.3559
  N  N153  1  0.782600  0.982300  0.972500  1.0  -0.3558
  N  N154  1  0.717400  0.517700  0.472500  1.0  -0.3548
  O  O155  1  0.327900  0.803800  0.059800  1.0  -0.5493
  O  O156  1  0.186100  0.656200  0.992630  1.0  -0.6266
  O  O157  1  0.051300  0.429500  0.914400  1.0  -0.5819
  O  O158  1  0.941200  0.215300  0.909130  1.0  -0.5929
  O  O159  1  0.427300  0.086100  0.567700  1.0  -0.5797
  O  O160  1  0.523600  0.300800  0.559490  1.0  -0.6062
  O  O161  1  0.172100  0.696200  0.559800  1.0  -0.5514
  O  O162  1  0.313900  0.843800  0.492630  1.0  -0.6266
  O  O163  1  0.448700  0.070500  0.414400  1.0  -0.5824
  O  O164  1  0.558800  0.284700  0.409130  1.0  -0.5918
  O  O165  1  0.072700  0.413900  0.067700  1.0  -0.5799
  O  O166  1  0.976400  0.199200  0.059490  1.0  -0.6072
  O  O167  1  0.672100  0.196200  0.940200  1.0  -0.5517
  O  O168  1  0.813900  0.343800  0.007370  1.0  -0.6257
  O  O169  1  0.948700  0.570500  0.085600  1.0  -0.5818
  O  O170  1  0.058800  0.784700  0.090870  1.0  -0.5924
  O  O171  1  0.572700  0.913900  0.432300  1.0  -0.5798
  O  O172  1  0.476400  0.699200  0.440510  1.0  -0.6073
  O  O173  1  0.827900  0.303800  0.440200  1.0  -0.5502
  O  O174  1  0.686100  0.156200  0.507370  1.0  -0.6257
  O  O175  1  0.551300  0.929500  0.585600  1.0  -0.5821
  O  O176  1  0.441200  0.715300  0.590870  1.0  -0.5934
  O  O177  1  0.927300  0.586100  0.932300  1.0  -0.5796
  O  O178  1  0.023600  0.800800  0.940510  1.0  -0.6061
