# generated using pymatgen
data_CoH3(C3O2)3
_symmetry_space_group_name_H-M   'P 1'
_cell_length_a   14.27800000
_cell_length_b   18.03090000
_cell_length_c   20.20470000
_cell_angle_alpha   91.40600000
_cell_angle_beta   90.00000000
_cell_angle_gamma   90.00000000
_symmetry_Int_Tables_number   1
_chemical_formula_structural   CoH3(C3O2)3
_chemical_formula_sum   'Co12 H36 C108 O72'
_cell_volume   5200.03676586
_cell_formula_units_Z   12
loop_
 _symmetry_equiv_pos_site_id
 _symmetry_equiv_pos_as_xyz
  1  'x, y, z'
loop_
 _atom_site_type_symbol
 _atom_site_label
 _atom_site_symmetry_multiplicity
 _atom_site_fract_x
 _atom_site_fract_y
 _atom_site_fract_z
 _atom_site_occupancy
 _atom_site_charge
  Co  Co1  1  0.946730  0.753470  0.075120  1.0  1.2621
  Co  Co2  1  0.797590  0.798500  0.942360  1.0  1.1659
  Co  Co3  1  0.819510  0.293360  0.908110  1.0  1.2104
  Co  Co4  1  0.446730  0.746530  0.424880  1.0  1.2611
  Co  Co5  1  0.297590  0.701500  0.557640  1.0  1.1649
  Co  Co6  1  0.319510  0.206640  0.591890  1.0  1.2093
  Co  Co7  1  0.053270  0.246530  0.924880  1.0  1.259
  Co  Co8  1  0.202410  0.201500  0.057640  1.0  1.1653
  Co  Co9  1  0.180490  0.706640  0.091890  1.0  1.2084
  Co  Co10  1  0.553270  0.253470  0.575120  1.0  1.26
  Co  Co11  1  0.702410  0.298500  0.442360  1.0  1.1645
  Co  Co12  1  0.680490  0.793360  0.408110  1.0  1.2084
  H  H13  1  0.867700  0.529400  0.906900  1.0  0.1252
  H  H14  1  0.019300  0.810700  0.929500  1.0  0.1173
  H  H15  1  0.007300  0.025400  0.873700  1.0  0.1204
  H  H16  1  0.180000  0.968800  0.021200  1.0  0.1264
  H  H17  1  0.424500  0.708600  0.212800  1.0  0.1215
  H  H18  1  0.558400  0.713100  0.037100  1.0  0.1238
  H  H19  1  0.704700  0.741600  0.206800  1.0  0.1194
  H  H20  1  0.133200  0.462900  0.927300  1.0  0.1138
  H  H21  1  0.071700  0.679700  0.950800  1.0  0.1105
  H  H22  1  0.367700  0.970600  0.593100  1.0  0.125
  H  H23  1  0.519300  0.689300  0.570500  1.0  0.1169
  H  H24  1  0.507300  0.474600  0.626300  1.0  0.1202
  H  H25  1  0.680000  0.531200  0.478800  1.0  0.1263
  H  H26  1  0.924500  0.791400  0.287200  1.0  0.1218
  H  H27  1  0.058400  0.786900  0.462900  1.0  0.1231
  H  H28  1  0.204700  0.758400  0.293200  1.0  0.1195
  H  H29  1  0.633200  0.037100  0.572700  1.0  0.1136
  H  H30  1  0.571700  0.820300  0.549200  1.0  0.1112
  H  H31  1  0.132300  0.470600  0.093100  1.0  0.1232
  H  H32  1  0.980700  0.189300  0.070500  1.0  0.1173
  H  H33  1  0.992700  0.974600  0.126300  1.0  0.1202
  H  H34  1  0.820000  0.031200  0.978800  1.0  0.1264
  H  H35  1  0.575500  0.291400  0.787200  1.0  0.122
  H  H36  1  0.441600  0.286900  0.962900  1.0  0.1234
  H  H37  1  0.295300  0.258400  0.793200  1.0  0.12
  H  H38  1  0.866800  0.537100  0.072700  1.0  0.1144
  H  H39  1  0.928300  0.320300  0.049200  1.0  0.1113
  H  H40  1  0.632300  0.029400  0.406900  1.0  0.125
  H  H41  1  0.480700  0.310700  0.429500  1.0  0.1172
  H  H42  1  0.492700  0.525400  0.373700  1.0  0.1202
  H  H43  1  0.320000  0.468800  0.521200  1.0  0.1263
  H  H44  1  0.075500  0.208600  0.712800  1.0  0.1219
  H  H45  1  0.941600  0.213100  0.537100  1.0  0.1239
  H  H46  1  0.795300  0.241600  0.706800  1.0  0.1195
  H  H47  1  0.366800  0.962900  0.427300  1.0  0.1138
  H  H48  1  0.428300  0.179700  0.450800  1.0  0.1107
  C  C49  1  0.732700  0.743500  0.076900  1.0  0.7204
  C  C50  1  0.888000  0.676800  0.933400  1.0  0.6886
  C  C51  1  0.959100  0.615000  0.929000  1.0  -0.1306
  C  C52  1  0.930900  0.541100  0.914900  1.0  0.012
  C  C53  1  0.996600  0.484800  0.914400  1.0  -0.1669
  C  C54  1  0.967000  0.404500  0.908900  1.0  0.7077
  C  C55  1  0.142600  0.823600  0.027000  1.0  0.6873
  C  C56  1  0.107200  0.881500  0.981000  1.0  -0.1354
  C  C57  1  0.038700  0.860800  0.933700  1.0  -0.0254
  C  C58  1  0.002400  0.914200  0.893700  1.0  -0.1431
  C  C59  1  0.031000  0.988600  0.901600  1.0  0.013
  C  C60  1  0.096900  0.008600  0.950400  1.0  -0.1611
  C  C61  1  0.135900  0.955400  0.989200  1.0  0.0273
  C  C62  1  0.119100  0.089500  0.963700  1.0  0.7155
  C  C63  1  0.925400  0.891700  0.844700  1.0  0.6777
  C  C64  1  0.564600  0.737000  0.294400  1.0  0.7251
  C  C65  1  0.563700  0.728300  0.221500  1.0  -0.1772
  C  C66  1  0.479200  0.714200  0.188300  1.0  0.0354
  C  C67  1  0.478300  0.709200  0.120500  1.0  -0.139
  C  C68  1  0.560900  0.717100  0.083500  1.0  0.0343
  C  C69  1  0.644000  0.731500  0.116000  1.0  -0.158
  C  C70  1  0.646800  0.735200  0.185200  1.0  0.0335
  C  C71  1  0.388700  0.691800  0.083000  1.0  0.6664
  C  C72  1  0.090000  0.501700  0.926400  1.0  0.0298
  C  C73  1  0.119300  0.574100  0.939000  1.0  -0.1504
  C  C74  1  0.052400  0.630600  0.941100  1.0  0.0129
  C  C75  1  0.219100  0.589200  0.955400  1.0  0.6367
  C  C76  1  0.232700  0.756500  0.423100  1.0  0.721
  C  C77  1  0.388000  0.823200  0.566600  1.0  0.6889
  C  C78  1  0.459100  0.885000  0.571000  1.0  -0.1256
  C  C79  1  0.430900  0.958900  0.585100  1.0  0.0099
  C  C80  1  0.496600  0.015200  0.585600  1.0  -0.1648
  C  C81  1  0.467000  0.095500  0.591100  1.0  0.706
  C  C82  1  0.642600  0.676400  0.473000  1.0  0.6875
  C  C83  1  0.607200  0.618500  0.519000  1.0  -0.1353
  C  C84  1  0.538700  0.639200  0.566300  1.0  -0.0266
  C  C85  1  0.502400  0.585800  0.606300  1.0  -0.1412
  C  C86  1  0.531000  0.511400  0.598400  1.0  0.018
  C  C87  1  0.596900  0.491400  0.549600  1.0  -0.1612
  C  C88  1  0.635900  0.544600  0.510800  1.0  0.0263
  C  C89  1  0.619100  0.410500  0.536300  1.0  0.7136
  C  C90  1  0.425400  0.608300  0.655300  1.0  0.6772
  C  C91  1  0.064600  0.763000  0.205600  1.0  0.724
  C  C92  1  0.063700  0.771700  0.278500  1.0  -0.1778
  C  C93  1  0.979200  0.785800  0.311700  1.0  0.0347
  C  C94  1  0.978300  0.790800  0.379500  1.0  -0.1388
  C  C95  1  0.060900  0.782900  0.416500  1.0  0.0332
  C  C96  1  0.144000  0.768500  0.384000  1.0  -0.1584
  C  C97  1  0.146800  0.764800  0.314800  1.0  0.0329
  C  C98  1  0.888700  0.808200  0.417000  1.0  0.6651
  C  C99  1  0.590000  0.998300  0.573600  1.0  0.0316
  C  C100  1  0.619300  0.925900  0.561000  1.0  -0.1473
  C  C101  1  0.552400  0.869400  0.558900  1.0  0.0147
  C  C102  1  0.719100  0.910800  0.544600  1.0  0.6369
  C  C103  1  0.267300  0.256500  0.923100  1.0  0.721
  C  C104  1  0.112000  0.323200  0.066600  1.0  0.6897
  C  C105  1  0.040900  0.385000  0.071000  1.0  -0.1267
  C  C106  1  0.069100  0.458900  0.085100  1.0  0.0095
  C  C107  1  0.003400  0.515200  0.085600  1.0  -0.1648
  C  C108  1  0.033000  0.595500  0.091100  1.0  0.7066
  C  C109  1  0.857400  0.176400  0.973000  1.0  0.6867
  C  C110  1  0.892800  0.118500  0.019000  1.0  -0.1336
  C  C111  1  0.961300  0.139200  0.066300  1.0  -0.0162
  C  C112  1  0.997600  0.085800  0.106300  1.0  -0.142
  C  C113  1  0.969000  0.011400  0.098400  1.0  0.0173
  C  C114  1  0.903100  0.991400  0.049600  1.0  -0.1618
  C  C115  1  0.864100  0.044600  0.010800  1.0  0.0274
  C  C116  1  0.880900  0.910500  0.036300  1.0  0.714
  C  C117  1  0.074600  0.108300  0.155300  1.0  0.6795
  C  C118  1  0.435400  0.263000  0.705600  1.0  0.7241
  C  C119  1  0.436300  0.271700  0.778500  1.0  -0.1778
  C  C120  1  0.520800  0.285800  0.811700  1.0  0.0355
  C  C121  1  0.521700  0.290800  0.879500  1.0  -0.139
  C  C122  1  0.439100  0.282900  0.916500  1.0  0.0335
  C  C123  1  0.356000  0.268500  0.884000  1.0  -0.1583
  C  C124  1  0.353200  0.264800  0.814800  1.0  0.0336
  C  C125  1  0.611300  0.308200  0.917000  1.0  0.6644
  C  C126  1  0.910000  0.498300  0.073600  1.0  0.0304
  C  C127  1  0.880700  0.425900  0.061000  1.0  -0.1461
  C  C128  1  0.947600  0.369400  0.058900  1.0  0.0138
  C  C129  1  0.780900  0.410800  0.044600  1.0  0.6373
  C  C130  1  0.767300  0.243500  0.576900  1.0  0.7207
  C  C131  1  0.612000  0.176800  0.433400  1.0  0.6876
  C  C132  1  0.540900  0.115000  0.429000  1.0  -0.1323
  C  C133  1  0.569100  0.041100  0.414900  1.0  0.0104
  C  C134  1  0.503400  0.984800  0.414400  1.0  -0.1668
  C  C135  1  0.533000  0.904500  0.408900  1.0  0.7079
  C  C136  1  0.357400  0.323600  0.527000  1.0  0.6866
  C  C137  1  0.392800  0.381500  0.481000  1.0  -0.1348
  C  C138  1  0.461300  0.360800  0.433700  1.0  -0.0131
  C  C139  1  0.497600  0.414200  0.393700  1.0  -0.1417
  C  C140  1  0.469000  0.488600  0.401600  1.0  0.0112
  C  C141  1  0.403100  0.508600  0.450400  1.0  -0.162
  C  C142  1  0.364100  0.455400  0.489200  1.0  0.0269
  C  C143  1  0.380900  0.589500  0.463700  1.0  0.7164
  C  C144  1  0.574600  0.391700  0.344700  1.0  0.6773
  C  C145  1  0.935400  0.237000  0.794400  1.0  0.7251
  C  C146  1  0.936300  0.228300  0.721500  1.0  -0.1772
  C  C147  1  0.020800  0.214200  0.688300  1.0  0.0361
  C  C148  1  0.021700  0.209200  0.620500  1.0  -0.1384
  C  C149  1  0.939100  0.217100  0.583500  1.0  0.0334
  C  C150  1  0.856000  0.231500  0.616000  1.0  -0.1581
  C  C151  1  0.853200  0.235200  0.685200  1.0  0.0339
  C  C152  1  0.111300  0.191800  0.583000  1.0  0.6653
  C  C153  1  0.410000  0.001700  0.426400  1.0  0.0315
  C  C154  1  0.380700  0.074100  0.439000  1.0  -0.1481
  C  C155  1  0.447600  0.130600  0.441100  1.0  0.0139
  C  C156  1  0.280900  0.089200  0.455400  1.0  0.6398
  O  O157  1  0.809400  0.738400  0.106300  1.0  -0.5578
  O  O158  1  0.719000  0.756200  0.016500  1.0  -0.5994
  O  O159  1  0.909200  0.732300  0.972100  1.0  -0.672
  O  O160  1  0.817400  0.678100  0.898000  1.0  -0.4991
  O  O161  1  0.028900  0.357900  0.912100  1.0  -0.5802
  O  O162  1  0.878900  0.392800  0.901700  1.0  -0.5836
  O  O163  1  0.089400  0.766100  0.036500  1.0  -0.6779
  O  O164  1  0.221300  0.826500  0.052500  1.0  -0.489
  O  O165  1  0.176900  0.103400  0.008500  1.0  -0.5903
  O  O166  1  0.073300  0.136700  0.930400  1.0  -0.6037
  O  O167  1  0.876900  0.832800  0.858900  1.0  -0.5946
  O  O168  1  0.915700  0.927400  0.795200  1.0  -0.4213
  O  O169  1  0.644100  0.751200  0.319500  1.0  -0.5694
  O  O170  1  0.490400  0.728900  0.326300  1.0  -0.5692
  O  O171  1  0.314800  0.691100  0.116600  1.0  -0.5484
  O  O172  1  0.393100  0.682300  0.021300  1.0  -0.3501
  O  O173  1  0.233800  0.657600  0.979800  1.0  -0.4273
  O  O174  1  0.280500  0.544000  0.944400  1.0  -0.4185
  O  O175  1  0.309400  0.761600  0.393700  1.0  -0.5578
  O  O176  1  0.219000  0.743800  0.483500  1.0  -0.5984
  O  O177  1  0.409200  0.767700  0.527900  1.0  -0.6721
  O  O178  1  0.317400  0.821900  0.602000  1.0  -0.4982
  O  O179  1  0.528900  0.142100  0.587900  1.0  -0.5805
  O  O180  1  0.378900  0.107200  0.598300  1.0  -0.5873
  O  O181  1  0.589400  0.733900  0.463500  1.0  -0.6776
  O  O182  1  0.721300  0.673500  0.447500  1.0  -0.491
  O  O183  1  0.676900  0.396600  0.491500  1.0  -0.5914
  O  O184  1  0.573300  0.363300  0.569600  1.0  -0.6064
  O  O185  1  0.376900  0.667200  0.641100  1.0  -0.5884
  O  O186  1  0.415700  0.572600  0.704800  1.0  -0.4189
  O  O187  1  0.144100  0.748800  0.180500  1.0  -0.5694
  O  O188  1  0.990400  0.771100  0.173700  1.0  -0.5693
  O  O189  1  0.814800  0.808900  0.383400  1.0  -0.5502
  O  O190  1  0.893100  0.817700  0.478700  1.0  -0.3622
  O  O191  1  0.733800  0.842400  0.520200  1.0  -0.4322
  O  O192  1  0.780500  0.956000  0.555600  1.0  -0.4182
  O  O193  1  0.190600  0.261600  0.893700  1.0  -0.5566
  O  O194  1  0.281000  0.243800  0.983500  1.0  -0.599
  O  O195  1  0.090800  0.267700  0.027900  1.0  -0.6717
  O  O196  1  0.182600  0.321900  0.102000  1.0  -0.4984
  O  O197  1  0.971100  0.642100  0.087900  1.0  -0.5806
  O  O198  1  0.121100  0.607200  0.098300  1.0  -0.5848
  O  O199  1  0.910600  0.233900  0.963500  1.0  -0.6782
  O  O200  1  0.778700  0.173500  0.947500  1.0  -0.4911
  O  O201  1  0.823100  0.896600  0.991500  1.0  -0.5902
  O  O202  1  0.926700  0.863300  0.069600  1.0  -0.6056
  O  O203  1  0.123100  0.167200  0.141100  1.0  -0.5866
  O  O204  1  0.084300  0.072600  0.204800  1.0  -0.4171
  O  O205  1  0.355900  0.248800  0.680500  1.0  -0.5706
  O  O206  1  0.509600  0.271100  0.673700  1.0  -0.5691
  O  O207  1  0.685200  0.308900  0.883400  1.0  -0.5502
  O  O208  1  0.606900  0.317700  0.978700  1.0  -0.3601
  O  O209  1  0.766200  0.342400  0.020200  1.0  -0.4423
  O  O210  1  0.719500  0.456000  0.055600  1.0  -0.4154
  O  O211  1  0.690600  0.238400  0.606300  1.0  -0.5566
  O  O212  1  0.781000  0.256200  0.516500  1.0  -0.5978
  O  O213  1  0.590800  0.232300  0.472100  1.0  -0.6719
  O  O214  1  0.682600  0.178100  0.398000  1.0  -0.5002
  O  O215  1  0.471100  0.857900  0.412100  1.0  -0.5796
  O  O216  1  0.621100  0.892800  0.401700  1.0  -0.5835
  O  O217  1  0.410600  0.266100  0.536500  1.0  -0.678
  O  O218  1  0.278700  0.326500  0.552500  1.0  -0.492
  O  O219  1  0.323100  0.603400  0.508500  1.0  -0.5896
  O  O220  1  0.426700  0.636700  0.430400  1.0  -0.6019
  O  O221  1  0.623100  0.332800  0.358900  1.0  -0.589
  O  O222  1  0.584300  0.427400  0.295200  1.0  -0.4192
  O  O223  1  0.855900  0.251200  0.819500  1.0  -0.5704
  O  O224  1  0.009600  0.228900  0.826300  1.0  -0.5686
  O  O225  1  0.185200  0.191100  0.616600  1.0  -0.5479
  O  O226  1  0.106900  0.182300  0.521300  1.0  -0.3475
  O  O227  1  0.266200  0.157600  0.479800  1.0  -0.4432
  O  O228  1  0.219500  0.044000  0.444400  1.0  -0.4169
