# generated using pymatgen
data_Zn5H50C44N9O16
_symmetry_space_group_name_H-M   'P 1'
_cell_length_a   15.19880000
_cell_length_b   19.20390000
_cell_length_c   25.75400000
_cell_angle_alpha   90.00000000
_cell_angle_beta   90.00000000
_cell_angle_gamma   90.00000000
_symmetry_Int_Tables_number   1
_chemical_formula_structural   Zn5H50C44N9O16
_chemical_formula_sum   'Zn20 H200 C176 N36 O64'
_cell_volume   7516.98056443
_cell_formula_units_Z   4
loop_
 _symmetry_equiv_pos_site_id
 _symmetry_equiv_pos_as_xyz
  1  'x, y, z'
loop_
 _atom_site_type_symbol
 _atom_site_label
 _atom_site_symmetry_multiplicity
 _atom_site_fract_x
 _atom_site_fract_y
 _atom_site_fract_z
 _atom_site_occupancy
 _atom_site_charge
  Zn  Zn1  1  0.427250  0.838130  0.234180  1.0  0.9152
  Zn  Zn2  1  0.469620  0.963920  0.451620  1.0  0.9567
  Zn  Zn3  1  0.072750  0.161870  0.734180  1.0  0.915
  Zn  Zn4  1  0.030380  0.036080  0.951620  1.0  0.9568
  Zn  Zn5  1  0.572750  0.338130  0.765820  1.0  0.915
  Zn  Zn6  1  0.530380  0.463920  0.548380  1.0  0.9567
  Zn  Zn7  1  0.927250  0.661870  0.265820  1.0  0.9152
  Zn  Zn8  1  0.969620  0.536080  0.048380  1.0  0.9567
  Zn  Zn9  1  0.572750  0.161870  0.765820  1.0  0.915
  Zn  Zn10  1  0.530380  0.036080  0.548380  1.0  0.9567
  Zn  Zn11  1  0.927250  0.838130  0.265820  1.0  0.9152
  Zn  Zn12  1  0.969620  0.963920  0.048380  1.0  0.9567
  Zn  Zn13  1  0.427250  0.661870  0.234180  1.0  0.9151
  Zn  Zn14  1  0.469620  0.536080  0.451620  1.0  0.9568
  Zn  Zn15  1  0.072750  0.338130  0.734180  1.0  0.915
  Zn  Zn16  1  0.030380  0.463920  0.951620  1.0  0.9568
  Zn  Zn17  1  0.299690  0.750000  0.312360  1.0  0.8773
  Zn  Zn18  1  0.200310  0.250000  0.812360  1.0  0.8771
  Zn  Zn19  1  0.700310  0.250000  0.687640  1.0  0.8762
  Zn  Zn20  1  0.799690  0.750000  0.187640  1.0  0.8765
  H  H21  1  0.581100  0.943400  0.322000  1.0  0.1573
  H  H22  1  0.524800  0.006600  0.341500  1.0  0.153
  H  H23  1  0.512900  0.978800  0.284700  1.0  0.1662
  H  H24  1  0.264300  0.810600  0.419800  1.0  0.1484
  H  H25  1  0.280200  0.883500  0.445500  1.0  0.137
  H  H26  1  0.344600  0.821700  0.457100  1.0  0.1467
  H  H27  1  0.530900  0.853600  0.644700  1.0  0.1321
  H  H28  1  0.971000  0.019800  0.384900  1.0  0.1329
  H  H29  1  0.792000  0.067000  0.493500  1.0  0.1263
  H  H30  1  0.732900  0.931000  0.382800  1.0  0.1204
  H  H31  1  0.601100  0.909400  0.207800  1.0  0.1587
  H  H32  1  0.676700  0.887100  0.169900  1.0  0.16
  H  H33  1  0.692800  0.886800  0.230000  1.0  0.1638
  H  H34  1  0.928900  0.081600  0.549200  1.0  0.1106
  H  H35  1  0.895400  0.149300  0.521100  1.0  0.0967
  H  H36  1  0.068200  0.158000  0.508300  1.0  0.1344
  H  H37  1  0.062700  0.124800  0.563800  1.0  0.1408
  H  H38  1  0.017400  0.196600  0.552800  1.0  0.1219
  H  H39  1  0.499800  0.849700  0.727100  1.0  0.0969
  H  H40  1  0.601900  0.836900  0.732700  1.0  0.0825
  H  H41  1  0.558100  0.828600  0.817500  1.0  0.0999
  H  H42  1  0.469000  0.792400  0.802800  1.0  0.0844
  H  H43  1  0.940500  0.064600  0.467100  1.0  0.2631
  H  H44  1  0.918900  0.056600  0.822000  1.0  0.1588
  H  H45  1  0.975200  0.993400  0.841500  1.0  0.1534
  H  H46  1  0.987100  0.021200  0.784700  1.0  0.1659
  H  H47  1  0.235700  0.189400  0.919800  1.0  0.1478
  H  H48  1  0.219800  0.116500  0.945500  1.0  0.1371
  H  H49  1  0.155400  0.178300  0.957100  1.0  0.1468
  H  H50  1  0.969100  0.146400  0.144700  1.0  0.1318
  H  H51  1  0.529000  0.980200  0.884900  1.0  0.1323
  H  H52  1  0.708000  0.933000  0.993500  1.0  0.1269
  H  H53  1  0.767100  0.069000  0.882800  1.0  0.1206
  H  H54  1  0.898900  0.090600  0.707800  1.0  0.159
  H  H55  1  0.823300  0.112900  0.669900  1.0  0.1604
  H  H56  1  0.807200  0.113200  0.730000  1.0  0.1639
  H  H57  1  0.571100  0.918400  0.049200  1.0  0.1099
  H  H58  1  0.604600  0.850700  0.021100  1.0  0.0974
  H  H59  1  0.431800  0.842000  0.008300  1.0  0.1324
  H  H60  1  0.437300  0.875200  0.063800  1.0  0.1394
  H  H61  1  0.482600  0.803400  0.052800  1.0  0.1204
  H  H62  1  0.000200  0.150300  0.227100  1.0  0.0975
  H  H63  1  0.898100  0.163100  0.232700  1.0  0.0848
  H  H64  1  0.941900  0.171400  0.317500  1.0  0.1021
  H  H65  1  0.031000  0.207600  0.302800  1.0  0.0912
  H  H66  1  0.559500  0.935400  0.967100  1.0  0.2639
  H  H67  1  0.418900  0.443400  0.678000  1.0  0.1584
  H  H68  1  0.475200  0.506600  0.658500  1.0  0.1533
  H  H69  1  0.487100  0.478800  0.715300  1.0  0.1666
  H  H70  1  0.735700  0.310600  0.580200  1.0  0.1475
  H  H71  1  0.719800  0.383500  0.554500  1.0  0.1366
  H  H72  1  0.655400  0.321700  0.542900  1.0  0.1464
  H  H73  1  0.469100  0.353600  0.355300  1.0  0.1323
  H  H74  1  0.029000  0.519800  0.615100  1.0  0.1323
  H  H75  1  0.208000  0.567000  0.506500  1.0  0.1265
  H  H76  1  0.267100  0.431000  0.617200  1.0  0.1206
  H  H77  1  0.398900  0.409400  0.792200  1.0  0.1583
  H  H78  1  0.323300  0.387100  0.830100  1.0  0.16
  H  H79  1  0.307200  0.386800  0.770000  1.0  0.1641
  H  H80  1  0.071100  0.581600  0.450800  1.0  0.1098
  H  H81  1  0.104600  0.649300  0.478900  1.0  0.0967
  H  H82  1  0.931800  0.658000  0.491700  1.0  0.1345
  H  H83  1  0.937300  0.624800  0.436200  1.0  0.1394
  H  H84  1  0.982600  0.696600  0.447200  1.0  0.122
  H  H85  1  0.500200  0.349700  0.272900  1.0  0.0977
  H  H86  1  0.398100  0.336900  0.267300  1.0  0.0841
  H  H87  1  0.441900  0.328600  0.182500  1.0  0.1012
  H  H88  1  0.531000  0.292400  0.197200  1.0  0.0932
  H  H89  1  0.059500  0.564600  0.532900  1.0  0.2637
  H  H90  1  0.081100  0.556600  0.178000  1.0  0.157
  H  H91  1  0.024800  0.493400  0.158500  1.0  0.153
  H  H92  1  0.012900  0.521200  0.215300  1.0  0.1661
  H  H93  1  0.764300  0.689400  0.080200  1.0  0.1476
  H  H94  1  0.780200  0.616500  0.054500  1.0  0.1381
  H  H95  1  0.844600  0.678300  0.042900  1.0  0.1462
  H  H96  1  0.030900  0.646400  0.855300  1.0  0.1315
  H  H97  1  0.471000  0.480200  0.115100  1.0  0.1329
  H  H98  1  0.292000  0.433000  0.006500  1.0  0.1273
  H  H99  1  0.232900  0.569000  0.117200  1.0  0.1205
  H  H100  1  0.101100  0.590600  0.292200  1.0  0.1591
  H  H101  1  0.176700  0.612900  0.330100  1.0  0.1605
  H  H102  1  0.192800  0.613200  0.270000  1.0  0.1642
  H  H103  1  0.428900  0.418400  0.950800  1.0  0.1099
  H  H104  1  0.395400  0.350700  0.978900  1.0  0.0966
  H  H105  1  0.568200  0.342000  0.991700  1.0  0.1335
  H  H106  1  0.562700  0.375200  0.936200  1.0  0.1394
  H  H107  1  0.517400  0.303400  0.947200  1.0  0.1199
  H  H108  1  0.999800  0.650300  0.772900  1.0  0.0966
  H  H109  1  0.101900  0.663100  0.767300  1.0  0.0822
  H  H110  1  0.058100  0.671400  0.682500  1.0  0.1001
  H  H111  1  0.969000  0.707600  0.697200  1.0  0.0831
  H  H112  1  0.440500  0.435400  0.032900  1.0  0.2643
  H  H113  1  0.418900  0.056600  0.678000  1.0  0.1586
  H  H114  1  0.475200  0.993400  0.658500  1.0  0.1531
  H  H115  1  0.487100  0.021200  0.715300  1.0  0.1666
  H  H116  1  0.735700  0.189400  0.580200  1.0  0.1475
  H  H117  1  0.719800  0.116500  0.554500  1.0  0.1369
  H  H118  1  0.655400  0.178300  0.542900  1.0  0.1465
  H  H119  1  0.469100  0.146400  0.355300  1.0  0.132
  H  H120  1  0.029000  0.980200  0.615100  1.0  0.1324
  H  H121  1  0.208000  0.933000  0.506500  1.0  0.1268
  H  H122  1  0.267100  0.069000  0.617200  1.0  0.1204
  H  H123  1  0.398900  0.090600  0.792200  1.0  0.159
  H  H124  1  0.323300  0.112900  0.830100  1.0  0.1605
  H  H125  1  0.307200  0.113200  0.770000  1.0  0.1641
  H  H126  1  0.071100  0.918400  0.450800  1.0  0.1098
  H  H127  1  0.104600  0.850700  0.478900  1.0  0.097
  H  H128  1  0.931800  0.842000  0.491700  1.0  0.1345
  H  H129  1  0.937300  0.875200  0.436200  1.0  0.1388
  H  H130  1  0.982600  0.803400  0.447200  1.0  0.1197
  H  H131  1  0.500200  0.150300  0.272900  1.0  0.0977
  H  H132  1  0.398100  0.163100  0.267300  1.0  0.0853
  H  H133  1  0.441900  0.171400  0.182500  1.0  0.1015
  H  H134  1  0.531000  0.207600  0.197200  1.0  0.0916
  H  H135  1  0.059500  0.935400  0.532900  1.0  0.2643
  H  H136  1  0.081100  0.943400  0.178000  1.0  0.1572
  H  H137  1  0.024800  0.006600  0.158500  1.0  0.1533
  H  H138  1  0.012900  0.978800  0.215300  1.0  0.1664
  H  H139  1  0.764300  0.810600  0.080200  1.0  0.1477
  H  H140  1  0.780200  0.883500  0.054500  1.0  0.1373
  H  H141  1  0.844600  0.821700  0.042900  1.0  0.1459
  H  H142  1  0.030900  0.853600  0.855300  1.0  0.132
  H  H143  1  0.471000  0.019800  0.115100  1.0  0.1329
  H  H144  1  0.292000  0.067000  0.006500  1.0  0.1271
  H  H145  1  0.232900  0.931000  0.117200  1.0  0.1205
  H  H146  1  0.101100  0.909400  0.292200  1.0  0.1588
  H  H147  1  0.176700  0.887100  0.330100  1.0  0.1601
  H  H148  1  0.192800  0.886800  0.270000  1.0  0.164
  H  H149  1  0.428900  0.081600  0.950800  1.0  0.1098
  H  H150  1  0.395400  0.149300  0.978900  1.0  0.0964
  H  H151  1  0.568200  0.158000  0.991700  1.0  0.1335
  H  H152  1  0.562700  0.124800  0.936200  1.0  0.1404
  H  H153  1  0.517400  0.196600  0.947200  1.0  0.1221
  H  H154  1  0.999800  0.849700  0.772900  1.0  0.0968
  H  H155  1  0.101900  0.836900  0.767300  1.0  0.0828
  H  H156  1  0.058100  0.828600  0.682500  1.0  0.1007
  H  H157  1  0.969000  0.792400  0.697200  1.0  0.0842
  H  H158  1  0.440500  0.064600  0.032900  1.0  0.2641
  H  H159  1  0.581100  0.556600  0.322000  1.0  0.1572
  H  H160  1  0.524800  0.493400  0.341500  1.0  0.1533
  H  H161  1  0.512900  0.521200  0.284700  1.0  0.166
  H  H162  1  0.264300  0.689400  0.419800  1.0  0.1484
  H  H163  1  0.280200  0.616500  0.445500  1.0  0.1376
  H  H164  1  0.344600  0.678300  0.457100  1.0  0.1465
  H  H165  1  0.530900  0.646400  0.644700  1.0  0.1314
  H  H166  1  0.971000  0.480200  0.384900  1.0  0.1329
  H  H167  1  0.792000  0.433000  0.493500  1.0  0.1271
  H  H168  1  0.732900  0.569000  0.382800  1.0  0.1208
  H  H169  1  0.601100  0.590600  0.207800  1.0  0.1589
  H  H170  1  0.676700  0.612900  0.169900  1.0  0.1606
  H  H171  1  0.692800  0.613200  0.230000  1.0  0.1643
  H  H172  1  0.928900  0.418400  0.549200  1.0  0.1099
  H  H173  1  0.895400  0.350700  0.521100  1.0  0.0969
  H  H174  1  0.068200  0.342000  0.508300  1.0  0.134
  H  H175  1  0.062700  0.375200  0.563800  1.0  0.1399
  H  H176  1  0.017400  0.303400  0.552800  1.0  0.1205
  H  H177  1  0.499800  0.650300  0.727100  1.0  0.0964
  H  H178  1  0.601900  0.663100  0.732700  1.0  0.0819
  H  H179  1  0.558100  0.671400  0.817500  1.0  0.1029
  H  H180  1  0.469000  0.707600  0.802800  1.0  0.0835
  H  H181  1  0.940500  0.435400  0.467100  1.0  0.2634
  H  H182  1  0.918900  0.443400  0.822000  1.0  0.1585
  H  H183  1  0.975200  0.506600  0.841500  1.0  0.1529
  H  H184  1  0.987100  0.478800  0.784700  1.0  0.1657
  H  H185  1  0.235700  0.310600  0.919800  1.0  0.1477
  H  H186  1  0.219800  0.383500  0.945500  1.0  0.1361
  H  H187  1  0.155400  0.321700  0.957100  1.0  0.1471
  H  H188  1  0.969100  0.353600  0.144700  1.0  0.1324
  H  H189  1  0.529000  0.519800  0.884900  1.0  0.1323
  H  H190  1  0.708000  0.567000  0.993500  1.0  0.1262
  H  H191  1  0.767100  0.431000  0.882800  1.0  0.1205
  H  H192  1  0.898900  0.409400  0.707800  1.0  0.1583
  H  H193  1  0.823300  0.387100  0.669900  1.0  0.1597
  H  H194  1  0.807200  0.386800  0.730000  1.0  0.1637
  H  H195  1  0.571100  0.581600  0.049200  1.0  0.1106
  H  H196  1  0.604600  0.649300  0.021100  1.0  0.097
  H  H197  1  0.431800  0.658000  0.008300  1.0  0.1325
  H  H198  1  0.437300  0.624800  0.063800  1.0  0.1398
  H  H199  1  0.482600  0.696600  0.052800  1.0  0.122
  H  H200  1  0.000200  0.349700  0.227100  1.0  0.0977
  H  H201  1  0.898100  0.336900  0.232700  1.0  0.0837
  H  H202  1  0.941900  0.328600  0.317500  1.0  0.1011
  H  H203  1  0.031000  0.292400  0.302800  1.0  0.0926
  H  H204  1  0.559500  0.564600  0.967100  1.0  0.2634
  H  H205  1  0.305800  0.750000  0.224400  1.0  0.4179
  H  H206  1  0.496300  0.750000  0.511900  1.0  0.1288
  H  H207  1  0.541300  0.750000  0.688500  1.0  0.2982
  H  H208  1  0.557100  0.750000  0.801100  1.0  0.1891
  H  H209  1  0.194200  0.250000  0.724400  1.0  0.4158
  H  H210  1  0.003700  0.250000  0.011900  1.0  0.1281
  H  H211  1  0.958700  0.250000  0.188500  1.0  0.2974
  H  H212  1  0.942900  0.250000  0.301100  1.0  0.1862
  H  H213  1  0.694200  0.250000  0.775600  1.0  0.4161
  H  H214  1  0.503700  0.250000  0.488100  1.0  0.1281
  H  H215  1  0.458700  0.250000  0.311500  1.0  0.2971
  H  H216  1  0.442900  0.250000  0.198900  1.0  0.1903
  H  H217  1  0.805800  0.750000  0.275600  1.0  0.4164
  H  H218  1  0.996300  0.750000  0.988100  1.0  0.1287
  H  H219  1  0.041300  0.750000  0.811500  1.0  0.2972
  H  H220  1  0.057100  0.750000  0.698900  1.0  0.1936
  C  C221  1  0.524700  0.965800  0.320000  1.0  -0.4163
  C  C222  1  0.455600  0.917000  0.338280  1.0  0.3599
  C  C223  1  0.363600  0.864000  0.386230  1.0  0.448
  C  C224  1  0.308300  0.843100  0.431100  1.0  -0.4017
  C  C225  1  0.510300  0.881100  0.545800  1.0  0.7208
  C  C226  1  0.514800  0.812600  0.574000  1.0  -0.1148
  C  C227  1  0.526800  0.811800  0.626600  1.0  -0.1783
  C  C228  1  0.883700  0.925400  0.331600  1.0  0.7173
  C  C229  1  0.855600  0.966700  0.377700  1.0  -0.0819
  C  C230  1  0.917200  0.011200  0.400900  1.0  -0.1086
  C  C231  1  0.897200  0.042300  0.447700  1.0  -0.0663
  C  C232  1  0.809000  0.039300  0.465600  1.0  -0.0951
  C  C233  1  0.749300  0.997100  0.442900  1.0  -0.1367
  C  C234  1  0.773500  0.960400  0.398500  1.0  0.0038
  C  C235  1  0.657900  0.991300  0.465000  1.0  0.6979
  C  C236  1  0.650300  0.878600  0.203100  1.0  -0.4288
  C  C237  1  0.619700  0.805500  0.205800  1.0  0.4598
  C  C238  1  0.943600  0.116000  0.523200  1.0  0.0157
  C  C239  1  0.032000  0.152000  0.538400  1.0  -0.3428
  C  C240  1  0.544000  0.816300  0.737700  1.0  0.0622
  C  C241  1  0.531000  0.794700  0.795300  1.0  -0.3551
  C  C242  1  0.975300  0.034200  0.820000  1.0  -0.4166
  C  C243  1  0.044400  0.083000  0.838280  1.0  0.3603
  C  C244  1  0.136400  0.136000  0.886230  1.0  0.4481
  C  C245  1  0.191700  0.156900  0.931100  1.0  -0.4023
  C  C246  1  0.989700  0.118900  0.045800  1.0  0.72
  C  C247  1  0.985200  0.187400  0.074000  1.0  -0.115
  C  C248  1  0.973200  0.188200  0.126600  1.0  -0.1812
  C  C249  1  0.616300  0.074600  0.831600  1.0  0.7175
  C  C250  1  0.644400  0.033300  0.877700  1.0  -0.0816
  C  C251  1  0.582800  0.988800  0.900900  1.0  -0.11
  C  C252  1  0.602800  0.957700  0.947700  1.0  -0.0672
  C  C253  1  0.691000  0.960700  0.965600  1.0  -0.0957
  C  C254  1  0.750700  0.002900  0.942900  1.0  -0.1366
  C  C255  1  0.726500  0.039600  0.898500  1.0  0.0037
  C  C256  1  0.842100  0.008700  0.965000  1.0  0.6983
  C  C257  1  0.849700  0.121400  0.703100  1.0  -0.4291
  C  C258  1  0.880300  0.194500  0.705800  1.0  0.4603
  C  C259  1  0.556400  0.884000  0.023200  1.0  0.0161
  C  C260  1  0.468000  0.848000  0.038400  1.0  -0.343
  C  C261  1  0.956000  0.183700  0.237700  1.0  0.0606
  C  C262  1  0.969000  0.205300  0.295300  1.0  -0.3536
  C  C263  1  0.475300  0.465800  0.680000  1.0  -0.4164
  C  C264  1  0.544400  0.417000  0.661720  1.0  0.3596
  C  C265  1  0.636400  0.364000  0.613770  1.0  0.4476
  C  C266  1  0.691700  0.343100  0.568900  1.0  -0.4019
  C  C267  1  0.489700  0.381100  0.454200  1.0  0.7199
  C  C268  1  0.485200  0.312600  0.426000  1.0  -0.117
  C  C269  1  0.473200  0.311800  0.373400  1.0  -0.1801
  C  C270  1  0.116300  0.425400  0.668400  1.0  0.7186
  C  C271  1  0.144400  0.466700  0.622300  1.0  -0.0799
  C  C272  1  0.082800  0.511200  0.599100  1.0  -0.1097
  C  C273  1  0.102800  0.542300  0.552300  1.0  -0.066
  C  C274  1  0.191000  0.539300  0.534400  1.0  -0.0965
  C  C275  1  0.250700  0.497100  0.557100  1.0  -0.1363
  C  C276  1  0.226500  0.460400  0.601500  1.0  0.0031
  C  C277  1  0.342100  0.491300  0.535000  1.0  0.6976
  C  C278  1  0.349700  0.378600  0.796900  1.0  -0.4299
  C  C279  1  0.380300  0.305500  0.794200  1.0  0.4603
  C  C280  1  0.056400  0.616000  0.476800  1.0  0.0167
  C  C281  1  0.968000  0.652000  0.461600  1.0  -0.3425
  C  C282  1  0.456000  0.316300  0.262300  1.0  0.0612
  C  C283  1  0.469000  0.294700  0.204700  1.0  -0.3526
  C  C284  1  0.024700  0.534200  0.180000  1.0  -0.4169
  C  C285  1  0.955600  0.583000  0.161720  1.0  0.3594
  C  C286  1  0.863600  0.636000  0.113770  1.0  0.4483
  C  C287  1  0.808300  0.656900  0.068900  1.0  -0.4013
  C  C288  1  0.010300  0.618900  0.954200  1.0  0.7207
  C  C289  1  0.014800  0.687400  0.926000  1.0  -0.1167
  C  C290  1  0.026800  0.688200  0.873400  1.0  -0.1814
  C  C291  1  0.383700  0.574600  0.168400  1.0  0.7182
  C  C292  1  0.355600  0.533300  0.122300  1.0  -0.0801
  C  C293  1  0.417200  0.488800  0.099100  1.0  -0.1074
  C  C294  1  0.397200  0.457700  0.052300  1.0  -0.0635
  C  C295  1  0.309000  0.460700  0.034400  1.0  -0.0958
  C  C296  1  0.249300  0.502900  0.057100  1.0  -0.1369
  C  C297  1  0.273500  0.539600  0.101500  1.0  0.0026
  C  C298  1  0.157900  0.508700  0.035000  1.0  0.6979
  C  C299  1  0.150300  0.621400  0.296900  1.0  -0.4291
  C  C300  1  0.119700  0.694500  0.294200  1.0  0.4605
  C  C301  1  0.443600  0.384000  0.976800  1.0  0.0157
  C  C302  1  0.532000  0.348000  0.961600  1.0  -0.342
  C  C303  1  0.044000  0.683700  0.762300  1.0  0.0608
  C  C304  1  0.031000  0.705300  0.704700  1.0  -0.3524
  C  C305  1  0.475300  0.034200  0.680000  1.0  -0.4167
  C  C306  1  0.544400  0.083000  0.661720  1.0  0.3598
  C  C307  1  0.636400  0.136000  0.613770  1.0  0.4481
  C  C308  1  0.691700  0.156900  0.568900  1.0  -0.402
  C  C309  1  0.489700  0.118900  0.454200  1.0  0.7199
  C  C310  1  0.485200  0.187400  0.426000  1.0  -0.1165
  C  C311  1  0.473200  0.188200  0.373400  1.0  -0.182
  C  C312  1  0.116300  0.074600  0.668400  1.0  0.7185
  C  C313  1  0.144400  0.033300  0.622300  1.0  -0.0804
  C  C314  1  0.082800  0.988800  0.599100  1.0  -0.1094
  C  C315  1  0.102800  0.957700  0.552300  1.0  -0.0644
  C  C316  1  0.191000  0.960700  0.534400  1.0  -0.0962
  C  C317  1  0.250700  0.002900  0.557100  1.0  -0.1368
  C  C318  1  0.226500  0.039600  0.601500  1.0  0.0027
  C  C319  1  0.342100  0.008700  0.535000  1.0  0.6982
  C  C320  1  0.349700  0.121400  0.796900  1.0  -0.4296
  C  C321  1  0.380300  0.194500  0.794200  1.0  0.4568
  C  C322  1  0.056400  0.884000  0.476800  1.0  0.0161
  C  C323  1  0.968000  0.848000  0.461600  1.0  -0.3415
  C  C324  1  0.456000  0.183700  0.262300  1.0  0.0602
  C  C325  1  0.469000  0.205300  0.204700  1.0  -0.3519
  C  C326  1  0.024700  0.965800  0.180000  1.0  -0.4164
  C  C327  1  0.955600  0.917000  0.161720  1.0  0.3593
  C  C328  1  0.863600  0.864000  0.113770  1.0  0.4478
  C  C329  1  0.808300  0.843100  0.068900  1.0  -0.4013
  C  C330  1  0.010300  0.881100  0.954200  1.0  0.7207
  C  C331  1  0.014800  0.812600  0.926000  1.0  -0.1174
  C  C332  1  0.026800  0.811800  0.873400  1.0  -0.1782
  C  C333  1  0.383700  0.925400  0.168400  1.0  0.7182
  C  C334  1  0.355600  0.966700  0.122300  1.0  -0.0797
  C  C335  1  0.417200  0.011200  0.099100  1.0  -0.1079
  C  C336  1  0.397200  0.042300  0.052300  1.0  -0.065
  C  C337  1  0.309000  0.039300  0.034400  1.0  -0.0957
  C  C338  1  0.249300  0.997100  0.057100  1.0  -0.137
  C  C339  1  0.273500  0.960400  0.101500  1.0  0.0032
  C  C340  1  0.157900  0.991300  0.035000  1.0  0.6976
  C  C341  1  0.150300  0.878600  0.296900  1.0  -0.4292
  C  C342  1  0.119700  0.805500  0.294200  1.0  0.4566
  C  C343  1  0.443600  0.116000  0.976800  1.0  0.0157
  C  C344  1  0.532000  0.152000  0.961600  1.0  -0.3419
  C  C345  1  0.044000  0.816300  0.762300  1.0  0.0616
  C  C346  1  0.031000  0.794700  0.704700  1.0  -0.3515
  C  C347  1  0.524700  0.534200  0.320000  1.0  -0.4169
  C  C348  1  0.455600  0.583000  0.338280  1.0  0.36
  C  C349  1  0.363600  0.636000  0.386230  1.0  0.4484
  C  C350  1  0.308300  0.656900  0.431100  1.0  -0.402
  C  C351  1  0.510300  0.618900  0.545800  1.0  0.7206
  C  C352  1  0.514800  0.687400  0.574000  1.0  -0.115
  C  C353  1  0.526800  0.688200  0.626600  1.0  -0.1797
  C  C354  1  0.883700  0.574600  0.331600  1.0  0.7171
  C  C355  1  0.855600  0.533300  0.377700  1.0  -0.0815
  C  C356  1  0.917200  0.488800  0.400900  1.0  -0.1084
  C  C357  1  0.897200  0.457700  0.447700  1.0  -0.0654
  C  C358  1  0.809000  0.460700  0.465600  1.0  -0.0952
  C  C359  1  0.749300  0.502900  0.442900  1.0  -0.1366
  C  C360  1  0.773500  0.539600  0.398500  1.0  0.0037
  C  C361  1  0.657900  0.508700  0.465000  1.0  0.698
  C  C362  1  0.650300  0.621400  0.203100  1.0  -0.4284
  C  C363  1  0.619700  0.694500  0.205800  1.0  0.4566
  C  C364  1  0.943600  0.384000  0.523200  1.0  0.0157
  C  C365  1  0.032000  0.348000  0.538400  1.0  -0.3429
  C  C366  1  0.544000  0.683700  0.737700  1.0  0.0612
  C  C367  1  0.531000  0.705300  0.795300  1.0  -0.3525
  C  C368  1  0.975300  0.465800  0.820000  1.0  -0.4163
  C  C369  1  0.044400  0.417000  0.838280  1.0  0.3602
  C  C370  1  0.136400  0.364000  0.886230  1.0  0.4477
  C  C371  1  0.191700  0.343100  0.931100  1.0  -0.4023
  C  C372  1  0.989700  0.381100  0.045800  1.0  0.7202
  C  C373  1  0.985200  0.312600  0.074000  1.0  -0.1145
  C  C374  1  0.973200  0.311800  0.126600  1.0  -0.179
  C  C375  1  0.616300  0.425400  0.831600  1.0  0.7176
  C  C376  1  0.644400  0.466700  0.877700  1.0  -0.082
  C  C377  1  0.582800  0.511200  0.900900  1.0  -0.1098
  C  C378  1  0.602800  0.542300  0.947700  1.0  -0.0682
  C  C379  1  0.691000  0.539300  0.965600  1.0  -0.0961
  C  C380  1  0.750700  0.497100  0.942900  1.0  -0.1361
  C  C381  1  0.726500  0.460400  0.898500  1.0  0.0039
  C  C382  1  0.842100  0.491300  0.965000  1.0  0.6978
  C  C383  1  0.849700  0.378600  0.703100  1.0  -0.4295
  C  C384  1  0.880300  0.305500  0.705800  1.0  0.456
  C  C385  1  0.556400  0.616000  0.023200  1.0  0.0167
  C  C386  1  0.468000  0.652000  0.038400  1.0  -0.3435
  C  C387  1  0.956000  0.316300  0.237700  1.0  0.0618
  C  C388  1  0.969000  0.294700  0.295300  1.0  -0.354
  C  C389  1  0.533000  0.750000  0.652800  1.0  -0.046
  C  C390  1  0.506900  0.750000  0.547400  1.0  0.0449
  C  C391  1  0.967000  0.250000  0.152800  1.0  -0.0452
  C  C392  1  0.993100  0.250000  0.047400  1.0  0.0451
  C  C393  1  0.467000  0.250000  0.347200  1.0  -0.0477
  C  C394  1  0.493100  0.250000  0.452600  1.0  0.0467
  C  C395  1  0.033000  0.750000  0.847200  1.0  -0.0485
  C  C396  1  0.006900  0.750000  0.952600  1.0  0.0469
  N  N397  1  0.417900  0.869000  0.308830  1.0  -0.3495
  N  N398  1  0.358200  0.834570  0.340100  1.0  -0.362
  N  N399  1  0.424400  0.915100  0.387320  1.0  -0.5001
  N  N400  1  0.540000  0.786000  0.218730  1.0  -0.3302
  N  N401  1  0.082100  0.131000  0.808830  1.0  -0.3492
  N  N402  1  0.141800  0.165430  0.840100  1.0  -0.3624
  N  N403  1  0.075600  0.084900  0.887320  1.0  -0.5003
  N  N404  1  0.960000  0.214000  0.718730  1.0  -0.3294
  N  N405  1  0.582100  0.369000  0.691170  1.0  -0.352
  N  N406  1  0.641800  0.334570  0.659900  1.0  -0.3631
  N  N407  1  0.575600  0.415100  0.612680  1.0  -0.4994
  N  N408  1  0.460000  0.286000  0.781270  1.0  -0.3293
  N  N409  1  0.917900  0.631000  0.191170  1.0  -0.352
  N  N410  1  0.858200  0.665430  0.159900  1.0  -0.3616
  N  N411  1  0.924400  0.584900  0.112680  1.0  -0.5004
  N  N412  1  0.040000  0.714000  0.281270  1.0  -0.3303
  N  N413  1  0.582100  0.131000  0.691170  1.0  -0.3524
  N  N414  1  0.641800  0.165430  0.659900  1.0  -0.3629
  N  N415  1  0.575600  0.084900  0.612680  1.0  -0.5003
  N  N416  1  0.460000  0.214000  0.781270  1.0  -0.3293
  N  N417  1  0.917900  0.869000  0.191170  1.0  -0.3516
  N  N418  1  0.858200  0.834570  0.159900  1.0  -0.3619
  N  N419  1  0.924400  0.915100  0.112680  1.0  -0.4998
  N  N420  1  0.040000  0.786000  0.281270  1.0  -0.3303
  N  N421  1  0.417900  0.631000  0.308830  1.0  -0.3489
  N  N422  1  0.358200  0.665430  0.340100  1.0  -0.3615
  N  N423  1  0.424400  0.584900  0.387320  1.0  -0.5003
  N  N424  1  0.540000  0.714000  0.218730  1.0  -0.3299
  N  N425  1  0.082100  0.369000  0.808830  1.0  -0.35
  N  N426  1  0.141800  0.334570  0.840100  1.0  -0.3632
  N  N427  1  0.075600  0.415100  0.887320  1.0  -0.4999
  N  N428  1  0.960000  0.286000  0.718730  1.0  -0.3296
  N  N429  1  0.671700  0.750000  0.196500  1.0  -0.4385
  N  N430  1  0.828300  0.250000  0.696500  1.0  -0.4389
  N  N431  1  0.328300  0.250000  0.803500  1.0  -0.4394
  N  N432  1  0.171700  0.750000  0.303500  1.0  -0.4387
  O  O433  1  0.487000  0.879050  0.498850  1.0  -0.5794
  O  O434  1  0.527600  0.934500  0.570790  1.0  -0.6025
  O  O435  1  0.601200  0.961100  0.437530  1.0  -0.559
  O  O436  1  0.643800  0.018200  0.508250  1.0  -0.5827
  O  O437  1  0.836900  0.879000  0.317100  1.0  -0.5244
  O  O438  1  0.954300  0.934400  0.310400  1.0  -0.5816
  O  O439  1  0.963000  0.079400  0.472700  1.0  -0.6841
  O  O440  1  0.013000  0.120950  0.998850  1.0  -0.5797
  O  O441  1  0.972400  0.065500  0.070790  1.0  -0.6027
  O  O442  1  0.898800  0.038900  0.937530  1.0  -0.5583
  O  O443  1  0.856200  0.981800  0.008250  1.0  -0.5814
  O  O444  1  0.663100  0.121000  0.817100  1.0  -0.5232
  O  O445  1  0.545700  0.065600  0.810400  1.0  -0.5816
  O  O446  1  0.537000  0.920600  0.972700  1.0  -0.6917
  O  O447  1  0.513000  0.379050  0.501150  1.0  -0.5784
  O  O448  1  0.472400  0.434500  0.429210  1.0  -0.6035
  O  O449  1  0.398800  0.461100  0.562470  1.0  -0.5587
  O  O450  1  0.356200  0.518200  0.491750  1.0  -0.5822
  O  O451  1  0.163100  0.379000  0.682900  1.0  -0.524
  O  O452  1  0.045700  0.434400  0.689600  1.0  -0.5819
  O  O453  1  0.037000  0.579400  0.527300  1.0  -0.6922
  O  O454  1  0.987000  0.620950  0.001150  1.0  -0.5785
  O  O455  1  0.027600  0.565500  0.929210  1.0  -0.6027
  O  O456  1  0.101200  0.538900  0.062470  1.0  -0.5594
  O  O457  1  0.143800  0.481800  0.991750  1.0  -0.5825
  O  O458  1  0.336900  0.621000  0.182900  1.0  -0.523
  O  O459  1  0.454300  0.565600  0.189600  1.0  -0.5817
  O  O460  1  0.463000  0.420600  0.027300  1.0  -0.6824
  O  O461  1  0.513000  0.120950  0.501150  1.0  -0.5787
  O  O462  1  0.472400  0.065500  0.429210  1.0  -0.6031
  O  O463  1  0.398800  0.038900  0.562470  1.0  -0.559
  O  O464  1  0.356200  0.981800  0.491750  1.0  -0.582
  O  O465  1  0.163100  0.121000  0.682900  1.0  -0.5236
  O  O466  1  0.045700  0.065600  0.689600  1.0  -0.5818
  O  O467  1  0.037000  0.920600  0.527300  1.0  -0.6926
  O  O468  1  0.987000  0.879050  0.001150  1.0  -0.5786
  O  O469  1  0.027600  0.934500  0.929210  1.0  -0.6029
  O  O470  1  0.101200  0.961100  0.062470  1.0  -0.5592
  O  O471  1  0.143800  0.018200  0.991750  1.0  -0.5835
  O  O472  1  0.336900  0.879000  0.182900  1.0  -0.5241
  O  O473  1  0.454300  0.934400  0.189600  1.0  -0.5821
  O  O474  1  0.463000  0.079400  0.027300  1.0  -0.6831
  O  O475  1  0.487000  0.620950  0.498850  1.0  -0.5792
  O  O476  1  0.527600  0.565500  0.570790  1.0  -0.6023
  O  O477  1  0.601200  0.538900  0.437530  1.0  -0.5585
  O  O478  1  0.643800  0.481800  0.508250  1.0  -0.5826
  O  O479  1  0.836900  0.621000  0.317100  1.0  -0.5229
  O  O480  1  0.954300  0.565600  0.310400  1.0  -0.5815
  O  O481  1  0.963000  0.420600  0.472700  1.0  -0.6838
  O  O482  1  0.013000  0.379050  0.998850  1.0  -0.5795
  O  O483  1  0.972400  0.434500  0.070790  1.0  -0.6031
  O  O484  1  0.898800  0.461100  0.937530  1.0  -0.5585
  O  O485  1  0.856200  0.518200  0.008250  1.0  -0.5817
  O  O486  1  0.663100  0.379000  0.817100  1.0  -0.5238
  O  O487  1  0.545700  0.434400  0.810400  1.0  -0.5813
  O  O488  1  0.537000  0.579400  0.972700  1.0  -0.692
  O  O489  1  0.354700  0.750000  0.242800  1.0  -0.9468
  O  O490  1  0.535800  0.750000  0.706700  1.0  -0.7381
  O  O491  1  0.145300  0.250000  0.742800  1.0  -0.9461
  O  O492  1  0.964200  0.250000  0.206700  1.0  -0.7375
  O  O493  1  0.645300  0.250000  0.757200  1.0  -0.9466
  O  O494  1  0.464200  0.250000  0.293300  1.0  -0.7362
  O  O495  1  0.854700  0.750000  0.257200  1.0  -0.9475
  O  O496  1  0.035800  0.750000  0.793300  1.0  -0.7364
