# generated using pymatgen
data_CoH7C5NO4
_symmetry_space_group_name_H-M   'P 1'
_cell_length_a   7.14900000
_cell_length_b   10.46800000
_cell_length_c   11.29500000
_cell_angle_alpha   90.00000000
_cell_angle_beta   90.00000000
_cell_angle_gamma   90.00000000
_symmetry_Int_Tables_number   1
_chemical_formula_structural   CoH7C5NO4
_chemical_formula_sum   'Co4 H28 C20 N4 O16'
_cell_volume   845.26959294
_cell_formula_units_Z   4
loop_
 _symmetry_equiv_pos_site_id
 _symmetry_equiv_pos_as_xyz
  1  'x, y, z'
loop_
 _atom_site_type_symbol
 _atom_site_label
 _atom_site_symmetry_multiplicity
 _atom_site_fract_x
 _atom_site_fract_y
 _atom_site_fract_z
 _atom_site_occupancy
 _atom_site_charge
  Co  Co1  1  0.106830  0.935860  0.541890  1.0  0.9253
  Co  Co2  1  0.393170  0.064140  0.041890  1.0  0.9253
  Co  Co3  1  0.893170  0.435860  0.958110  1.0  0.9259
  Co  Co4  1  0.606830  0.564140  0.458110  1.0  0.9248
  H  H5  1  0.195000  0.136900  0.862800  1.0  0.3395
  H  H6  1  0.325200  0.041300  0.818200  1.0  0.323
  H  H7  1  0.352500  0.277300  0.779700  1.0  0.0966
  H  H8  1  0.491100  0.123700  0.660100  1.0  0.0868
  H  H9  1  0.625600  0.239100  0.684000  1.0  0.0933
  H  H10  1  0.649300  0.003800  0.804500  1.0  0.1121
  H  H11  1  0.784700  0.118800  0.826600  1.0  0.1296
  H  H12  1  0.305000  0.863100  0.362800  1.0  0.3396
  H  H13  1  0.174800  0.958700  0.318200  1.0  0.3185
  H  H14  1  0.147500  0.722700  0.279700  1.0  0.0961
  H  H15  1  0.008900  0.876300  0.160100  1.0  0.086
  H  H16  1  0.874400  0.760900  0.184000  1.0  0.0919
  H  H17  1  0.850700  0.996200  0.304500  1.0  0.1118
  H  H18  1  0.715300  0.881200  0.326600  1.0  0.1294
  H  H19  1  0.805000  0.636900  0.637200  1.0  0.3398
  H  H20  1  0.674800  0.541300  0.681800  1.0  0.3232
  H  H21  1  0.647500  0.777300  0.720300  1.0  0.0964
  H  H22  1  0.508900  0.623700  0.839900  1.0  0.0856
  H  H23  1  0.374400  0.739100  0.816000  1.0  0.0919
  H  H24  1  0.350700  0.503800  0.695500  1.0  0.1117
  H  H25  1  0.215300  0.618800  0.673400  1.0  0.1293
  H  H26  1  0.695000  0.363100  0.137200  1.0  0.3394
  H  H27  1  0.825200  0.458700  0.181800  1.0  0.3193
  H  H28  1  0.852500  0.222700  0.220300  1.0  0.096
  H  H29  1  0.991100  0.376300  0.339900  1.0  0.0853
  H  H30  1  0.125600  0.260900  0.316000  1.0  0.093
  H  H31  1  0.149300  0.496200  0.195500  1.0  0.1122
  H  H32  1  0.284700  0.381200  0.173400  1.0  0.1298
  C  C33  1  0.542100  0.280500  0.915600  1.0  0.6392
  C  C34  1  0.843500  0.023800  0.673200  1.0  0.6918
  C  C35  1  0.435200  0.213600  0.815800  1.0  0.0534
  C  C36  1  0.564200  0.166500  0.720600  1.0  -0.1301
  C  C37  1  0.711600  0.075200  0.766600  1.0  -0.3108
  C  C38  1  0.957900  0.719500  0.415600  1.0  0.6403
  C  C39  1  0.656500  0.976200  0.173200  1.0  0.6913
  C  C40  1  0.064800  0.786400  0.315800  1.0  0.0537
  C  C41  1  0.935800  0.833500  0.220600  1.0  -0.1296
  C  C42  1  0.788400  0.924800  0.266600  1.0  -0.3097
  C  C43  1  0.457900  0.780500  0.584400  1.0  0.6391
  C  C44  1  0.156500  0.523800  0.826800  1.0  0.6899
  C  C45  1  0.564800  0.713600  0.684200  1.0  0.0544
  C  C46  1  0.435800  0.666500  0.779400  1.0  -0.1302
  C  C47  1  0.288400  0.575200  0.733400  1.0  -0.3111
  C  C48  1  0.042100  0.219500  0.084400  1.0  0.6396
  C  C49  1  0.343500  0.476200  0.326800  1.0  0.6904
  C  C50  1  0.935200  0.286400  0.184200  1.0  0.0546
  C  C51  1  0.064200  0.333500  0.279400  1.0  -0.1298
  C  C52  1  0.211600  0.424800  0.233400  1.0  -0.314
  N  N53  1  0.315200  0.111200  0.864100  1.0  -0.7157
  N  N54  1  0.184800  0.888800  0.364100  1.0  -0.7176
  N  N55  1  0.684800  0.611200  0.635900  1.0  -0.717
  N  N56  1  0.815200  0.388800  0.135900  1.0  -0.7162
  O  O57  1  0.990800  0.965200  0.710100  1.0  -0.6011
  O  O58  1  0.814800  0.036400  0.565400  1.0  -0.5924
  O  O59  1  0.529200  0.235700  0.018400  1.0  -0.542
  O  O60  1  0.642100  0.373600  0.884800  1.0  -0.592
  O  O61  1  0.509200  0.034800  0.210100  1.0  -0.6027
  O  O62  1  0.685200  0.963600  0.065400  1.0  -0.5931
  O  O63  1  0.970800  0.764300  0.518400  1.0  -0.5421
  O  O64  1  0.857900  0.626400  0.384800  1.0  -0.5916
  O  O65  1  0.009200  0.465200  0.789900  1.0  -0.6023
  O  O66  1  0.185200  0.536400  0.934600  1.0  -0.5928
  O  O67  1  0.470800  0.735700  0.481600  1.0  -0.5422
  O  O68  1  0.357900  0.873600  0.615200  1.0  -0.592
  O  O69  1  0.490800  0.534800  0.289900  1.0  -0.6016
  O  O70  1  0.314800  0.463600  0.434600  1.0  -0.5924
  O  O71  1  0.029200  0.264300  0.981600  1.0  -0.5423
  O  O72  1  0.142100  0.126400  0.115200  1.0  -0.5915
