# generated using pymatgen
data_Ce2H12(C4O5)3
_symmetry_space_group_name_H-M   'P 1'
_cell_length_a   9.41930000
_cell_length_b   9.41930000
_cell_length_c   17.47570000
_cell_angle_alpha   90.00000000
_cell_angle_beta   90.00000000
_cell_angle_gamma   120.00000000
_symmetry_Int_Tables_number   1
_chemical_formula_structural   Ce2H12(C4O5)3
_chemical_formula_sum   'Ce4 H24 C24 O30'
_cell_volume   1342.77260032
_cell_formula_units_Z   2
loop_
 _symmetry_equiv_pos_site_id
 _symmetry_equiv_pos_as_xyz
  1  'x, y, z'
loop_
 _atom_site_type_symbol
 _atom_site_label
 _atom_site_symmetry_multiplicity
 _atom_site_fract_x
 _atom_site_fract_y
 _atom_site_fract_z
 _atom_site_occupancy
 _atom_site_charge
  Ce  Ce1  1  0.333333  0.666667  0.750000  1.0  2.3559
  Ce  Ce2  1  0.666667  0.333333  0.250000  1.0  2.3559
  Ce  Ce3  1  0.000000  0.000000  0.000000  1.0  2.1638
  Ce  Ce4  1  0.000000  0.000000  0.500000  1.0  2.1638
  H  H5  1  0.568770  0.594920  0.921330  1.0  0.109
  H  H6  1  0.503510  0.676260  0.977710  1.0  0.0964
  H  H7  1  0.026150  0.431230  0.921330  1.0  0.1085
  H  H8  1  0.172750  0.496490  0.977710  1.0  0.0981
  H  H9  1  0.405080  0.973850  0.921330  1.0  0.1084
  H  H10  1  0.323740  0.827250  0.977710  1.0  0.0984
  H  H11  1  0.568770  0.594920  0.578670  1.0  0.1093
  H  H12  1  0.503510  0.676260  0.522290  1.0  0.0963
  H  H13  1  0.026150  0.431230  0.578670  1.0  0.1088
  H  H14  1  0.172750  0.496490  0.522290  1.0  0.0984
  H  H15  1  0.405080  0.973850  0.578670  1.0  0.1083
  H  H16  1  0.323740  0.827250  0.522290  1.0  0.098
  H  H17  1  0.973850  0.405080  0.078670  1.0  0.1082
  H  H18  1  0.827250  0.323740  0.022290  1.0  0.0964
  H  H19  1  0.594920  0.568770  0.078670  1.0  0.1088
  H  H20  1  0.676260  0.503510  0.022290  1.0  0.0981
  H  H21  1  0.431230  0.026150  0.078670  1.0  0.1087
  H  H22  1  0.496490  0.172750  0.022290  1.0  0.0984
  H  H23  1  0.973850  0.405080  0.421330  1.0  0.1085
  H  H24  1  0.827250  0.323740  0.477710  1.0  0.0963
  H  H25  1  0.594920  0.568770  0.421330  1.0  0.1085
  H  H26  1  0.676260  0.503510  0.477710  1.0  0.0987
  H  H27  1  0.431230  0.026150  0.421330  1.0  0.1082
  H  H28  1  0.496490  0.172750  0.477710  1.0  0.098
  C  C29  1  0.648900  0.833800  0.894900  1.0  0.7716
  C  C30  1  0.597100  0.691800  0.948500  1.0  -0.0777
  C  C31  1  0.184900  0.351100  0.894900  1.0  0.7694
  C  C32  1  0.094700  0.402900  0.948500  1.0  -0.0754
  C  C33  1  0.166200  0.815100  0.894900  1.0  0.7715
  C  C34  1  0.308200  0.905300  0.948500  1.0  -0.0759
  C  C35  1  0.648900  0.833800  0.605100  1.0  0.7722
  C  C36  1  0.597100  0.691800  0.551500  1.0  -0.0779
  C  C37  1  0.184900  0.351100  0.605100  1.0  0.771
  C  C38  1  0.094700  0.402900  0.551500  1.0  -0.0753
  C  C39  1  0.166200  0.815100  0.605100  1.0  0.7711
  C  C40  1  0.308200  0.905300  0.551500  1.0  -0.0762
  C  C41  1  0.815100  0.166200  0.105100  1.0  0.7709
  C  C42  1  0.905300  0.308200  0.051500  1.0  -0.0762
  C  C43  1  0.833800  0.648900  0.105100  1.0  0.7714
  C  C44  1  0.691800  0.597100  0.051500  1.0  -0.0775
  C  C45  1  0.351100  0.184900  0.105100  1.0  0.7715
  C  C46  1  0.402900  0.094700  0.051500  1.0  -0.0759
  C  C47  1  0.815100  0.166200  0.394900  1.0  0.7703
  C  C48  1  0.905300  0.308200  0.448500  1.0  -0.0762
  C  C49  1  0.833800  0.648900  0.394900  1.0  0.7701
  C  C50  1  0.691800  0.597100  0.448500  1.0  -0.0772
  C  C51  1  0.351100  0.184900  0.394900  1.0  0.7718
  C  C52  1  0.402900  0.094700  0.448500  1.0  -0.0756
  O  O53  1  0.549500  0.821200  0.844400  1.0  -0.7882
  O  O54  1  0.789200  0.959500  0.903900  1.0  -0.6848
  O  O55  1  0.271700  0.450500  0.844400  1.0  -0.7875
  O  O56  1  0.170300  0.210800  0.903900  1.0  -0.6874
  O  O57  1  0.178800  0.728300  0.844400  1.0  -0.7914
  O  O58  1  0.040500  0.829700  0.903900  1.0  -0.686
  O  O59  1  0.549500  0.821200  0.655600  1.0  -0.7888
  O  O60  1  0.789200  0.959500  0.596100  1.0  -0.6844
  O  O61  1  0.271700  0.450500  0.655600  1.0  -0.7875
  O  O62  1  0.170300  0.210800  0.596100  1.0  -0.6872
  O  O63  1  0.178800  0.728300  0.655600  1.0  -0.7926
  O  O64  1  0.040500  0.829700  0.596100  1.0  -0.6867
  O  O65  1  0.728300  0.178800  0.155600  1.0  -0.7883
  O  O66  1  0.829700  0.040500  0.096100  1.0  -0.6849
  O  O67  1  0.821200  0.549500  0.155600  1.0  -0.7885
  O  O68  1  0.959500  0.789200  0.096100  1.0  -0.6848
  O  O69  1  0.450500  0.271700  0.155600  1.0  -0.7929
  O  O70  1  0.210800  0.170300  0.096100  1.0  -0.6865
  O  O71  1  0.728300  0.178800  0.344400  1.0  -0.7877
  O  O72  1  0.829700  0.040500  0.403900  1.0  -0.6852
  O  O73  1  0.821200  0.549500  0.344400  1.0  -0.7886
  O  O74  1  0.959500  0.789200  0.403900  1.0  -0.6857
  O  O75  1  0.450500  0.271700  0.344400  1.0  -0.7914
  O  O76  1  0.210800  0.170300  0.403900  1.0  -0.6858
  O  O77  1  0.728000  0.728000  0.000000  1.0  -0.3583
  O  O78  1  0.000000  0.272000  0.000000  1.0  -0.3596
  O  O79  1  0.272000  0.000000  0.000000  1.0  -0.3553
  O  O80  1  0.728000  0.728000  0.500000  1.0  -0.3583
  O  O81  1  0.000000  0.272000  0.500000  1.0  -0.3596
  O  O82  1  0.272000  0.000000  0.500000  1.0  -0.3553
