# generated using pymatgen
data_CdH2(CN2)4
_symmetry_space_group_name_H-M   'P 1'
_cell_length_a   7.99110000
_cell_length_b   10.19830000
_cell_length_c   12.10810000
_cell_angle_alpha   65.09380000
_cell_angle_beta   70.73190000
_cell_angle_gamma   90.00000000
_symmetry_Int_Tables_number   1
_chemical_formula_structural   CdH2(CN2)4
_chemical_formula_sum   'Cd4 H8 C16 N32'
_cell_volume   833.65139770
_cell_formula_units_Z   4
loop_
 _symmetry_equiv_pos_site_id
 _symmetry_equiv_pos_as_xyz
  1  'x, y, z'
loop_
 _atom_site_type_symbol
 _atom_site_label
 _atom_site_symmetry_multiplicity
 _atom_site_fract_x
 _atom_site_fract_y
 _atom_site_fract_z
 _atom_site_occupancy
 _atom_site_charge
  Cd  Cd1  1  0.250000  0.750000  0.500000  1.0  0.8686
  Cd  Cd2  1  0.750000  0.250000  0.500000  1.0  0.8686
  Cd  Cd3  1  0.000000  0.000000  0.000000  1.0  0.8532
  Cd  Cd4  1  0.500000  0.500000  0.000000  1.0  0.8731
  H  H5  1  0.235500  0.840700  0.199000  1.0  0.0879
  H  H6  1  0.565500  0.960300  0.199000  1.0  0.0873
  H  H7  1  0.264500  0.539700  0.801000  1.0  0.0878
  H  H8  1  0.934500  0.659300  0.801000  1.0  0.0868
  H  H9  1  0.764500  0.159300  0.801000  1.0  0.0848
  H  H10  1  0.434500  0.039700  0.801000  1.0  0.0859
  H  H11  1  0.735500  0.460300  0.199000  1.0  0.0877
  H  H12  1  0.065500  0.340700  0.199000  1.0  0.0867
  C  C13  1  0.038790  0.996510  0.350420  1.0  0.3856
  C  C14  1  0.167400  0.899540  0.231200  1.0  0.261
  C  C15  1  0.610790  0.653070  0.350420  1.0  0.3814
  C  C16  1  0.601400  0.869260  0.231200  1.0  0.2608
  C  C17  1  0.461210  0.846930  0.649580  1.0  0.384
  C  C18  1  0.332600  0.630740  0.768800  1.0  0.263
  C  C19  1  0.889210  0.503490  0.649580  1.0  0.3828
  C  C20  1  0.898600  0.600460  0.768800  1.0  0.2632
  C  C21  1  0.961210  0.003490  0.649580  1.0  0.3861
  C  C22  1  0.832600  0.100460  0.768800  1.0  0.262
  C  C23  1  0.389210  0.346930  0.649580  1.0  0.3824
  C  C24  1  0.398600  0.130740  0.768800  1.0  0.2616
  C  C25  1  0.538790  0.153070  0.350420  1.0  0.3826
  C  C26  1  0.667400  0.369260  0.231200  1.0  0.2617
  C  C27  1  0.110790  0.496510  0.350420  1.0  0.3845
  C  C28  1  0.101400  0.399540  0.231200  1.0  0.2628
  N  N29  1  0.081180  0.996250  0.167240  1.0  -0.2509
  N  N30  1  0.994850  0.060880  0.245500  1.0  -0.3413
  N  N31  1  0.146290  0.895220  0.346820  1.0  -0.4361
  N  N32  1  0.973360  0.035710  0.453280  1.0  -0.1346
  N  N33  1  0.751580  0.836510  0.167240  1.0  -0.2517
  N  N34  1  0.759650  0.693620  0.245500  1.0  -0.3461
  N  N35  1  0.506890  0.757960  0.346820  1.0  -0.4363
  N  N36  1  0.573360  0.511010  0.453280  1.0  -0.129
  N  N37  1  0.418820  0.663490  0.832760  1.0  -0.2468
  N  N38  1  0.505150  0.806380  0.754500  1.0  -0.3425
  N  N39  1  0.353710  0.742040  0.653180  1.0  -0.4342
  N  N40  1  0.526640  0.988990  0.546720  1.0  -0.1302
  N  N41  1  0.748420  0.503750  0.832760  1.0  -0.2595
  N  N42  1  0.740350  0.439120  0.754500  1.0  -0.3423
  N  N43  1  0.993110  0.604780  0.653180  1.0  -0.4382
  N  N44  1  0.926640  0.464290  0.546720  1.0  -0.1336
  N  N45  1  0.918820  0.003750  0.832760  1.0  -0.249
  N  N46  1  0.005150  0.939120  0.754500  1.0  -0.342
  N  N47  1  0.853710  0.104780  0.653180  1.0  -0.4449
  N  N48  1  0.026640  0.964290  0.546720  1.0  -0.1329
  N  N49  1  0.248420  0.163490  0.832760  1.0  -0.2517
  N  N50  1  0.240350  0.306380  0.754500  1.0  -0.3434
  N  N51  1  0.493110  0.242040  0.653180  1.0  -0.4365
  N  N52  1  0.426640  0.488990  0.546720  1.0  -0.1342
  N  N53  1  0.581180  0.336510  0.167240  1.0  -0.2491
  N  N54  1  0.494850  0.193620  0.245500  1.0  -0.3424
  N  N55  1  0.646290  0.257960  0.346820  1.0  -0.4353
  N  N56  1  0.473360  0.011010  0.453280  1.0  -0.1332
  N  N57  1  0.251580  0.496250  0.167240  1.0  -0.2611
  N  N58  1  0.259650  0.560880  0.245500  1.0  -0.3455
  N  N59  1  0.006890  0.395220  0.346820  1.0  -0.436
  N  N60  1  0.073360  0.535710  0.453280  1.0  -0.133
