# generated using pymatgen
data_LaH9(C7O2)3
_symmetry_space_group_name_H-M   'P 1'
_cell_length_a   18.43940000
_cell_length_b   13.78280000
_cell_length_c   8.11600000
_cell_angle_alpha   90.00000000
_cell_angle_beta   92.31900000
_cell_angle_gamma   90.00000000
_symmetry_Int_Tables_number   1
_chemical_formula_structural   LaH9(C7O2)3
_chemical_formula_sum   'La4 H36 C84 O24'
_cell_volume   2060.96425251
_cell_formula_units_Z   4
loop_
 _symmetry_equiv_pos_site_id
 _symmetry_equiv_pos_as_xyz
  1  'x, y, z'
loop_
 _atom_site_type_symbol
 _atom_site_label
 _atom_site_symmetry_multiplicity
 _atom_site_fract_x
 _atom_site_fract_y
 _atom_site_fract_z
 _atom_site_occupancy
 _atom_site_charge
  La  La1  1  0.501250  0.517090  0.255330  1.0  2.1767
  La  La2  1  0.001250  0.017090  0.255330  1.0  2.1767
  La  La3  1  0.501250  0.482910  0.755330  1.0  2.1772
  La  La4  1  0.001250  0.982910  0.755330  1.0  2.1768
  H  H5  1  0.717200  0.431100  0.629800  1.0  0.1379
  H  H6  1  0.781000  0.316400  0.697200  1.0  0.135
  H  H7  1  0.840800  0.182500  0.799800  1.0  0.1527
  H  H8  1  0.978500  0.358600  0.053500  1.0  0.133
  H  H9  1  0.020600  0.495300  0.088700  1.0  0.14
  H  H10  1  0.058100  0.647300  0.158200  1.0  0.1376
  H  H11  1  0.893000  0.761400  0.887600  1.0  0.1278
  H  H12  1  0.806800  0.741500  0.726000  1.0  0.1416
  H  H13  1  0.701000  0.719100  0.567400  1.0  0.1332
  H  H14  1  0.217200  0.931100  0.629800  1.0  0.1379
  H  H15  1  0.281000  0.816400  0.697200  1.0  0.135
  H  H16  1  0.340800  0.682500  0.799800  1.0  0.1527
  H  H17  1  0.478500  0.858600  0.053500  1.0  0.133
  H  H18  1  0.520600  0.995300  0.088700  1.0  0.14
  H  H19  1  0.558100  0.147300  0.158200  1.0  0.1376
  H  H20  1  0.393000  0.261400  0.887600  1.0  0.1278
  H  H21  1  0.306800  0.241500  0.726000  1.0  0.1416
  H  H22  1  0.201000  0.219100  0.567400  1.0  0.1333
  H  H23  1  0.717200  0.568900  0.129800  1.0  0.1379
  H  H24  1  0.781000  0.683600  0.197200  1.0  0.1348
  H  H25  1  0.840800  0.817500  0.299800  1.0  0.1545
  H  H26  1  0.978500  0.641400  0.553500  1.0  0.1329
  H  H27  1  0.020600  0.504700  0.588700  1.0  0.1398
  H  H28  1  0.058100  0.352700  0.658200  1.0  0.1377
  H  H29  1  0.893000  0.238600  0.387600  1.0  0.1281
  H  H30  1  0.806800  0.258500  0.226000  1.0  0.142
  H  H31  1  0.701000  0.280900  0.067400  1.0  0.1328
  H  H32  1  0.217200  0.068900  0.129800  1.0  0.1379
  H  H33  1  0.281000  0.183600  0.197200  1.0  0.1348
  H  H34  1  0.340800  0.317500  0.299800  1.0  0.1545
  H  H35  1  0.478500  0.141400  0.553500  1.0  0.1329
  H  H36  1  0.520600  0.004700  0.588700  1.0  0.1398
  H  H37  1  0.558100  0.852700  0.658200  1.0  0.1377
  H  H38  1  0.393000  0.738600  0.387600  1.0  0.1281
  H  H39  1  0.306800  0.758500  0.226000  1.0  0.142
  H  H40  1  0.201000  0.780900  0.067400  1.0  0.1328
  C  C41  1  0.630000  0.557100  0.482400  1.0  0.6928
  C  C42  1  0.698500  0.572400  0.586300  1.0  -0.0747
  C  C43  1  0.735600  0.493000  0.650200  1.0  -0.0893
  C  C44  1  0.800900  0.503800  0.745800  1.0  -0.0199
  C  C45  1  0.841200  0.420200  0.808300  1.0  -0.0196
  C  C46  1  0.821000  0.325400  0.769300  1.0  -0.0872
  C  C47  1  0.856000  0.244500  0.830200  1.0  -0.1028
  C  C48  1  0.916300  0.258900  0.941000  1.0  -0.1456
  C  C49  1  0.952800  0.173700  0.020800  1.0  0.6926
  C  C50  1  0.938800  0.350500  0.980200  1.0  -0.0893
  C  C51  1  0.903900  0.433400  0.913100  1.0  -0.0165
  C  C52  1  0.931300  0.531500  0.949200  1.0  -0.024
  C  C53  1  0.993800  0.548200  0.049500  1.0  -0.0786
  C  C54  1  0.016500  0.639000  0.091100  1.0  -0.0747
  C  C55  1  0.977300  0.720300  0.033300  1.0  -0.1427
  C  C56  1  0.996000  0.820400  0.091400  1.0  0.6858
  C  C57  1  0.917700  0.707500  0.929900  1.0  -0.0731
  C  C58  1  0.893200  0.613000  0.886500  1.0  -0.0398
  C  C59  1  0.827300  0.601600  0.781200  1.0  -0.0768
  C  C60  1  0.789200  0.678900  0.709400  1.0  -0.0774
  C  C61  1  0.725400  0.665800  0.613100  1.0  -0.078
  C  C62  1  0.130000  0.057100  0.482400  1.0  0.6928
  C  C63  1  0.198500  0.072400  0.586300  1.0  -0.0747
  C  C64  1  0.235600  0.993000  0.650200  1.0  -0.0893
  C  C65  1  0.300900  0.003800  0.745800  1.0  -0.0199
  C  C66  1  0.341200  0.920200  0.808300  1.0  -0.0196
  C  C67  1  0.321000  0.825400  0.769300  1.0  -0.0872
  C  C68  1  0.356000  0.744500  0.830200  1.0  -0.1028
  C  C69  1  0.416300  0.758900  0.941000  1.0  -0.1456
  C  C70  1  0.452800  0.673700  0.020800  1.0  0.6926
  C  C71  1  0.438800  0.850500  0.980200  1.0  -0.0893
  C  C72  1  0.403900  0.933400  0.913100  1.0  -0.0165
  C  C73  1  0.431300  0.031500  0.949200  1.0  -0.024
  C  C74  1  0.493800  0.048200  0.049500  1.0  -0.0786
  C  C75  1  0.516500  0.139000  0.091100  1.0  -0.0747
  C  C76  1  0.477300  0.220300  0.033300  1.0  -0.1427
  C  C77  1  0.496000  0.320400  0.091400  1.0  0.6858
  C  C78  1  0.417700  0.207500  0.929900  1.0  -0.0731
  C  C79  1  0.393200  0.113000  0.886500  1.0  -0.0398
  C  C80  1  0.327300  0.101600  0.781200  1.0  -0.0768
  C  C81  1  0.289200  0.178900  0.709400  1.0  -0.0774
  C  C82  1  0.225400  0.165800  0.613100  1.0  -0.0778
  C  C83  1  0.630000  0.442900  0.982400  1.0  0.6928
  C  C84  1  0.698500  0.427600  0.086300  1.0  -0.0753
  C  C85  1  0.735600  0.507000  0.150200  1.0  -0.088
  C  C86  1  0.800900  0.496200  0.245800  1.0  -0.0198
  C  C87  1  0.841200  0.579800  0.308300  1.0  -0.019
  C  C88  1  0.821000  0.674600  0.269300  1.0  -0.0867
  C  C89  1  0.856000  0.755500  0.330200  1.0  -0.1077
  C  C90  1  0.916300  0.741100  0.441000  1.0  -0.1462
  C  C91  1  0.952800  0.826300  0.520800  1.0  0.693
  C  C92  1  0.938800  0.649500  0.480200  1.0  -0.089
  C  C93  1  0.903900  0.566600  0.413100  1.0  -0.0162
  C  C94  1  0.931300  0.468500  0.449200  1.0  -0.0239
  C  C95  1  0.993800  0.451800  0.549500  1.0  -0.0793
  C  C96  1  0.016500  0.361000  0.591100  1.0  -0.0749
  C  C97  1  0.977300  0.279700  0.533300  1.0  -0.1429
  C  C98  1  0.996000  0.179600  0.591400  1.0  0.6857
  C  C99  1  0.917700  0.292500  0.429900  1.0  -0.0734
  C  C100  1  0.893200  0.387000  0.386500  1.0  -0.0393
  C  C101  1  0.827300  0.398400  0.281200  1.0  -0.0776
  C  C102  1  0.789200  0.321100  0.209400  1.0  -0.0779
  C  C103  1  0.725400  0.334200  0.113100  1.0  -0.0775
  C  C104  1  0.130000  0.942900  0.982400  1.0  0.6928
  C  C105  1  0.198500  0.927600  0.086300  1.0  -0.0753
  C  C106  1  0.235600  0.007000  0.150200  1.0  -0.088
  C  C107  1  0.300900  0.996200  0.245800  1.0  -0.0198
  C  C108  1  0.341200  0.079800  0.308300  1.0  -0.019
  C  C109  1  0.321000  0.174600  0.269300  1.0  -0.0867
  C  C110  1  0.356000  0.255500  0.330200  1.0  -0.1077
  C  C111  1  0.416300  0.241100  0.441000  1.0  -0.1462
  C  C112  1  0.452800  0.326300  0.520800  1.0  0.693
  C  C113  1  0.438800  0.149500  0.480200  1.0  -0.089
  C  C114  1  0.403900  0.066600  0.413100  1.0  -0.0162
  C  C115  1  0.431300  0.968500  0.449200  1.0  -0.0239
  C  C116  1  0.493800  0.951800  0.549500  1.0  -0.0793
  C  C117  1  0.516500  0.861000  0.591100  1.0  -0.0752
  C  C118  1  0.477300  0.779700  0.533300  1.0  -0.1429
  C  C119  1  0.496000  0.679600  0.591400  1.0  0.6864
  C  C120  1  0.417700  0.792500  0.429900  1.0  -0.0734
  C  C121  1  0.393200  0.887000  0.386500  1.0  -0.0393
  C  C122  1  0.327300  0.898400  0.281200  1.0  -0.0776
  C  C123  1  0.289200  0.821100  0.209400  1.0  -0.0779
  C  C124  1  0.225400  0.834200  0.113100  1.0  -0.0775
  O  O125  1  0.590100  0.482900  0.513700  1.0  -0.7501
  O  O126  1  0.613600  0.613400  0.367100  1.0  -0.6128
  O  O127  1  0.942700  0.089500  0.962400  1.0  -0.7663
  O  O128  1  0.992400  0.187700  0.149900  1.0  -0.6675
  O  O129  1  0.041900  0.833400  0.208000  1.0  -0.6349
  O  O130  1  0.963000  0.893000  0.020600  1.0  -0.7437
  O  O131  1  0.090100  0.982900  0.513700  1.0  -0.7496
  O  O132  1  0.113600  0.113400  0.367100  1.0  -0.6128
  O  O133  1  0.442700  0.589500  0.962400  1.0  -0.7664
  O  O134  1  0.492400  0.687700  0.149900  1.0  -0.6678
  O  O135  1  0.541900  0.333400  0.208000  1.0  -0.6349
  O  O136  1  0.463000  0.393000  0.020600  1.0  -0.7437
  O  O137  1  0.590100  0.517100  0.013700  1.0  -0.7503
  O  O138  1  0.613600  0.386600  0.867100  1.0  -0.6139
  O  O139  1  0.942700  0.910500  0.462400  1.0  -0.7667
  O  O140  1  0.992400  0.812300  0.649900  1.0  -0.6683
  O  O141  1  0.041900  0.166600  0.708000  1.0  -0.6345
  O  O142  1  0.963000  0.107000  0.520600  1.0  -0.7427
  O  O143  1  0.090100  0.017100  0.013700  1.0  -0.7502
  O  O144  1  0.113600  0.886600  0.867100  1.0  -0.6139
  O  O145  1  0.442700  0.410500  0.462400  1.0  -0.7667
  O  O146  1  0.492400  0.312300  0.649900  1.0  -0.6683
  O  O147  1  0.541900  0.666667  0.708000  1.0  -0.6344
  O  O148  1  0.463000  0.607000  0.520600  1.0  -0.7427
