# generated using pymatgen
data_MoH9C7N3O
_symmetry_space_group_name_H-M   'P 1'
_cell_length_a   12.42090000
_cell_length_b   12.44710000
_cell_length_c   15.11550000
_cell_angle_alpha   90.00000000
_cell_angle_beta   90.00000000
_cell_angle_gamma   90.00000000
_symmetry_Int_Tables_number   1
_chemical_formula_structural   MoH9C7N3O
_chemical_formula_sum   'Mo8 H72 C56 N24 O8'
_cell_volume   2336.91954915
_cell_formula_units_Z   8
loop_
 _symmetry_equiv_pos_site_id
 _symmetry_equiv_pos_as_xyz
  1  'x, y, z'
loop_
 _atom_site_type_symbol
 _atom_site_label
 _atom_site_symmetry_multiplicity
 _atom_site_fract_x
 _atom_site_fract_y
 _atom_site_fract_z
 _atom_site_occupancy
 _atom_site_charge
  Mo  Mo1  1  0.913930  0.602840  0.060690  1.0  0.3222
  Mo  Mo2  1  0.413930  0.397160  0.439310  1.0  0.3218
  Mo  Mo3  1  0.086070  0.102840  0.939310  1.0  0.3222
  Mo  Mo4  1  0.586070  0.897160  0.560690  1.0  0.32
  Mo  Mo5  1  0.086070  0.397160  0.939310  1.0  0.32
  Mo  Mo6  1  0.586070  0.602840  0.560690  1.0  0.3212
  Mo  Mo7  1  0.913930  0.897160  0.060690  1.0  0.321
  Mo  Mo8  1  0.413930  0.102840  0.439310  1.0  0.3236
  H  H9  1  0.953300  0.591300  0.823000  1.0  0.0777
  H  H10  1  0.295500  0.591600  0.570600  1.0  0.0845
  H  H11  1  0.138600  0.687000  0.708300  1.0  0.1004
  H  H12  1  0.117100  0.915300  0.564800  1.0  0.0939
  H  H13  1  0.103700  0.851500  0.474400  1.0  0.1023
  H  H14  1  0.933000  0.915100  0.522000  1.0  0.0543
  H  H15  1  0.967600  0.915600  0.677600  1.0  0.0898
  H  H16  1  0.859000  0.852200  0.658300  1.0  0.0839
  H  H17  1  0.453300  0.408700  0.677000  1.0  0.079
  H  H18  1  0.795500  0.408400  0.929400  1.0  0.085
  H  H19  1  0.638600  0.313000  0.791700  1.0  0.0997
  H  H20  1  0.617100  0.084700  0.935200  1.0  0.0943
  H  H21  1  0.603700  0.148500  0.025600  1.0  0.102
  H  H22  1  0.433000  0.084900  0.978000  1.0  0.0536
  H  H23  1  0.467600  0.084400  0.822400  1.0  0.0895
  H  H24  1  0.359000  0.147800  0.841700  1.0  0.0853
  H  H25  1  0.046700  0.091300  0.177000  1.0  0.0775
  H  H26  1  0.704500  0.091600  0.429400  1.0  0.0843
  H  H27  1  0.861400  0.187000  0.291700  1.0  0.1002
  H  H28  1  0.882900  0.415300  0.435200  1.0  0.0938
  H  H29  1  0.896300  0.351500  0.525600  1.0  0.1024
  H  H30  1  0.067000  0.415100  0.478000  1.0  0.0507
  H  H31  1  0.032400  0.415600  0.322400  1.0  0.0907
  H  H32  1  0.141000  0.352200  0.341700  1.0  0.0845
  H  H33  1  0.546700  0.908700  0.323000  1.0  0.0785
  H  H34  1  0.204500  0.908400  0.070600  1.0  0.0847
  H  H35  1  0.361400  0.813000  0.208300  1.0  0.0999
  H  H36  1  0.382900  0.584700  0.064800  1.0  0.095
  H  H37  1  0.396300  0.648500  0.974400  1.0  0.1021
  H  H38  1  0.567000  0.584900  0.022000  1.0  0.0526
  H  H39  1  0.532400  0.584400  0.177600  1.0  0.09
  H  H40  1  0.641000  0.647800  0.158300  1.0  0.084
  H  H41  1  0.046700  0.408700  0.177000  1.0  0.0789
  H  H42  1  0.704500  0.408400  0.429400  1.0  0.0849
  H  H43  1  0.861400  0.313000  0.291700  1.0  0.1
  H  H44  1  0.882900  0.084700  0.435200  1.0  0.0945
  H  H45  1  0.896300  0.148500  0.525600  1.0  0.1026
  H  H46  1  0.067000  0.084900  0.478000  1.0  0.0518
  H  H47  1  0.032400  0.084400  0.322400  1.0  0.0892
  H  H48  1  0.141000  0.147800  0.341700  1.0  0.0844
  H  H49  1  0.546700  0.591300  0.323000  1.0  0.0777
  H  H50  1  0.204500  0.591600  0.070600  1.0  0.0843
  H  H51  1  0.361400  0.687000  0.208300  1.0  0.101
  H  H52  1  0.382900  0.915300  0.064800  1.0  0.0942
  H  H53  1  0.396300  0.851500  0.974400  1.0  0.102
  H  H54  1  0.567000  0.915100  0.022000  1.0  0.0522
  H  H55  1  0.532400  0.915600  0.177600  1.0  0.0898
  H  H56  1  0.641000  0.852200  0.158300  1.0  0.0842
  H  H57  1  0.953300  0.908700  0.823000  1.0  0.0787
  H  H58  1  0.295500  0.908400  0.570600  1.0  0.0847
  H  H59  1  0.138600  0.813000  0.708300  1.0  0.0995
  H  H60  1  0.117100  0.584700  0.564800  1.0  0.0946
  H  H61  1  0.103700  0.648500  0.474400  1.0  0.1026
  H  H62  1  0.933000  0.584900  0.522000  1.0  0.0537
  H  H63  1  0.967600  0.584400  0.677600  1.0  0.0903
  H  H64  1  0.859000  0.647800  0.658300  1.0  0.0844
  H  H65  1  0.453300  0.091300  0.677000  1.0  0.0775
  H  H66  1  0.795500  0.091600  0.929400  1.0  0.0846
  H  H67  1  0.638600  0.187000  0.791700  1.0  0.0999
  H  H68  1  0.617100  0.415300  0.935200  1.0  0.0934
  H  H69  1  0.603700  0.351500  0.025600  1.0  0.1017
  H  H70  1  0.433000  0.415100  0.978000  1.0  0.053
  H  H71  1  0.467600  0.415600  0.822400  1.0  0.0905
  H  H72  1  0.359000  0.352200  0.841700  1.0  0.0848
  H  H73  1  0.930300  0.750000  0.443800  1.0  0.0898
  H  H74  1  0.837000  0.750000  0.515600  1.0  0.0939
  H  H75  1  0.430300  0.250000  0.056200  1.0  0.0891
  H  H76  1  0.337000  0.250000  0.984400  1.0  0.0945
  H  H77  1  0.069700  0.250000  0.556200  1.0  0.0884
  H  H78  1  0.163000  0.250000  0.484400  1.0  0.0944
  H  H79  1  0.569700  0.750000  0.943800  1.0  0.0902
  H  H80  1  0.663000  0.750000  0.015600  1.0  0.095
  C  C81  1  0.949090  0.663230  0.841750  1.0  0.1015
  C  C82  1  0.318640  0.663520  0.570040  1.0  0.0926
  C  C83  1  0.086170  0.850800  0.537620  1.0  -0.2783
  C  C84  1  0.963960  0.850300  0.550150  1.0  0.0851
  C  C85  1  0.937180  0.851300  0.649730  1.0  -0.2649
  C  C86  1  0.449090  0.336770  0.658250  1.0  0.1007
  C  C87  1  0.818640  0.336480  0.929960  1.0  0.0927
  C  C88  1  0.586170  0.149200  0.962380  1.0  -0.28
  C  C89  1  0.463960  0.149700  0.949850  1.0  0.0856
  C  C90  1  0.437180  0.148700  0.850270  1.0  -0.2632
  C  C91  1  0.050910  0.163230  0.158250  1.0  0.1008
  C  C92  1  0.681360  0.163520  0.429960  1.0  0.0936
  C  C93  1  0.913830  0.350800  0.462380  1.0  -0.284
  C  C94  1  0.036040  0.350300  0.449850  1.0  0.0854
  C  C95  1  0.062820  0.351300  0.350270  1.0  -0.2636
  C  C96  1  0.550910  0.836770  0.341750  1.0  0.1015
  C  C97  1  0.181360  0.836480  0.070040  1.0  0.0943
  C  C98  1  0.413830  0.649200  0.037620  1.0  -0.2836
  C  C99  1  0.536040  0.649700  0.050150  1.0  0.0833
  C  C100  1  0.562820  0.648700  0.149730  1.0  -0.2619
  C  C101  1  0.050910  0.336770  0.158250  1.0  0.1018
  C  C102  1  0.681360  0.336480  0.429960  1.0  0.0948
  C  C103  1  0.913830  0.149200  0.462380  1.0  -0.2833
  C  C104  1  0.036040  0.149700  0.449850  1.0  0.084
  C  C105  1  0.062820  0.148700  0.350270  1.0  -0.2617
  C  C106  1  0.550910  0.663230  0.341750  1.0  0.1024
  C  C107  1  0.181360  0.663520  0.070040  1.0  0.0943
  C  C108  1  0.413830  0.850800  0.037620  1.0  -0.2826
  C  C109  1  0.536040  0.850300  0.050150  1.0  0.0847
  C  C110  1  0.562820  0.851300  0.149730  1.0  -0.2642
  C  C111  1  0.949090  0.836770  0.841750  1.0  0.1015
  C  C112  1  0.318640  0.836480  0.570040  1.0  0.0932
  C  C113  1  0.086170  0.649200  0.537620  1.0  -0.2807
  C  C114  1  0.963960  0.649700  0.550150  1.0  0.0846
  C  C115  1  0.937180  0.648700  0.649730  1.0  -0.2628
  C  C116  1  0.449090  0.163230  0.658250  1.0  0.1013
  C  C117  1  0.818640  0.163520  0.929960  1.0  0.0934
  C  C118  1  0.586170  0.350800  0.962380  1.0  -0.2791
  C  C119  1  0.463960  0.350300  0.949850  1.0  0.0854
  C  C120  1  0.437180  0.351300  0.850270  1.0  -0.2649
  C  C121  1  0.985500  0.750000  0.691770  1.0  0.2535
  C  C122  1  0.107900  0.750000  0.680500  1.0  -0.3182
  C  C123  1  0.133500  0.750000  0.581200  1.0  0.2635
  C  C124  1  0.915200  0.750000  0.507400  1.0  -0.228
  C  C125  1  0.485500  0.250000  0.808230  1.0  0.2513
  C  C126  1  0.607900  0.250000  0.819500  1.0  -0.3175
  C  C127  1  0.633500  0.250000  0.918800  1.0  0.2636
  C  C128  1  0.415200  0.250000  0.992600  1.0  -0.227
  C  C129  1  0.014500  0.250000  0.308230  1.0  0.251
  C  C130  1  0.892100  0.250000  0.319500  1.0  -0.3179
  C  C131  1  0.866500  0.250000  0.418800  1.0  0.2644
  C  C132  1  0.084800  0.250000  0.492600  1.0  -0.2269
  C  C133  1  0.514500  0.750000  0.191770  1.0  0.2536
  C  C134  1  0.392100  0.750000  0.180500  1.0  -0.3186
  C  C135  1  0.366500  0.750000  0.081200  1.0  0.2637
  C  C136  1  0.584800  0.750000  0.007400  1.0  -0.2264
  N  N137  1  0.931380  0.694260  0.923560  1.0  -0.121
  N  N138  1  0.419460  0.694670  0.567480  1.0  -0.113
  N  N139  1  0.431380  0.305740  0.576440  1.0  -0.1184
  N  N140  1  0.919460  0.305330  0.932520  1.0  -0.1145
  N  N141  1  0.068620  0.194260  0.076440  1.0  -0.1186
  N  N142  1  0.580540  0.194670  0.432520  1.0  -0.1145
  N  N143  1  0.568620  0.805740  0.423560  1.0  -0.1195
  N  N144  1  0.080540  0.805330  0.067480  1.0  -0.1147
  N  N145  1  0.068620  0.305740  0.076440  1.0  -0.1177
  N  N146  1  0.580540  0.305330  0.432520  1.0  -0.1142
  N  N147  1  0.568620  0.694260  0.423560  1.0  -0.1204
  N  N148  1  0.080540  0.694670  0.067480  1.0  -0.1138
  N  N149  1  0.931380  0.805740  0.923560  1.0  -0.1196
  N  N150  1  0.419460  0.805330  0.567480  1.0  -0.1146
  N  N151  1  0.431380  0.194260  0.576440  1.0  -0.1193
  N  N152  1  0.919460  0.194670  0.932520  1.0  -0.1137
  N  N153  1  0.960500  0.750000  0.788350  1.0  -0.0479
  N  N154  1  0.253000  0.750000  0.571700  1.0  -0.0401
  N  N155  1  0.460500  0.250000  0.711650  1.0  -0.0488
  N  N156  1  0.753000  0.250000  0.928300  1.0  -0.0398
  N  N157  1  0.039500  0.250000  0.211650  1.0  -0.0489
  N  N158  1  0.747000  0.250000  0.428300  1.0  -0.0392
  N  N159  1  0.539500  0.750000  0.288350  1.0  -0.0481
  N  N160  1  0.247000  0.750000  0.071700  1.0  -0.0393
  O  O161  1  0.877240  0.750000  0.088020  1.0  -0.563
  O  O162  1  0.377240  0.250000  0.411980  1.0  -0.5634
  O  O163  1  0.122760  0.250000  0.911980  1.0  -0.5618
  O  O164  1  0.622760  0.750000  0.588020  1.0  -0.5611
  O  O165  1  0.000000  0.500000  0.000000  1.0  -0.5235
  O  O166  1  0.500000  0.500000  0.500000  1.0  -0.5235
  O  O167  1  0.000000  0.000000  0.000000  1.0  -0.5235
  O  O168  1  0.500000  0.000000  0.500000  1.0  -0.5235
