# generated using pymatgen
data_ZnH13C23N2(O2F3)2
_symmetry_space_group_name_H-M   'P 1'
_cell_length_a   15.83300000
_cell_length_b   16.08600000
_cell_length_c   22.67000000
_cell_angle_alpha   90.00000000
_cell_angle_beta   90.00000000
_cell_angle_gamma   90.00000000
_symmetry_Int_Tables_number   1
_chemical_formula_structural   ZnH13C23N2(O2F3)2
_chemical_formula_sum   'Zn8 H104 C184 N16 O32 F48'
_cell_volume   5773.81409346
_cell_formula_units_Z   8
loop_
 _symmetry_equiv_pos_site_id
 _symmetry_equiv_pos_as_xyz
  1  'x, y, z'
loop_
 _atom_site_type_symbol
 _atom_site_label
 _atom_site_symmetry_multiplicity
 _atom_site_fract_x
 _atom_site_fract_y
 _atom_site_fract_z
 _atom_site_occupancy
 _atom_site_charge
  Zn  Zn1  1  0.687670  0.561070  0.259230  1.0  0.9232
  Zn  Zn2  1  0.834560  0.444720  0.252280  1.0  0.9246
  Zn  Zn3  1  0.187670  0.438930  0.740770  1.0  0.9232
  Zn  Zn4  1  0.334560  0.555280  0.747720  1.0  0.9246
  Zn  Zn5  1  0.687670  0.438930  0.759230  1.0  0.923
  Zn  Zn6  1  0.834560  0.555280  0.752280  1.0  0.9246
  Zn  Zn7  1  0.187670  0.561070  0.240770  1.0  0.9234
  Zn  Zn8  1  0.334560  0.444720  0.247720  1.0  0.9246
  H  H9  1  0.778200  0.718600  0.117700  1.0  0.0971
  H  H10  1  0.840800  0.801700  0.045700  1.0  0.1121
  H  H11  1  0.039000  0.642300  0.039000  1.0  0.1235
  H  H12  1  0.977900  0.563000  0.112100  1.0  0.0945
  H  H13  1  0.939300  0.657600  0.928200  1.0  0.1122
  H  H14  1  0.004300  0.570600  0.859000  1.0  0.1071
  H  H15  1  0.220200  0.704200  0.874400  1.0  0.1125
  H  H16  1  0.155300  0.788800  0.944600  1.0  0.1005
  H  H17  1  0.755300  0.284200  0.389400  1.0  0.0989
  H  H18  1  0.699700  0.194200  0.461100  1.0  0.1068
  H  H19  1  0.481900  0.329400  0.459600  1.0  0.1112
  H  H20  1  0.540100  0.419300  0.390400  1.0  0.1119
  H  H21  1  0.589800  0.325100  0.575400  1.0  0.1105
  H  H22  1  0.519200  0.412500  0.640100  1.0  0.1021
  H  H23  1  0.308000  0.276200  0.620400  1.0  0.0953
  H  H24  1  0.377700  0.187000  0.556400  1.0  0.1129
  H  H25  1  0.723000  0.733500  0.273400  1.0  0.0847
  H  H26  1  0.659500  0.862500  0.286400  1.0  0.1235
  H  H27  1  0.432800  0.749400  0.271900  1.0  0.1247
  H  H28  1  0.503400  0.621500  0.264900  1.0  0.0942
  H  H29  1  0.436700  0.905000  0.280900  1.0  0.0842
  H  H30  1  0.589500  0.106100  0.274600  1.0  0.086
  H  H31  1  0.588900  0.261400  0.276600  1.0  0.1219
  H  H32  1  0.518500  0.386000  0.269000  1.0  0.0931
  H  H33  1  0.301600  0.267000  0.249400  1.0  0.0879
  H  H34  1  0.367100  0.140800  0.258800  1.0  0.1236
  H  H35  1  0.278200  0.281400  0.882300  1.0  0.0972
  H  H36  1  0.340800  0.198300  0.954300  1.0  0.111
  H  H37  1  0.539000  0.357700  0.961000  1.0  0.1237
  H  H38  1  0.477900  0.437000  0.887900  1.0  0.0945
  H  H39  1  0.439300  0.342400  0.071800  1.0  0.1123
  H  H40  1  0.504300  0.429400  0.141000  1.0  0.1071
  H  H41  1  0.720200  0.295800  0.125600  1.0  0.1121
  H  H42  1  0.655300  0.211200  0.055400  1.0  0.1012
  H  H43  1  0.255300  0.715800  0.610600  1.0  0.0987
  H  H44  1  0.199700  0.805800  0.538900  1.0  0.107
  H  H45  1  0.981900  0.670600  0.540400  1.0  0.1116
  H  H46  1  0.040100  0.580700  0.609600  1.0  0.1117
  H  H47  1  0.089800  0.674900  0.424600  1.0  0.1101
  H  H48  1  0.019200  0.587500  0.359900  1.0  0.1024
  H  H49  1  0.808000  0.723800  0.379600  1.0  0.0955
  H  H50  1  0.877700  0.813000  0.443600  1.0  0.1124
  H  H51  1  0.223000  0.266500  0.726600  1.0  0.0854
  H  H52  1  0.159500  0.137500  0.713600  1.0  0.123
  H  H53  1  0.932800  0.250600  0.728100  1.0  0.1244
  H  H54  1  0.003400  0.378500  0.735100  1.0  0.0943
  H  H55  1  0.936700  0.095000  0.719100  1.0  0.0846
  H  H56  1  0.089500  0.893900  0.725400  1.0  0.0858
  H  H57  1  0.088900  0.738600  0.723400  1.0  0.1219
  H  H58  1  0.018500  0.614000  0.731000  1.0  0.0933
  H  H59  1  0.801600  0.733000  0.750600  1.0  0.0884
  H  H60  1  0.867100  0.859200  0.741200  1.0  0.1238
  H  H61  1  0.778200  0.281400  0.617700  1.0  0.0973
  H  H62  1  0.840800  0.198300  0.545700  1.0  0.1114
  H  H63  1  0.039000  0.357700  0.539000  1.0  0.1239
  H  H64  1  0.977900  0.437000  0.612100  1.0  0.0943
  H  H65  1  0.939300  0.342400  0.428200  1.0  0.1122
  H  H66  1  0.004300  0.429400  0.359000  1.0  0.107
  H  H67  1  0.220200  0.295800  0.374400  1.0  0.1124
  H  H68  1  0.155300  0.211200  0.444600  1.0  0.1008
  H  H69  1  0.755300  0.715800  0.889400  1.0  0.0988
  H  H70  1  0.699700  0.805800  0.961100  1.0  0.1071
  H  H71  1  0.481900  0.670600  0.959600  1.0  0.1115
  H  H72  1  0.540100  0.580700  0.890400  1.0  0.1122
  H  H73  1  0.589800  0.674900  0.075400  1.0  0.1104
  H  H74  1  0.519200  0.587500  0.140100  1.0  0.1022
  H  H75  1  0.308000  0.723800  0.120400  1.0  0.0954
  H  H76  1  0.377700  0.813000  0.056400  1.0  0.113
  H  H77  1  0.723000  0.266500  0.773400  1.0  0.0852
  H  H78  1  0.659500  0.137500  0.786400  1.0  0.1229
  H  H79  1  0.432800  0.250600  0.771900  1.0  0.1243
  H  H80  1  0.503400  0.378500  0.764900  1.0  0.0944
  H  H81  1  0.436700  0.095000  0.780900  1.0  0.0844
  H  H82  1  0.589500  0.893900  0.774600  1.0  0.086
  H  H83  1  0.588900  0.738600  0.776600  1.0  0.1219
  H  H84  1  0.518500  0.614000  0.769000  1.0  0.0934
  H  H85  1  0.301600  0.733000  0.749400  1.0  0.0883
  H  H86  1  0.367100  0.859200  0.758800  1.0  0.1237
  H  H87  1  0.278200  0.718600  0.382300  1.0  0.0975
  H  H88  1  0.340800  0.801700  0.454300  1.0  0.1119
  H  H89  1  0.539000  0.642300  0.461000  1.0  0.1234
  H  H90  1  0.477900  0.563000  0.387900  1.0  0.0948
  H  H91  1  0.439300  0.657600  0.571800  1.0  0.1122
  H  H92  1  0.504300  0.570600  0.641000  1.0  0.1067
  H  H93  1  0.720200  0.704200  0.625600  1.0  0.1122
  H  H94  1  0.655300  0.788800  0.555400  1.0  0.1009
  H  H95  1  0.255300  0.284200  0.110600  1.0  0.0987
  H  H96  1  0.199700  0.194200  0.038900  1.0  0.107
  H  H97  1  0.981900  0.329400  0.040400  1.0  0.1114
  H  H98  1  0.040100  0.419300  0.109600  1.0  0.1115
  H  H99  1  0.089800  0.325100  0.924600  1.0  0.1106
  H  H100  1  0.019200  0.412500  0.859900  1.0  0.1021
  H  H101  1  0.808000  0.276200  0.879600  1.0  0.0957
  H  H102  1  0.877700  0.187000  0.943600  1.0  0.1123
  H  H103  1  0.223000  0.733500  0.226600  1.0  0.0849
  H  H104  1  0.159500  0.862500  0.213600  1.0  0.1236
  H  H105  1  0.932800  0.749400  0.228100  1.0  0.1248
  H  H106  1  0.003400  0.621500  0.235100  1.0  0.0942
  H  H107  1  0.936700  0.905000  0.219100  1.0  0.0843
  H  H108  1  0.089500  0.106100  0.225400  1.0  0.0861
  H  H109  1  0.088900  0.261400  0.223400  1.0  0.122
  H  H110  1  0.018500  0.386000  0.231000  1.0  0.0931
  H  H111  1  0.801600  0.267000  0.250600  1.0  0.0881
  H  H112  1  0.867100  0.140800  0.241200  1.0  0.1237
  C  C113  1  0.833800  0.579700  0.169700  1.0  0.6841
  C  C114  1  0.870700  0.632300  0.123000  1.0  -0.151
  C  C115  1  0.831700  0.703200  0.102100  1.0  -0.0157
  C  C116  1  0.868700  0.752800  0.058900  1.0  -0.1568
  C  C117  1  0.946300  0.730800  0.035200  1.0  0.086
  C  C118  1  0.986300  0.658600  0.055300  1.0  -0.1446
  C  C119  1  0.949500  0.611300  0.098400  1.0  -0.0316
  C  C120  1  0.994300  0.786400  0.990100  1.0  -0.3041
  C  C121  1  0.055200  0.841100  0.026100  1.0  0.7001
  C  C122  1  0.935900  0.844800  0.954800  1.0  0.7
  C  C123  1  0.040400  0.732100  0.944400  1.0  0.0775
  C  C124  1  0.996700  0.667000  0.917800  1.0  -0.1379
  C  C125  1  0.034900  0.615300  0.876200  1.0  -0.0329
  C  C126  1  0.117900  0.629700  0.860300  1.0  -0.1377
  C  C127  1  0.163200  0.694400  0.885500  1.0  -0.0363
  C  C128  1  0.124200  0.744700  0.927200  1.0  -0.1555
  C  C129  1  0.162000  0.573800  0.816300  1.0  0.6679
  C  C130  1  0.692900  0.418500  0.338400  1.0  0.6691
  C  C131  1  0.653800  0.360700  0.384500  1.0  -0.1443
  C  C132  1  0.700200  0.293600  0.404600  1.0  -0.0206
  C  C133  1  0.667100  0.239600  0.447000  1.0  -0.1638
  C  C134  1  0.584800  0.253300  0.468400  1.0  0.0686
  C  C135  1  0.537900  0.320500  0.446100  1.0  -0.1392
  C  C136  1  0.572200  0.373800  0.404800  1.0  -0.0272
  C  C137  1  0.541600  0.195600  0.513600  1.0  -0.2976
  C  C138  1  0.483300  0.136500  0.476700  1.0  0.6912
  C  C139  1  0.604400  0.142400  0.548900  1.0  0.7019
  C  C140  1  0.490000  0.248400  0.557500  1.0  0.0889
  C  C141  1  0.531900  0.315500  0.584000  1.0  -0.1453
  C  C142  1  0.490000  0.367400  0.622300  1.0  -0.0253
  C  C143  1  0.404900  0.354300  0.635200  1.0  -0.1506
  C  C144  1  0.365400  0.286800  0.610800  1.0  -0.0147
  C  C145  1  0.406600  0.233600  0.572500  1.0  -0.1821
  C  C146  1  0.358000  0.413600  0.674100  1.0  0.6797
  C  C147  1  0.663100  0.737000  0.274100  1.0  0.1559
  C  C148  1  0.625800  0.814400  0.280500  1.0  -0.1637
  C  C149  1  0.538400  0.820300  0.278200  1.0  0.0652
  C  C150  1  0.492800  0.747800  0.272700  1.0  -0.1653
  C  C151  1  0.535300  0.671200  0.268300  1.0  0.1627
  C  C152  1  0.496500  0.901700  0.279400  1.0  0.1741
  C  C153  1  0.529500  0.107400  0.273600  1.0  0.162
  C  C154  1  0.485300  0.187500  0.268600  1.0  0.0637
  C  C155  1  0.529400  0.261800  0.271300  1.0  -0.179
  C  C156  1  0.487500  0.335600  0.266300  1.0  0.164
  C  C157  1  0.361000  0.265600  0.255200  1.0  0.1591
  C  C158  1  0.399300  0.190600  0.260600  1.0  -0.1593
  C  C159  1  0.333800  0.420300  0.830300  1.0  0.6833
  C  C160  1  0.370700  0.367700  0.877000  1.0  -0.1509
  C  C161  1  0.331700  0.296800  0.897900  1.0  -0.0156
  C  C162  1  0.368700  0.247200  0.941100  1.0  -0.1581
  C  C163  1  0.446300  0.269200  0.964800  1.0  0.0862
  C  C164  1  0.486300  0.341400  0.944700  1.0  -0.1439
  C  C165  1  0.449500  0.388700  0.901600  1.0  -0.0295
  C  C166  1  0.494300  0.213600  0.009900  1.0  -0.3037
  C  C167  1  0.555200  0.158900  0.973900  1.0  0.6996
  C  C168  1  0.435900  0.155200  0.045200  1.0  0.6992
  C  C169  1  0.540400  0.267900  0.055600  1.0  0.0773
  C  C170  1  0.496700  0.333000  0.082200  1.0  -0.1381
  C  C171  1  0.534900  0.384700  0.123800  1.0  -0.0329
  C  C172  1  0.617900  0.370300  0.139700  1.0  -0.1383
  C  C173  1  0.663200  0.305600  0.114500  1.0  -0.0355
  C  C174  1  0.624200  0.255300  0.072800  1.0  -0.1558
  C  C175  1  0.662000  0.426200  0.183700  1.0  0.6687
  C  C176  1  0.192900  0.581500  0.661600  1.0  0.6693
  C  C177  1  0.153800  0.639300  0.615500  1.0  -0.1449
  C  C178  1  0.200200  0.706400  0.595400  1.0  -0.0203
  C  C179  1  0.167100  0.760400  0.553000  1.0  -0.1636
  C  C180  1  0.084800  0.746700  0.531600  1.0  0.0689
  C  C181  1  0.037900  0.679500  0.553900  1.0  -0.1385
  C  C182  1  0.072200  0.626200  0.595200  1.0  -0.0271
  C  C183  1  0.041600  0.804400  0.486400  1.0  -0.2973
  C  C184  1  0.983300  0.863500  0.523300  1.0  0.693
  C  C185  1  0.104400  0.857600  0.451100  1.0  0.7034
  C  C186  1  0.990000  0.751600  0.442500  1.0  0.0893
  C  C187  1  0.031900  0.684500  0.416000  1.0  -0.1457
  C  C188  1  0.990000  0.632600  0.377700  1.0  -0.0255
  C  C189  1  0.904900  0.645700  0.364800  1.0  -0.1518
  C  C190  1  0.865400  0.713200  0.389200  1.0  -0.0148
  C  C191  1  0.906600  0.766400  0.427500  1.0  -0.1807
  C  C192  1  0.858000  0.586400  0.325900  1.0  0.6794
  C  C193  1  0.163100  0.263000  0.725900  1.0  0.1558
  C  C194  1  0.125800  0.185600  0.719500  1.0  -0.1646
  C  C195  1  0.038400  0.179700  0.721800  1.0  0.0634
  C  C196  1  0.992800  0.252200  0.727300  1.0  -0.1656
  C  C197  1  0.035300  0.328800  0.731700  1.0  0.1628
  C  C198  1  0.996500  0.098300  0.720600  1.0  0.1745
  C  C199  1  0.029500  0.892600  0.726400  1.0  0.1623
  C  C200  1  0.985300  0.812500  0.731400  1.0  0.0675
  C  C201  1  0.029400  0.738200  0.728700  1.0  -0.1791
  C  C202  1  0.987500  0.664400  0.733700  1.0  0.1639
  C  C203  1  0.861000  0.734400  0.744800  1.0  0.1588
  C  C204  1  0.899300  0.809400  0.739400  1.0  -0.1599
  C  C205  1  0.833800  0.420300  0.669700  1.0  0.6838
  C  C206  1  0.870700  0.367700  0.623000  1.0  -0.1506
  C  C207  1  0.831700  0.296800  0.602100  1.0  -0.0154
  C  C208  1  0.868700  0.247200  0.558900  1.0  -0.1574
  C  C209  1  0.946300  0.269200  0.535200  1.0  0.0858
  C  C210  1  0.986300  0.341400  0.555300  1.0  -0.1434
  C  C211  1  0.949500  0.388700  0.598400  1.0  -0.03
  C  C212  1  0.994300  0.213600  0.490100  1.0  -0.3038
  C  C213  1  0.055200  0.158900  0.526100  1.0  0.7004
  C  C214  1  0.935900  0.155200  0.454800  1.0  0.6993
  C  C215  1  0.040400  0.267900  0.444400  1.0  0.0772
  C  C216  1  0.996700  0.333000  0.417800  1.0  -0.1383
  C  C217  1  0.034900  0.384700  0.376200  1.0  -0.033
  C  C218  1  0.117900  0.370300  0.360300  1.0  -0.1382
  C  C219  1  0.163200  0.305600  0.385500  1.0  -0.0366
  C  C220  1  0.124200  0.255300  0.427200  1.0  -0.1557
  C  C221  1  0.162000  0.426200  0.316300  1.0  0.6684
  C  C222  1  0.692900  0.581500  0.838400  1.0  0.6688
  C  C223  1  0.653800  0.639300  0.884500  1.0  -0.1446
  C  C224  1  0.700200  0.706400  0.904600  1.0  -0.0206
  C  C225  1  0.667100  0.760400  0.947000  1.0  -0.1641
  C  C226  1  0.584800  0.746700  0.968400  1.0  0.0686
  C  C227  1  0.537900  0.679500  0.946100  1.0  -0.1389
  C  C228  1  0.572200  0.626200  0.904800  1.0  -0.0268
  C  C229  1  0.541600  0.804400  0.013600  1.0  -0.2973
  C  C230  1  0.483300  0.863500  0.976700  1.0  0.6927
  C  C231  1  0.604400  0.857600  0.048900  1.0  0.7024
  C  C232  1  0.490000  0.751600  0.057500  1.0  0.0888
  C  C233  1  0.531900  0.684500  0.084000  1.0  -0.1457
  C  C234  1  0.490000  0.632600  0.122300  1.0  -0.0253
  C  C235  1  0.404900  0.645700  0.135200  1.0  -0.1509
  C  C236  1  0.365400  0.713200  0.110800  1.0  -0.0147
  C  C237  1  0.406600  0.766400  0.072500  1.0  -0.181
  C  C238  1  0.358000  0.586400  0.174100  1.0  0.6797
  C  C239  1  0.663100  0.263000  0.774100  1.0  0.1557
  C  C240  1  0.625800  0.185600  0.780500  1.0  -0.1644
  C  C241  1  0.538400  0.179700  0.778200  1.0  0.0629
  C  C242  1  0.492800  0.252200  0.772700  1.0  -0.1658
  C  C243  1  0.535300  0.328800  0.768300  1.0  0.1627
  C  C244  1  0.496500  0.098300  0.779400  1.0  0.1743
  C  C245  1  0.529500  0.892600  0.773600  1.0  0.1624
  C  C246  1  0.485300  0.812500  0.768600  1.0  0.0675
  C  C247  1  0.529400  0.738200  0.771300  1.0  -0.1792
  C  C248  1  0.487500  0.664400  0.766300  1.0  0.164
  C  C249  1  0.361000  0.734400  0.755200  1.0  0.1589
  C  C250  1  0.399300  0.809400  0.760600  1.0  -0.1598
  C  C251  1  0.333800  0.579700  0.330300  1.0  0.6838
  C  C252  1  0.370700  0.632300  0.377000  1.0  -0.1515
  C  C253  1  0.331700  0.703200  0.397900  1.0  -0.0156
  C  C254  1  0.368700  0.752800  0.441100  1.0  -0.1575
  C  C255  1  0.446300  0.730800  0.464800  1.0  0.0863
  C  C256  1  0.486300  0.658600  0.444700  1.0  -0.1449
  C  C257  1  0.449500  0.611300  0.401600  1.0  -0.0314
  C  C258  1  0.494300  0.786400  0.509900  1.0  -0.3041
  C  C259  1  0.555200  0.841100  0.473900  1.0  0.6997
  C  C260  1  0.435900  0.844800  0.545200  1.0  0.6983
  C  C261  1  0.540400  0.732100  0.555600  1.0  0.0774
  C  C262  1  0.496700  0.667000  0.582200  1.0  -0.1378
  C  C263  1  0.534900  0.615300  0.623800  1.0  -0.0327
  C  C264  1  0.617900  0.629700  0.639700  1.0  -0.1381
  C  C265  1  0.663200  0.694400  0.614500  1.0  -0.0354
  C  C266  1  0.624200  0.744700  0.572800  1.0  -0.1556
  C  C267  1  0.662000  0.573800  0.683700  1.0  0.6683
  C  C268  1  0.192900  0.418500  0.161600  1.0  0.6696
  C  C269  1  0.153800  0.360700  0.115500  1.0  -0.145
  C  C270  1  0.200200  0.293600  0.095400  1.0  -0.0202
  C  C271  1  0.167100  0.239600  0.053000  1.0  -0.1634
  C  C272  1  0.084800  0.253300  0.031600  1.0  0.0688
  C  C273  1  0.037900  0.320500  0.053900  1.0  -0.1387
  C  C274  1  0.072200  0.373800  0.095200  1.0  -0.0275
  C  C275  1  0.041600  0.195600  0.986400  1.0  -0.2975
  C  C276  1  0.983300  0.136500  0.023300  1.0  0.6921
  C  C277  1  0.104400  0.142400  0.951100  1.0  0.7022
  C  C278  1  0.990000  0.248400  0.942500  1.0  0.0891
  C  C279  1  0.031900  0.315500  0.916000  1.0  -0.1457
  C  C280  1  0.990000  0.367400  0.877700  1.0  -0.0255
  C  C281  1  0.904900  0.354300  0.864800  1.0  -0.1515
  C  C282  1  0.865400  0.286800  0.889200  1.0  -0.0146
  C  C283  1  0.906600  0.233600  0.927500  1.0  -0.1819
  C  C284  1  0.858000  0.413600  0.825900  1.0  0.6798
  C  C285  1  0.163100  0.737000  0.225900  1.0  0.1558
  C  C286  1  0.125800  0.814400  0.219500  1.0  -0.164
  C  C287  1  0.038400  0.820300  0.221800  1.0  0.0651
  C  C288  1  0.992800  0.747800  0.227300  1.0  -0.1651
  C  C289  1  0.035300  0.671200  0.231700  1.0  0.1628
  C  C290  1  0.996500  0.901700  0.220600  1.0  0.1743
  C  C291  1  0.029500  0.107400  0.226400  1.0  0.162
  C  C292  1  0.985300  0.187500  0.231400  1.0  0.0638
  C  C293  1  0.029400  0.261800  0.228700  1.0  -0.1789
  C  C294  1  0.987500  0.335600  0.233700  1.0  0.1636
  C  C295  1  0.861000  0.265600  0.244800  1.0  0.1588
  C  C296  1  0.899300  0.190600  0.239400  1.0  -0.1593
  N  N297  1  0.618500  0.667100  0.268800  1.0  -0.2954
  N  N298  1  0.540900  0.968200  0.278200  1.0  -0.2329
  N  N299  1  0.487400  0.038800  0.276600  1.0  -0.2421
  N  N300  1  0.403600  0.338700  0.257700  1.0  -0.3142
  N  N301  1  0.118500  0.332900  0.731200  1.0  -0.2944
  N  N302  1  0.040900  0.031800  0.721800  1.0  -0.2329
  N  N303  1  0.987400  0.961200  0.723400  1.0  -0.2416
  N  N304  1  0.903600  0.661300  0.742300  1.0  -0.3156
  N  N305  1  0.618500  0.332900  0.768800  1.0  -0.2952
  N  N306  1  0.540900  0.031800  0.778200  1.0  -0.2329
  N  N307  1  0.487400  0.961200  0.776600  1.0  -0.2416
  N  N308  1  0.403600  0.661300  0.757700  1.0  -0.3157
  N  N309  1  0.118500  0.667100  0.231200  1.0  -0.2948
  N  N310  1  0.040900  0.968200  0.221800  1.0  -0.233
  N  N311  1  0.987400  0.038800  0.223400  1.0  -0.242
  N  N312  1  0.903600  0.338700  0.242300  1.0  -0.3141
  O  O313  1  0.762900  0.604100  0.191000  1.0  -0.6187
  O  O314  1  0.872900  0.516700  0.185000  1.0  -0.5664
  O  O315  1  0.233400  0.595700  0.799200  1.0  -0.606
  O  O316  1  0.123700  0.508500  0.801200  1.0  -0.5714
  O  O317  1  0.766500  0.401700  0.322600  1.0  -0.5843
  O  O318  1  0.647700  0.478800  0.321400  1.0  -0.5733
  O  O319  1  0.396900  0.476600  0.693500  1.0  -0.5743
  O  O320  1  0.282300  0.397300  0.685200  1.0  -0.6042
  O  O321  1  0.262900  0.395900  0.809000  1.0  -0.6184
  O  O322  1  0.372900  0.483300  0.815000  1.0  -0.5679
  O  O323  1  0.733400  0.404300  0.200800  1.0  -0.6048
  O  O324  1  0.623700  0.491500  0.198800  1.0  -0.5728
  O  O325  1  0.266500  0.598300  0.677400  1.0  -0.5841
  O  O326  1  0.147700  0.521200  0.678600  1.0  -0.574
  O  O327  1  0.896900  0.523400  0.306500  1.0  -0.5731
  O  O328  1  0.782300  0.602700  0.314800  1.0  -0.6034
  O  O329  1  0.762900  0.395900  0.691000  1.0  -0.6191
  O  O330  1  0.872900  0.483300  0.685000  1.0  -0.5677
  O  O331  1  0.233400  0.404300  0.299200  1.0  -0.6057
  O  O332  1  0.123700  0.491500  0.301200  1.0  -0.5724
  O  O333  1  0.766500  0.598300  0.822600  1.0  -0.5845
  O  O334  1  0.647700  0.521200  0.821400  1.0  -0.5734
  O  O335  1  0.396900  0.523400  0.193500  1.0  -0.5736
  O  O336  1  0.282300  0.602700  0.185200  1.0  -0.6036
  O  O337  1  0.262900  0.604100  0.309000  1.0  -0.6178
  O  O338  1  0.372900  0.516700  0.315000  1.0  -0.5667
  O  O339  1  0.733400  0.595700  0.700800  1.0  -0.6053
  O  O340  1  0.623700  0.508500  0.698800  1.0  -0.5719
  O  O341  1  0.266500  0.401700  0.177400  1.0  -0.5839
  O  O342  1  0.147700  0.478800  0.178600  1.0  -0.5739
  O  O343  1  0.896900  0.476600  0.806500  1.0  -0.574
  O  O344  1  0.782300  0.397300  0.814800  1.0  -0.6037
  F  F345  1  0.014500  0.878100  0.071100  1.0  -0.2174
  F  F346  1  0.116500  0.795500  0.051070  1.0  -0.2053
  F  F347  1  0.090800  0.901600  0.995400  1.0  -0.1922
  F  F348  1  0.976800  0.880700  0.909770  1.0  -0.2122
  F  F349  1  0.901800  0.905700  0.986600  1.0  -0.195
  F  F350  1  0.870600  0.802400  0.930500  1.0  -0.2016
  F  F351  1  0.421000  0.176700  0.450800  1.0  -0.1871
  F  F352  1  0.528100  0.099700  0.433200  1.0  -0.2165
  F  F353  1  0.450500  0.074500  0.509300  1.0  -0.2039
  F  F354  1  0.640500  0.082000  0.516900  1.0  -0.2036
  F  F355  1  0.565200  0.102800  0.594070  1.0  -0.2239
  F  F356  1  0.665400  0.187500  0.572670  1.0  -0.1836
  F  F357  1  0.514500  0.121900  0.928900  1.0  -0.2172
  F  F358  1  0.616500  0.204500  0.948930  1.0  -0.2041
  F  F359  1  0.590800  0.098400  0.004600  1.0  -0.1923
  F  F360  1  0.476800  0.119300  0.090230  1.0  -0.213
  F  F361  1  0.401800  0.094300  0.013400  1.0  -0.195
  F  F362  1  0.370600  0.197600  0.069500  1.0  -0.2006
  F  F363  1  0.921000  0.823300  0.549200  1.0  -0.1868
  F  F364  1  0.028100  0.900300  0.566800  1.0  -0.2163
  F  F365  1  0.950500  0.925500  0.490700  1.0  -0.2057
  F  F366  1  0.140500  0.918000  0.483100  1.0  -0.2021
  F  F367  1  0.065200  0.897200  0.405930  1.0  -0.2209
  F  F368  1  0.165400  0.812500  0.427330  1.0  -0.1831
  F  F369  1  0.014500  0.121900  0.571100  1.0  -0.2176
  F  F370  1  0.116500  0.204500  0.551070  1.0  -0.2054
  F  F371  1  0.090800  0.098400  0.495400  1.0  -0.1926
  F  F372  1  0.976800  0.119300  0.409770  1.0  -0.2119
  F  F373  1  0.901800  0.094300  0.486600  1.0  -0.1942
  F  F374  1  0.870600  0.197600  0.430500  1.0  -0.2013
  F  F375  1  0.421000  0.823300  0.950800  1.0  -0.1871
  F  F376  1  0.528100  0.900300  0.933200  1.0  -0.2158
  F  F377  1  0.450500  0.925500  0.009300  1.0  -0.2053
  F  F378  1  0.640500  0.918000  0.016900  1.0  -0.2023
  F  F379  1  0.565200  0.897200  0.094070  1.0  -0.2229
  F  F380  1  0.665400  0.812500  0.072670  1.0  -0.1832
  F  F381  1  0.514500  0.878100  0.428900  1.0  -0.217
  F  F382  1  0.616500  0.795500  0.448930  1.0  -0.2038
  F  F383  1  0.590800  0.901600  0.504600  1.0  -0.1924
  F  F384  1  0.476800  0.880700  0.590230  1.0  -0.2124
  F  F385  1  0.401800  0.905700  0.513400  1.0  -0.1955
  F  F386  1  0.370600  0.802400  0.569500  1.0  -0.2012
  F  F387  1  0.921000  0.176700  0.049200  1.0  -0.1864
  F  F388  1  0.028100  0.099700  0.066800  1.0  -0.2162
  F  F389  1  0.950500  0.074500  0.990700  1.0  -0.2053
  F  F390  1  0.140500  0.082000  0.983100  1.0  -0.2034
  F  F391  1  0.065200  0.102800  0.905930  1.0  -0.2217
  F  F392  1  0.165400  0.187500  0.927330  1.0  -0.1838
