# generated using pymatgen
data_NaZnH8C12O7
_symmetry_space_group_name_H-M   'P 1'
_cell_length_a   8.75860000
_cell_length_b   10.15600000
_cell_length_c   19.47600000
_cell_angle_alpha   90.00000000
_cell_angle_beta   90.00000000
_cell_angle_gamma   100.22000000
_symmetry_Int_Tables_number   1
_chemical_formula_structural   NaZnH8C12O7
_chemical_formula_sum   'Na4 Zn4 H32 C48 O28'
_cell_volume   1704.94851730
_cell_formula_units_Z   4
loop_
 _symmetry_equiv_pos_site_id
 _symmetry_equiv_pos_as_xyz
  1  'x, y, z'
loop_
 _atom_site_type_symbol
 _atom_site_label
 _atom_site_symmetry_multiplicity
 _atom_site_fract_x
 _atom_site_fract_y
 _atom_site_fract_z
 _atom_site_occupancy
 _atom_site_charge
  Na  Na1  1  0.891240  0.609870  0.469680  1.0  0.948
  Na  Na2  1  0.108760  0.890130  0.969680  1.0  0.9475
  Na  Na3  1  0.108760  0.390130  0.530320  1.0  0.9478
  Na  Na4  1  0.891240  0.109870  0.030320  1.0  0.9461
  Zn  Zn5  1  0.637300  0.524950  0.601810  1.0  1.0288
  Zn  Zn6  1  0.362700  0.975050  0.101810  1.0  1.0282
  Zn  Zn7  1  0.362700  0.475050  0.398190  1.0  1.0288
  Zn  Zn8  1  0.637300  0.024950  0.898190  1.0  1.0293
  H  H9  1  0.750000  0.371000  0.532000  1.0  0.4851
  H  H10  1  0.633000  0.402000  0.492000  1.0  0.47
  H  H11  1  0.915200  0.756900  0.744000  1.0  0.1126
  H  H12  1  0.083500  0.862800  0.825300  1.0  0.0754
  H  H13  1  0.439300  0.742000  0.729000  1.0  0.1143
  H  H14  1  0.270800  0.635800  0.647100  1.0  0.0935
  H  H15  1  0.376200  0.847700  0.578600  1.0  0.0918
  H  H16  1  0.727100  0.965400  0.448500  1.0  0.1103
  H  H17  1  0.250000  0.129000  0.032000  1.0  0.4841
  H  H18  1  0.367000  0.098000  0.992000  1.0  0.4698
  H  H19  1  0.084800  0.743100  0.244000  1.0  0.1128
  H  H20  1  0.916500  0.637200  0.325300  1.0  0.0758
  H  H21  1  0.560700  0.758000  0.229000  1.0  0.114
  H  H22  1  0.729200  0.864200  0.147100  1.0  0.0934
  H  H23  1  0.623800  0.652300  0.078600  1.0  0.0919
  H  H24  1  0.272900  0.534600  0.948500  1.0  0.1108
  H  H25  1  0.250000  0.629000  0.468000  1.0  0.4849
  H  H26  1  0.367000  0.598000  0.508000  1.0  0.4709
  H  H27  1  0.084800  0.243100  0.256000  1.0  0.1129
  H  H28  1  0.916500  0.137200  0.174700  1.0  0.0759
  H  H29  1  0.560700  0.258000  0.271000  1.0  0.1136
  H  H30  1  0.729200  0.364200  0.352900  1.0  0.0936
  H  H31  1  0.623800  0.152300  0.421400  1.0  0.0918
  H  H32  1  0.272900  0.034600  0.551500  1.0  0.1107
  H  H33  1  0.750000  0.871000  0.968000  1.0  0.4842
  H  H34  1  0.633000  0.902000  0.008000  1.0  0.4714
  H  H35  1  0.915200  0.256900  0.756000  1.0  0.1126
  H  H36  1  0.083500  0.362800  0.674700  1.0  0.0755
  H  H37  1  0.439300  0.242000  0.771000  1.0  0.1141
  H  H38  1  0.270800  0.135800  0.852900  1.0  0.0939
  H  H39  1  0.376200  0.347700  0.921400  1.0  0.0922
  H  H40  1  0.727100  0.465400  0.051500  1.0  0.1104
  C  C41  1  0.962600  0.611300  0.635310  1.0  0.7257
  C  C42  1  0.074900  0.683300  0.687410  1.0  -0.1525
  C  C43  1  0.020300  0.753000  0.741150  1.0  -0.0457
  C  C44  1  0.120900  0.816000  0.789820  1.0  -0.0587
  C  C45  1  0.278400  0.810500  0.786630  1.0  -0.1267
  C  C46  1  0.333800  0.743900  0.732320  1.0  -0.048
  C  C47  1  0.232900  0.680600  0.683210  1.0  -0.0572
  C  C48  1  0.383200  0.878700  0.842010  1.0  0.6957
  C  C49  1  0.633400  0.768000  0.534960  1.0  0.6963
  C  C50  1  0.562000  0.886700  0.516640  1.0  -0.1365
  C  C51  1  0.426500  0.908900  0.546800  1.0  -0.0609
  C  C52  1  0.635600  0.979000  0.469400  1.0  -0.0576
  C  C53  1  0.037400  0.888700  0.135310  1.0  0.7272
  C  C54  1  0.925100  0.816700  0.187410  1.0  -0.1515
  C  C55  1  0.979700  0.747000  0.241150  1.0  -0.0454
  C  C56  1  0.879100  0.684000  0.289820  1.0  -0.0604
  C  C57  1  0.721600  0.689500  0.286630  1.0  -0.1271
  C  C58  1  0.666200  0.756100  0.232320  1.0  -0.0487
  C  C59  1  0.767100  0.819400  0.183210  1.0  -0.055
  C  C60  1  0.616800  0.621300  0.342010  1.0  0.6951
  C  C61  1  0.366600  0.732000  0.034960  1.0  0.6963
  C  C62  1  0.438000  0.613300  0.016640  1.0  -0.1378
  C  C63  1  0.573500  0.591100  0.046800  1.0  -0.06
  C  C64  1  0.364400  0.521000  0.969400  1.0  -0.0568
  C  C65  1  0.037400  0.388700  0.364690  1.0  0.7286
  C  C66  1  0.925100  0.316700  0.312590  1.0  -0.1517
  C  C67  1  0.979700  0.247000  0.258850  1.0  -0.0455
  C  C68  1  0.879100  0.184000  0.210180  1.0  -0.0605
  C  C69  1  0.721600  0.189500  0.213370  1.0  -0.1274
  C  C70  1  0.666200  0.256100  0.267680  1.0  -0.0491
  C  C71  1  0.767100  0.319400  0.316790  1.0  -0.0551
  C  C72  1  0.616800  0.121300  0.157990  1.0  0.6951
  C  C73  1  0.366600  0.232000  0.465040  1.0  0.6983
  C  C74  1  0.438000  0.113300  0.483360  1.0  -0.1379
  C  C75  1  0.573500  0.091100  0.453200  1.0  -0.0595
  C  C76  1  0.364400  0.021000  0.530600  1.0  -0.0535
  C  C77  1  0.962600  0.111300  0.864690  1.0  0.7267
  C  C78  1  0.074900  0.183300  0.812590  1.0  -0.1514
  C  C79  1  0.020300  0.253000  0.758850  1.0  -0.0461
  C  C80  1  0.120900  0.316000  0.710180  1.0  -0.059
  C  C81  1  0.278400  0.310500  0.713370  1.0  -0.1268
  C  C82  1  0.333800  0.243900  0.767680  1.0  -0.0481
  C  C83  1  0.232900  0.180600  0.816790  1.0  -0.0569
  C  C84  1  0.383200  0.378700  0.657990  1.0  0.6956
  C  C85  1  0.633400  0.268000  0.965040  1.0  0.6982
  C  C86  1  0.562000  0.386700  0.983360  1.0  -0.1364
  C  C87  1  0.426500  0.408900  0.953200  1.0  -0.06
  C  C88  1  0.635600  0.479000  0.030600  1.0  -0.0539
  O  O89  1  0.010100  0.570000  0.581150  1.0  -0.7871
  O  O90  1  0.821200  0.599200  0.653180  1.0  -0.6059
  O  O91  1  0.527600  0.908500  0.827530  1.0  -0.6155
  O  O92  1  0.329100  0.905400  0.897280  1.0  -0.6798
  O  O93  1  0.770000  0.767400  0.522270  1.0  -0.6694
  O  O94  1  0.542100  0.670100  0.564900  1.0  -0.6491
  O  O95  1  0.698800  0.424700  0.521550  1.0  -0.899
  O  O96  1  0.989900  0.930000  0.081150  1.0  -0.7829
  O  O97  1  0.178800  0.900800  0.153180  1.0  -0.6057
  O  O98  1  0.472400  0.591500  0.327530  1.0  -0.6156
  O  O99  1  0.670900  0.594600  0.397280  1.0  -0.6792
  O  O100  1  0.230000  0.732600  0.022270  1.0  -0.6725
  O  O101  1  0.457900  0.829900  0.064900  1.0  -0.6481
  O  O102  1  0.301200  0.075300  0.021550  1.0  -0.8989
  O  O103  1  0.989900  0.430000  0.418850  1.0  -0.7867
  O  O104  1  0.178800  0.400800  0.346820  1.0  -0.6066
  O  O105  1  0.472400  0.091500  0.172470  1.0  -0.6171
  O  O106  1  0.670900  0.094600  0.102720  1.0  -0.6789
  O  O107  1  0.230000  0.232600  0.477730  1.0  -0.6731
  O  O108  1  0.457900  0.329900  0.435100  1.0  -0.6482
  O  O109  1  0.301200  0.575300  0.478450  1.0  -0.9011
  O  O110  1  0.010100  0.070000  0.918850  1.0  -0.7897
  O  O111  1  0.821200  0.099200  0.846820  1.0  -0.6066
  O  O112  1  0.527600  0.408500  0.672470  1.0  -0.6161
  O  O113  1  0.329100  0.405400  0.602720  1.0  -0.6795
  O  O114  1  0.770000  0.267400  0.977730  1.0  -0.6698
  O  O115  1  0.542100  0.170100  0.935100  1.0  -0.6494
  O  O116  1  0.698800  0.924700  0.978450  1.0  -0.9011
