# generated using pymatgen
data_Zn3P3H13C12(N2O5)3
_symmetry_space_group_name_H-M   'P 1'
_cell_length_a   10.13700000
_cell_length_b   11.80200000
_cell_length_c   13.76800000
_cell_angle_alpha   86.89900000
_cell_angle_beta   89.52300000
_cell_angle_gamma   88.34300000
_symmetry_Int_Tables_number   1
_chemical_formula_structural   Zn3P3H13C12(N2O5)3
_chemical_formula_sum   'Zn6 P6 H26 C24 N12 O30'
_cell_volume   1644.02310740
_cell_formula_units_Z   2
loop_
 _symmetry_equiv_pos_site_id
 _symmetry_equiv_pos_as_xyz
  1  'x, y, z'
loop_
 _atom_site_type_symbol
 _atom_site_label
 _atom_site_symmetry_multiplicity
 _atom_site_fract_x
 _atom_site_fract_y
 _atom_site_fract_z
 _atom_site_occupancy
 _atom_site_charge
  Zn  Zn1  1  0.157360  0.515980  0.395540  1.0  1.1246
  Zn  Zn2  1  0.554670  0.574950  0.378330  1.0  1.1289
  Zn  Zn3  1  0.622570  0.110090  0.887460  1.0  0.9887
  Zn  Zn4  1  0.842640  0.484020  0.604460  1.0  1.1243
  Zn  Zn5  1  0.445330  0.425050  0.621670  1.0  1.1295
  Zn  Zn6  1  0.377430  0.889910  0.112540  1.0  0.9905
  P  P7  1  0.375000  0.344000  0.425630  1.0  1.6145
  P  P8  1  0.670700  0.335200  0.770060  1.0  1.5997
  P  P9  1  0.844070  0.461550  0.379290  1.0  1.6166
  P  P10  1  0.625000  0.656000  0.574370  1.0  1.6146
  P  P11  1  0.329300  0.664800  0.229940  1.0  1.598
  P  P12  1  0.155930  0.538450  0.620710  1.0  1.617
  H  H13  1  0.146200  0.316400  0.001800  1.0  0.4233
  H  H14  1  0.533400  0.218000  0.369100  1.0  0.1432
  H  H15  1  0.397600  0.158100  0.380800  1.0  0.1475
  H  H16  1  0.269400  0.255500  0.158500  1.0  0.1254
  H  H17  1  0.225600  0.215300  0.263700  1.0  0.1399
  H  H18  1  0.723700  0.428800  0.907300  1.0  0.159
  H  H19  1  0.602100  0.490100  0.855400  1.0  0.1363
  H  H20  1  0.400400  0.377500  0.852100  1.0  0.122
  H  H21  1  0.358100  0.395700  0.959900  1.0  0.1094
  H  H22  1  0.959900  0.313600  0.312100  1.0  0.1565
  H  H23  1  0.813400  0.279800  0.331600  1.0  0.1476
  H  H24  1  0.005500  0.449300  0.179300  1.0  0.1225
  H  H25  1  0.901700  0.471000  0.095900  1.0  0.1179
  H  H26  1  0.853800  0.683600  0.998200  1.0  0.4235
  H  H27  1  0.466600  0.782000  0.630900  1.0  0.1431
  H  H28  1  0.602400  0.841900  0.619200  1.0  0.1477
  H  H29  1  0.730600  0.744500  0.841500  1.0  0.1268
  H  H30  1  0.774400  0.784700  0.736300  1.0  0.137
  H  H31  1  0.276300  0.571200  0.092700  1.0  0.16
  H  H32  1  0.397900  0.509900  0.144600  1.0  0.137
  H  H33  1  0.599600  0.622500  0.147900  1.0  0.1228
  H  H34  1  0.641900  0.604300  0.040100  1.0  0.1109
  H  H35  1  0.040100  0.686400  0.687900  1.0  0.1571
  H  H36  1  0.186600  0.720200  0.668400  1.0  0.1482
  H  H37  1  0.994500  0.550700  0.820700  1.0  0.1234
  H  H38  1  0.098300  0.529000  0.904100  1.0  0.1183
  C  C39  1  0.514300  0.283100  0.193000  1.0  0.597
  C  C40  1  0.581100  0.342100  0.041900  1.0  0.5575
  C  C41  1  0.719100  0.343200  0.167500  1.0  0.6631
  C  C42  1  0.439400  0.227500  0.357600  1.0  -0.45
  C  C43  1  0.294100  0.206800  0.214800  1.0  -0.1041
  C  C44  1  0.297800  0.085300  0.185600  1.0  0.7218
  C  C45  1  0.640500  0.416500  0.875800  1.0  -0.4542
  C  C46  1  0.412200  0.348600  0.918800  1.0  -0.156
  C  C47  1  0.363700  0.229300  0.928400  1.0  0.7899
  C  C48  1  0.868800  0.340300  0.306100  1.0  -0.4762
  C  C49  1  0.941600  0.413200  0.140000  1.0  -0.1068
  C  C50  1  0.011200  0.323400  0.081700  1.0  0.6613
  C  C51  1  0.485700  0.716900  0.807000  1.0  0.5972
  C  C52  1  0.418900  0.657900  0.958100  1.0  0.5586
  C  C53  1  0.280900  0.656800  0.832500  1.0  0.6634
  C  C54  1  0.560600  0.772500  0.642400  1.0  -0.4484
  C  C55  1  0.705900  0.793200  0.785200  1.0  -0.1041
  C  C56  1  0.702200  0.914700  0.814400  1.0  0.7193
  C  C57  1  0.359500  0.583500  0.124200  1.0  -0.4574
  C  C58  1  0.587800  0.651400  0.081200  1.0  -0.1572
  C  C59  1  0.636300  0.770700  0.071600  1.0  0.7916
  C  C60  1  0.131200  0.659700  0.693900  1.0  -0.4756
  C  C61  1  0.058400  0.586800  0.860000  1.0  -0.1081
  C  C62  1  0.988800  0.676600  0.918300  1.0  0.6623
  N  N63  1  0.416600  0.246200  0.252800  1.0  -0.1058
  N  N64  1  0.839400  0.363000  0.203200  1.0  -0.0877
  N  N65  1  0.551600  0.359100  0.945300  1.0  -0.1409
  N  N66  1  0.483500  0.299800  0.098200  1.0  -0.5131
  N  N67  1  0.629700  0.303100  0.231000  1.0  -0.5206
  N  N68  1  0.701400  0.364600  0.071000  1.0  -0.5495
  N  N69  1  0.583400  0.753800  0.747200  1.0  -0.1051
  N  N70  1  0.160600  0.637000  0.796800  1.0  -0.0871
  N  N71  1  0.448400  0.640900  0.054700  1.0  -0.1418
  N  N72  1  0.516500  0.700200  0.901800  1.0  -0.5104
  N  N73  1  0.370300  0.696900  0.769000  1.0  -0.5186
  N  N74  1  0.298600  0.635400  0.929000  1.0  -0.5531
  O  O75  1  0.229400  0.360400  0.404900  1.0  -0.7558
  O  O76  1  0.444300  0.451700  0.392700  1.0  -0.891
  O  O77  1  0.400900  0.307000  0.530100  1.0  -0.735
  O  O78  1  0.407900  0.036400  0.173000  1.0  -0.5748
  O  O79  1  0.193100  0.041800  0.175900  1.0  -0.4581
  O  O80  1  0.782100  0.390100  0.715400  1.0  -0.8459
  O  O81  1  0.715900  0.215800  0.810300  1.0  -0.8081
  O  O82  1  0.544800  0.324900  0.715500  1.0  -0.7857
  O  O83  1  0.440500  0.145100  0.915000  1.0  -0.6399
  O  O84  1  0.243200  0.216200  0.945500  1.0  -0.6015
  O  O85  1  0.730100  0.534300  0.337000  1.0  -0.7917
  O  O86  1  0.967900  0.531500  0.372100  1.0  -0.7983
  O  O87  1  0.818200  0.413100  0.481600  1.0  -0.7958
  O  O88  1  0.103300  0.367300  0.026700  1.0  -0.4951
  O  O89  1  0.985500  0.225000  0.084700  1.0  -0.4762
  O  O90  1  0.770600  0.639600  0.595100  1.0  -0.755
  O  O91  1  0.555700  0.548300  0.607300  1.0  -0.8883
  O  O92  1  0.599100  0.693000  0.469900  1.0  -0.7327
  O  O93  1  0.592100  0.963600  0.827000  1.0  -0.5734
  O  O94  1  0.806900  0.958200  0.824100  1.0  -0.4563
  O  O95  1  0.217900  0.609900  0.284600  1.0  -0.8426
  O  O96  1  0.284100  0.784200  0.189700  1.0  -0.8089
  O  O97  1  0.455200  0.675100  0.284500  1.0  -0.7844
  O  O98  1  0.559500  0.854900  0.085000  1.0  -0.6485
  O  O99  1  0.756800  0.783800  0.054500  1.0  -0.6041
  O  O100  1  0.269900  0.465700  0.663000  1.0  -0.7912
  O  O101  1  0.032100  0.468500  0.627900  1.0  -0.794
  O  O102  1  0.181800  0.586900  0.518400  1.0  -0.7974
  O  O103  1  0.896700  0.632700  0.973300  1.0  -0.4975
  O  O104  1  0.014500  0.775000  0.915300  1.0  -0.4775
