# generated using pymatgen
data_Zn2P2H8C9N5O11
_symmetry_space_group_name_H-M   'P 1'
_cell_length_a   15.44400000
_cell_length_b   17.89500000
_cell_length_c   8.97900000
_cell_angle_alpha   90.00000000
_cell_angle_beta   90.00000000
_cell_angle_gamma   90.00000000
_symmetry_Int_Tables_number   1
_chemical_formula_structural   Zn2P2H8C9N5O11
_chemical_formula_sum   'Zn8 P8 H32 C36 N20 O44'
_cell_volume   2481.52964202
_cell_formula_units_Z   4
loop_
 _symmetry_equiv_pos_site_id
 _symmetry_equiv_pos_as_xyz
  1  'x, y, z'
loop_
 _atom_site_type_symbol
 _atom_site_label
 _atom_site_symmetry_multiplicity
 _atom_site_fract_x
 _atom_site_fract_y
 _atom_site_fract_z
 _atom_site_occupancy
 _atom_site_charge
  Zn  Zn1  1  0.085780  0.395080  0.057170  1.0  1.0283
  Zn  Zn2  1  0.414220  0.604920  0.557170  1.0  1.0289
  Zn  Zn3  1  0.914220  0.895080  0.942830  1.0  1.0289
  Zn  Zn4  1  0.585780  0.104920  0.442830  1.0  1.0283
  Zn  Zn5  1  0.914220  0.604920  0.942830  1.0  1.0291
  Zn  Zn6  1  0.585780  0.395080  0.442830  1.0  1.0283
  Zn  Zn7  1  0.085780  0.104920  0.057170  1.0  1.0283
  Zn  Zn8  1  0.414220  0.895080  0.557170  1.0  1.0285
  P  P9  1  0.986740  0.514680  0.230760  1.0  1.6445
  P  P10  1  0.513260  0.485320  0.730760  1.0  1.6454
  P  P11  1  0.013260  0.014680  0.769240  1.0  1.6437
  P  P12  1  0.486740  0.985320  0.269240  1.0  1.6445
  P  P13  1  0.013260  0.485320  0.769240  1.0  1.6448
  P  P14  1  0.486740  0.514680  0.269240  1.0  1.6438
  P  P15  1  0.986740  0.985320  0.230760  1.0  1.6454
  P  P16  1  0.513260  0.014680  0.730760  1.0  1.6439
  H  H17  1  0.848500  0.466900  0.202400  1.0  0.1598
  H  H18  1  0.911500  0.427600  0.090800  1.0  0.1658
  H  H19  1  0.863500  0.425900  0.473300  1.0  0.1336
  H  H20  1  0.867200  0.338700  0.483600  1.0  0.1403
  H  H21  1  0.651500  0.533100  0.702400  1.0  0.1585
  H  H22  1  0.588500  0.572400  0.590800  1.0  0.1653
  H  H23  1  0.636500  0.574100  0.973300  1.0  0.1347
  H  H24  1  0.632800  0.661300  0.983600  1.0  0.1392
  H  H25  1  0.151500  0.966900  0.797600  1.0  0.1577
  H  H26  1  0.088500  0.927600  0.909200  1.0  0.1655
  H  H27  1  0.136500  0.925900  0.526700  1.0  0.1345
  H  H28  1  0.132800  0.838700  0.516400  1.0  0.1388
  H  H29  1  0.348500  0.033100  0.297600  1.0  0.16
  H  H30  1  0.411500  0.072400  0.409200  1.0  0.1663
  H  H31  1  0.363500  0.074100  0.026700  1.0  0.1343
  H  H32  1  0.367200  0.161300  0.016400  1.0  0.1376
  H  H33  1  0.151500  0.533100  0.797600  1.0  0.1583
  H  H34  1  0.088500  0.572400  0.909200  1.0  0.1654
  H  H35  1  0.136500  0.574100  0.526700  1.0  0.1341
  H  H36  1  0.132800  0.661300  0.516400  1.0  0.1377
  H  H37  1  0.348500  0.466900  0.297600  1.0  0.1593
  H  H38  1  0.411500  0.427600  0.409200  1.0  0.1665
  H  H39  1  0.363500  0.425900  0.026700  1.0  0.1347
  H  H40  1  0.367200  0.338700  0.016400  1.0  0.1389
  H  H41  1  0.848500  0.033100  0.202400  1.0  0.1602
  H  H42  1  0.911500  0.072400  0.090800  1.0  0.1659
  H  H43  1  0.863500  0.074100  0.473300  1.0  0.135
  H  H44  1  0.867200  0.161300  0.483600  1.0  0.1394
  H  H45  1  0.651500  0.966900  0.702400  1.0  0.1583
  H  H46  1  0.588500  0.927600  0.590800  1.0  0.1652
  H  H47  1  0.636500  0.925900  0.973300  1.0  0.1332
  H  H48  1  0.632800  0.838700  0.983600  1.0  0.14
  C  C49  1  0.905100  0.444000  0.193200  1.0  -0.4377
  C  C50  1  0.852100  0.380100  0.418900  1.0  -0.1306
  C  C51  1  0.756600  0.376000  0.386000  1.0  0.7597
  C  C52  1  0.943700  0.312900  0.244700  1.0  0.4999
  C  C53  1  0.594900  0.556000  0.693200  1.0  -0.4398
  C  C54  1  0.647900  0.619900  0.918900  1.0  -0.131
  C  C55  1  0.743400  0.624000  0.886000  1.0  0.7599
  C  C56  1  0.556300  0.687100  0.744700  1.0  0.4993
  C  C57  1  0.094900  0.944000  0.806800  1.0  -0.4389
  C  C58  1  0.147900  0.880100  0.581100  1.0  -0.1303
  C  C59  1  0.243400  0.876000  0.614000  1.0  0.7611
  C  C60  1  0.056300  0.812900  0.755300  1.0  0.4995
  C  C61  1  0.405100  0.056000  0.306800  1.0  -0.4404
  C  C62  1  0.352100  0.119900  0.081100  1.0  -0.129
  C  C63  1  0.256600  0.124000  0.114000  1.0  0.7602
  C  C64  1  0.443700  0.187100  0.255300  1.0  0.4996
  C  C65  1  0.094900  0.556000  0.806800  1.0  -0.4397
  C  C66  1  0.147900  0.619900  0.581100  1.0  -0.1303
  C  C67  1  0.243400  0.624000  0.614000  1.0  0.7606
  C  C68  1  0.056300  0.687100  0.755300  1.0  0.4993
  C  C69  1  0.405100  0.444000  0.306800  1.0  -0.4398
  C  C70  1  0.352100  0.380100  0.081100  1.0  -0.1291
  C  C71  1  0.256600  0.376000  0.114000  1.0  0.76
  C  C72  1  0.443700  0.312900  0.255300  1.0  0.4999
  C  C73  1  0.905100  0.056000  0.193200  1.0  -0.438
  C  C74  1  0.852100  0.119900  0.418900  1.0  -0.1307
  C  C75  1  0.756600  0.124000  0.386000  1.0  0.7599
  C  C76  1  0.943700  0.187100  0.244700  1.0  0.4996
  C  C77  1  0.594900  0.944000  0.693200  1.0  -0.4382
  C  C78  1  0.647900  0.880100  0.918900  1.0  -0.1306
  C  C79  1  0.743400  0.876000  0.886000  1.0  0.7604
  C  C80  1  0.556300  0.812900  0.744700  1.0  0.4996
  C  C81  1  0.036600  0.250000  0.087100  1.0  0.5672
  C  C82  1  0.463400  0.750000  0.587100  1.0  0.5671
  C  C83  1  0.963400  0.750000  0.912900  1.0  0.5652
  C  C84  1  0.536600  0.250000  0.412900  1.0  0.5658
  N  N85  1  0.908100  0.378100  0.290100  1.0  -0.1145
  N  N86  1  0.004100  0.316300  0.136800  1.0  -0.325
  N  N87  1  0.591900  0.621900  0.790100  1.0  -0.1154
  N  N88  1  0.495900  0.683700  0.636800  1.0  -0.325
  N  N89  1  0.091900  0.878100  0.709900  1.0  -0.1154
  N  N90  1  0.995900  0.816300  0.863200  1.0  -0.3252
  N  N91  1  0.408100  0.121900  0.209900  1.0  -0.1147
  N  N92  1  0.504100  0.183700  0.363200  1.0  -0.3243
  N  N93  1  0.091900  0.621900  0.709900  1.0  -0.1156
  N  N94  1  0.995900  0.683700  0.863200  1.0  -0.3249
  N  N95  1  0.408100  0.378100  0.209900  1.0  -0.1145
  N  N96  1  0.504100  0.316300  0.363200  1.0  -0.3257
  N  N97  1  0.908100  0.121900  0.290100  1.0  -0.1146
  N  N98  1  0.004100  0.183700  0.136800  1.0  -0.325
  N  N99  1  0.591900  0.878100  0.790100  1.0  -0.1153
  N  N100  1  0.495900  0.816300  0.636800  1.0  -0.3254
  N  N101  1  0.915200  0.250000  0.305000  1.0  -0.4623
  N  N102  1  0.584800  0.750000  0.805000  1.0  -0.4621
  N  N103  1  0.084800  0.750000  0.695000  1.0  -0.4617
  N  N104  1  0.415200  0.250000  0.195000  1.0  -0.4615
  O  O105  1  0.073800  0.480000  0.195400  1.0  -0.7604
  O  O106  1  0.964500  0.580700  0.135100  1.0  -0.8162
  O  O107  1  0.980900  0.537500  0.393400  1.0  -0.6422
  O  O108  1  0.708700  0.392100  0.497000  1.0  -0.5921
  O  O109  1  0.728200  0.359500  0.262700  1.0  -0.4733
  O  O110  1  0.426200  0.520000  0.695400  1.0  -0.7582
  O  O111  1  0.535500  0.419300  0.635100  1.0  -0.8145
  O  O112  1  0.519100  0.462500  0.893400  1.0  -0.6432
  O  O113  1  0.791300  0.607900  0.997000  1.0  -0.5919
  O  O114  1  0.771800  0.640500  0.762700  1.0  -0.4739
  O  O115  1  0.926200  0.980000  0.804600  1.0  -0.7584
  O  O116  1  0.035500  0.080700  0.864900  1.0  -0.8165
  O  O117  1  0.019100  0.037500  0.606600  1.0  -0.6429
  O  O118  1  0.291300  0.892100  0.503000  1.0  -0.5927
  O  O119  1  0.271800  0.859500  0.737300  1.0  -0.4762
  O  O120  1  0.573800  0.020000  0.304600  1.0  -0.7594
  O  O121  1  0.464500  0.919300  0.364900  1.0  -0.8156
  O  O122  1  0.480900  0.962500  0.106600  1.0  -0.6427
  O  O123  1  0.208700  0.107900  0.003000  1.0  -0.5928
  O  O124  1  0.228200  0.140500  0.237300  1.0  -0.4777
  O  O125  1  0.926200  0.520000  0.804600  1.0  -0.7582
  O  O126  1  0.035500  0.419300  0.864900  1.0  -0.8155
  O  O127  1  0.019100  0.462500  0.606600  1.0  -0.6432
  O  O128  1  0.291300  0.607900  0.503000  1.0  -0.5932
  O  O129  1  0.271800  0.640500  0.737300  1.0  -0.4773
  O  O130  1  0.573800  0.480000  0.304600  1.0  -0.7593
  O  O131  1  0.464500  0.580700  0.364900  1.0  -0.8164
  O  O132  1  0.480900  0.537500  0.106600  1.0  -0.6425
  O  O133  1  0.208700  0.392100  0.003000  1.0  -0.5924
  O  O134  1  0.228200  0.359500  0.237300  1.0  -0.4767
  O  O135  1  0.073800  0.020000  0.195400  1.0  -0.7598
  O  O136  1  0.964500  0.919300  0.135100  1.0  -0.8147
  O  O137  1  0.980900  0.962500  0.393400  1.0  -0.6424
  O  O138  1  0.708700  0.107900  0.497000  1.0  -0.5921
  O  O139  1  0.728200  0.140500  0.262700  1.0  -0.4743
  O  O140  1  0.426200  0.980000  0.695400  1.0  -0.7589
  O  O141  1  0.535500  0.080700  0.635100  1.0  -0.8161
  O  O142  1  0.519100  0.037500  0.893400  1.0  -0.6428
  O  O143  1  0.791300  0.892100  0.997000  1.0  -0.5918
  O  O144  1  0.771800  0.859500  0.762700  1.0  -0.4727
  O  O145  1  0.095400  0.250000  0.995100  1.0  -0.5772
  O  O146  1  0.404600  0.750000  0.495100  1.0  -0.5786
  O  O147  1  0.904600  0.750000  0.004900  1.0  -0.5772
  O  O148  1  0.595400  0.250000  0.504900  1.0  -0.5755
