# generated using pymatgen
data_AgH24(C6N)4
_symmetry_space_group_name_H-M   'P 1'
_cell_length_a   6.37160000
_cell_length_b   13.16460000
_cell_length_c   14.86220000
_cell_angle_alpha   90.00000000
_cell_angle_beta   90.00000000
_cell_angle_gamma   90.00000000
_symmetry_Int_Tables_number   1
_chemical_formula_structural   AgH24(C6N)4
_chemical_formula_sum   'Ag2 H48 C48 N8'
_cell_volume   1246.63487629
_cell_formula_units_Z   2
loop_
 _symmetry_equiv_pos_site_id
 _symmetry_equiv_pos_as_xyz
  1  'x, y, z'
loop_
 _atom_site_type_symbol
 _atom_site_label
 _atom_site_symmetry_multiplicity
 _atom_site_fract_x
 _atom_site_fract_y
 _atom_site_fract_z
 _atom_site_occupancy
 _atom_site_charge
  Ag  Ag1  1  0.250000  0.750000  0.750000  1.0  0.3143
  Ag  Ag2  1  0.750000  0.250000  0.250000  1.0  0.3143
  H  H3  1  0.473800  0.527500  0.740400  1.0  0.0611
  H  H4  1  0.705700  0.434200  0.656400  1.0  0.1049
  H  H5  1  0.695300  0.653300  0.472300  1.0  0.1023
  H  H6  1  0.467500  0.739900  0.559400  1.0  0.0535
  H  H7  1  0.924000  0.408000  0.514000  1.0  0.1025
  H  H8  1  0.830000  0.465000  0.446000  1.0  0.134
  H  H9  1  0.026200  0.972500  0.740400  1.0  0.058
  H  H10  1  0.794300  0.065800  0.656400  1.0  0.1047
  H  H11  1  0.804700  0.846700  0.472300  1.0  0.1019
  H  H12  1  0.032500  0.760100  0.559400  1.0  0.0531
  H  H13  1  0.576000  0.092000  0.514000  1.0  0.1063
  H  H14  1  0.670000  0.035000  0.446000  1.0  0.1346
  H  H15  1  0.026200  0.527500  0.759600  1.0  0.0593
  H  H16  1  0.794300  0.434200  0.843600  1.0  0.105
  H  H17  1  0.804700  0.653300  0.027700  1.0  0.1017
  H  H18  1  0.032500  0.739900  0.940600  1.0  0.0531
  H  H19  1  0.576000  0.408000  0.986000  1.0  0.103
  H  H20  1  0.670000  0.465000  0.054000  1.0  0.1345
  H  H21  1  0.473800  0.972500  0.759600  1.0  0.0616
  H  H22  1  0.705700  0.065800  0.843600  1.0  0.1049
  H  H23  1  0.695300  0.846700  0.027700  1.0  0.1019
  H  H24  1  0.467500  0.760100  0.940600  1.0  0.053
  H  H25  1  0.924000  0.092000  0.986000  1.0  0.1072
  H  H26  1  0.830000  0.035000  0.054000  1.0  0.1345
  H  H27  1  0.526200  0.472500  0.259600  1.0  0.0586
  H  H28  1  0.294300  0.565800  0.343600  1.0  0.1053
  H  H29  1  0.304700  0.346700  0.527700  1.0  0.1019
  H  H30  1  0.532500  0.260100  0.440600  1.0  0.053
  H  H31  1  0.076000  0.592000  0.486000  1.0  0.108
  H  H32  1  0.170000  0.535000  0.554000  1.0  0.1346
  H  H33  1  0.973800  0.027500  0.259600  1.0  0.0613
  H  H34  1  0.205700  0.934200  0.343600  1.0  0.1044
  H  H35  1  0.195300  0.153300  0.527700  1.0  0.1018
  H  H36  1  0.967500  0.239900  0.440600  1.0  0.0531
  H  H37  1  0.424000  0.908000  0.486000  1.0  0.1024
  H  H38  1  0.330000  0.965000  0.554000  1.0  0.1344
  H  H39  1  0.973800  0.472500  0.240400  1.0  0.0607
  H  H40  1  0.205700  0.565800  0.156400  1.0  0.1046
  H  H41  1  0.195300  0.346700  0.972300  1.0  0.1019
  H  H42  1  0.967500  0.260100  0.059400  1.0  0.0533
  H  H43  1  0.424000  0.592000  0.014000  1.0  0.1056
  H  H44  1  0.330000  0.535000  0.946000  1.0  0.1345
  H  H45  1  0.526200  0.027500  0.240400  1.0  0.0588
  H  H46  1  0.294300  0.934200  0.156400  1.0  0.1048
  H  H47  1  0.304700  0.153300  0.972300  1.0  0.1024
  H  H48  1  0.532500  0.239900  0.059400  1.0  0.0533
  H  H49  1  0.076000  0.908000  0.014000  1.0  0.1031
  H  H50  1  0.170000  0.965000  0.946000  1.0  0.1343
  C  C51  1  0.520300  0.553500  0.685700  1.0  0.1513
  C  C52  1  0.661000  0.497100  0.635400  1.0  -0.2203
  C  C53  1  0.734300  0.533200  0.554400  1.0  0.1065
  C  C54  1  0.654300  0.625900  0.527300  1.0  -0.2374
  C  C55  1  0.516600  0.677600  0.579900  1.0  0.1552
  C  C56  1  0.891500  0.476200  0.499600  1.0  -0.203
  C  C57  1  0.979700  0.946500  0.685700  1.0  0.1522
  C  C58  1  0.839000  0.002900  0.635400  1.0  -0.224
  C  C59  1  0.765700  0.966800  0.554400  1.0  0.1061
  C  C60  1  0.845700  0.874100  0.527300  1.0  -0.2352
  C  C61  1  0.983400  0.822400  0.579900  1.0  0.1535
  C  C62  1  0.608500  0.023800  0.499600  1.0  -0.2026
  C  C63  1  0.979700  0.553500  0.814300  1.0  0.1555
  C  C64  1  0.839000  0.497100  0.864600  1.0  -0.2244
  C  C65  1  0.765700  0.533200  0.945600  1.0  0.106
  C  C66  1  0.845700  0.625900  0.972700  1.0  -0.2395
  C  C67  1  0.983400  0.677600  0.920100  1.0  0.1548
  C  C68  1  0.608500  0.476200  0.000400  1.0  -0.2023
  C  C69  1  0.520300  0.946500  0.814300  1.0  0.1523
  C  C70  1  0.661000  0.002900  0.864600  1.0  -0.2232
  C  C71  1  0.734300  0.966800  0.945600  1.0  0.1065
  C  C72  1  0.654300  0.874100  0.972700  1.0  -0.2365
  C  C73  1  0.516600  0.822400  0.920100  1.0  0.1546
  C  C74  1  0.891500  0.023800  0.000400  1.0  -0.2027
  C  C75  1  0.479700  0.446500  0.314300  1.0  0.1524
  C  C76  1  0.339000  0.502900  0.364600  1.0  -0.2329
  C  C77  1  0.265700  0.466800  0.445600  1.0  0.106
  C  C78  1  0.345700  0.374100  0.472700  1.0  -0.2372
  C  C79  1  0.483400  0.322400  0.420100  1.0  0.1541
  C  C80  1  0.108500  0.523800  0.500400  1.0  -0.2023
  C  C81  1  0.020300  0.053500  0.314300  1.0  0.1527
  C  C82  1  0.161000  0.997100  0.364600  1.0  -0.2209
  C  C83  1  0.234300  0.033200  0.445600  1.0  0.1064
  C  C84  1  0.154300  0.125900  0.472700  1.0  -0.2388
  C  C85  1  0.016600  0.177600  0.420100  1.0  0.155
  C  C86  1  0.391500  0.976200  0.500400  1.0  -0.2029
  C  C87  1  0.020300  0.446500  0.185700  1.0  0.1509
  C  C88  1  0.161000  0.502900  0.135400  1.0  -0.2215
  C  C89  1  0.234300  0.466800  0.054400  1.0  0.1066
  C  C90  1  0.154300  0.374100  0.027300  1.0  -0.2347
  C  C91  1  0.016600  0.322400  0.079900  1.0  0.1548
  C  C92  1  0.391500  0.523800  0.999600  1.0  -0.2028
  C  C93  1  0.479700  0.053500  0.185700  1.0  0.1553
  C  C94  1  0.339000  0.997100  0.135400  1.0  -0.231
  C  C95  1  0.265700  0.033200  0.054400  1.0  0.106
  C  C96  1  0.345700  0.125900  0.027300  1.0  -0.2378
  C  C97  1  0.483400  0.177600  0.079900  1.0  0.155
  C  C98  1  0.108500  0.976200  0.999600  1.0  -0.2026
  N  N99  1  0.448200  0.644700  0.658600  1.0  -0.3877
  N  N100  1  0.051800  0.855300  0.658600  1.0  -0.3855
  N  N101  1  0.051800  0.644700  0.841400  1.0  -0.3873
  N  N102  1  0.448200  0.855300  0.841400  1.0  -0.3872
  N  N103  1  0.551800  0.355300  0.341400  1.0  -0.3865
  N  N104  1  0.948200  0.144700  0.341400  1.0  -0.387
  N  N105  1  0.948200  0.355300  0.158600  1.0  -0.3868
  N  N106  1  0.551800  0.144700  0.158600  1.0  -0.3868
