# generated using pymatgen
data_CdH17C23N3O7
_symmetry_space_group_name_H-M   'P 1'
_cell_length_a   15.08100000
_cell_length_b   14.53800000
_cell_length_c   17.93500000
_cell_angle_alpha   90.00000000
_cell_angle_beta   95.95100000
_cell_angle_gamma   90.00000000
_symmetry_Int_Tables_number   1
_chemical_formula_structural   CdH17C23N3O7
_chemical_formula_sum   'Cd4 H68 C92 N12 O28'
_cell_volume   3911.01436443
_cell_formula_units_Z   4
loop_
 _symmetry_equiv_pos_site_id
 _symmetry_equiv_pos_as_xyz
  1  'x, y, z'
loop_
 _atom_site_type_symbol
 _atom_site_label
 _atom_site_symmetry_multiplicity
 _atom_site_fract_x
 _atom_site_fract_y
 _atom_site_fract_z
 _atom_site_occupancy
 _atom_site_charge
  Cd  Cd1  1  0.465820  0.104050  0.479980  1.0  1.0202
  Cd  Cd2  1  0.093430  0.132850  0.835000  1.0  1.0534
  Cd  Cd3  1  0.534180  0.604050  0.520020  1.0  1.0192
  Cd  Cd4  1  0.906570  0.632850  0.165000  1.0  1.0533
  H  H5  1  0.579400  0.979700  0.546800  1.0  0.0836
  H  H6  1  0.286700  0.113000  0.357600  1.0  0.0928
  H  H7  1  0.762200  0.790100  0.623600  1.0  0.1096
  H  H8  1  0.204900  0.152100  0.447500  1.0  0.0729
  H  H9  1  0.165700  0.052100  0.453600  1.0  0.0982
  H  H10  1  0.309500  0.067100  0.823800  1.0  0.1281
  H  H11  1  0.521100  0.097000  0.667700  1.0  0.0944
  H  H12  1  0.274600  0.020000  0.700800  1.0  0.1213
  H  H13  1  0.444000  0.062100  0.303000  1.0  0.1026
  H  H14  1  0.350100  0.059600  0.949900  1.0  0.1177
  H  H15  1  0.605500  0.034100  0.915900  1.0  0.1203
  H  H16  1  0.674500  0.073400  0.418300  1.0  0.0929
  H  H17  1  0.569500  0.037400  0.790100  1.0  0.125
  H  H18  1  0.706900  0.060000  0.287800  1.0  0.1456
  H  H19  1  0.068300  0.001000  0.323200  1.0  0.099
  H  H20  1  0.061500  0.079100  0.261800  1.0  0.0913
  H  H21  1  0.078500  0.878200  0.673500  1.0  0.104
  H  H22  1  0.288400  0.037400  0.567900  1.0  0.107
  H  H23  1  0.017100  0.899000  0.010500  1.0  0.1139
  H  H24  1  0.820600  0.057800  0.638100  1.0  0.1264
  H  H25  1  0.104300  0.883400  0.228800  1.0  0.1173
  H  H26  1  0.211800  0.067400  0.095500  1.0  0.1278
  H  H27  1  0.424500  0.117700  0.181700  1.0  0.1383
  H  H28  1  0.661800  0.001800  0.162400  1.0  0.1011
  H  H29  1  0.041000  0.125200  0.394100  1.0  0.104
  H  H30  1  0.099200  0.191000  0.348300  1.0  0.1131
  H  H31  1  0.627800  0.993700  0.033600  1.0  0.1218
  H  H32  1  0.162700  0.933100  0.594000  1.0  0.0712
  H  H33  1  0.114500  0.029400  0.589300  1.0  0.0833
  H  H34  1  0.392700  0.096200  0.055000  1.0  0.1205
  H  H35  1  0.944600  0.034400  0.549700  1.0  0.1009
  H  H36  1  0.898200  0.941000  0.521700  1.0  0.1152
  H  H37  1  0.047500  0.865300  0.515500  1.0  0.1122
  H  H38  1  0.059900  0.962100  0.476700  1.0  0.1506
  H  H39  1  0.420600  0.479700  0.453200  1.0  0.0836
  H  H40  1  0.713300  0.613000  0.642400  1.0  0.0927
  H  H41  1  0.237800  0.290100  0.376400  1.0  0.1095
  H  H42  1  0.795100  0.652100  0.552500  1.0  0.0723
  H  H43  1  0.834300  0.552100  0.546400  1.0  0.0978
  H  H44  1  0.690500  0.567100  0.176200  1.0  0.1276
  H  H45  1  0.478900  0.597000  0.332300  1.0  0.0941
  H  H46  1  0.725400  0.520000  0.299200  1.0  0.121
  H  H47  1  0.556000  0.562100  0.697000  1.0  0.103
  H  H48  1  0.649900  0.559600  0.050100  1.0  0.1179
  H  H49  1  0.394500  0.534100  0.084100  1.0  0.121
  H  H50  1  0.325500  0.573400  0.581700  1.0  0.0931
  H  H51  1  0.430500  0.537400  0.209900  1.0  0.1246
  H  H52  1  0.293100  0.560000  0.712200  1.0  0.1459
  H  H53  1  0.931700  0.501000  0.676800  1.0  0.0995
  H  H54  1  0.938500  0.579100  0.738200  1.0  0.0915
  H  H55  1  0.921500  0.378200  0.326500  1.0  0.1032
  H  H56  1  0.711600  0.537400  0.432100  1.0  0.1073
  H  H57  1  0.982900  0.399000  0.989500  1.0  0.1137
  H  H58  1  0.179400  0.557800  0.361900  1.0  0.1268
  H  H59  1  0.895700  0.383400  0.771200  1.0  0.1177
  H  H60  1  0.788200  0.567400  0.904500  1.0  0.128
  H  H61  1  0.575500  0.617700  0.818300  1.0  0.1386
  H  H62  1  0.338200  0.501800  0.837600  1.0  0.1012
  H  H63  1  0.959000  0.625200  0.605900  1.0  0.1064
  H  H64  1  0.900800  0.691000  0.651700  1.0  0.1123
  H  H65  1  0.372200  0.493700  0.966400  1.0  0.1218
  H  H66  1  0.837300  0.433100  0.406000  1.0  0.0717
  H  H67  1  0.885500  0.529400  0.410700  1.0  0.0829
  H  H68  1  0.607300  0.596200  0.945000  1.0  0.1204
  H  H69  1  0.055400  0.534400  0.450300  1.0  0.1002
  H  H70  1  0.101800  0.441000  0.478300  1.0  0.1151
  H  H71  1  0.952500  0.365300  0.484500  1.0  0.1121
  H  H72  1  0.940100  0.462100  0.523300  1.0  0.148
  C  C73  1  0.693500  0.033900  0.596100  1.0  -0.1197
  C  C74  1  0.634700  0.963900  0.571300  1.0  -0.0275
  C  C75  1  0.243600  0.064900  0.366700  1.0  0.0305
  C  C76  1  0.803600  0.920400  0.631700  1.0  0.0063
  C  C77  1  0.592500  0.799500  0.553100  1.0  0.678
  C  C78  1  0.745300  0.850900  0.614500  1.0  -0.047
  C  C79  1  0.668800  0.133700  0.582100  1.0  0.6977
  C  C80  1  0.897500  0.899200  0.665300  1.0  0.5625
  C  C81  1  0.179600  0.099900  0.419000  1.0  -0.1312
  C  C82  1  0.369200  0.060900  0.842000  1.0  -0.2019
  C  C83  1  0.461400  0.080200  0.659300  1.0  0.1512
  C  C84  1  0.057900  0.871400  0.120300  1.0  -0.1318
  C  C85  1  0.325300  0.037400  0.678800  1.0  -0.1495
  C  C86  1  0.505400  0.061900  0.315700  1.0  0.0976
  C  C87  1  0.482200  0.049600  0.947800  1.0  0.0327
  C  C88  1  0.394200  0.057100  0.917500  1.0  -0.1011
  C  C89  1  0.166400  0.981000  0.172100  1.0  -0.0113
  C  C90  1  0.546100  0.041400  0.897200  1.0  -0.0957
  C  C91  1  0.631600  0.068100  0.377400  1.0  0.0674
  C  C92  1  0.525000  0.043600  0.821900  1.0  -0.1849
  C  C93  1  0.292700  0.978200  0.397700  1.0  0.6757
  C  C94  1  0.651300  0.061400  0.305900  1.0  -0.1025
  C  C95  1  0.111400  0.039000  0.963400  1.0  0.6689
  C  C96  1  0.224500  0.013900  0.236800  1.0  0.5966
  C  C97  1  0.094600  0.058000  0.307900  1.0  0.0268
  C  C98  1  0.058700  0.939300  0.655600  1.0  1e-04
  C  C99  1  0.069900  0.006900  0.721700  1.0  0.6803
  C  C100  1  0.334300  0.047600  0.605700  1.0  0.0752
  C  C101  1  0.057100  0.918100  0.050500  1.0  0.0303
  C  C102  1  0.779400  0.011700  0.624300  1.0  -0.0652
  C  C103  1  0.108500  0.907600  0.181300  1.0  -0.1377
  C  C104  1  0.435800  0.055300  0.791800  1.0  0.1641
  C  C105  1  0.547900  0.051900  0.186300  1.0  0.1918
  C  C106  1  0.507100  0.047700  0.031000  1.0  0.0315
  C  C107  1  0.170900  0.020800  0.101800  1.0  -0.0223
  C  C108  1  0.655000  0.873300  0.581400  1.0  -0.1248
  C  C109  1  0.464800  0.089000  0.153400  1.0  -0.2144
  C  C110  1  0.606000  0.021300  0.141300  1.0  -0.0951
  C  C111  1  0.094000  0.129300  0.368000  1.0  -0.1498
  C  C112  1  0.586100  0.017400  0.063200  1.0  -0.1385
  C  C113  1  0.112600  0.989400  0.040300  1.0  -0.1251
  C  C114  1  0.105200  0.963500  0.591200  1.0  -0.1108
  C  C115  1  0.448900  0.079300  0.077000  1.0  -0.1137
  C  C116  1  0.001300  0.791500  0.131400  1.0  0.658
  C  C117  1  0.949400  0.967900  0.550900  1.0  -0.0242
  C  C118  1  0.046000  0.931500  0.522100  1.0  -0.1519
  C  C119  1  0.306500  0.533900  0.403900  1.0  -0.1214
  C  C120  1  0.365300  0.463900  0.428700  1.0  -0.0287
  C  C121  1  0.756400  0.564900  0.633300  1.0  0.0298
  C  C122  1  0.196400  0.420400  0.368300  1.0  0.0064
  C  C123  1  0.407500  0.299500  0.446900  1.0  0.6789
  C  C124  1  0.254700  0.350900  0.385500  1.0  -0.0474
  C  C125  1  0.331200  0.633700  0.417900  1.0  0.699
  C  C126  1  0.102500  0.399200  0.334700  1.0  0.5639
  C  C127  1  0.820400  0.599900  0.581000  1.0  -0.132
  C  C128  1  0.630800  0.560900  0.158000  1.0  -0.2018
  C  C129  1  0.538600  0.580200  0.340700  1.0  0.1496
  C  C130  1  0.942100  0.371400  0.879700  1.0  -0.1313
  C  C131  1  0.674700  0.537400  0.321200  1.0  -0.1472
  C  C132  1  0.494600  0.561900  0.684300  1.0  0.1003
  C  C133  1  0.517800  0.549600  0.052200  1.0  0.0342
  C  C134  1  0.605800  0.557100  0.082500  1.0  -0.1017
  C  C135  1  0.833600  0.481000  0.827900  1.0  -0.0121
  C  C136  1  0.453900  0.541400  0.102800  1.0  -0.0959
  C  C137  1  0.368400  0.568100  0.622600  1.0  0.0686
  C  C138  1  0.475000  0.543600  0.178100  1.0  -0.185
  C  C139  1  0.707300  0.478200  0.602300  1.0  0.6755
  C  C140  1  0.348700  0.561400  0.694100  1.0  -0.1019
  C  C141  1  0.888600  0.539000  0.036600  1.0  0.6682
  C  C142  1  0.775500  0.513900  0.763200  1.0  0.5959
  C  C143  1  0.905400  0.558000  0.692100  1.0  0.0267
  C  C144  1  0.941300  0.439300  0.344400  1.0  -0.0
  C  C145  1  0.930100  0.506900  0.278300  1.0  0.6801
  C  C146  1  0.665700  0.547600  0.394300  1.0  0.0742
  C  C147  1  0.942900  0.418100  0.949500  1.0  0.0315
  C  C148  1  0.220600  0.511700  0.375700  1.0  -0.0647
  C  C149  1  0.891500  0.407600  0.818700  1.0  -0.1377
  C  C150  1  0.564200  0.555300  0.208200  1.0  0.1637
  C  C151  1  0.452100  0.551900  0.813700  1.0  0.1933
  C  C152  1  0.492900  0.547700  0.969000  1.0  0.0323
  C  C153  1  0.829100  0.520800  0.898200  1.0  -0.0232
  C  C154  1  0.345000  0.373300  0.418600  1.0  -0.1262
  C  C155  1  0.535200  0.589000  0.846600  1.0  -0.2144
  C  C156  1  0.394000  0.521300  0.858700  1.0  -0.0972
  C  C157  1  0.906000  0.629300  0.632000  1.0  -0.1515
  C  C158  1  0.413900  0.517400  0.936800  1.0  -0.1387
  C  C159  1  0.887400  0.489400  0.959700  1.0  -0.1255
  C  C160  1  0.894800  0.463500  0.408800  1.0  -0.1108
  C  C161  1  0.551100  0.579300  0.923000  1.0  -0.1153
  C  C162  1  0.998700  0.291500  0.868600  1.0  0.6574
  C  C163  1  0.050600  0.467900  0.449100  1.0  -0.0227
  C  C164  1  0.954000  0.431500  0.477900  1.0  -0.1526
  N  N165  1  0.418000  0.074300  0.592800  1.0  -0.3685
  N  N166  1  0.544100  0.066200  0.383500  1.0  -0.313
  N  N167  1  0.410500  0.059300  0.714700  1.0  -0.0356
  N  N168  1  0.186500  0.045000  0.297700  1.0  -0.0693
  N  N169  1  0.566500  0.057100  0.265700  1.0  0.0383
  N  N170  1  0.960400  0.933700  0.624300  1.0  -0.178
  N  N171  1  0.582000  0.574300  0.407200  1.0  -0.3704
  N  N172  1  0.455900  0.566200  0.616500  1.0  -0.3104
  N  N173  1  0.589500  0.559300  0.285300  1.0  -0.0342
  N  N174  1  0.813500  0.545000  0.702300  1.0  -0.0694
  N  N175  1  0.433500  0.557100  0.734300  1.0  0.0383
  N  N176  1  0.039600  0.433700  0.375700  1.0  -0.1772
  O  O177  1  0.518800  0.823100  0.525100  1.0  -0.5324
  O  O178  1  0.367700  0.989200  0.437800  1.0  -0.7145
  O  O179  1  0.621300  0.717100  0.561000  1.0  -0.5972
  O  O180  1  0.722700  0.194400  0.606600  1.0  -0.5321
  O  O181  1  0.593000  0.152000  0.546500  1.0  -0.7383
  O  O182  1  0.260000  0.902000  0.383900  1.0  -0.5361
  O  O183  1  0.913400  0.856900  0.725700  1.0  -0.4974
  O  O184  1  0.175500  0.085700  0.952200  1.0  -0.5544
  O  O185  1  0.041200  0.024700  0.919900  1.0  -0.6116
  O  O186  1  0.306900  0.013500  0.237000  1.0  -0.5516
  O  O187  1  0.142700  0.008300  0.758500  1.0  -0.5739
  O  O188  1  0.009100  0.063200  0.732000  1.0  -0.5846
  O  O189  1  0.007700  0.745600  0.189600  1.0  -0.5523
  O  O190  1  0.942300  0.762500  0.081500  1.0  -0.6413
  O  O191  1  0.481200  0.323100  0.474900  1.0  -0.5305
  O  O192  1  0.632300  0.489200  0.562200  1.0  -0.7161
  O  O193  1  0.378700  0.217100  0.439000  1.0  -0.597
  O  O194  1  0.277300  0.694400  0.393400  1.0  -0.5312
  O  O195  1  0.407000  0.652000  0.453500  1.0  -0.7393
  O  O196  1  0.740000  0.402000  0.616100  1.0  -0.5359
  O  O197  1  0.086600  0.356900  0.274300  1.0  -0.4934
  O  O198  1  0.824500  0.585700  0.047800  1.0  -0.5546
  O  O199  1  0.958800  0.524700  0.080100  1.0  -0.6117
  O  O200  1  0.693100  0.513500  0.763000  1.0  -0.5533
  O  O201  1  0.857300  0.508300  0.241500  1.0  -0.5737
  O  O202  1  0.990900  0.563200  0.268000  1.0  -0.5858
  O  O203  1  0.992300  0.245600  0.810400  1.0  -0.5507
  O  O204  1  0.057700  0.262500  0.918500  1.0  -0.6403
