# generated using pymatgen
data_ThPH12C21O8
_symmetry_space_group_name_H-M   'P 1'
_cell_length_a   11.79700000
_cell_length_b   12.88900000
_cell_length_c   14.03700000
_cell_angle_alpha   66.06500000
_cell_angle_beta   78.73100000
_cell_angle_gamma   69.92400000
_symmetry_Int_Tables_number   1
_chemical_formula_structural   ThPH12C21O8
_chemical_formula_sum   'Th2 P2 H24 C42 O16'
_cell_volume   1828.34839281
_cell_formula_units_Z   2
loop_
 _symmetry_equiv_pos_site_id
 _symmetry_equiv_pos_as_xyz
  1  'x, y, z'
loop_
 _atom_site_type_symbol
 _atom_site_label
 _atom_site_symmetry_multiplicity
 _atom_site_fract_x
 _atom_site_fract_y
 _atom_site_fract_z
 _atom_site_occupancy
 _atom_site_charge
  Th  Th1  1  0.539750  0.550390  0.601130  1.0  2.2749
  Th  Th2  1  0.460250  0.449610  0.398870  1.0  2.2738
  P  P3  1  0.723400  0.655700  0.721500  1.0  1.0991
  P  P4  1  0.276600  0.344300  0.278500  1.0  1.0973
  H  H5  1  0.498400  0.826100  0.735800  1.0  0.1123
  H  H6  1  0.699200  0.445700  0.880400  1.0  0.1161
  H  H7  1  0.817400  0.841600  0.573200  1.0  0.108
  H  H8  1  0.671500  0.768200  0.873500  1.0  0.1198
  H  H9  1  0.933300  0.691800  0.766400  1.0  0.1136
  H  H10  1  0.876900  0.507000  0.621300  1.0  0.1208
  H  H11  1  0.420900  0.029000  0.656900  1.0  0.1232
  H  H12  1  0.736400  0.044800  0.489500  1.0  0.1241
  H  H13  1  0.080300  0.461200  0.565700  1.0  0.1079
  H  H14  1  0.137400  0.634300  0.719700  1.0  0.1078
  H  H15  1  0.645100  0.384300  0.056800  1.0  0.1211
  H  H16  1  0.610200  0.708200  0.051100  1.0  0.1165
  H  H17  1  0.501600  0.173900  0.264200  1.0  0.1126
  H  H18  1  0.300800  0.554300  0.119600  1.0  0.1162
  H  H19  1  0.182600  0.158400  0.426800  1.0  0.1076
  H  H20  1  0.328500  0.231800  0.126500  1.0  0.1196
  H  H21  1  0.066700  0.308200  0.233600  1.0  0.1138
  H  H22  1  0.123100  0.493000  0.378700  1.0  0.1205
  H  H23  1  0.579100  0.971000  0.343100  1.0  0.1237
  H  H24  1  0.263600  0.955200  0.510500  1.0  0.1241
  H  H25  1  0.919700  0.538800  0.434300  1.0  0.1077
  H  H26  1  0.862600  0.365700  0.280300  1.0  0.1078
  H  H27  1  0.354900  0.615700  0.943200  1.0  0.1209
  H  H28  1  0.389800  0.291800  0.948900  1.0  0.1165
  C  C29  1  0.667100  0.814100  0.664100  1.0  -0.3021
  C  C30  1  0.883000  0.610700  0.692700  1.0  -0.1592
  C  C31  1  0.546600  0.870400  0.687700  1.0  -0.0453
  C  C32  1  0.681400  0.498300  0.914700  1.0  -0.0085
  C  C33  1  0.689700  0.613200  0.859200  1.0  -0.2726
  C  C34  1  0.737800  0.879300  0.589700  1.0  -0.0125
  C  C35  1  0.664200  0.692100  0.909900  1.0  -0.0383
  C  C36  1  0.962000  0.646200  0.724900  1.0  -0.0558
  C  C37  1  0.928000  0.537900  0.637500  1.0  -0.1191
  C  C38  1  0.521700  0.187700  0.510300  1.0  0.6954
  C  C39  1  0.500000  0.990800  0.639600  1.0  -0.0387
  C  C40  1  0.571200  0.055800  0.565000  1.0  -0.1254
  C  C41  1  0.689500  0.000700  0.539800  1.0  -0.0345
  C  C42  1  0.050800  0.509300  0.604900  1.0  -0.0512
  C  C43  1  0.084000  0.613500  0.695000  1.0  -0.0186
  C  C44  1  0.127500  0.551300  0.630100  1.0  -0.0867
  C  C45  1  0.256900  0.526900  0.588000  1.0  0.7816
  C  C46  1  0.616000  0.542500  0.069900  1.0  -0.1106
  C  C47  1  0.566900  0.507000  0.182300  1.0  0.6894
  C  C48  1  0.647300  0.462000  0.019600  1.0  -0.06
  C  C49  1  0.627200  0.656100  0.016300  1.0  -0.0479
  C  C50  1  0.332900  0.185900  0.335900  1.0  -0.3045
  C  C51  1  0.117000  0.389300  0.307300  1.0  -0.1604
  C  C52  1  0.453400  0.129600  0.312300  1.0  -0.0476
  C  C53  1  0.318600  0.501700  0.085300  1.0  -0.0105
  C  C54  1  0.310300  0.386800  0.140800  1.0  -0.2716
  C  C55  1  0.262200  0.120700  0.410300  1.0  -0.0116
  C  C56  1  0.335800  0.307900  0.090100  1.0  -0.0353
  C  C57  1  0.038000  0.353800  0.275100  1.0  -0.0554
  C  C58  1  0.072000  0.462100  0.362500  1.0  -0.1179
  C  C59  1  0.478300  0.812300  0.489700  1.0  0.6954
  C  C60  1  0.500000  0.009200  0.360400  1.0  -0.036
  C  C61  1  0.428800  0.944200  0.435000  1.0  -0.1267
  C  C62  1  0.310500  0.999300  0.460200  1.0  -0.0367
  C  C63  1  0.949200  0.490700  0.395100  1.0  -0.0516
  C  C64  1  0.916000  0.386500  0.305000  1.0  -0.0176
  C  C65  1  0.872500  0.448700  0.369900  1.0  -0.0869
  C  C66  1  0.743100  0.473100  0.412000  1.0  0.7821
  C  C67  1  0.384000  0.457500  0.930100  1.0  -0.1098
  C  C68  1  0.433100  0.493000  0.817700  1.0  0.69
  C  C69  1  0.352700  0.538000  0.980400  1.0  -0.0604
  C  C70  1  0.372800  0.343900  0.983700  1.0  -0.05
  O  O71  1  0.530800  0.390800  0.566200  1.0  -0.5553
  O  O72  1  0.665800  0.598100  0.678600  1.0  -0.8763
  O  O73  1  0.416700  0.245000  0.531700  1.0  -0.6117
  O  O74  1  0.592000  0.241800  0.442500  1.0  -0.6247
  O  O75  1  0.326300  0.556900  0.622100  1.0  -0.6792
  O  O76  1  0.282500  0.487000  0.517400  1.0  -0.6882
  O  O77  1  0.570500  0.402300  0.234200  1.0  -0.6251
  O  O78  1  0.515300  0.588800  0.218700  1.0  -0.6808
  O  O79  1  0.469200  0.609200  0.433800  1.0  -0.5537
  O  O80  1  0.334200  0.401900  0.321400  1.0  -0.878
  O  O81  1  0.583300  0.755000  0.468300  1.0  -0.6123
  O  O82  1  0.408000  0.758200  0.557500  1.0  -0.6236
  O  O83  1  0.673700  0.443100  0.377900  1.0  -0.6792
  O  O84  1  0.717500  0.513000  0.482600  1.0  -0.6885
  O  O85  1  0.429500  0.597700  0.765800  1.0  -0.6248
  O  O86  1  0.484700  0.411200  0.781300  1.0  -0.6823
