# generated using pymatgen
data_AlH16C20(N2Cl)2
_symmetry_space_group_name_H-M   'P 1'
_cell_length_a   7.08090000
_cell_length_b   38.76640000
_cell_length_c   39.22860000
_cell_angle_alpha   90.00000000
_cell_angle_beta   90.00000000
_cell_angle_gamma   90.00000000
_symmetry_Int_Tables_number   1
_chemical_formula_structural   AlH16C20(N2Cl)2
_chemical_formula_sum   'Al16 H256 C320 N64 Cl32'
_cell_volume   10768.28999764
_cell_formula_units_Z   16
loop_
 _symmetry_equiv_pos_site_id
 _symmetry_equiv_pos_as_xyz
  1  'x, y, z'
loop_
 _atom_site_type_symbol
 _atom_site_label
 _atom_site_symmetry_multiplicity
 _atom_site_fract_x
 _atom_site_fract_y
 _atom_site_fract_z
 _atom_site_occupancy
 _atom_site_charge
  Al  Al1  1  0.570500  0.619130  0.499590  1.0  1.3681
  Al  Al2  1  0.570500  0.119130  0.999590  1.0  1.3681
  Al  Al3  1  0.070500  0.619130  0.999590  1.0  1.3681
  Al  Al4  1  0.070500  0.119130  0.499590  1.0  1.3681
  Al  Al5  1  0.429500  0.380870  0.499590  1.0  1.3676
  Al  Al6  1  0.429500  0.880870  0.999590  1.0  1.3676
  Al  Al7  1  0.929500  0.380870  0.999590  1.0  1.3676
  Al  Al8  1  0.929500  0.880870  0.499590  1.0  1.3676
  Al  Al9  1  0.820500  0.630870  0.749590  1.0  1.3679
  Al  Al10  1  0.820500  0.130870  0.249590  1.0  1.3679
  Al  Al11  1  0.320500  0.630870  0.249590  1.0  1.3679
  Al  Al12  1  0.320500  0.130870  0.749590  1.0  1.3679
  Al  Al13  1  0.679500  0.869130  0.749590  1.0  1.3678
  Al  Al14  1  0.679500  0.369130  0.249590  1.0  1.3678
  Al  Al15  1  0.179500  0.869130  0.249590  1.0  1.3678
  Al  Al16  1  0.179500  0.369130  0.749590  1.0  1.3678
  H  H17  1  0.680600  0.690900  0.476400  1.0  0.0688
  H  H18  1  0.555300  0.745700  0.474000  1.0  0.1034
  H  H19  1  0.054700  0.706700  0.505800  1.0  0.1077
  H  H20  1  0.194300  0.652800  0.507100  1.0  0.0647
  H  H21  1  0.787600  0.578400  0.552600  1.0  0.0699
  H  H22  1  0.976500  0.530300  0.555700  1.0  0.1152
  H  H23  1  0.823800  0.507200  0.459100  1.0  0.1021
  H  H24  1  0.626000  0.554200  0.459400  1.0  0.0746
  H  H25  1  0.477400  0.641100  0.426800  1.0  0.0702
  H  H26  1  0.630500  0.648400  0.374400  1.0  0.0959
  H  H27  1  0.105200  0.610600  0.417600  1.0  0.0953
  H  H28  1  0.948500  0.606900  0.469000  1.0  0.0702
  H  H29  1  0.079000  0.679600  0.292600  1.0  0.0703
  H  H30  1  0.903000  0.678400  0.342000  1.0  0.1053
  H  H31  1  0.111800  0.583000  0.361900  1.0  0.1166
  H  H32  1  0.280300  0.586700  0.310700  1.0  0.0687
  H  H33  1  0.680600  0.190900  0.976400  1.0  0.0688
  H  H34  1  0.555300  0.245700  0.974000  1.0  0.1034
  H  H35  1  0.054700  0.206700  0.005800  1.0  0.1077
  H  H36  1  0.194300  0.152800  0.007100  1.0  0.0647
  H  H37  1  0.787600  0.078400  0.052600  1.0  0.0699
  H  H38  1  0.976500  0.030300  0.055700  1.0  0.1152
  H  H39  1  0.823800  0.007200  0.959100  1.0  0.1021
  H  H40  1  0.626000  0.054200  0.959400  1.0  0.0746
  H  H41  1  0.477400  0.141100  0.926800  1.0  0.0702
  H  H42  1  0.630500  0.148400  0.874400  1.0  0.0959
  H  H43  1  0.105200  0.110600  0.917600  1.0  0.0953
  H  H44  1  0.948500  0.106900  0.969000  1.0  0.0702
  H  H45  1  0.079000  0.179600  0.792600  1.0  0.0703
  H  H46  1  0.903000  0.178400  0.842000  1.0  0.1053
  H  H47  1  0.111800  0.083000  0.861900  1.0  0.1166
  H  H48  1  0.280300  0.086700  0.810700  1.0  0.0687
  H  H49  1  0.180600  0.690900  0.976400  1.0  0.0688
  H  H50  1  0.055300  0.745700  0.974000  1.0  0.1034
  H  H51  1  0.554700  0.706700  0.005800  1.0  0.1077
  H  H52  1  0.694300  0.652800  0.007100  1.0  0.0647
  H  H53  1  0.287600  0.578400  0.052600  1.0  0.0699
  H  H54  1  0.476500  0.530300  0.055700  1.0  0.1152
  H  H55  1  0.323800  0.507200  0.959100  1.0  0.1021
  H  H56  1  0.126000  0.554200  0.959400  1.0  0.0746
  H  H57  1  0.977400  0.641100  0.926800  1.0  0.0702
  H  H58  1  0.130500  0.648400  0.874400  1.0  0.0959
  H  H59  1  0.605200  0.610600  0.917600  1.0  0.0953
  H  H60  1  0.448500  0.606900  0.969000  1.0  0.0702
  H  H61  1  0.579000  0.679600  0.792600  1.0  0.0703
  H  H62  1  0.403000  0.678400  0.842000  1.0  0.1053
  H  H63  1  0.611800  0.583000  0.861900  1.0  0.1166
  H  H64  1  0.780300  0.586700  0.810700  1.0  0.0687
  H  H65  1  0.180600  0.190900  0.476400  1.0  0.0688
  H  H66  1  0.055300  0.245700  0.474000  1.0  0.1034
  H  H67  1  0.554700  0.206700  0.505800  1.0  0.1077
  H  H68  1  0.694300  0.152800  0.507100  1.0  0.0647
  H  H69  1  0.287600  0.078400  0.552600  1.0  0.0699
  H  H70  1  0.476500  0.030300  0.555700  1.0  0.1152
  H  H71  1  0.323800  0.007200  0.459100  1.0  0.1021
  H  H72  1  0.126000  0.054200  0.459400  1.0  0.0746
  H  H73  1  0.977400  0.141100  0.426800  1.0  0.0702
  H  H74  1  0.130500  0.148400  0.374400  1.0  0.0959
  H  H75  1  0.605200  0.110600  0.417600  1.0  0.0953
  H  H76  1  0.448500  0.106900  0.469000  1.0  0.0702
  H  H77  1  0.579000  0.179600  0.292600  1.0  0.0703
  H  H78  1  0.403000  0.178400  0.342000  1.0  0.1053
  H  H79  1  0.611800  0.083000  0.361900  1.0  0.1166
  H  H80  1  0.780300  0.086700  0.310700  1.0  0.0687
  H  H81  1  0.319400  0.309100  0.476400  1.0  0.0679
  H  H82  1  0.444700  0.254300  0.474000  1.0  0.1049
  H  H83  1  0.945300  0.293300  0.505800  1.0  0.1081
  H  H84  1  0.805700  0.347200  0.507100  1.0  0.0643
  H  H85  1  0.212400  0.421600  0.552600  1.0  0.0701
  H  H86  1  0.023500  0.469700  0.555700  1.0  0.115
  H  H87  1  0.176200  0.492800  0.459100  1.0  0.1019
  H  H88  1  0.374000  0.445800  0.459400  1.0  0.0746
  H  H89  1  0.522600  0.358900  0.426800  1.0  0.0703
  H  H90  1  0.369500  0.351600  0.374400  1.0  0.0961
  H  H91  1  0.894800  0.389400  0.417600  1.0  0.0959
  H  H92  1  0.051500  0.393100  0.469000  1.0  0.0694
  H  H93  1  0.921000  0.320400  0.292600  1.0  0.0702
  H  H94  1  0.097000  0.321600  0.342000  1.0  0.105
  H  H95  1  0.888200  0.417000  0.361900  1.0  0.1161
  H  H96  1  0.719700  0.413300  0.310700  1.0  0.0693
  H  H97  1  0.319400  0.809100  0.976400  1.0  0.0679
  H  H98  1  0.444700  0.754300  0.974000  1.0  0.1049
  H  H99  1  0.945300  0.793300  0.005800  1.0  0.1081
  H  H100  1  0.805700  0.847200  0.007100  1.0  0.0643
  H  H101  1  0.212400  0.921600  0.052600  1.0  0.0701
  H  H102  1  0.023500  0.969700  0.055700  1.0  0.115
  H  H103  1  0.176200  0.992800  0.959100  1.0  0.1019
  H  H104  1  0.374000  0.945800  0.959400  1.0  0.0746
  H  H105  1  0.522600  0.858900  0.926800  1.0  0.0703
  H  H106  1  0.369500  0.851600  0.874400  1.0  0.0961
  H  H107  1  0.894800  0.889400  0.917600  1.0  0.0959
  H  H108  1  0.051500  0.893100  0.969000  1.0  0.0694
  H  H109  1  0.921000  0.820400  0.792600  1.0  0.0702
  H  H110  1  0.097000  0.821600  0.842000  1.0  0.105
  H  H111  1  0.888200  0.917000  0.861900  1.0  0.1161
  H  H112  1  0.719700  0.913300  0.810700  1.0  0.0693
  H  H113  1  0.819400  0.309100  0.976400  1.0  0.0679
  H  H114  1  0.944700  0.254300  0.974000  1.0  0.1049
  H  H115  1  0.445300  0.293300  0.005800  1.0  0.1081
  H  H116  1  0.305700  0.347200  0.007100  1.0  0.0643
  H  H117  1  0.712400  0.421600  0.052600  1.0  0.0701
  H  H118  1  0.523500  0.469700  0.055700  1.0  0.115
  H  H119  1  0.676200  0.492800  0.959100  1.0  0.1019
  H  H120  1  0.874000  0.445800  0.959400  1.0  0.0746
  H  H121  1  0.022600  0.358900  0.926800  1.0  0.0703
  H  H122  1  0.869500  0.351600  0.874400  1.0  0.0961
  H  H123  1  0.394800  0.389400  0.917600  1.0  0.0959
  H  H124  1  0.551500  0.393100  0.969000  1.0  0.0694
  H  H125  1  0.421000  0.320400  0.792600  1.0  0.0702
  H  H126  1  0.597000  0.321600  0.842000  1.0  0.105
  H  H127  1  0.388200  0.417000  0.861900  1.0  0.1161
  H  H128  1  0.219700  0.413300  0.810700  1.0  0.0693
  H  H129  1  0.819400  0.809100  0.476400  1.0  0.0679
  H  H130  1  0.944700  0.754300  0.474000  1.0  0.1049
  H  H131  1  0.445300  0.793300  0.505800  1.0  0.1081
  H  H132  1  0.305700  0.847200  0.507100  1.0  0.0643
  H  H133  1  0.712400  0.921600  0.552600  1.0  0.0701
  H  H134  1  0.523500  0.969700  0.555700  1.0  0.115
  H  H135  1  0.676200  0.992800  0.459100  1.0  0.1019
  H  H136  1  0.874000  0.945800  0.459400  1.0  0.0746
  H  H137  1  0.022600  0.858900  0.426800  1.0  0.0703
  H  H138  1  0.869500  0.851600  0.374400  1.0  0.0961
  H  H139  1  0.394800  0.889400  0.417600  1.0  0.0959
  H  H140  1  0.551500  0.893100  0.469000  1.0  0.0694
  H  H141  1  0.421000  0.820400  0.292600  1.0  0.0702
  H  H142  1  0.597000  0.821600  0.342000  1.0  0.105
  H  H143  1  0.388200  0.917000  0.361900  1.0  0.1161
  H  H144  1  0.219700  0.913300  0.310700  1.0  0.0693
  H  H145  1  0.930600  0.559100  0.726400  1.0  0.0686
  H  H146  1  0.805300  0.504300  0.724000  1.0  0.1037
  H  H147  1  0.304700  0.543300  0.755800  1.0  0.1078
  H  H148  1  0.444300  0.597200  0.757100  1.0  0.0645
  H  H149  1  0.037600  0.671600  0.802600  1.0  0.0704
  H  H150  1  0.226500  0.719700  0.805700  1.0  0.115
  H  H151  1  0.073800  0.742800  0.709100  1.0  0.1019
  H  H152  1  0.876000  0.695800  0.709400  1.0  0.0745
  H  H153  1  0.727400  0.608900  0.676800  1.0  0.0701
  H  H154  1  0.880500  0.601600  0.624400  1.0  0.096
  H  H155  1  0.355200  0.639400  0.667600  1.0  0.0957
  H  H156  1  0.198500  0.643100  0.719000  1.0  0.0699
  H  H157  1  0.329000  0.570400  0.542600  1.0  0.0702
  H  H158  1  0.153000  0.571600  0.592000  1.0  0.1049
  H  H159  1  0.361800  0.667000  0.611900  1.0  0.1159
  H  H160  1  0.530300  0.663300  0.560700  1.0  0.0689
  H  H161  1  0.930600  0.059100  0.226400  1.0  0.0686
  H  H162  1  0.805300  0.004300  0.224000  1.0  0.1037
  H  H163  1  0.304700  0.043300  0.255800  1.0  0.1078
  H  H164  1  0.444300  0.097200  0.257100  1.0  0.0645
  H  H165  1  0.037600  0.171600  0.302600  1.0  0.0704
  H  H166  1  0.226500  0.219700  0.305700  1.0  0.115
  H  H167  1  0.073800  0.242800  0.209100  1.0  0.1019
  H  H168  1  0.876000  0.195800  0.209400  1.0  0.0745
  H  H169  1  0.727400  0.108900  0.176800  1.0  0.0701
  H  H170  1  0.880500  0.101600  0.124400  1.0  0.096
  H  H171  1  0.355200  0.139400  0.167600  1.0  0.0957
  H  H172  1  0.198500  0.143100  0.219000  1.0  0.0699
  H  H173  1  0.329000  0.070400  0.042600  1.0  0.0702
  H  H174  1  0.153000  0.071600  0.092000  1.0  0.1049
  H  H175  1  0.361800  0.167000  0.111900  1.0  0.1159
  H  H176  1  0.530300  0.163300  0.060700  1.0  0.0689
  H  H177  1  0.430600  0.559100  0.226400  1.0  0.0686
  H  H178  1  0.305300  0.504300  0.224000  1.0  0.1037
  H  H179  1  0.804700  0.543300  0.255800  1.0  0.1078
  H  H180  1  0.944300  0.597200  0.257100  1.0  0.0645
  H  H181  1  0.537600  0.671600  0.302600  1.0  0.0704
  H  H182  1  0.726500  0.719700  0.305700  1.0  0.115
  H  H183  1  0.573800  0.742800  0.209100  1.0  0.1019
  H  H184  1  0.376000  0.695800  0.209400  1.0  0.0745
  H  H185  1  0.227400  0.608900  0.176800  1.0  0.0701
  H  H186  1  0.380500  0.601600  0.124400  1.0  0.096
  H  H187  1  0.855200  0.639400  0.167600  1.0  0.0957
  H  H188  1  0.698500  0.643100  0.219000  1.0  0.0699
  H  H189  1  0.829000  0.570400  0.042600  1.0  0.0702
  H  H190  1  0.653000  0.571600  0.092000  1.0  0.1049
  H  H191  1  0.861800  0.667000  0.111900  1.0  0.1159
  H  H192  1  0.030300  0.663300  0.060700  1.0  0.0689
  H  H193  1  0.430600  0.059100  0.726400  1.0  0.0686
  H  H194  1  0.305300  0.004300  0.724000  1.0  0.1037
  H  H195  1  0.804700  0.043300  0.755800  1.0  0.1078
  H  H196  1  0.944300  0.097200  0.757100  1.0  0.0645
  H  H197  1  0.537600  0.171600  0.802600  1.0  0.0704
  H  H198  1  0.726500  0.219700  0.805700  1.0  0.115
  H  H199  1  0.573800  0.242800  0.709100  1.0  0.1019
  H  H200  1  0.376000  0.195800  0.709400  1.0  0.0745
  H  H201  1  0.227400  0.108900  0.676800  1.0  0.0701
  H  H202  1  0.380500  0.101600  0.624400  1.0  0.096
  H  H203  1  0.855200  0.139400  0.667600  1.0  0.0957
  H  H204  1  0.698500  0.143100  0.719000  1.0  0.0699
  H  H205  1  0.829000  0.070400  0.542600  1.0  0.0702
  H  H206  1  0.653000  0.071600  0.592000  1.0  0.1049
  H  H207  1  0.861800  0.167000  0.611900  1.0  0.1159
  H  H208  1  0.030300  0.163300  0.560700  1.0  0.0689
  H  H209  1  0.569400  0.940900  0.726400  1.0  0.0684
  H  H210  1  0.694700  0.995700  0.724000  1.0  0.1049
  H  H211  1  0.195300  0.956700  0.755800  1.0  0.1079
  H  H212  1  0.055700  0.902800  0.757100  1.0  0.0649
  H  H213  1  0.462400  0.828400  0.802600  1.0  0.0699
  H  H214  1  0.273500  0.780300  0.805700  1.0  0.1151
  H  H215  1  0.426200  0.757200  0.709100  1.0  0.1018
  H  H216  1  0.624000  0.804200  0.709400  1.0  0.075
  H  H217  1  0.772600  0.891100  0.676800  1.0  0.0704
  H  H218  1  0.619500  0.898400  0.624400  1.0  0.0961
  H  H219  1  0.144800  0.860600  0.667600  1.0  0.0957
  H  H220  1  0.301500  0.856900  0.719000  1.0  0.0697
  H  H221  1  0.171000  0.929600  0.542600  1.0  0.0703
  H  H222  1  0.347000  0.928400  0.592000  1.0  0.1055
  H  H223  1  0.138200  0.833000  0.611900  1.0  0.1168
  H  H224  1  0.969700  0.836700  0.560700  1.0  0.0679
  H  H225  1  0.569400  0.440900  0.226400  1.0  0.0684
  H  H226  1  0.694700  0.495700  0.224000  1.0  0.1049
  H  H227  1  0.195300  0.456700  0.255800  1.0  0.1079
  H  H228  1  0.055700  0.402800  0.257100  1.0  0.0649
  H  H229  1  0.462400  0.328400  0.302600  1.0  0.0699
  H  H230  1  0.273500  0.280300  0.305700  1.0  0.1151
  H  H231  1  0.426200  0.257200  0.209100  1.0  0.1018
  H  H232  1  0.624000  0.304200  0.209400  1.0  0.075
  H  H233  1  0.772600  0.391100  0.176800  1.0  0.0704
  H  H234  1  0.619500  0.398400  0.124400  1.0  0.0961
  H  H235  1  0.144800  0.360600  0.167600  1.0  0.0957
  H  H236  1  0.301500  0.356900  0.219000  1.0  0.0697
  H  H237  1  0.171000  0.429600  0.042600  1.0  0.0703
  H  H238  1  0.347000  0.428400  0.092000  1.0  0.1055
  H  H239  1  0.138200  0.333000  0.111900  1.0  0.1168
  H  H240  1  0.969700  0.336700  0.060700  1.0  0.0679
  H  H241  1  0.069400  0.940900  0.226400  1.0  0.0684
  H  H242  1  0.194700  0.995700  0.224000  1.0  0.1049
  H  H243  1  0.695300  0.956700  0.255800  1.0  0.1079
  H  H244  1  0.555700  0.902800  0.257100  1.0  0.0649
  H  H245  1  0.962400  0.828400  0.302600  1.0  0.0699
  H  H246  1  0.773500  0.780300  0.305700  1.0  0.1151
  H  H247  1  0.926200  0.757200  0.209100  1.0  0.1018
  H  H248  1  0.124000  0.804200  0.209400  1.0  0.075
  H  H249  1  0.272600  0.891100  0.176800  1.0  0.0704
  H  H250  1  0.119500  0.898400  0.124400  1.0  0.0961
  H  H251  1  0.644800  0.860600  0.167600  1.0  0.0957
  H  H252  1  0.801500  0.856900  0.219000  1.0  0.0697
  H  H253  1  0.671000  0.929600  0.042600  1.0  0.0703
  H  H254  1  0.847000  0.928400  0.092000  1.0  0.1055
  H  H255  1  0.638200  0.833000  0.111900  1.0  0.1168
  H  H256  1  0.469700  0.836700  0.060700  1.0  0.0679
  H  H257  1  0.069400  0.440900  0.726400  1.0  0.0684
  H  H258  1  0.194700  0.495700  0.724000  1.0  0.1049
  H  H259  1  0.695300  0.456700  0.755800  1.0  0.1079
  H  H260  1  0.555700  0.402800  0.757100  1.0  0.0649
  H  H261  1  0.962400  0.328400  0.802600  1.0  0.0699
  H  H262  1  0.773500  0.280300  0.805700  1.0  0.1151
  H  H263  1  0.926200  0.257200  0.709100  1.0  0.1018
  H  H264  1  0.124000  0.304200  0.709400  1.0  0.075
  H  H265  1  0.272600  0.391100  0.676800  1.0  0.0704
  H  H266  1  0.119500  0.398400  0.624400  1.0  0.0961
  H  H267  1  0.644800  0.360600  0.667600  1.0  0.0957
  H  H268  1  0.801500  0.356900  0.719000  1.0  0.0697
  H  H269  1  0.671000  0.429600  0.542600  1.0  0.0703
  H  H270  1  0.847000  0.428400  0.592000  1.0  0.1055
  H  H271  1  0.638200  0.333000  0.611900  1.0  0.1168
  H  H272  1  0.469700  0.336700  0.560700  1.0  0.0679
  C  C273  1  0.552200  0.694300  0.482600  1.0  0.1352
  C  C274  1  0.478800  0.726900  0.481200  1.0  -0.2199
  C  C275  1  0.291000  0.732500  0.490500  1.0  0.0639
  C  C276  1  0.184100  0.704100  0.499900  1.0  -0.2298
  C  C277  1  0.268500  0.672100  0.500500  1.0  0.1499
  C  C278  1  0.796200  0.563700  0.533300  1.0  0.1449
  C  C279  1  0.911400  0.535500  0.535200  1.0  -0.2409
  C  C280  1  0.932300  0.514400  0.506600  1.0  0.0844
  C  C281  1  0.819700  0.521800  0.478500  1.0  -0.2324
  C  C282  1  0.703200  0.549900  0.478700  1.0  0.1231
  C  C283  1  0.607600  0.635500  0.425000  1.0  0.1341
  C  C284  1  0.696900  0.639100  0.393300  1.0  -0.2047
  C  C285  1  0.882100  0.628900  0.390000  1.0  0.0565
  C  C286  1  0.976200  0.617200  0.419000  1.0  -0.2184
  C  C287  1  0.882600  0.615100  0.449500  1.0  0.1302
  C  C288  1  0.083800  0.659600  0.306500  1.0  0.1412
  C  C289  1  0.979800  0.659200  0.336200  1.0  -0.2177
  C  C290  1  0.987800  0.630400  0.357600  1.0  0.077
  C  C291  1  0.101700  0.602900  0.348000  1.0  -0.2241
  C  C292  1  0.201600  0.605500  0.317200  1.0  0.1277
  C  C293  1  0.552200  0.194300  0.982600  1.0  0.1352
  C  C294  1  0.478800  0.226900  0.981200  1.0  -0.2199
  C  C295  1  0.291000  0.232500  0.990500  1.0  0.0639
  C  C296  1  0.184100  0.204100  0.999900  1.0  -0.2298
  C  C297  1  0.268500  0.172100  0.000500  1.0  0.1499
  C  C298  1  0.796200  0.063700  0.033300  1.0  0.1449
  C  C299  1  0.911400  0.035500  0.035200  1.0  -0.2409
  C  C300  1  0.932300  0.014400  0.006600  1.0  0.0844
  C  C301  1  0.819700  0.021800  0.978500  1.0  -0.2324
  C  C302  1  0.703200  0.049900  0.978700  1.0  0.1231
  C  C303  1  0.607600  0.135500  0.925000  1.0  0.1341
  C  C304  1  0.696900  0.139100  0.893300  1.0  -0.2047
  C  C305  1  0.882100  0.128900  0.890000  1.0  0.0565
  C  C306  1  0.976200  0.117200  0.919000  1.0  -0.2184
  C  C307  1  0.882600  0.115100  0.949500  1.0  0.1302
  C  C308  1  0.083800  0.159600  0.806500  1.0  0.1412
  C  C309  1  0.979800  0.159200  0.836200  1.0  -0.2177
  C  C310  1  0.987800  0.130400  0.857600  1.0  0.077
  C  C311  1  0.101700  0.102900  0.848000  1.0  -0.2241
  C  C312  1  0.201600  0.105500  0.817200  1.0  0.1277
  C  C313  1  0.052200  0.694300  0.982600  1.0  0.1352
  C  C314  1  0.978800  0.726900  0.981200  1.0  -0.2199
  C  C315  1  0.791000  0.732500  0.990500  1.0  0.0639
  C  C316  1  0.684100  0.704100  0.999900  1.0  -0.2298
  C  C317  1  0.768500  0.672100  0.000500  1.0  0.1499
  C  C318  1  0.296200  0.563700  0.033300  1.0  0.1449
  C  C319  1  0.411400  0.535500  0.035200  1.0  -0.2409
  C  C320  1  0.432300  0.514400  0.006600  1.0  0.0844
  C  C321  1  0.319700  0.521800  0.978500  1.0  -0.2324
  C  C322  1  0.203200  0.549900  0.978700  1.0  0.1231
  C  C323  1  0.107600  0.635500  0.925000  1.0  0.1341
  C  C324  1  0.196900  0.639100  0.893300  1.0  -0.2047
  C  C325  1  0.382100  0.628900  0.890000  1.0  0.0565
  C  C326  1  0.476200  0.617200  0.919000  1.0  -0.2184
  C  C327  1  0.382600  0.615100  0.949500  1.0  0.1302
  C  C328  1  0.583800  0.659600  0.806500  1.0  0.1412
  C  C329  1  0.479800  0.659200  0.836200  1.0  -0.2177
  C  C330  1  0.487800  0.630400  0.857600  1.0  0.077
  C  C331  1  0.601700  0.602900  0.848000  1.0  -0.2241
  C  C332  1  0.701600  0.605500  0.817200  1.0  0.1277
  C  C333  1  0.052200  0.194300  0.482600  1.0  0.1352
  C  C334  1  0.978800  0.226900  0.481200  1.0  -0.2199
  C  C335  1  0.791000  0.232500  0.490500  1.0  0.0639
  C  C336  1  0.684100  0.204100  0.499900  1.0  -0.2298
  C  C337  1  0.768500  0.172100  0.500500  1.0  0.1499
  C  C338  1  0.296200  0.063700  0.533300  1.0  0.1449
  C  C339  1  0.411400  0.035500  0.535200  1.0  -0.2409
  C  C340  1  0.432300  0.014400  0.506600  1.0  0.0844
  C  C341  1  0.319700  0.021800  0.478500  1.0  -0.2324
  C  C342  1  0.203200  0.049900  0.478700  1.0  0.1231
  C  C343  1  0.107600  0.135500  0.425000  1.0  0.1341
  C  C344  1  0.196900  0.139100  0.393300  1.0  -0.2047
  C  C345  1  0.382100  0.128900  0.390000  1.0  0.0565
  C  C346  1  0.476200  0.117200  0.419000  1.0  -0.2184
  C  C347  1  0.382600  0.115100  0.449500  1.0  0.1302
  C  C348  1  0.583800  0.159600  0.306500  1.0  0.1412
  C  C349  1  0.479800  0.159200  0.336200  1.0  -0.2177
  C  C350  1  0.487800  0.130400  0.357600  1.0  0.077
  C  C351  1  0.601700  0.102900  0.348000  1.0  -0.2241
  C  C352  1  0.701600  0.105500  0.317200  1.0  0.1277
  C  C353  1  0.447800  0.305700  0.482600  1.0  0.1357
  C  C354  1  0.521200  0.273100  0.481200  1.0  -0.2211
  C  C355  1  0.709000  0.267500  0.490500  1.0  0.0637
  C  C356  1  0.815900  0.295900  0.499900  1.0  -0.2281
  C  C357  1  0.731500  0.327900  0.500500  1.0  0.1491
  C  C358  1  0.203800  0.436300  0.533300  1.0  0.1451
  C  C359  1  0.088600  0.464500  0.535200  1.0  -0.242
  C  C360  1  0.067700  0.485600  0.506600  1.0  0.0852
  C  C361  1  0.180300  0.478200  0.478500  1.0  -0.2338
  C  C362  1  0.296800  0.450100  0.478700  1.0  0.1232
  C  C363  1  0.392400  0.364500  0.425000  1.0  0.1343
  C  C364  1  0.303100  0.360900  0.393300  1.0  -0.2049
  C  C365  1  0.117900  0.371100  0.390000  1.0  0.0565
  C  C366  1  0.023800  0.382800  0.419000  1.0  -0.2201
  C  C367  1  0.117400  0.384900  0.449500  1.0  0.1311
  C  C368  1  0.916200  0.340400  0.306500  1.0  0.1396
  C  C369  1  0.020200  0.340800  0.336200  1.0  -0.2166
  C  C370  1  0.012200  0.369600  0.357600  1.0  0.0769
  C  C371  1  0.898300  0.397100  0.348000  1.0  -0.2238
  C  C372  1  0.798400  0.394500  0.317200  1.0  0.1279
  C  C373  1  0.447800  0.805700  0.982600  1.0  0.1357
  C  C374  1  0.521200  0.773100  0.981200  1.0  -0.2211
  C  C375  1  0.709000  0.767500  0.990500  1.0  0.0637
  C  C376  1  0.815900  0.795900  0.999900  1.0  -0.2281
  C  C377  1  0.731500  0.827900  0.000500  1.0  0.1491
  C  C378  1  0.203800  0.936300  0.033300  1.0  0.1451
  C  C379  1  0.088600  0.964500  0.035200  1.0  -0.242
  C  C380  1  0.067700  0.985600  0.006600  1.0  0.0852
  C  C381  1  0.180300  0.978200  0.978500  1.0  -0.2338
  C  C382  1  0.296800  0.950100  0.978700  1.0  0.1232
  C  C383  1  0.392400  0.864500  0.925000  1.0  0.1343
  C  C384  1  0.303100  0.860900  0.893300  1.0  -0.2049
  C  C385  1  0.117900  0.871100  0.890000  1.0  0.0565
  C  C386  1  0.023800  0.882800  0.919000  1.0  -0.2201
  C  C387  1  0.117400  0.884900  0.949500  1.0  0.1311
  C  C388  1  0.916200  0.840400  0.806500  1.0  0.1396
  C  C389  1  0.020200  0.840800  0.836200  1.0  -0.2166
  C  C390  1  0.012200  0.869600  0.857600  1.0  0.0769
  C  C391  1  0.898300  0.897100  0.848000  1.0  -0.2238
  C  C392  1  0.798400  0.894500  0.817200  1.0  0.1279
  C  C393  1  0.947800  0.305700  0.982600  1.0  0.1357
  C  C394  1  0.021200  0.273100  0.981200  1.0  -0.2211
  C  C395  1  0.209000  0.267500  0.990500  1.0  0.0637
  C  C396  1  0.315900  0.295900  0.999900  1.0  -0.2281
  C  C397  1  0.231500  0.327900  0.000500  1.0  0.1491
  C  C398  1  0.703800  0.436300  0.033300  1.0  0.1451
  C  C399  1  0.588600  0.464500  0.035200  1.0  -0.242
  C  C400  1  0.567700  0.485600  0.006600  1.0  0.0852
  C  C401  1  0.680300  0.478200  0.978500  1.0  -0.2338
  C  C402  1  0.796800  0.450100  0.978700  1.0  0.1232
  C  C403  1  0.892400  0.364500  0.925000  1.0  0.1343
  C  C404  1  0.803100  0.360900  0.893300  1.0  -0.2049
  C  C405  1  0.617900  0.371100  0.890000  1.0  0.0565
  C  C406  1  0.523800  0.382800  0.919000  1.0  -0.2201
  C  C407  1  0.617400  0.384900  0.949500  1.0  0.1311
  C  C408  1  0.416200  0.340400  0.806500  1.0  0.1396
  C  C409  1  0.520200  0.340800  0.836200  1.0  -0.2166
  C  C410  1  0.512200  0.369600  0.857600  1.0  0.0769
  C  C411  1  0.398300  0.397100  0.848000  1.0  -0.2238
  C  C412  1  0.298400  0.394500  0.817200  1.0  0.1279
  C  C413  1  0.947800  0.805700  0.482600  1.0  0.1357
  C  C414  1  0.021200  0.773100  0.481200  1.0  -0.2211
  C  C415  1  0.209000  0.767500  0.490500  1.0  0.0637
  C  C416  1  0.315900  0.795900  0.499900  1.0  -0.2281
  C  C417  1  0.231500  0.827900  0.500500  1.0  0.1491
  C  C418  1  0.703800  0.936300  0.533300  1.0  0.1451
  C  C419  1  0.588600  0.964500  0.535200  1.0  -0.242
  C  C420  1  0.567700  0.985600  0.506600  1.0  0.0852
  C  C421  1  0.680300  0.978200  0.478500  1.0  -0.2338
  C  C422  1  0.796800  0.950100  0.478700  1.0  0.1232
  C  C423  1  0.892400  0.864500  0.425000  1.0  0.1343
  C  C424  1  0.803100  0.860900  0.393300  1.0  -0.2049
  C  C425  1  0.617900  0.871100  0.390000  1.0  0.0565
  C  C426  1  0.523800  0.882800  0.419000  1.0  -0.2201
  C  C427  1  0.617400  0.884900  0.449500  1.0  0.1311
  C  C428  1  0.416200  0.840400  0.306500  1.0  0.1396
  C  C429  1  0.520200  0.840800  0.336200  1.0  -0.2166
  C  C430  1  0.512200  0.869600  0.357600  1.0  0.0769
  C  C431  1  0.398300  0.897100  0.348000  1.0  -0.2238
  C  C432  1  0.298400  0.894500  0.317200  1.0  0.1279
  C  C433  1  0.802200  0.555700  0.732600  1.0  0.1351
  C  C434  1  0.728800  0.523100  0.731200  1.0  -0.2212
  C  C435  1  0.541000  0.517500  0.740500  1.0  0.0636
  C  C436  1  0.434100  0.545900  0.749900  1.0  -0.2292
  C  C437  1  0.518500  0.577900  0.750500  1.0  0.1502
  C  C438  1  0.046200  0.686300  0.783300  1.0  0.1449
  C  C439  1  0.161400  0.714500  0.785200  1.0  -0.2414
  C  C440  1  0.182300  0.735600  0.756600  1.0  0.0845
  C  C441  1  0.069700  0.728200  0.728500  1.0  -0.2325
  C  C442  1  0.953200  0.700100  0.728700  1.0  0.1232
  C  C443  1  0.857600  0.614500  0.675000  1.0  0.1341
  C  C444  1  0.946900  0.610900  0.643300  1.0  -0.2043
  C  C445  1  0.132100  0.621100  0.640000  1.0  0.0564
  C  C446  1  0.226200  0.632800  0.669000  1.0  -0.2185
  C  C447  1  0.132600  0.634900  0.699500  1.0  0.1302
  C  C448  1  0.333800  0.590400  0.556500  1.0  0.1398
  C  C449  1  0.229800  0.590800  0.586200  1.0  -0.2169
  C  C450  1  0.237800  0.619600  0.607600  1.0  0.0771
  C  C451  1  0.351700  0.647100  0.598000  1.0  -0.2241
  C  C452  1  0.451600  0.644500  0.567200  1.0  0.1277
  C  C453  1  0.802200  0.055700  0.232600  1.0  0.1351
  C  C454  1  0.728800  0.023100  0.231200  1.0  -0.2212
  C  C455  1  0.541000  0.017500  0.240500  1.0  0.0636
  C  C456  1  0.434100  0.045900  0.249900  1.0  -0.2292
  C  C457  1  0.518500  0.077900  0.250500  1.0  0.1502
  C  C458  1  0.046200  0.186300  0.283300  1.0  0.1449
  C  C459  1  0.161400  0.214500  0.285200  1.0  -0.2414
  C  C460  1  0.182300  0.235600  0.256600  1.0  0.0845
  C  C461  1  0.069700  0.228200  0.228500  1.0  -0.2325
  C  C462  1  0.953200  0.200100  0.228700  1.0  0.1232
  C  C463  1  0.857600  0.114500  0.175000  1.0  0.1341
  C  C464  1  0.946900  0.110900  0.143300  1.0  -0.2043
  C  C465  1  0.132100  0.121100  0.140000  1.0  0.0564
  C  C466  1  0.226200  0.132800  0.169000  1.0  -0.2185
  C  C467  1  0.132600  0.134900  0.199500  1.0  0.1302
  C  C468  1  0.333800  0.090400  0.056500  1.0  0.1398
  C  C469  1  0.229800  0.090800  0.086200  1.0  -0.2169
  C  C470  1  0.237800  0.119600  0.107600  1.0  0.0771
  C  C471  1  0.351700  0.147100  0.098000  1.0  -0.2241
  C  C472  1  0.451600  0.144500  0.067200  1.0  0.1277
  C  C473  1  0.302200  0.555700  0.232600  1.0  0.1351
  C  C474  1  0.228800  0.523100  0.231200  1.0  -0.2212
  C  C475  1  0.041000  0.517500  0.240500  1.0  0.0636
  C  C476  1  0.934100  0.545900  0.249900  1.0  -0.2292
  C  C477  1  0.018500  0.577900  0.250500  1.0  0.1502
  C  C478  1  0.546200  0.686300  0.283300  1.0  0.1449
  C  C479  1  0.661400  0.714500  0.285200  1.0  -0.2414
  C  C480  1  0.682300  0.735600  0.256600  1.0  0.0845
  C  C481  1  0.569700  0.728200  0.228500  1.0  -0.2325
  C  C482  1  0.453200  0.700100  0.228700  1.0  0.1232
  C  C483  1  0.357600  0.614500  0.175000  1.0  0.1341
  C  C484  1  0.446900  0.610900  0.143300  1.0  -0.2043
  C  C485  1  0.632100  0.621100  0.140000  1.0  0.0564
  C  C486  1  0.726200  0.632800  0.169000  1.0  -0.2185
  C  C487  1  0.632600  0.634900  0.199500  1.0  0.1302
  C  C488  1  0.833800  0.590400  0.056500  1.0  0.1398
  C  C489  1  0.729800  0.590800  0.086200  1.0  -0.2169
  C  C490  1  0.737800  0.619600  0.107600  1.0  0.0771
  C  C491  1  0.851700  0.647100  0.098000  1.0  -0.2241
  C  C492  1  0.951600  0.644500  0.067200  1.0  0.1277
  C  C493  1  0.302200  0.055700  0.732600  1.0  0.1351
  C  C494  1  0.228800  0.023100  0.731200  1.0  -0.2212
  C  C495  1  0.041000  0.017500  0.740500  1.0  0.0636
  C  C496  1  0.934100  0.045900  0.749900  1.0  -0.2292
  C  C497  1  0.018500  0.077900  0.750500  1.0  0.1502
  C  C498  1  0.546200  0.186300  0.783300  1.0  0.1449
  C  C499  1  0.661400  0.214500  0.785200  1.0  -0.2414
  C  C500  1  0.682300  0.235600  0.756600  1.0  0.0845
  C  C501  1  0.569700  0.228200  0.728500  1.0  -0.2325
  C  C502  1  0.453200  0.200100  0.728700  1.0  0.1232
  C  C503  1  0.357600  0.114500  0.675000  1.0  0.1341
  C  C504  1  0.446900  0.110900  0.643300  1.0  -0.2043
  C  C505  1  0.632100  0.121100  0.640000  1.0  0.0564
  C  C506  1  0.726200  0.132800  0.669000  1.0  -0.2185
  C  C507  1  0.632600  0.134900  0.699500  1.0  0.1302
  C  C508  1  0.833800  0.090400  0.556500  1.0  0.1398
  C  C509  1  0.729800  0.090800  0.586200  1.0  -0.2169
  C  C510  1  0.737800  0.119600  0.607600  1.0  0.0771
  C  C511  1  0.851700  0.147100  0.598000  1.0  -0.2241
  C  C512  1  0.951600  0.144500  0.567200  1.0  0.1277
  C  C513  1  0.697800  0.944300  0.732600  1.0  0.1354
  C  C514  1  0.771200  0.976900  0.731200  1.0  -0.2202
  C  C515  1  0.959000  0.982500  0.740500  1.0  0.064
  C  C516  1  0.065900  0.954100  0.749900  1.0  -0.2283
  C  C517  1  0.981500  0.922100  0.750500  1.0  0.1491
  C  C518  1  0.453800  0.813700  0.783300  1.0  0.145
  C  C519  1  0.338600  0.785500  0.785200  1.0  -0.2418
  C  C520  1  0.317700  0.764400  0.756600  1.0  0.085
  C  C521  1  0.430300  0.771800  0.728500  1.0  -0.234
  C  C522  1  0.546800  0.799900  0.728700  1.0  0.1232
  C  C523  1  0.642400  0.885500  0.675000  1.0  0.1343
  C  C524  1  0.553100  0.889100  0.643300  1.0  -0.2053
  C  C525  1  0.367900  0.878900  0.640000  1.0  0.0565
  C  C526  1  0.273800  0.867200  0.669000  1.0  -0.2197
  C  C527  1  0.367400  0.865100  0.699500  1.0  0.1312
  C  C528  1  0.166200  0.909600  0.556500  1.0  0.141
  C  C529  1  0.270200  0.909200  0.586200  1.0  -0.2173
  C  C530  1  0.262200  0.880400  0.607600  1.0  0.0769
  C  C531  1  0.148300  0.852900  0.598000  1.0  -0.2233
  C  C532  1  0.048400  0.855500  0.567200  1.0  0.1284
  C  C533  1  0.697800  0.444300  0.232600  1.0  0.1354
  C  C534  1  0.771200  0.476900  0.231200  1.0  -0.2202
  C  C535  1  0.959000  0.482500  0.240500  1.0  0.064
  C  C536  1  0.065900  0.454100  0.249900  1.0  -0.2283
  C  C537  1  0.981500  0.422100  0.250500  1.0  0.1491
  C  C538  1  0.453800  0.313700  0.283300  1.0  0.145
  C  C539  1  0.338600  0.285500  0.285200  1.0  -0.2418
  C  C540  1  0.317700  0.264400  0.256600  1.0  0.085
  C  C541  1  0.430300  0.271800  0.228500  1.0  -0.234
  C  C542  1  0.546800  0.299900  0.228700  1.0  0.1232
  C  C543  1  0.642400  0.385500  0.175000  1.0  0.1343
  C  C544  1  0.553100  0.389100  0.143300  1.0  -0.2053
  C  C545  1  0.367900  0.378900  0.140000  1.0  0.0565
  C  C546  1  0.273800  0.367200  0.169000  1.0  -0.2197
  C  C547  1  0.367400  0.365100  0.199500  1.0  0.1312
  C  C548  1  0.166200  0.409600  0.056500  1.0  0.141
  C  C549  1  0.270200  0.409200  0.086200  1.0  -0.2173
  C  C550  1  0.262200  0.380400  0.107600  1.0  0.0769
  C  C551  1  0.148300  0.352900  0.098000  1.0  -0.2233
  C  C552  1  0.048400  0.355500  0.067200  1.0  0.1284
  C  C553  1  0.197800  0.944300  0.232600  1.0  0.1354
  C  C554  1  0.271200  0.976900  0.231200  1.0  -0.2202
  C  C555  1  0.459000  0.982500  0.240500  1.0  0.064
  C  C556  1  0.565900  0.954100  0.249900  1.0  -0.2283
  C  C557  1  0.481500  0.922100  0.250500  1.0  0.1491
  C  C558  1  0.953800  0.813700  0.283300  1.0  0.145
  C  C559  1  0.838600  0.785500  0.285200  1.0  -0.2418
  C  C560  1  0.817700  0.764400  0.256600  1.0  0.085
  C  C561  1  0.930300  0.771800  0.228500  1.0  -0.234
  C  C562  1  0.046800  0.799900  0.228700  1.0  0.1232
  C  C563  1  0.142400  0.885500  0.175000  1.0  0.1343
  C  C564  1  0.053100  0.889100  0.143300  1.0  -0.2053
  C  C565  1  0.867900  0.878900  0.140000  1.0  0.0565
  C  C566  1  0.773800  0.867200  0.169000  1.0  -0.2197
  C  C567  1  0.867400  0.865100  0.199500  1.0  0.1312
  C  C568  1  0.666200  0.909600  0.056500  1.0  0.141
  C  C569  1  0.770200  0.909200  0.086200  1.0  -0.2173
  C  C570  1  0.762200  0.880400  0.107600  1.0  0.0769
  C  C571  1  0.648300  0.852900  0.098000  1.0  -0.2233
  C  C572  1  0.548400  0.855500  0.067200  1.0  0.1284
  C  C573  1  0.197800  0.444300  0.732600  1.0  0.1354
  C  C574  1  0.271200  0.476900  0.731200  1.0  -0.2202
  C  C575  1  0.459000  0.482500  0.740500  1.0  0.064
  C  C576  1  0.565900  0.454100  0.749900  1.0  -0.2283
  C  C577  1  0.481500  0.422100  0.750500  1.0  0.1491
  C  C578  1  0.953800  0.313700  0.783300  1.0  0.145
  C  C579  1  0.838600  0.285500  0.785200  1.0  -0.2418
  C  C580  1  0.817700  0.264400  0.756600  1.0  0.085
  C  C581  1  0.930300  0.271800  0.728500  1.0  -0.234
  C  C582  1  0.046800  0.299900  0.728700  1.0  0.1232
  C  C583  1  0.142400  0.385500  0.675000  1.0  0.1343
  C  C584  1  0.053100  0.389100  0.643300  1.0  -0.2053
  C  C585  1  0.867900  0.378900  0.640000  1.0  0.0565
  C  C586  1  0.773800  0.367200  0.669000  1.0  -0.2197
  C  C587  1  0.867400  0.365100  0.699500  1.0  0.1312
  C  C588  1  0.666200  0.409600  0.556500  1.0  0.141
  C  C589  1  0.770200  0.409200  0.586200  1.0  -0.2173
  C  C590  1  0.762200  0.380400  0.607600  1.0  0.0769
  C  C591  1  0.648300  0.352900  0.598000  1.0  -0.2233
  C  C592  1  0.548400  0.355500  0.567200  1.0  0.1284
  N  N593  1  0.450300  0.666820  0.492380  1.0  -0.307
  N  N594  1  0.694000  0.571660  0.505330  1.0  -0.3344
  N  N595  1  0.699500  0.624300  0.452740  1.0  -0.3208
  N  N596  1  0.191600  0.632990  0.296470  1.0  -0.3181
  N  N597  1  0.450300  0.166820  0.992380  1.0  -0.307
  N  N598  1  0.694000  0.071660  0.005330  1.0  -0.3344
  N  N599  1  0.699500  0.124300  0.952740  1.0  -0.3208
  N  N600  1  0.191600  0.132990  0.796470  1.0  -0.3181
  N  N601  1  0.950300  0.666820  0.992380  1.0  -0.307
  N  N602  1  0.194000  0.571660  0.005330  1.0  -0.3344
  N  N603  1  0.199500  0.624300  0.952740  1.0  -0.3208
  N  N604  1  0.691600  0.632990  0.796470  1.0  -0.3181
  N  N605  1  0.950300  0.166820  0.492380  1.0  -0.307
  N  N606  1  0.194000  0.071660  0.505330  1.0  -0.3344
  N  N607  1  0.199500  0.124300  0.452740  1.0  -0.3208
  N  N608  1  0.691600  0.132990  0.296470  1.0  -0.3181
  N  N609  1  0.549700  0.333180  0.492380  1.0  -0.307
  N  N610  1  0.306000  0.428340  0.505330  1.0  -0.3333
  N  N611  1  0.300500  0.375700  0.452740  1.0  -0.3203
  N  N612  1  0.808400  0.367010  0.296470  1.0  -0.3192
  N  N613  1  0.549700  0.833180  0.992380  1.0  -0.307
  N  N614  1  0.306000  0.928340  0.005330  1.0  -0.3333
  N  N615  1  0.300500  0.875700  0.952740  1.0  -0.3203
  N  N616  1  0.808400  0.867010  0.796470  1.0  -0.3192
  N  N617  1  0.049700  0.333180  0.992380  1.0  -0.307
  N  N618  1  0.806000  0.428340  0.005330  1.0  -0.3333
  N  N619  1  0.800500  0.375700  0.952740  1.0  -0.3203
  N  N620  1  0.308400  0.367010  0.796470  1.0  -0.3192
  N  N621  1  0.049700  0.833180  0.492380  1.0  -0.307
  N  N622  1  0.806000  0.928340  0.505330  1.0  -0.3333
  N  N623  1  0.800500  0.875700  0.452740  1.0  -0.3203
  N  N624  1  0.308400  0.867010  0.296470  1.0  -0.3192
  N  N625  1  0.700300  0.583180  0.742380  1.0  -0.3067
  N  N626  1  0.944000  0.678340  0.755330  1.0  -0.3345
  N  N627  1  0.949500  0.625700  0.702740  1.0  -0.3209
  N  N628  1  0.441600  0.617010  0.546470  1.0  -0.318
  N  N629  1  0.700300  0.083180  0.242380  1.0  -0.3067
  N  N630  1  0.944000  0.178340  0.255330  1.0  -0.3345
  N  N631  1  0.949500  0.125700  0.202740  1.0  -0.3209
  N  N632  1  0.441600  0.117010  0.046470  1.0  -0.318
  N  N633  1  0.200300  0.583180  0.242380  1.0  -0.3067
  N  N634  1  0.444000  0.678340  0.255330  1.0  -0.3345
  N  N635  1  0.449500  0.625700  0.202740  1.0  -0.3209
  N  N636  1  0.941600  0.617010  0.046470  1.0  -0.318
  N  N637  1  0.200300  0.083180  0.742380  1.0  -0.3067
  N  N638  1  0.444000  0.178340  0.755330  1.0  -0.3345
  N  N639  1  0.449500  0.125700  0.702740  1.0  -0.3209
  N  N640  1  0.941600  0.117010  0.546470  1.0  -0.318
  N  N641  1  0.799700  0.916820  0.742380  1.0  -0.307
  N  N642  1  0.556000  0.821660  0.755330  1.0  -0.3328
  N  N643  1  0.550500  0.874300  0.702740  1.0  -0.3202
  N  N644  1  0.058400  0.882990  0.546470  1.0  -0.319
  N  N645  1  0.799700  0.416820  0.242380  1.0  -0.307
  N  N646  1  0.556000  0.321660  0.255330  1.0  -0.3328
  N  N647  1  0.550500  0.374300  0.202740  1.0  -0.3202
  N  N648  1  0.058400  0.382990  0.046470  1.0  -0.319
  N  N649  1  0.299700  0.916820  0.242380  1.0  -0.307
  N  N650  1  0.056000  0.821660  0.255330  1.0  -0.3328
  N  N651  1  0.050500  0.874300  0.202740  1.0  -0.3202
  N  N652  1  0.558400  0.882990  0.046470  1.0  -0.319
  N  N653  1  0.299700  0.416820  0.742380  1.0  -0.307
  N  N654  1  0.056000  0.321660  0.755330  1.0  -0.3328
  N  N655  1  0.050500  0.374300  0.702740  1.0  -0.3202
  N  N656  1  0.558400  0.382990  0.546470  1.0  -0.319
  Cl  Cl657  1  0.318700  0.592950  0.475430  1.0  -0.5278
  Cl  Cl658  1  0.826800  0.644110  0.524670  1.0  -0.539
  Cl  Cl659  1  0.318700  0.092950  0.975430  1.0  -0.5278
  Cl  Cl660  1  0.826800  0.144110  0.024670  1.0  -0.539
  Cl  Cl661  1  0.818700  0.592950  0.975430  1.0  -0.5278
  Cl  Cl662  1  0.326800  0.644110  0.024670  1.0  -0.539
  Cl  Cl663  1  0.818700  0.092950  0.475430  1.0  -0.5278
  Cl  Cl664  1  0.326800  0.144110  0.524670  1.0  -0.539
  Cl  Cl665  1  0.681300  0.407050  0.475430  1.0  -0.5266
  Cl  Cl666  1  0.173200  0.355890  0.524670  1.0  -0.5393
  Cl  Cl667  1  0.681300  0.907050  0.975430  1.0  -0.5266
  Cl  Cl668  1  0.173200  0.855890  0.024670  1.0  -0.5393
  Cl  Cl669  1  0.181300  0.407050  0.975430  1.0  -0.5266
  Cl  Cl670  1  0.673200  0.355890  0.024670  1.0  -0.5393
  Cl  Cl671  1  0.181300  0.907050  0.475430  1.0  -0.5266
  Cl  Cl672  1  0.673200  0.855890  0.524670  1.0  -0.5393
  Cl  Cl673  1  0.568700  0.657050  0.725430  1.0  -0.5266
  Cl  Cl674  1  0.076800  0.605890  0.774670  1.0  -0.539
  Cl  Cl675  1  0.568700  0.157050  0.225430  1.0  -0.5266
  Cl  Cl676  1  0.076800  0.105890  0.274670  1.0  -0.539
  Cl  Cl677  1  0.068700  0.657050  0.225430  1.0  -0.5266
  Cl  Cl678  1  0.576800  0.605890  0.274670  1.0  -0.539
  Cl  Cl679  1  0.068700  0.157050  0.725430  1.0  -0.5266
  Cl  Cl680  1  0.576800  0.105890  0.774670  1.0  -0.539
  Cl  Cl681  1  0.931300  0.842950  0.725430  1.0  -0.5276
  Cl  Cl682  1  0.423200  0.894110  0.774670  1.0  -0.5398
  Cl  Cl683  1  0.931300  0.342950  0.225430  1.0  -0.5276
  Cl  Cl684  1  0.423200  0.394110  0.274670  1.0  -0.5398
  Cl  Cl685  1  0.431300  0.842950  0.225430  1.0  -0.5276
  Cl  Cl686  1  0.923200  0.894110  0.274670  1.0  -0.5398
  Cl  Cl687  1  0.431300  0.342950  0.725430  1.0  -0.5276
  Cl  Cl688  1  0.923200  0.394110  0.774670  1.0  -0.5398
