# generated using pymatgen
data_CoH36C42(NO)6
_symmetry_space_group_name_H-M   'P 1'
_cell_length_a   18.35200000
_cell_length_b   18.35200000
_cell_length_c   18.35200000
_cell_angle_alpha   90.00000000
_cell_angle_beta   90.00000000
_cell_angle_gamma   90.00000000
_symmetry_Int_Tables_number   1
_chemical_formula_structural   CoH36C42(NO)6
_chemical_formula_sum   'Co4 H144 C168 N24 O24'
_cell_volume   6180.87843021
_cell_formula_units_Z   4
loop_
 _symmetry_equiv_pos_site_id
 _symmetry_equiv_pos_as_xyz
  1  'x, y, z'
loop_
 _atom_site_type_symbol
 _atom_site_label
 _atom_site_symmetry_multiplicity
 _atom_site_fract_x
 _atom_site_fract_y
 _atom_site_fract_z
 _atom_site_occupancy
 _atom_site_charge
  Co  Co1  1  0.500000  0.500000  0.000000  1.0  0.881
  Co  Co2  1  0.000000  0.500000  0.500000  1.0  0.881
  Co  Co3  1  0.500000  0.000000  0.500000  1.0  0.881
  Co  Co4  1  0.000000  0.000000  0.000000  1.0  0.881
  H  H5  1  0.497500  0.429800  0.336400  1.0  0.0824
  H  H6  1  0.444400  0.409800  0.226300  1.0  0.1084
  H  H7  1  0.576600  0.565600  0.140700  1.0  0.1073
  H  H8  1  0.622900  0.582000  0.253100  1.0  0.1042
  H  H9  1  0.621100  0.567300  0.378900  1.0  0.0834
  H  H10  1  0.640100  0.484100  0.382100  1.0  0.0738
  H  H11  1  0.002500  0.570200  0.836400  1.0  0.0828
  H  H12  1  0.055600  0.590200  0.726300  1.0  0.1082
  H  H13  1  0.923400  0.434400  0.640700  1.0  0.1076
  H  H14  1  0.877100  0.418000  0.753100  1.0  0.1035
  H  H15  1  0.878900  0.432700  0.878900  1.0  0.0826
  H  H16  1  0.859900  0.515900  0.882100  1.0  0.075
  H  H17  1  0.502500  0.929800  0.163600  1.0  0.085
  H  H18  1  0.555600  0.909800  0.273700  1.0  0.108
  H  H19  1  0.423400  0.065600  0.359300  1.0  0.1074
  H  H20  1  0.377100  0.082000  0.246900  1.0  0.1039
  H  H21  1  0.378900  0.067300  0.121100  1.0  0.0826
  H  H22  1  0.359900  0.984100  0.117900  1.0  0.0747
  H  H23  1  0.997500  0.070200  0.663600  1.0  0.0853
  H  H24  1  0.944400  0.090200  0.773700  1.0  0.109
  H  H25  1  0.076600  0.934400  0.859300  1.0  0.1075
  H  H26  1  0.122900  0.918000  0.746900  1.0  0.1045
  H  H27  1  0.121100  0.932700  0.621100  1.0  0.0831
  H  H28  1  0.140100  0.015900  0.617900  1.0  0.0736
  H  H29  1  0.336400  0.497500  0.429800  1.0  0.0823
  H  H30  1  0.226300  0.444400  0.409800  1.0  0.1075
  H  H31  1  0.140700  0.576600  0.565600  1.0  0.107
  H  H32  1  0.253100  0.622900  0.582000  1.0  0.1038
  H  H33  1  0.378900  0.621100  0.567300  1.0  0.0815
  H  H34  1  0.382100  0.640100  0.484100  1.0  0.0722
  H  H35  1  0.836400  0.002500  0.570200  1.0  0.0828
  H  H36  1  0.726300  0.055600  0.590200  1.0  0.108
  H  H37  1  0.640700  0.923400  0.434400  1.0  0.1067
  H  H38  1  0.753100  0.877100  0.418000  1.0  0.1029
  H  H39  1  0.878900  0.878900  0.432700  1.0  0.0812
  H  H40  1  0.882100  0.859900  0.515900  1.0  0.0728
  H  H41  1  0.163600  0.502500  0.929800  1.0  0.0841
  H  H42  1  0.273700  0.555600  0.909800  1.0  0.108
  H  H43  1  0.359300  0.423400  0.065600  1.0  0.1072
  H  H44  1  0.246900  0.377100  0.082000  1.0  0.1039
  H  H45  1  0.121100  0.378900  0.067300  1.0  0.0815
  H  H46  1  0.117900  0.359900  0.984100  1.0  0.0731
  H  H47  1  0.663600  0.997500  0.070200  1.0  0.0827
  H  H48  1  0.773700  0.944400  0.090200  1.0  0.1083
  H  H49  1  0.859300  0.076600  0.934400  1.0  0.1065
  H  H50  1  0.746900  0.122900  0.918000  1.0  0.1033
  H  H51  1  0.621100  0.121100  0.932700  1.0  0.0837
  H  H52  1  0.617900  0.140100  0.015900  1.0  0.0723
  H  H53  1  0.429800  0.336400  0.497500  1.0  0.0856
  H  H54  1  0.409800  0.226300  0.444400  1.0  0.1082
  H  H55  1  0.565600  0.140700  0.576600  1.0  0.1073
  H  H56  1  0.582000  0.253100  0.622900  1.0  0.104
  H  H57  1  0.567300  0.378900  0.621100  1.0  0.0796
  H  H58  1  0.484100  0.382100  0.640100  1.0  0.0742
  H  H59  1  0.570200  0.836400  0.002500  1.0  0.0861
  H  H60  1  0.590200  0.726300  0.055600  1.0  0.1079
  H  H61  1  0.434400  0.640700  0.923400  1.0  0.1074
  H  H62  1  0.418000  0.753100  0.877100  1.0  0.1034
  H  H63  1  0.432700  0.878900  0.878900  1.0  0.0791
  H  H64  1  0.515900  0.882100  0.859900  1.0  0.0722
  H  H65  1  0.929800  0.163600  0.502500  1.0  0.0847
  H  H66  1  0.909800  0.273700  0.555600  1.0  0.1085
  H  H67  1  0.065600  0.359300  0.423400  1.0  0.1065
  H  H68  1  0.082000  0.246900  0.377100  1.0  0.1045
  H  H69  1  0.067300  0.121100  0.378900  1.0  0.0806
  H  H70  1  0.984100  0.117900  0.359900  1.0  0.0735
  H  H71  1  0.070200  0.663600  0.997500  1.0  0.0862
  H  H72  1  0.090200  0.773700  0.944400  1.0  0.1081
  H  H73  1  0.934400  0.859300  0.076600  1.0  0.1075
  H  H74  1  0.918000  0.746900  0.122900  1.0  0.1043
  H  H75  1  0.932700  0.621100  0.121100  1.0  0.0802
  H  H76  1  0.015900  0.617900  0.140100  1.0  0.073
  H  H77  1  0.502500  0.570200  0.663600  1.0  0.0848
  H  H78  1  0.555600  0.590200  0.773700  1.0  0.1085
  H  H79  1  0.423400  0.434400  0.859300  1.0  0.1077
  H  H80  1  0.377100  0.418000  0.746900  1.0  0.1039
  H  H81  1  0.378900  0.432700  0.621100  1.0  0.0826
  H  H82  1  0.359900  0.515900  0.617900  1.0  0.0747
  H  H83  1  0.997500  0.429800  0.163600  1.0  0.085
  H  H84  1  0.944400  0.409800  0.273700  1.0  0.1083
  H  H85  1  0.076600  0.565600  0.359300  1.0  0.1072
  H  H86  1  0.122900  0.582000  0.246900  1.0  0.1043
  H  H87  1  0.121100  0.567300  0.121100  1.0  0.0825
  H  H88  1  0.140100  0.484100  0.117900  1.0  0.0735
  H  H89  1  0.497500  0.070200  0.836400  1.0  0.0828
  H  H90  1  0.444400  0.090200  0.726300  1.0  0.1088
  H  H91  1  0.576600  0.934400  0.640700  1.0  0.1073
  H  H92  1  0.622900  0.918000  0.753100  1.0  0.1042
  H  H93  1  0.621100  0.932700  0.878900  1.0  0.0832
  H  H94  1  0.640100  0.015900  0.882100  1.0  0.0748
  H  H95  1  0.002500  0.929800  0.336400  1.0  0.0828
  H  H96  1  0.055600  0.909800  0.226300  1.0  0.108
  H  H97  1  0.923400  0.065600  0.140700  1.0  0.1078
  H  H98  1  0.877100  0.082000  0.253100  1.0  0.1036
  H  H99  1  0.878900  0.067300  0.378900  1.0  0.0831
  H  H100  1  0.859900  0.984100  0.382100  1.0  0.074
  H  H101  1  0.663600  0.502500  0.570200  1.0  0.0824
  H  H102  1  0.773700  0.555600  0.590200  1.0  0.1083
  H  H103  1  0.859300  0.423400  0.434400  1.0  0.1065
  H  H104  1  0.746900  0.377100  0.418000  1.0  0.103
  H  H105  1  0.621100  0.378900  0.432700  1.0  0.0824
  H  H106  1  0.617900  0.359900  0.515900  1.0  0.0733
  H  H107  1  0.163600  0.997500  0.429800  1.0  0.0834
  H  H108  1  0.273700  0.944400  0.409800  1.0  0.1077
  H  H109  1  0.359300  0.076600  0.565600  1.0  0.1067
  H  H110  1  0.246900  0.122900  0.582000  1.0  0.1035
  H  H111  1  0.121100  0.121100  0.567300  1.0  0.0815
  H  H112  1  0.117900  0.140100  0.484100  1.0  0.0727
  H  H113  1  0.836400  0.497500  0.070200  1.0  0.0835
  H  H114  1  0.726300  0.444400  0.090200  1.0  0.1079
  H  H115  1  0.640700  0.576600  0.934400  1.0  0.1069
  H  H116  1  0.753100  0.622900  0.918000  1.0  0.1036
  H  H117  1  0.878900  0.621100  0.932700  1.0  0.082
  H  H118  1  0.882100  0.640100  0.015900  1.0  0.0717
  H  H119  1  0.336400  0.002500  0.929800  1.0  0.0824
  H  H120  1  0.226300  0.055600  0.909800  1.0  0.108
  H  H121  1  0.140700  0.923400  0.065600  1.0  0.1071
  H  H122  1  0.253100  0.877100  0.082000  1.0  0.1039
  H  H123  1  0.378900  0.878900  0.067300  1.0  0.0825
  H  H124  1  0.382100  0.859900  0.984100  1.0  0.0725
  H  H125  1  0.570200  0.663600  0.502500  1.0  0.0855
  H  H126  1  0.590200  0.773700  0.555600  1.0  0.1078
  H  H127  1  0.434400  0.859300  0.423400  1.0  0.1075
  H  H128  1  0.418000  0.746900  0.377100  1.0  0.1037
  H  H129  1  0.432700  0.621100  0.378900  1.0  0.0789
  H  H130  1  0.515900  0.617900  0.359900  1.0  0.0729
  H  H131  1  0.429800  0.163600  0.997500  1.0  0.0848
  H  H132  1  0.409800  0.273700  0.944400  1.0  0.1084
  H  H133  1  0.565600  0.359300  0.076600  1.0  0.1065
  H  H134  1  0.582000  0.246900  0.122900  1.0  0.1039
  H  H135  1  0.567300  0.121100  0.121100  1.0  0.0784
  H  H136  1  0.484100  0.117900  0.140100  1.0  0.0731
  H  H137  1  0.070200  0.836400  0.497500  1.0  0.0867
  H  H138  1  0.090200  0.726300  0.444400  1.0  0.108
  H  H139  1  0.934400  0.640700  0.576600  1.0  0.1075
  H  H140  1  0.918000  0.753100  0.622900  1.0  0.1044
  H  H141  1  0.932700  0.878900  0.621100  1.0  0.0809
  H  H142  1  0.015900  0.882100  0.640100  1.0  0.074
  H  H143  1  0.929800  0.336400  0.002500  1.0  0.0857
  H  H144  1  0.909800  0.226300  0.055600  1.0  0.1087
  H  H145  1  0.065600  0.140700  0.923400  1.0  0.1072
  H  H146  1  0.082000  0.253100  0.877100  1.0  0.1044
  H  H147  1  0.067300  0.378900  0.878900  1.0  0.0808
  H  H148  1  0.984100  0.382100  0.859900  1.0  0.0727
  C  C149  1  0.512500  0.457300  0.296600  1.0  0.0336
  C  C150  1  0.480800  0.444800  0.230500  1.0  -0.1682
  C  C151  1  0.502800  0.484600  0.168100  1.0  0.2976
  C  C152  1  0.559300  0.537900  0.179400  1.0  -0.2614
  C  C153  1  0.586700  0.547100  0.246600  1.0  0.0761
  C  C154  1  0.600500  0.518700  0.377300  1.0  -0.0606
  C  C155  1  0.547600  0.509100  0.441800  1.0  -0.0312
  C  C156  1  0.987500  0.542700  0.796600  1.0  0.0346
  C  C157  1  0.019200  0.555200  0.730500  1.0  -0.1672
  C  C158  1  0.997200  0.515400  0.668100  1.0  0.2975
  C  C159  1  0.940700  0.462100  0.679400  1.0  -0.2619
  C  C160  1  0.913300  0.452900  0.746600  1.0  0.074
  C  C161  1  0.899500  0.481300  0.877300  1.0  -0.0597
  C  C162  1  0.952400  0.490900  0.941800  1.0  -0.0304
  C  C163  1  0.487500  0.957300  0.203400  1.0  0.0342
  C  C164  1  0.519200  0.944800  0.269500  1.0  -0.1666
  C  C165  1  0.497200  0.984600  0.331900  1.0  0.2951
  C  C166  1  0.440700  0.037900  0.320600  1.0  -0.2633
  C  C167  1  0.413300  0.047100  0.253400  1.0  0.0741
  C  C168  1  0.399500  0.018700  0.122700  1.0  -0.0617
  C  C169  1  0.452400  0.009100  0.058200  1.0  -0.03
  C  C170  1  0.012500  0.042700  0.703400  1.0  0.0349
  C  C171  1  0.980800  0.055200  0.769500  1.0  -0.1691
  C  C172  1  0.002800  0.015400  0.831900  1.0  0.2953
  C  C173  1  0.059300  0.962100  0.820600  1.0  -0.2619
  C  C174  1  0.086700  0.952900  0.753400  1.0  0.0738
  C  C175  1  0.100500  0.981300  0.622700  1.0  -0.0606
  C  C176  1  0.047600  0.990900  0.558200  1.0  -0.0306
  C  C177  1  0.296600  0.512500  0.457300  1.0  0.0351
  C  C178  1  0.230500  0.480800  0.444800  1.0  -0.1665
  C  C179  1  0.168100  0.502800  0.484600  1.0  0.2928
  C  C180  1  0.179400  0.559300  0.537900  1.0  -0.2642
  C  C181  1  0.246600  0.586700  0.547100  1.0  0.0729
  C  C182  1  0.377300  0.600500  0.518700  1.0  -0.0611
  C  C183  1  0.441800  0.547600  0.509100  1.0  -0.031
  C  C184  1  0.796600  0.987500  0.542700  1.0  0.0359
  C  C185  1  0.730500  0.019200  0.555200  1.0  -0.1686
  C  C186  1  0.668100  0.997200  0.515400  1.0  0.2927
  C  C187  1  0.679400  0.940700  0.462100  1.0  -0.2638
  C  C188  1  0.746600  0.913300  0.452900  1.0  0.0704
  C  C189  1  0.877300  0.899500  0.481300  1.0  -0.0634
  C  C190  1  0.941800  0.952400  0.490900  1.0  -0.0304
  C  C191  1  0.203400  0.487500  0.957300  1.0  0.0363
  C  C192  1  0.269500  0.519200  0.944800  1.0  -0.1684
  C  C193  1  0.331900  0.497200  0.984600  1.0  0.2925
  C  C194  1  0.320600  0.440700  0.037900  1.0  -0.2617
  C  C195  1  0.253400  0.413300  0.047100  1.0  0.0702
  C  C196  1  0.122700  0.399500  0.018700  1.0  -0.0615
  C  C197  1  0.058200  0.452400  0.009100  1.0  -0.0319
  C  C198  1  0.703400  0.012500  0.042700  1.0  0.0357
  C  C199  1  0.769500  0.980800  0.055200  1.0  -0.1671
  C  C200  1  0.831900  0.002800  0.015400  1.0  0.2932
  C  C201  1  0.820600  0.059300  0.962100  1.0  -0.2616
  C  C202  1  0.753400  0.086700  0.952900  1.0  0.0714
  C  C203  1  0.622700  0.100500  0.981300  1.0  -0.0624
  C  C204  1  0.558200  0.047600  0.990900  1.0  -0.0316
  C  C205  1  0.457300  0.296600  0.512500  1.0  0.0343
  C  C206  1  0.444800  0.230500  0.480800  1.0  -0.1647
  C  C207  1  0.484600  0.168100  0.502800  1.0  0.2932
  C  C208  1  0.537900  0.179400  0.559300  1.0  -0.2627
  C  C209  1  0.547100  0.246600  0.586700  1.0  0.0747
  C  C210  1  0.518700  0.377300  0.600500  1.0  -0.0669
  C  C211  1  0.509100  0.441800  0.547600  1.0  -0.0305
  C  C212  1  0.542700  0.796600  0.987500  1.0  0.0332
  C  C213  1  0.555200  0.730500  0.019200  1.0  -0.1644
  C  C214  1  0.515400  0.668100  0.997200  1.0  0.2923
  C  C215  1  0.462100  0.679400  0.940700  1.0  -0.2632
  C  C216  1  0.452900  0.746600  0.913300  1.0  0.0722
  C  C217  1  0.481300  0.877300  0.899500  1.0  -0.0648
  C  C218  1  0.490900  0.941800  0.952400  1.0  -0.031
  C  C219  1  0.957300  0.203400  0.487500  1.0  0.0343
  C  C220  1  0.944800  0.269500  0.519200  1.0  -0.1658
  C  C221  1  0.984600  0.331900  0.497200  1.0  0.2926
  C  C222  1  0.037900  0.320600  0.440700  1.0  -0.2626
  C  C223  1  0.047100  0.253400  0.413300  1.0  0.0737
  C  C224  1  0.018700  0.122700  0.399500  1.0  -0.0657
  C  C225  1  0.009100  0.058200  0.452400  1.0  -0.0315
  C  C226  1  0.042700  0.703400  0.012500  1.0  0.034
  C  C227  1  0.055200  0.769500  0.980800  1.0  -0.1647
  C  C228  1  0.015400  0.831900  0.002800  1.0  0.2937
  C  C229  1  0.962100  0.820600  0.059300  1.0  -0.2637
  C  C230  1  0.952900  0.753400  0.086700  1.0  0.0733
  C  C231  1  0.981300  0.622700  0.100500  1.0  -0.0685
  C  C232  1  0.990900  0.558200  0.047600  1.0  -0.031
  C  C233  1  0.487500  0.542700  0.703400  1.0  0.035
  C  C234  1  0.519200  0.555200  0.769500  1.0  -0.1672
  C  C235  1  0.497200  0.515400  0.831900  1.0  0.2951
  C  C236  1  0.440700  0.462100  0.820600  1.0  -0.2623
  C  C237  1  0.413300  0.452900  0.753400  1.0  0.0733
  C  C238  1  0.399500  0.481300  0.622700  1.0  -0.0606
  C  C239  1  0.452400  0.490900  0.558200  1.0  -0.0298
  C  C240  1  0.012500  0.457300  0.203400  1.0  0.0343
  C  C241  1  0.980800  0.444800  0.269500  1.0  -0.1682
  C  C242  1  0.002800  0.484600  0.331900  1.0  0.2953
  C  C243  1  0.059300  0.537900  0.320600  1.0  -0.2627
  C  C244  1  0.086700  0.547100  0.253400  1.0  0.0744
  C  C245  1  0.100500  0.518700  0.122700  1.0  -0.0614
  C  C246  1  0.047600  0.509100  0.058200  1.0  -0.0309
  C  C247  1  0.512500  0.042700  0.796600  1.0  0.0349
  C  C248  1  0.480800  0.055200  0.730500  1.0  -0.1689
  C  C249  1  0.502800  0.015400  0.668100  1.0  0.2975
  C  C250  1  0.559300  0.962100  0.679400  1.0  -0.262
  C  C251  1  0.586700  0.952900  0.746600  1.0  0.0748
  C  C252  1  0.600500  0.981300  0.877300  1.0  -0.0606
  C  C253  1  0.547600  0.990900  0.941800  1.0  -0.0311
  C  C254  1  0.987500  0.957300  0.296600  1.0  0.0329
  C  C255  1  0.019200  0.944800  0.230500  1.0  -0.1665
  C  C256  1  0.997200  0.984600  0.168100  1.0  0.2975
  C  C257  1  0.940700  0.037900  0.179400  1.0  -0.2616
  C  C258  1  0.913300  0.047100  0.246600  1.0  0.0756
  C  C259  1  0.899500  0.018700  0.377300  1.0  -0.0602
  C  C260  1  0.952400  0.009100  0.441800  1.0  -0.0305
  C  C261  1  0.703400  0.487500  0.542700  1.0  0.0355
  C  C262  1  0.769500  0.519200  0.555200  1.0  -0.1688
  C  C263  1  0.831900  0.497200  0.515400  1.0  0.2926
  C  C264  1  0.820600  0.440700  0.462100  1.0  -0.2618
  C  C265  1  0.753400  0.413300  0.452900  1.0  0.0693
  C  C266  1  0.622700  0.399500  0.481300  1.0  -0.0623
  C  C267  1  0.558200  0.452400  0.490900  1.0  -0.0317
  C  C268  1  0.203400  0.012500  0.457300  1.0  0.0361
  C  C269  1  0.269500  0.980800  0.444800  1.0  -0.167
  C  C270  1  0.331900  0.002800  0.484600  1.0  0.293
  C  C271  1  0.320600  0.059300  0.537900  1.0  -0.2621
  C  C272  1  0.253400  0.086700  0.547100  1.0  0.0719
  C  C273  1  0.122700  0.100500  0.518700  1.0  -0.0624
  C  C274  1  0.058200  0.047600  0.509100  1.0  -0.0319
  C  C275  1  0.796600  0.512500  0.042700  1.0  0.0354
  C  C276  1  0.730500  0.480800  0.055200  1.0  -0.1668
  C  C277  1  0.668100  0.502800  0.015400  1.0  0.293
  C  C278  1  0.679400  0.559300  0.962100  1.0  -0.2635
  C  C279  1  0.746600  0.586700  0.952900  1.0  0.0727
  C  C280  1  0.877300  0.600500  0.981300  1.0  -0.0611
  C  C281  1  0.941800  0.547600  0.990900  1.0  -0.0308
  C  C282  1  0.296600  0.987500  0.957300  1.0  0.0359
  C  C283  1  0.230500  0.019200  0.944800  1.0  -0.168
  C  C284  1  0.168100  0.997200  0.984600  1.0  0.2925
  C  C285  1  0.179400  0.940700  0.037900  1.0  -0.2639
  C  C286  1  0.246600  0.913300  0.047100  1.0  0.0712
  C  C287  1  0.377300  0.899500  0.018700  1.0  -0.0622
  C  C288  1  0.441800  0.952400  0.009100  1.0  -0.0306
  C  C289  1  0.542700  0.703400  0.487500  1.0  0.0327
  C  C290  1  0.555200  0.769500  0.519200  1.0  -0.1646
  C  C291  1  0.515400  0.831900  0.497200  1.0  0.2926
  C  C292  1  0.462100  0.820600  0.440700  1.0  -0.2636
  C  C293  1  0.452900  0.753400  0.413300  1.0  0.073
  C  C294  1  0.481300  0.622700  0.399500  1.0  -0.0654
  C  C295  1  0.490900  0.558200  0.452400  1.0  -0.0316
  C  C296  1  0.457300  0.203400  0.012500  1.0  0.0345
  C  C297  1  0.444800  0.269500  0.980800  1.0  -0.1652
  C  C298  1  0.484600  0.331900  0.002800  1.0  0.2935
  C  C299  1  0.537900  0.320600  0.059300  1.0  -0.2629
  C  C300  1  0.547100  0.253400  0.086700  1.0  0.075
  C  C301  1  0.518700  0.122700  0.100500  1.0  -0.0661
  C  C302  1  0.509100  0.058200  0.047600  1.0  -0.031
  C  C303  1  0.042700  0.796600  0.512500  1.0  0.0336
  C  C304  1  0.055200  0.730500  0.480800  1.0  -0.1643
  C  C305  1  0.015400  0.668100  0.502800  1.0  0.2933
  C  C306  1  0.962100  0.679400  0.559300  1.0  -0.2634
  C  C307  1  0.952900  0.746600  0.586700  1.0  0.0738
  C  C308  1  0.981300  0.877300  0.600500  1.0  -0.0683
  C  C309  1  0.990900  0.941800  0.547600  1.0  -0.0305
  C  C310  1  0.957300  0.296600  0.987500  1.0  0.0349
  C  C311  1  0.944800  0.230500  0.019200  1.0  -0.1655
  C  C312  1  0.984600  0.168100  0.997200  1.0  0.2922
  C  C313  1  0.037900  0.179400  0.940700  1.0  -0.2623
  C  C314  1  0.047100  0.246600  0.913300  1.0  0.0727
  C  C315  1  0.018700  0.377300  0.899500  1.0  -0.0659
  C  C316  1  0.009100  0.441800  0.952400  1.0  -0.0309
  N  N317  1  0.564200  0.507700  0.306200  1.0  0.0318
  N  N318  1  0.935800  0.492300  0.806200  1.0  0.0305
  N  N319  1  0.435800  0.007700  0.193800  1.0  0.0315
  N  N320  1  0.064200  0.992300  0.693800  1.0  0.0321
  N  N321  1  0.306200  0.564200  0.507700  1.0  0.0322
  N  N322  1  0.806200  0.935800  0.492300  1.0  0.0326
  N  N323  1  0.193800  0.435800  0.007700  1.0  0.0343
  N  N324  1  0.693800  0.064200  0.992300  1.0  0.0345
  N  N325  1  0.507700  0.306200  0.564200  1.0  0.0339
  N  N326  1  0.492300  0.806200  0.935800  1.0  0.0319
  N  N327  1  0.007700  0.193800  0.435800  1.0  0.0325
  N  N328  1  0.992300  0.693800  0.064200  1.0  0.0346
  N  N329  1  0.435800  0.492300  0.693800  1.0  0.0308
  N  N330  1  0.064200  0.507700  0.193800  1.0  0.0327
  N  N331  1  0.564200  0.992300  0.806200  1.0  0.0315
  N  N332  1  0.935800  0.007700  0.306200  1.0  0.031
  N  N333  1  0.693800  0.435800  0.492300  1.0  0.0344
  N  N334  1  0.193800  0.064200  0.507700  1.0  0.0344
  N  N335  1  0.806200  0.564200  0.992300  1.0  0.0326
  N  N336  1  0.306200  0.935800  0.007700  1.0  0.0324
  N  N337  1  0.492300  0.693800  0.435800  1.0  0.0327
  N  N338  1  0.507700  0.193800  0.064200  1.0  0.0344
  N  N339  1  0.992300  0.806200  0.564200  1.0  0.0337
  N  N340  1  0.007700  0.306200  0.935800  1.0  0.032
  O  O341  1  0.472000  0.474800  0.106600  1.0  -0.6147
  O  O342  1  0.028000  0.525200  0.606600  1.0  -0.6157
  O  O343  1  0.528000  0.974800  0.393400  1.0  -0.6158
  O  O344  1  0.972000  0.025200  0.893400  1.0  -0.6156
  O  O345  1  0.106600  0.472000  0.474800  1.0  -0.6163
  O  O346  1  0.606600  0.028000  0.525200  1.0  -0.618
  O  O347  1  0.393400  0.528000  0.974800  1.0  -0.6187
  O  O348  1  0.893400  0.972000  0.025200  1.0  -0.6158
  O  O349  1  0.474800  0.106600  0.472000  1.0  -0.6174
  O  O350  1  0.525200  0.606600  0.028000  1.0  -0.6186
  O  O351  1  0.974800  0.393400  0.528000  1.0  -0.6191
  O  O352  1  0.025200  0.893400  0.972000  1.0  -0.6182
  O  O353  1  0.528000  0.525200  0.893400  1.0  -0.6139
  O  O354  1  0.972000  0.474800  0.393400  1.0  -0.6138
  O  O355  1  0.472000  0.025200  0.606600  1.0  -0.6134
  O  O356  1  0.028000  0.974800  0.106600  1.0  -0.6139
  O  O357  1  0.893400  0.528000  0.525200  1.0  -0.6167
  O  O358  1  0.393400  0.972000  0.474800  1.0  -0.6139
  O  O359  1  0.606600  0.472000  0.025200  1.0  -0.6148
  O  O360  1  0.106600  0.028000  0.974800  1.0  -0.6165
  O  O361  1  0.525200  0.893400  0.528000  1.0  -0.6171
  O  O362  1  0.474800  0.393400  0.972000  1.0  -0.6171
  O  O363  1  0.025200  0.606600  0.472000  1.0  -0.6157
  O  O364  1  0.974800  0.106600  0.028000  1.0  -0.6172
