# generated using pymatgen
data_Ag2H9(C4N3)3
_symmetry_space_group_name_H-M   'P 1'
_cell_length_a   7.78800000
_cell_length_b   14.25900000
_cell_length_c   36.54400000
_cell_angle_alpha   90.00000000
_cell_angle_beta   90.00000000
_cell_angle_gamma   90.00000000
_symmetry_Int_Tables_number   1
_chemical_formula_structural   Ag2H9(C4N3)3
_chemical_formula_sum   'Ag16 H72 C96 N72'
_cell_volume   4058.17801805
_cell_formula_units_Z   8
loop_
 _symmetry_equiv_pos_site_id
 _symmetry_equiv_pos_as_xyz
  1  'x, y, z'
loop_
 _atom_site_type_symbol
 _atom_site_label
 _atom_site_symmetry_multiplicity
 _atom_site_fract_x
 _atom_site_fract_y
 _atom_site_fract_z
 _atom_site_occupancy
 _atom_site_charge
  Ag  Ag1  1  0.587100  0.393920  0.558530  1.0  0.3114
  Ag  Ag2  1  0.920160  0.115570  0.648080  1.0  0.2711
  Ag  Ag3  1  0.451800  0.686270  0.319060  1.0  0.2821
  Ag  Ag4  1  0.121400  0.756370  0.869380  1.0  0.4184
  Ag  Ag5  1  0.412900  0.893920  0.558530  1.0  0.3106
  Ag  Ag6  1  0.079840  0.615570  0.648080  1.0  0.2727
  Ag  Ag7  1  0.548200  0.186270  0.319060  1.0  0.2823
  Ag  Ag8  1  0.878600  0.256370  0.869380  1.0  0.4188
  Ag  Ag9  1  0.878600  0.243630  0.369380  1.0  0.4186
  Ag  Ag10  1  0.412900  0.606080  0.058530  1.0  0.3104
  Ag  Ag11  1  0.079840  0.884430  0.148080  1.0  0.272
  Ag  Ag12  1  0.548200  0.313730  0.819060  1.0  0.2828
  Ag  Ag13  1  0.121400  0.743630  0.369380  1.0  0.4181
  Ag  Ag14  1  0.587100  0.106080  0.058530  1.0  0.3111
  Ag  Ag15  1  0.920160  0.384430  0.148080  1.0  0.2705
  Ag  Ag16  1  0.451800  0.813730  0.819060  1.0  0.2824
  H  H17  1  0.014200  0.915200  0.821200  1.0  0.0456
  H  H18  1  0.175600  0.947600  0.923200  1.0  0.0807
  H  H19  1  0.110800  0.103800  0.917400  1.0  0.0177
  H  H20  1  0.971300  0.098200  0.743800  1.0  0.0435
  H  H21  1  0.697400  0.274100  0.681000  1.0  0.046
  H  H22  1  0.637900  0.359400  0.733000  1.0  0.0608
  H  H23  1  0.875600  0.461700  0.603400  1.0  0.0392
  H  H24  1  0.293500  0.422200  0.663500  1.0  0.0638
  H  H25  1  0.256200  0.269600  0.657500  1.0  0.0474
  H  H26  1  0.626800  0.050000  0.598000  1.0  0.0059
  H  H27  1  0.223300  0.084800  0.539400  1.0  0.0303
  H  H28  1  0.273100  0.244300  0.539000  1.0  0.0282
  H  H29  1  0.516000  0.411100  0.475000  1.0  0.0404
  H  H30  1  0.835300  0.247200  0.518700  1.0  0.0181
  H  H31  1  0.953400  0.204500  0.463600  1.0  0.0747
  H  H32  1  0.544500  0.520600  0.369700  1.0  0.0818
  H  H33  1  0.337600  0.508500  0.270400  1.0  0.0426
  H  H34  1  0.367200  0.336300  0.271500  1.0  0.0446
  H  H35  1  0.985800  0.415200  0.821200  1.0  0.0456
  H  H36  1  0.824400  0.447600  0.923200  1.0  0.0807
  H  H37  1  0.889200  0.603800  0.917400  1.0  0.0177
  H  H38  1  0.028700  0.598200  0.743800  1.0  0.0436
  H  H39  1  0.302600  0.774100  0.681000  1.0  0.0461
  H  H40  1  0.362100  0.859400  0.733000  1.0  0.0608
  H  H41  1  0.124400  0.961700  0.603400  1.0  0.0392
  H  H42  1  0.706500  0.922200  0.663500  1.0  0.0642
  H  H43  1  0.743800  0.769600  0.657500  1.0  0.0476
  H  H44  1  0.373200  0.550000  0.598000  1.0  0.0064
  H  H45  1  0.776700  0.584800  0.539400  1.0  0.0298
  H  H46  1  0.726900  0.744300  0.539000  1.0  0.0281
  H  H47  1  0.484000  0.911100  0.475000  1.0  0.0421
  H  H48  1  0.164700  0.747200  0.518700  1.0  0.0181
  H  H49  1  0.046600  0.704500  0.463600  1.0  0.0748
  H  H50  1  0.455500  0.020600  0.369700  1.0  0.082
  H  H51  1  0.662400  0.008500  0.270400  1.0  0.0426
  H  H52  1  0.632800  0.836300  0.271500  1.0  0.0443
  H  H53  1  0.985800  0.084800  0.321200  1.0  0.0459
  H  H54  1  0.824400  0.052400  0.423200  1.0  0.0805
  H  H55  1  0.889200  0.896200  0.417400  1.0  0.0178
  H  H56  1  0.028700  0.901800  0.243800  1.0  0.0443
  H  H57  1  0.302600  0.725900  0.181000  1.0  0.046
  H  H58  1  0.362100  0.640600  0.233000  1.0  0.0601
  H  H59  1  0.124400  0.538300  0.103400  1.0  0.039
  H  H60  1  0.706500  0.577800  0.163500  1.0  0.0637
  H  H61  1  0.743800  0.730400  0.157500  1.0  0.0481
  H  H62  1  0.373200  0.950000  0.098000  1.0  0.006
  H  H63  1  0.776700  0.915200  0.039400  1.0  0.0301
  H  H64  1  0.726900  0.755700  0.039000  1.0  0.0278
  H  H65  1  0.484000  0.588900  0.975000  1.0  0.0413
  H  H66  1  0.164700  0.752800  0.018700  1.0  0.0178
  H  H67  1  0.046600  0.795500  0.963600  1.0  0.0751
  H  H68  1  0.455500  0.479400  0.869700  1.0  0.0821
  H  H69  1  0.662400  0.491500  0.770400  1.0  0.043
  H  H70  1  0.632800  0.663700  0.771500  1.0  0.0442
  H  H71  1  0.014200  0.584800  0.321200  1.0  0.0457
  H  H72  1  0.175600  0.552400  0.423200  1.0  0.0807
  H  H73  1  0.110800  0.396200  0.417400  1.0  0.0176
  H  H74  1  0.971300  0.401800  0.243800  1.0  0.0438
  H  H75  1  0.697400  0.225900  0.181000  1.0  0.0461
  H  H76  1  0.637900  0.140600  0.233000  1.0  0.0598
  H  H77  1  0.875600  0.038300  0.103400  1.0  0.0388
  H  H78  1  0.293500  0.077800  0.163500  1.0  0.0633
  H  H79  1  0.256200  0.230400  0.157500  1.0  0.0478
  H  H80  1  0.626800  0.450000  0.098000  1.0  0.0055
  H  H81  1  0.223300  0.415200  0.039400  1.0  0.0303
  H  H82  1  0.273100  0.255700  0.039000  1.0  0.0276
  H  H83  1  0.516000  0.088900  0.975000  1.0  0.0394
  H  H84  1  0.835300  0.252800  0.018700  1.0  0.018
  H  H85  1  0.953400  0.295500  0.963600  1.0  0.0751
  H  H86  1  0.544500  0.979400  0.869700  1.0  0.082
  H  H87  1  0.337600  0.991500  0.770400  1.0  0.0428
  H  H88  1  0.367200  0.163700  0.771500  1.0  0.0445
  C  C89  1  0.004000  0.056200  0.840000  1.0  0.3776
  C  C90  1  0.038000  0.952600  0.841500  1.0  0.1251
  C  C91  1  0.131000  0.971800  0.901500  1.0  0.0587
  C  C92  1  0.093000  0.065400  0.897200  1.0  0.1189
  C  C93  1  0.842000  0.193900  0.768900  1.0  0.3306
  C  C94  1  0.900000  0.149900  0.740700  1.0  0.097
  C  C95  1  0.744000  0.255200  0.703200  1.0  0.0937
  C  C96  1  0.699000  0.303700  0.734900  1.0  0.0693
  C  C97  1  0.926400  0.327500  0.616700  1.0  0.3052
  C  C98  1  0.949400  0.424200  0.617000  1.0  0.1027
  C  C99  1  0.197000  0.399900  0.651300  1.0  0.072
  C  C100  1  0.173000  0.309000  0.647700  1.0  0.0966
  C  C101  1  0.583200  0.182500  0.586700  1.0  0.3744
  C  C102  1  0.553000  0.088600  0.584900  1.0  0.1236
  C  C103  1  0.321000  0.107400  0.551100  1.0  0.061
  C  C104  1  0.349000  0.206200  0.551800  1.0  0.0597
  C  C105  1  0.665000  0.341900  0.436100  1.0  0.2608
  C  C106  1  0.603000  0.366700  0.472500  1.0  0.085
  C  C107  1  0.788000  0.272800  0.497600  1.0  0.1565
  C  C108  1  0.860000  0.245300  0.464200  1.0  0.051
  C  C109  1  0.528000  0.392200  0.345200  1.0  0.414
  C  C110  1  0.506000  0.487500  0.349300  1.0  0.0987
  C  C111  1  0.381000  0.478600  0.291100  1.0  0.1102
  C  C112  1  0.402000  0.374000  0.290900  1.0  0.0704
  C  C113  1  0.996000  0.556200  0.840000  1.0  0.3769
  C  C114  1  0.962000  0.452600  0.841500  1.0  0.1249
  C  C115  1  0.869000  0.471800  0.901500  1.0  0.0578
  C  C116  1  0.907000  0.565400  0.897200  1.0  0.1181
  C  C117  1  0.158000  0.693900  0.768900  1.0  0.3316
  C  C118  1  0.100000  0.649900  0.740700  1.0  0.0976
  C  C119  1  0.256000  0.755200  0.703200  1.0  0.0931
  C  C120  1  0.301000  0.803700  0.734900  1.0  0.0689
  C  C121  1  0.073600  0.827500  0.616700  1.0  0.3047
  C  C122  1  0.050600  0.924200  0.617000  1.0  0.1021
  C  C123  1  0.803000  0.899900  0.651300  1.0  0.0722
  C  C124  1  0.827000  0.809000  0.647700  1.0  0.0957
  C  C125  1  0.416800  0.682500  0.586700  1.0  0.3745
  C  C126  1  0.447000  0.588600  0.584900  1.0  0.1238
  C  C127  1  0.679000  0.607400  0.551100  1.0  0.0611
  C  C128  1  0.651000  0.706200  0.551800  1.0  0.0598
  C  C129  1  0.335000  0.841900  0.436100  1.0  0.2609
  C  C130  1  0.397000  0.866700  0.472500  1.0  0.0859
  C  C131  1  0.212000  0.772800  0.497600  1.0  0.1559
  C  C132  1  0.140000  0.745300  0.464200  1.0  0.0497
  C  C133  1  0.472000  0.892200  0.345200  1.0  0.4146
  C  C134  1  0.494000  0.987500  0.349300  1.0  0.098
  C  C135  1  0.619000  0.978600  0.291100  1.0  0.1101
  C  C136  1  0.598000  0.874000  0.290900  1.0  0.0703
  C  C137  1  0.996000  0.943800  0.340000  1.0  0.3761
  C  C138  1  0.962000  0.047400  0.341500  1.0  0.1261
  C  C139  1  0.869000  0.028200  0.401500  1.0  0.0576
  C  C140  1  0.907000  0.934600  0.397200  1.0  0.1189
  C  C141  1  0.158000  0.806100  0.268900  1.0  0.3315
  C  C142  1  0.100000  0.850100  0.240700  1.0  0.097
  C  C143  1  0.256000  0.744800  0.203200  1.0  0.0933
  C  C144  1  0.301000  0.696300  0.234900  1.0  0.0677
  C  C145  1  0.073600  0.672500  0.116700  1.0  0.3049
  C  C146  1  0.050600  0.575800  0.117000  1.0  0.102
  C  C147  1  0.803000  0.600100  0.151300  1.0  0.074
  C  C148  1  0.827000  0.691000  0.147700  1.0  0.0942
  C  C149  1  0.416800  0.817500  0.086700  1.0  0.3742
  C  C150  1  0.447000  0.911400  0.084900  1.0  0.1221
  C  C151  1  0.679000  0.892600  0.051100  1.0  0.0616
  C  C152  1  0.651000  0.793800  0.051800  1.0  0.0593
  C  C153  1  0.335000  0.658100  0.936100  1.0  0.2602
  C  C154  1  0.397000  0.633300  0.972500  1.0  0.0862
  C  C155  1  0.212000  0.727200  0.997600  1.0  0.1558
  C  C156  1  0.140000  0.754700  0.964200  1.0  0.0494
  C  C157  1  0.472000  0.607800  0.845200  1.0  0.4149
  C  C158  1  0.494000  0.512500  0.849300  1.0  0.0997
  C  C159  1  0.619000  0.521400  0.791100  1.0  0.1103
  C  C160  1  0.598000  0.626000  0.790900  1.0  0.0706
  C  C161  1  0.004000  0.443800  0.340000  1.0  0.3768
  C  C162  1  0.038000  0.547400  0.341500  1.0  0.1264
  C  C163  1  0.131000  0.528200  0.401500  1.0  0.0587
  C  C164  1  0.093000  0.434600  0.397200  1.0  0.1196
  C  C165  1  0.842000  0.306100  0.268900  1.0  0.3304
  C  C166  1  0.900000  0.350100  0.240700  1.0  0.0964
  C  C167  1  0.744000  0.244800  0.203200  1.0  0.0941
  C  C168  1  0.699000  0.196300  0.234900  1.0  0.0685
  C  C169  1  0.926400  0.172500  0.116700  1.0  0.3054
  C  C170  1  0.949400  0.075800  0.117000  1.0  0.1033
  C  C171  1  0.197000  0.100100  0.151300  1.0  0.0729
  C  C172  1  0.173000  0.191000  0.147700  1.0  0.0953
  C  C173  1  0.583200  0.317500  0.086700  1.0  0.3739
  C  C174  1  0.553000  0.411400  0.084900  1.0  0.1227
  C  C175  1  0.321000  0.392600  0.051100  1.0  0.0613
  C  C176  1  0.349000  0.293800  0.051800  1.0  0.0588
  C  C177  1  0.665000  0.158100  0.936100  1.0  0.2602
  C  C178  1  0.603000  0.133300  0.972500  1.0  0.0862
  C  C179  1  0.788000  0.227200  0.997600  1.0  0.1565
  C  C180  1  0.860000  0.254700  0.964200  1.0  0.0509
  C  C181  1  0.528000  0.107800  0.845200  1.0  0.4141
  C  C182  1  0.506000  0.012500  0.849300  1.0  0.0994
  C  C183  1  0.381000  0.021400  0.791100  1.0  0.1104
  C  C184  1  0.402000  0.126000  0.790900  1.0  0.0707
  N  N185  1  0.959000  0.090700  0.805100  1.0  -0.1879
  N  N186  1  0.892000  0.165300  0.806000  1.0  -0.2249
  N  N187  1  0.775400  0.295300  0.597100  1.0  -0.3088
  N  N188  1  0.729100  0.211100  0.604800  1.0  -0.299
  N  N189  1  0.572000  0.381800  0.407400  1.0  -0.1904
  N  N190  1  0.607000  0.341500  0.377100  1.0  -0.2386
  N  N191  1  0.099200  0.915800  0.870800  1.0  -0.404
  N  N192  1  0.033000  0.106000  0.867700  1.0  -0.3523
  N  N193  1  0.854000  0.180800  0.703800  1.0  -0.383
  N  N194  1  0.744000  0.271100  0.768500  1.0  -0.3859
  N  N195  1  0.074300  0.464800  0.636300  1.0  -0.4102
  N  N196  1  0.032100  0.266500  0.630300  1.0  -0.3826
  N  N197  1  0.426900  0.046500  0.566400  1.0  -0.3173
  N  N198  1  0.478100  0.247100  0.569700  1.0  -0.4045
  N  N199  1  0.668000  0.327400  0.501700  1.0  -0.2273
  N  N200  1  0.792000  0.279800  0.433000  1.0  -0.4416
  N  N201  1  0.423000  0.529100  0.320300  1.0  -0.3832
  N  N202  1  0.473000  0.341600  0.319800  1.0  -0.2627
  N  N203  1  0.041000  0.590700  0.805100  1.0  -0.1876
  N  N204  1  0.108000  0.665300  0.806000  1.0  -0.225
  N  N205  1  0.224600  0.795300  0.597100  1.0  -0.3085
  N  N206  1  0.270900  0.711100  0.604800  1.0  -0.2999
  N  N207  1  0.428000  0.881800  0.407400  1.0  -0.1899
  N  N208  1  0.393000  0.841500  0.377100  1.0  -0.2393
  N  N209  1  0.900800  0.415800  0.870800  1.0  -0.4043
  N  N210  1  0.967000  0.606000  0.867700  1.0  -0.3525
  N  N211  1  0.146000  0.680800  0.703800  1.0  -0.383
  N  N212  1  0.256000  0.771100  0.768500  1.0  -0.3857
  N  N213  1  0.925700  0.964800  0.636300  1.0  -0.4108
  N  N214  1  0.967900  0.766500  0.630300  1.0  -0.3829
  N  N215  1  0.573100  0.546500  0.566400  1.0  -0.3174
  N  N216  1  0.521900  0.747100  0.569700  1.0  -0.4044
  N  N217  1  0.332000  0.827400  0.501700  1.0  -0.227
  N  N218  1  0.208000  0.779800  0.433000  1.0  -0.4418
  N  N219  1  0.577000  0.029100  0.320300  1.0  -0.3838
  N  N220  1  0.527000  0.841600  0.319800  1.0  -0.2625
  N  N221  1  0.041000  0.909300  0.305100  1.0  -0.187
  N  N222  1  0.108000  0.834700  0.306000  1.0  -0.224
  N  N223  1  0.224600  0.704700  0.097100  1.0  -0.3079
  N  N224  1  0.270900  0.788900  0.104800  1.0  -0.301
  N  N225  1  0.428000  0.618200  0.907400  1.0  -0.1901
  N  N226  1  0.393000  0.658500  0.877100  1.0  -0.2396
  N  N227  1  0.900800  0.084200  0.370800  1.0  -0.4054
  N  N228  1  0.967000  0.894000  0.367700  1.0  -0.3524
  N  N229  1  0.146000  0.819200  0.203800  1.0  -0.3824
  N  N230  1  0.256000  0.728900  0.268500  1.0  -0.3855
  N  N231  1  0.925700  0.535200  0.136300  1.0  -0.4109
  N  N232  1  0.967900  0.733500  0.130300  1.0  -0.3843
  N  N233  1  0.573100  0.953500  0.066400  1.0  -0.3179
  N  N234  1  0.521900  0.752900  0.069700  1.0  -0.4036
  N  N235  1  0.332000  0.672600  0.001700  1.0  -0.226
  N  N236  1  0.208000  0.720200  0.933000  1.0  -0.4414
  N  N237  1  0.577000  0.470900  0.820300  1.0  -0.3819
  N  N238  1  0.527000  0.658400  0.819800  1.0  -0.2633
  N  N239  1  0.959000  0.409300  0.305100  1.0  -0.1873
  N  N240  1  0.892000  0.334700  0.306000  1.0  -0.2241
  N  N241  1  0.775400  0.204700  0.097100  1.0  -0.3083
  N  N242  1  0.729100  0.288900  0.104800  1.0  -0.3
  N  N243  1  0.572000  0.118200  0.907400  1.0  -0.1911
  N  N244  1  0.607000  0.158500  0.877100  1.0  -0.2396
  N  N245  1  0.099200  0.584200  0.370800  1.0  -0.4049
  N  N246  1  0.033000  0.394000  0.367700  1.0  -0.3523
  N  N247  1  0.854000  0.319200  0.203800  1.0  -0.3834
  N  N248  1  0.744000  0.228900  0.268500  1.0  -0.386
  N  N249  1  0.074300  0.035200  0.136300  1.0  -0.41
  N  N250  1  0.032100  0.233500  0.130300  1.0  -0.3841
  N  N251  1  0.426900  0.453500  0.066400  1.0  -0.3178
  N  N252  1  0.478100  0.252900  0.069700  1.0  -0.4039
  N  N253  1  0.668000  0.172600  0.001700  1.0  -0.2268
  N  N254  1  0.792000  0.220200  0.933000  1.0  -0.4417
  N  N255  1  0.423000  0.970900  0.820300  1.0  -0.3821
  N  N256  1  0.473000  0.158400  0.819800  1.0  -0.263
