# generated using pymatgen
data_Cd3H28C32N5O14
_symmetry_space_group_name_H-M   'P 1'
_cell_length_a   22.90970000
_cell_length_b   6.89100000
_cell_length_c   14.41320000
_cell_angle_alpha   90.00000000
_cell_angle_beta   106.62000000
_cell_angle_gamma   90.00000000
_symmetry_Int_Tables_number   1
_chemical_formula_structural   Cd3H28C32N5O14
_chemical_formula_sum   'Cd6 H56 C64 N10 O28'
_cell_volume   2180.36178598
_cell_formula_units_Z   2
loop_
 _symmetry_equiv_pos_site_id
 _symmetry_equiv_pos_as_xyz
  1  'x, y, z'
loop_
 _atom_site_type_symbol
 _atom_site_label
 _atom_site_symmetry_multiplicity
 _atom_site_fract_x
 _atom_site_fract_y
 _atom_site_fract_z
 _atom_site_occupancy
 _atom_site_charge
  Cd  Cd1  1  0.413000  0.155700  0.693390  1.0  1.0591
  Cd  Cd2  1  0.913000  0.655700  0.693390  1.0  1.0591
  Cd  Cd3  1  0.587000  0.155700  0.306610  1.0  1.0593
  Cd  Cd4  1  0.087000  0.655700  0.306610  1.0  1.0593
  Cd  Cd5  1  0.500000  0.128100  0.000000  1.0  0.9368
  Cd  Cd6  1  0.000000  0.628100  0.000000  1.0  0.9368
  H  H7  1  0.709000  0.963900  0.627600  1.0  0.1305
  H  H8  1  0.830000  0.668000  0.959700  1.0  0.096
  H  H9  1  0.546800  0.203800  0.623600  1.0  0.1169
  H  H10  1  0.657100  0.979500  0.870500  1.0  0.1192
  H  H11  1  0.701700  0.302300  0.911600  1.0  0.0871
  H  H12  1  0.722400  0.480000  0.982700  1.0  0.0817
  H  H13  1  0.688100  0.495200  0.777100  1.0  0.1235
  H  H14  1  0.664000  0.632500  0.846200  1.0  0.1022
  H  H15  1  0.816200  0.346100  0.981000  1.0  0.0794
  H  H16  1  0.792900  0.304700  0.868600  1.0  0.0878
  H  H17  1  0.411500  0.488500  0.005600  1.0  0.1168
  H  H18  1  0.460600  0.606400  0.084200  1.0  0.1127
  H  H19  1  0.417300  0.798100  0.980300  1.0  0.0864
  H  H20  1  0.418700  0.657100  0.896800  1.0  0.0992
  H  H21  1  0.209000  0.463900  0.627600  1.0  0.1305
  H  H22  1  0.330000  0.168000  0.959700  1.0  0.096
  H  H23  1  0.046800  0.703800  0.623600  1.0  0.1169
  H  H24  1  0.157100  0.479500  0.870500  1.0  0.1192
  H  H25  1  0.201700  0.802300  0.911600  1.0  0.0871
  H  H26  1  0.222400  0.980000  0.982700  1.0  0.0817
  H  H27  1  0.188100  0.995200  0.777100  1.0  0.1235
  H  H28  1  0.164000  0.132500  0.846200  1.0  0.1022
  H  H29  1  0.316200  0.846100  0.981000  1.0  0.0794
  H  H30  1  0.292900  0.804700  0.868600  1.0  0.0878
  H  H31  1  0.911500  0.988500  0.005600  1.0  0.1168
  H  H32  1  0.960600  0.106400  0.084200  1.0  0.1127
  H  H33  1  0.917300  0.298100  0.980300  1.0  0.0864
  H  H34  1  0.918700  0.157100  0.896800  1.0  0.0992
  H  H35  1  0.291000  0.963900  0.372400  1.0  0.1308
  H  H36  1  0.170000  0.668000  0.040300  1.0  0.0967
  H  H37  1  0.453200  0.203800  0.376400  1.0  0.1164
  H  H38  1  0.342900  0.979500  0.129500  1.0  0.1175
  H  H39  1  0.298300  0.302300  0.088400  1.0  0.0879
  H  H40  1  0.277600  0.480000  0.017300  1.0  0.082
  H  H41  1  0.311900  0.495200  0.222900  1.0  0.1241
  H  H42  1  0.336000  0.632500  0.153800  1.0  0.1025
  H  H43  1  0.183800  0.346100  0.019000  1.0  0.0797
  H  H44  1  0.207100  0.304700  0.131400  1.0  0.0897
  H  H45  1  0.588500  0.488500  0.994400  1.0  0.12
  H  H46  1  0.539400  0.606400  0.915800  1.0  0.113
  H  H47  1  0.582700  0.798100  0.019700  1.0  0.0851
  H  H48  1  0.581300  0.657100  0.103200  1.0  0.1001
  H  H49  1  0.791000  0.463900  0.372400  1.0  0.1308
  H  H50  1  0.670000  0.168000  0.040300  1.0  0.0967
  H  H51  1  0.953200  0.703800  0.376400  1.0  0.1164
  H  H52  1  0.842900  0.479500  0.129500  1.0  0.1175
  H  H53  1  0.798300  0.802300  0.088400  1.0  0.0879
  H  H54  1  0.777600  0.980000  0.017300  1.0  0.082
  H  H55  1  0.811900  0.995200  0.222900  1.0  0.1241
  H  H56  1  0.836000  0.132500  0.153800  1.0  0.1025
  H  H57  1  0.683800  0.846100  0.019000  1.0  0.0797
  H  H58  1  0.707100  0.804700  0.131400  1.0  0.0897
  H  H59  1  0.088500  0.988500  0.994400  1.0  0.12
  H  H60  1  0.039400  0.106400  0.915800  1.0  0.113
  H  H61  1  0.082700  0.298100  0.019700  1.0  0.0851
  H  H62  1  0.081300  0.157100  0.103200  1.0  0.1001
  C  C63  1  0.680100  0.995100  0.659200  1.0  -0.0091
  C  C64  1  0.611600  0.118500  0.501400  1.0  0.6554
  C  C65  1  0.810700  0.600300  0.898800  1.0  0.0375
  C  C66  1  0.582500  0.140100  0.656700  1.0  0.0196
  C  C67  1  0.691700  0.956500  0.756600  1.0  0.0224
  C  C68  1  0.649400  0.007400  0.805000  1.0  -0.0919
  C  C69  1  0.723900  0.423900  0.921800  1.0  -0.1483
  C  C70  1  0.752000  0.870900  0.809700  1.0  0.6084
  C  C71  1  0.699100  0.562200  0.838900  1.0  -0.0187
  C  C72  1  0.551800  0.161300  0.811500  1.0  0.6789
  C  C73  1  0.624700  0.081700  0.607100  1.0  -0.1436
  C  C74  1  0.790900  0.394500  0.919400  1.0  -0.1406
  C  C75  1  0.852800  0.600300  0.833800  1.0  0.6836
  C  C76  1  0.594600  0.101700  0.754700  1.0  -0.1275
  C  C77  1  0.449200  0.561000  0.017800  1.0  0.036
  C  C78  1  0.442600  0.704000  0.959500  1.0  -0.0474
  C  C79  1  0.180100  0.495100  0.659200  1.0  -0.0091
  C  C80  1  0.111600  0.618500  0.501400  1.0  0.6554
  C  C81  1  0.310700  0.100300  0.898800  1.0  0.0375
  C  C82  1  0.082500  0.640100  0.656700  1.0  0.0196
  C  C83  1  0.191700  0.456500  0.756600  1.0  0.0224
  C  C84  1  0.149400  0.507400  0.805000  1.0  -0.0919
  C  C85  1  0.223900  0.923900  0.921800  1.0  -0.1483
  C  C86  1  0.252000  0.370900  0.809700  1.0  0.6084
  C  C87  1  0.199100  0.062200  0.838900  1.0  -0.0187
  C  C88  1  0.051800  0.661300  0.811500  1.0  0.6789
  C  C89  1  0.124700  0.581700  0.607100  1.0  -0.1436
  C  C90  1  0.290900  0.894500  0.919400  1.0  -0.1406
  C  C91  1  0.352800  0.100300  0.833800  1.0  0.6836
  C  C92  1  0.094600  0.601700  0.754700  1.0  -0.1275
  C  C93  1  0.949200  0.061000  0.017800  1.0  0.036
  C  C94  1  0.942600  0.204000  0.959500  1.0  -0.0474
  C  C95  1  0.319900  0.995100  0.340800  1.0  -0.0126
  C  C96  1  0.388400  0.118500  0.498600  1.0  0.656
  C  C97  1  0.189300  0.600300  0.101200  1.0  0.036
  C  C98  1  0.417500  0.140100  0.343300  1.0  0.0198
  C  C99  1  0.308300  0.956500  0.243400  1.0  0.028
  C  C100  1  0.350600  0.007400  0.195000  1.0  -0.0949
  C  C101  1  0.276100  0.423900  0.078200  1.0  -0.1495
  C  C102  1  0.248000  0.870900  0.190300  1.0  0.6072
  C  C103  1  0.300900  0.562200  0.161100  1.0  -0.0216
  C  C104  1  0.448200  0.161300  0.188500  1.0  0.679
  C  C105  1  0.375300  0.081700  0.392900  1.0  -0.1422
  C  C106  1  0.209100  0.394500  0.080600  1.0  -0.1407
  C  C107  1  0.147200  0.600300  0.166200  1.0  0.685
  C  C108  1  0.405400  0.101700  0.245300  1.0  -0.1272
  C  C109  1  0.550800  0.561000  0.982200  1.0  0.0348
  C  C110  1  0.557400  0.704000  0.040500  1.0  -0.0453
  C  C111  1  0.819900  0.495100  0.340800  1.0  -0.0126
  C  C112  1  0.888400  0.618500  0.498600  1.0  0.656
  C  C113  1  0.689300  0.100300  0.101200  1.0  0.036
  C  C114  1  0.917500  0.640100  0.343300  1.0  0.0198
  C  C115  1  0.808300  0.456500  0.243400  1.0  0.028
  C  C116  1  0.850600  0.507400  0.195000  1.0  -0.0949
  C  C117  1  0.776100  0.923900  0.078200  1.0  -0.1495
  C  C118  1  0.748000  0.370900  0.190300  1.0  0.6072
  C  C119  1  0.800900  0.062200  0.161100  1.0  -0.0216
  C  C120  1  0.948200  0.661300  0.188500  1.0  0.679
  C  C121  1  0.875300  0.581700  0.392900  1.0  -0.1422
  C  C122  1  0.709100  0.894500  0.080600  1.0  -0.1407
  C  C123  1  0.647200  0.100300  0.166200  1.0  0.685
  C  C124  1  0.905400  0.601700  0.245300  1.0  -0.1272
  C  C125  1  0.050800  0.061000  0.982200  1.0  0.0348
  C  C126  1  0.057400  0.204000  0.040500  1.0  -0.0453
  N  N127  1  0.493000  0.813000  0.942500  1.0  -0.2716
  N  N128  1  0.751900  0.692600  0.848700  1.0  -0.128
  N  N129  1  0.993000  0.313000  0.942500  1.0  -0.2716
  N  N130  1  0.251900  0.192600  0.848700  1.0  -0.128
  N  N131  1  0.507000  0.813000  0.057500  1.0  -0.2733
  N  N132  1  0.248100  0.692600  0.151300  1.0  -0.1268
  N  N133  1  0.007000  0.313000  0.057500  1.0  -0.2733
  N  N134  1  0.748100  0.192600  0.151300  1.0  -0.1268
  N  N135  1  0.500000  0.432000  0.000000  1.0  -0.3525
  N  N136  1  0.000000  0.932000  0.000000  1.0  -0.3525
  O  O137  1  0.563400  0.113800  0.897500  1.0  -0.6038
  O  O138  1  0.569700  0.233000  0.458200  1.0  -0.5758
  O  O139  1  0.908440  0.632800  0.870200  1.0  -0.714
  O  O140  1  0.830200  0.570600  0.744300  1.0  -0.5961
  O  O141  1  0.643300  0.028200  0.456400  1.0  -0.6383
  O  O142  1  0.800100  0.960600  0.817800  1.0  -0.5796
  O  O143  1  0.506380  0.268700  0.767900  1.0  -0.697
  O  O144  1  0.063400  0.613800  0.897500  1.0  -0.6038
  O  O145  1  0.069700  0.733000  0.458200  1.0  -0.5758
  O  O146  1  0.408440  0.132800  0.870200  1.0  -0.714
  O  O147  1  0.330200  0.070600  0.744300  1.0  -0.5961
  O  O148  1  0.143300  0.528200  0.456400  1.0  -0.6383
  O  O149  1  0.300100  0.460600  0.817800  1.0  -0.5796
  O  O150  1  0.006380  0.768700  0.767900  1.0  -0.697
  O  O151  1  0.436600  0.113800  0.102500  1.0  -0.6037
  O  O152  1  0.430300  0.233000  0.541800  1.0  -0.5779
  O  O153  1  0.091560  0.632800  0.129800  1.0  -0.7148
  O  O154  1  0.169800  0.570600  0.255700  1.0  -0.5993
  O  O155  1  0.356700  0.028200  0.543600  1.0  -0.6382
  O  O156  1  0.199900  0.960600  0.182200  1.0  -0.5798
  O  O157  1  0.493620  0.268700  0.232100  1.0  -0.6961
  O  O158  1  0.936600  0.613800  0.102500  1.0  -0.6037
  O  O159  1  0.930300  0.733000  0.541800  1.0  -0.5779
  O  O160  1  0.591560  0.132800  0.129800  1.0  -0.7148
  O  O161  1  0.669800  0.070600  0.255700  1.0  -0.5993
  O  O162  1  0.856700  0.528200  0.543600  1.0  -0.6382
  O  O163  1  0.699900  0.460600  0.182200  1.0  -0.5798
  O  O164  1  0.993620  0.768700  0.232100  1.0  -0.6961
