# generated using pymatgen
data_Tb2Cu3H24(C4O5)6
_symmetry_space_group_name_H-M   'P 1'
_cell_length_a   14.69300000
_cell_length_b   14.69300000
_cell_length_c   15.12500000
_cell_angle_alpha   90.00000000
_cell_angle_beta   90.00000000
_cell_angle_gamma   120.00000000
_symmetry_Int_Tables_number   1
_chemical_formula_structural   Tb2Cu3H24(C4O5)6
_chemical_formula_sum   'Tb4 Cu6 H48 C48 O60'
_cell_volume   2827.78881415
_cell_formula_units_Z   2
loop_
 _symmetry_equiv_pos_site_id
 _symmetry_equiv_pos_as_xyz
  1  'x, y, z'
loop_
 _atom_site_type_symbol
 _atom_site_label
 _atom_site_symmetry_multiplicity
 _atom_site_fract_x
 _atom_site_fract_y
 _atom_site_fract_z
 _atom_site_occupancy
 _atom_site_charge
  Tb  Tb1  1  0.333333  0.666667  0.750000  1.0  2.1578
  Tb  Tb2  1  0.666667  0.333333  0.750000  1.0  2.1578
  Tb  Tb3  1  0.666667  0.333333  0.250000  1.0  2.1578
  Tb  Tb4  1  0.333333  0.666667  0.250000  1.0  2.1578
  Cu  Cu5  1  0.000000  0.500000  0.500000  1.0  1.0691
  Cu  Cu6  1  0.500000  0.000000  0.500000  1.0  1.0691
  Cu  Cu7  1  0.500000  0.500000  0.500000  1.0  1.0691
  Cu  Cu8  1  0.500000  0.500000  0.000000  1.0  1.0691
  Cu  Cu9  1  0.500000  0.000000  0.000000  1.0  1.0691
  Cu  Cu10  1  0.000000  0.500000  0.000000  1.0  1.0691
  H  H11  1  0.160400  0.794700  0.659800  1.0  0.0926
  H  H12  1  0.087200  0.716000  0.733000  1.0  0.0785
  H  H13  1  0.634300  0.839600  0.659800  1.0  0.0915
  H  H14  1  0.628800  0.912800  0.733000  1.0  0.0782
  H  H15  1  0.205300  0.365700  0.659800  1.0  0.0924
  H  H16  1  0.284000  0.371200  0.733000  1.0  0.0787
  H  H17  1  0.839600  0.205300  0.659800  1.0  0.0916
  H  H18  1  0.912800  0.284000  0.733000  1.0  0.0782
  H  H19  1  0.365700  0.160400  0.659800  1.0  0.0907
  H  H20  1  0.371200  0.087200  0.733000  1.0  0.0789
  H  H21  1  0.794700  0.634300  0.659800  1.0  0.0932
  H  H22  1  0.716000  0.628800  0.733000  1.0  0.0779
  H  H23  1  0.365700  0.205300  0.840200  1.0  0.093
  H  H24  1  0.371200  0.284000  0.767000  1.0  0.0784
  H  H25  1  0.794700  0.160400  0.840200  1.0  0.0915
  H  H26  1  0.716000  0.087200  0.767000  1.0  0.0788
  H  H27  1  0.839600  0.634300  0.840200  1.0  0.0935
  H  H28  1  0.912800  0.628800  0.767000  1.0  0.0777
  H  H29  1  0.634300  0.794700  0.840200  1.0  0.0921
  H  H30  1  0.628800  0.716000  0.767000  1.0  0.0782
  H  H31  1  0.205300  0.839600  0.840200  1.0  0.0916
  H  H32  1  0.284000  0.912800  0.767000  1.0  0.0784
  H  H33  1  0.160400  0.365700  0.840200  1.0  0.0937
  H  H34  1  0.087200  0.371200  0.767000  1.0  0.0781
  H  H35  1  0.839600  0.205300  0.340200  1.0  0.0921
  H  H36  1  0.912800  0.284000  0.267000  1.0  0.0782
  H  H37  1  0.365700  0.160400  0.340200  1.0  0.0918
  H  H38  1  0.371200  0.087200  0.267000  1.0  0.0781
  H  H39  1  0.794700  0.634300  0.340200  1.0  0.0936
  H  H40  1  0.716000  0.628800  0.267000  1.0  0.0781
  H  H41  1  0.160400  0.794700  0.340200  1.0  0.093
  H  H42  1  0.087200  0.716000  0.267000  1.0  0.0786
  H  H43  1  0.634300  0.839600  0.340200  1.0  0.0914
  H  H44  1  0.628800  0.912800  0.267000  1.0  0.0791
  H  H45  1  0.205300  0.365700  0.340200  1.0  0.0933
  H  H46  1  0.284000  0.371200  0.267000  1.0  0.0783
  H  H47  1  0.634300  0.794700  0.159800  1.0  0.0923
  H  H48  1  0.628800  0.716000  0.233000  1.0  0.0779
  H  H49  1  0.205300  0.839600  0.159800  1.0  0.0909
  H  H50  1  0.284000  0.912800  0.233000  1.0  0.0779
  H  H51  1  0.160400  0.365700  0.159800  1.0  0.0925
  H  H52  1  0.087200  0.371200  0.233000  1.0  0.0784
  H  H53  1  0.365700  0.205300  0.159800  1.0  0.0919
  H  H54  1  0.371200  0.284000  0.233000  1.0  0.0785
  H  H55  1  0.794700  0.160400  0.159800  1.0  0.0914
  H  H56  1  0.716000  0.087200  0.233000  1.0  0.0792
  H  H57  1  0.839600  0.634300  0.159800  1.0  0.0932
  H  H58  1  0.912800  0.628800  0.233000  1.0  0.0777
  C  C59  1  0.130600  0.644600  0.639260  1.0  0.7187
  C  C60  1  0.148600  0.735600  0.696500  1.0  -0.0522
  C  C61  1  0.514000  0.869400  0.639260  1.0  0.7187
  C  C62  1  0.587000  0.851400  0.696500  1.0  -0.0525
  C  C63  1  0.355400  0.486000  0.639260  1.0  0.7196
  C  C64  1  0.264400  0.413000  0.696500  1.0  -0.0536
  C  C65  1  0.869400  0.355400  0.639260  1.0  0.7191
  C  C66  1  0.851400  0.264400  0.696500  1.0  -0.0525
  C  C67  1  0.486000  0.130600  0.639260  1.0  0.7178
  C  C68  1  0.413000  0.148600  0.696500  1.0  -0.0518
  C  C69  1  0.644600  0.514000  0.639260  1.0  0.7197
  C  C70  1  0.735600  0.587000  0.696500  1.0  -0.0537
  C  C71  1  0.486000  0.355400  0.860740  1.0  0.7187
  C  C72  1  0.413000  0.264400  0.803500  1.0  -0.052
  C  C73  1  0.644600  0.130600  0.860740  1.0  0.7191
  C  C74  1  0.735600  0.148600  0.803500  1.0  -0.0522
  C  C75  1  0.869400  0.514000  0.860740  1.0  0.7196
  C  C76  1  0.851400  0.587000  0.803500  1.0  -0.0535
  C  C77  1  0.514000  0.644600  0.860740  1.0  0.7193
  C  C78  1  0.587000  0.735600  0.803500  1.0  -0.0525
  C  C79  1  0.355400  0.869400  0.860740  1.0  0.718
  C  C80  1  0.264400  0.851400  0.803500  1.0  -0.0518
  C  C81  1  0.130600  0.486000  0.860740  1.0  0.7204
  C  C82  1  0.148600  0.413000  0.803500  1.0  -0.0541
  C  C83  1  0.869400  0.355400  0.360740  1.0  0.7195
  C  C84  1  0.851400  0.264400  0.303500  1.0  -0.0524
  C  C85  1  0.486000  0.130600  0.360740  1.0  0.718
  C  C86  1  0.413000  0.148600  0.303500  1.0  -0.052
  C  C87  1  0.644600  0.514000  0.360740  1.0  0.7198
  C  C88  1  0.735600  0.587000  0.303500  1.0  -0.0537
  C  C89  1  0.130600  0.644600  0.360740  1.0  0.7186
  C  C90  1  0.148600  0.735600  0.303500  1.0  -0.052
  C  C91  1  0.514000  0.869400  0.360740  1.0  0.719
  C  C92  1  0.587000  0.851400  0.303500  1.0  -0.0525
  C  C93  1  0.355400  0.486000  0.360740  1.0  0.7203
  C  C94  1  0.264400  0.413000  0.303500  1.0  -0.0539
  C  C95  1  0.514000  0.644600  0.139260  1.0  0.7187
  C  C96  1  0.587000  0.735600  0.196500  1.0  -0.0528
  C  C97  1  0.355400  0.869400  0.139260  1.0  0.7181
  C  C98  1  0.264400  0.851400  0.196500  1.0  -0.0517
  C  C99  1  0.130600  0.486000  0.139260  1.0  0.7202
  C  C100  1  0.148600  0.413000  0.196500  1.0  -0.0541
  C  C101  1  0.486000  0.355400  0.139260  1.0  0.7192
  C  C102  1  0.413000  0.264400  0.196500  1.0  -0.0517
  C  C103  1  0.644600  0.130600  0.139260  1.0  0.7185
  C  C104  1  0.735600  0.148600  0.196500  1.0  -0.0522
  C  C105  1  0.869400  0.514000  0.139260  1.0  0.7189
  C  C106  1  0.851400  0.587000  0.196500  1.0  -0.0534
  O  O107  1  0.194950  0.612680  0.643930  1.0  -0.6758
  O  O108  1  0.052160  0.609700  0.590060  1.0  -0.6203
  O  O109  1  0.417730  0.805050  0.643930  1.0  -0.6749
  O  O110  1  0.557540  0.947840  0.590060  1.0  -0.6198
  O  O111  1  0.387320  0.582270  0.643930  1.0  -0.6757
  O  O112  1  0.390300  0.442460  0.590060  1.0  -0.621
  O  O113  1  0.805050  0.387320  0.643930  1.0  -0.6754
  O  O114  1  0.947840  0.390300  0.590060  1.0  -0.6194
  O  O115  1  0.582270  0.194950  0.643930  1.0  -0.6751
  O  O116  1  0.442460  0.052160  0.590060  1.0  -0.6191
  O  O117  1  0.612680  0.417730  0.643930  1.0  -0.6756
  O  O118  1  0.609700  0.557540  0.590060  1.0  -0.6199
  O  O119  1  0.582270  0.387320  0.856070  1.0  -0.6756
  O  O120  1  0.442460  0.390300  0.909940  1.0  -0.619
  O  O121  1  0.612680  0.194950  0.856070  1.0  -0.6748
  O  O122  1  0.609700  0.052160  0.909940  1.0  -0.6184
  O  O123  1  0.805050  0.417730  0.856070  1.0  -0.676
  O  O124  1  0.947840  0.557540  0.909940  1.0  -0.6195
  O  O125  1  0.417730  0.612680  0.856070  1.0  -0.6761
  O  O126  1  0.557540  0.609700  0.909940  1.0  -0.6178
  O  O127  1  0.387320  0.805050  0.856070  1.0  -0.6755
  O  O128  1  0.390300  0.947840  0.909940  1.0  -0.6176
  O  O129  1  0.194950  0.582270  0.856070  1.0  -0.6764
  O  O130  1  0.052160  0.442460  0.909940  1.0  -0.6179
  O  O131  1  0.805050  0.387320  0.356070  1.0  -0.6755
  O  O132  1  0.947840  0.390300  0.409940  1.0  -0.6188
  O  O133  1  0.582270  0.194950  0.356070  1.0  -0.675
  O  O134  1  0.442460  0.052160  0.409940  1.0  -0.6188
  O  O135  1  0.612680  0.417730  0.356070  1.0  -0.6763
  O  O136  1  0.609700  0.557540  0.409940  1.0  -0.6194
  O  O137  1  0.194950  0.612680  0.356070  1.0  -0.6762
  O  O138  1  0.052160  0.609700  0.409940  1.0  -0.6191
  O  O139  1  0.417730  0.805050  0.356070  1.0  -0.6755
  O  O140  1  0.557540  0.947840  0.409940  1.0  -0.618
  O  O141  1  0.387320  0.582270  0.356070  1.0  -0.6761
  O  O142  1  0.390300  0.442460  0.409940  1.0  -0.6195
  O  O143  1  0.417730  0.612680  0.143930  1.0  -0.6754
  O  O144  1  0.557540  0.609700  0.090060  1.0  -0.6206
  O  O145  1  0.387320  0.805050  0.143930  1.0  -0.6752
  O  O146  1  0.390300  0.947840  0.090060  1.0  -0.6202
  O  O147  1  0.194950  0.582270  0.143930  1.0  -0.6756
  O  O148  1  0.052160  0.442460  0.090060  1.0  -0.6206
  O  O149  1  0.582270  0.387320  0.143930  1.0  -0.6758
  O  O150  1  0.442460  0.390300  0.090060  1.0  -0.6203
  O  O151  1  0.612680  0.194950  0.143930  1.0  -0.6745
  O  O152  1  0.609700  0.052160  0.090060  1.0  -0.6198
  O  O153  1  0.805050  0.417730  0.143930  1.0  -0.6757
  O  O154  1  0.947840  0.557540  0.090060  1.0  -0.6212
  O  O155  1  0.236250  0.763750  0.750000  1.0  -0.338
  O  O156  1  0.527500  0.763750  0.750000  1.0  -0.3371
  O  O157  1  0.236250  0.472500  0.750000  1.0  -0.3379
  O  O158  1  0.763750  0.236250  0.750000  1.0  -0.3372
  O  O159  1  0.472500  0.236250  0.750000  1.0  -0.338
  O  O160  1  0.763750  0.527500  0.750000  1.0  -0.3383
  O  O161  1  0.763750  0.236250  0.250000  1.0  -0.3372
  O  O162  1  0.472500  0.236250  0.250000  1.0  -0.338
  O  O163  1  0.763750  0.527500  0.250000  1.0  -0.3383
  O  O164  1  0.236250  0.763750  0.250000  1.0  -0.338
  O  O165  1  0.527500  0.763750  0.250000  1.0  -0.3371
  O  O166  1  0.236250  0.472500  0.250000  1.0  -0.3379
