# generated using pymatgen
data_Ni3H38C52(N3O7)2
_symmetry_space_group_name_H-M   'P 1'
_cell_length_a   16.31160000
_cell_length_b   16.31160000
_cell_length_c   30.06000000
_cell_angle_alpha   90.00000000
_cell_angle_beta   90.00000000
_cell_angle_gamma   90.00000000
_symmetry_Int_Tables_number   1
_chemical_formula_structural   Ni3H38C52(N3O7)2
_chemical_formula_sum   'Ni12 H152 C208 N24 O56'
_cell_volume   7998.01293447
_cell_formula_units_Z   4
loop_
 _symmetry_equiv_pos_site_id
 _symmetry_equiv_pos_as_xyz
  1  'x, y, z'
loop_
 _atom_site_type_symbol
 _atom_site_label
 _atom_site_symmetry_multiplicity
 _atom_site_fract_x
 _atom_site_fract_y
 _atom_site_fract_z
 _atom_site_occupancy
 _atom_site_charge
  Ni  Ni1  1  0.010220  0.263470  0.744110  1.0  0.8458
  Ni  Ni2  1  0.989780  0.736530  0.244110  1.0  0.8385
  Ni  Ni3  1  0.736530  0.010220  0.994110  1.0  0.8423
  Ni  Ni4  1  0.263470  0.989780  0.494110  1.0  0.8444
  Ni  Ni5  1  0.989780  0.263470  0.255890  1.0  0.846
  Ni  Ni6  1  0.010220  0.736530  0.755890  1.0  0.8395
  Ni  Ni7  1  0.263470  0.010220  0.005890  1.0  0.8404
  Ni  Ni8  1  0.736530  0.989780  0.505890  1.0  0.8437
  Ni  Ni9  1  0.526340  0.526340  0.875000  1.0  0.6066
  Ni  Ni10  1  0.473660  0.473660  0.375000  1.0  0.6041
  Ni  Ni11  1  0.473660  0.526340  0.125000  1.0  0.6032
  Ni  Ni12  1  0.526340  0.473660  0.625000  1.0  0.6055
  H  H13  1  0.738000  0.387600  0.833000  1.0  0.1075
  H  H14  1  0.860500  0.179700  0.850600  1.0  0.1007
  H  H15  1  0.658900  0.225000  0.922400  1.0  0.1129
  H  H16  1  0.703000  0.547000  0.903400  1.0  0.0756
  H  H17  1  0.782000  0.606000  0.956300  1.0  0.1293
  H  H18  1  0.726100  0.711200  0.000400  1.0  0.127
  H  H19  1  0.587800  0.736000  0.993900  1.0  0.1091
  H  H20  1  0.508700  0.658700  0.947100  1.0  0.0996
  H  H21  1  0.138200  0.398700  0.743400  1.0  0.0833
  H  H22  1  0.226500  0.468900  0.788100  1.0  0.1302
  H  H23  1  0.228900  0.439200  0.864200  1.0  0.1321
  H  H24  1  0.141000  0.335800  0.890000  1.0  0.1291
  H  H25  1  0.056000  0.272300  0.840700  1.0  0.0738
  H  H26  1  0.175500  0.176700  0.762500  1.0  0.1198
  H  H27  1  0.223900  0.064000  0.798100  1.0  0.1136
  H  H28  1  0.138000  0.971600  0.828000  1.0  0.1131
  H  H29  1  0.997500  0.990100  0.822500  1.0  0.1364
  H  H30  1  0.949800  0.105000  0.787000  1.0  0.093
  H  H31  1  0.972000  0.185800  0.681400  1.0  0.407
  H  H32  1  0.262000  0.612400  0.333000  1.0  0.1075
  H  H33  1  0.139500  0.820300  0.350600  1.0  0.1002
  H  H34  1  0.341100  0.775000  0.422400  1.0  0.1128
  H  H35  1  0.297000  0.453000  0.403400  1.0  0.0754
  H  H36  1  0.218000  0.394000  0.456300  1.0  0.1306
  H  H37  1  0.273900  0.288800  0.500400  1.0  0.1275
  H  H38  1  0.412200  0.264000  0.493900  1.0  0.1093
  H  H39  1  0.491300  0.341300  0.447100  1.0  0.0996
  H  H40  1  0.861800  0.601300  0.243400  1.0  0.0829
  H  H41  1  0.773500  0.531100  0.288100  1.0  0.131
  H  H42  1  0.771100  0.560800  0.364200  1.0  0.1325
  H  H43  1  0.859000  0.664200  0.390000  1.0  0.1286
  H  H44  1  0.944000  0.727700  0.340700  1.0  0.0738
  H  H45  1  0.824500  0.823300  0.262500  1.0  0.1195
  H  H46  1  0.776100  0.936000  0.298100  1.0  0.1141
  H  H47  1  0.862000  0.028400  0.328000  1.0  0.1132
  H  H48  1  0.002500  0.009900  0.322500  1.0  0.1355
  H  H49  1  0.050200  0.895000  0.287000  1.0  0.0925
  H  H50  1  0.028000  0.814200  0.181400  1.0  0.4064
  H  H51  1  0.612400  0.738000  0.083000  1.0  0.1072
  H  H52  1  0.820300  0.860500  0.100600  1.0  0.1004
  H  H53  1  0.775000  0.658900  0.172400  1.0  0.1141
  H  H54  1  0.453000  0.703000  0.153400  1.0  0.0758
  H  H55  1  0.394000  0.782000  0.206300  1.0  0.1298
  H  H56  1  0.288800  0.726100  0.250400  1.0  0.1273
  H  H57  1  0.264000  0.587800  0.243900  1.0  0.1086
  H  H58  1  0.341300  0.508700  0.197100  1.0  0.0983
  H  H59  1  0.601300  0.138200  0.993400  1.0  0.0842
  H  H60  1  0.531100  0.226500  0.038100  1.0  0.1317
  H  H61  1  0.560800  0.228900  0.114200  1.0  0.133
  H  H62  1  0.664200  0.141000  0.140000  1.0  0.1292
  H  H63  1  0.727700  0.056000  0.090700  1.0  0.0727
  H  H64  1  0.823300  0.175500  0.012500  1.0  0.12
  H  H65  1  0.936000  0.223900  0.048100  1.0  0.1125
  H  H66  1  0.028400  0.138000  0.078000  1.0  0.1131
  H  H67  1  0.009900  0.997500  0.072500  1.0  0.1351
  H  H68  1  0.895000  0.949800  0.037000  1.0  0.0905
  H  H69  1  0.814200  0.972000  0.931400  1.0  0.4067
  H  H70  1  0.387600  0.262000  0.583000  1.0  0.1073
  H  H71  1  0.179700  0.139500  0.600600  1.0  0.1003
  H  H72  1  0.225000  0.341100  0.672400  1.0  0.1141
  H  H73  1  0.547000  0.297000  0.653400  1.0  0.0759
  H  H74  1  0.606000  0.218000  0.706300  1.0  0.1307
  H  H75  1  0.711200  0.273900  0.750400  1.0  0.1282
  H  H76  1  0.736000  0.412200  0.743900  1.0  0.1084
  H  H77  1  0.658700  0.491300  0.697100  1.0  0.0982
  H  H78  1  0.398700  0.861800  0.493400  1.0  0.084
  H  H79  1  0.468900  0.773500  0.538100  1.0  0.1314
  H  H80  1  0.439200  0.771100  0.614200  1.0  0.132
  H  H81  1  0.335800  0.859000  0.640000  1.0  0.1294
  H  H82  1  0.272300  0.944000  0.590700  1.0  0.073
  H  H83  1  0.176700  0.824500  0.512500  1.0  0.1201
  H  H84  1  0.064000  0.776100  0.548100  1.0  0.1129
  H  H85  1  0.971600  0.862000  0.578000  1.0  0.1132
  H  H86  1  0.990100  0.002500  0.572500  1.0  0.1352
  H  H87  1  0.105000  0.050200  0.537000  1.0  0.0887
  H  H88  1  0.185800  0.028000  0.431400  1.0  0.4064
  H  H89  1  0.262000  0.387600  0.167000  1.0  0.1075
  H  H90  1  0.139500  0.179700  0.149400  1.0  0.1003
  H  H91  1  0.341100  0.225000  0.077600  1.0  0.1132
  H  H92  1  0.297000  0.547000  0.096600  1.0  0.0741
  H  H93  1  0.218000  0.606000  0.043700  1.0  0.1309
  H  H94  1  0.273900  0.711200  0.999600  1.0  0.1272
  H  H95  1  0.412200  0.736000  0.006100  1.0  0.109
  H  H96  1  0.491300  0.658700  0.052900  1.0  0.0995
  H  H97  1  0.861800  0.398700  0.256600  1.0  0.0828
  H  H98  1  0.773500  0.468900  0.211900  1.0  0.131
  H  H99  1  0.771100  0.439200  0.135800  1.0  0.1324
  H  H100  1  0.859000  0.335800  0.110000  1.0  0.1286
  H  H101  1  0.944000  0.272300  0.159300  1.0  0.0746
  H  H102  1  0.824500  0.176700  0.237500  1.0  0.1196
  H  H103  1  0.776100  0.064000  0.201900  1.0  0.1139
  H  H104  1  0.862000  0.971600  0.172000  1.0  0.1128
  H  H105  1  0.002500  0.990100  0.177500  1.0  0.1357
  H  H106  1  0.050200  0.105000  0.213000  1.0  0.0922
  H  H107  1  0.028000  0.185800  0.318600  1.0  0.4061
  H  H108  1  0.738000  0.612400  0.667000  1.0  0.1075
  H  H109  1  0.860500  0.820300  0.649400  1.0  0.1
  H  H110  1  0.658900  0.775000  0.577600  1.0  0.1134
  H  H111  1  0.703000  0.453000  0.596600  1.0  0.0739
  H  H112  1  0.782000  0.394000  0.543700  1.0  0.1294
  H  H113  1  0.726100  0.288800  0.499600  1.0  0.1277
  H  H114  1  0.587800  0.264000  0.506100  1.0  0.1087
  H  H115  1  0.508700  0.341300  0.552900  1.0  0.0997
  H  H116  1  0.138200  0.601300  0.756600  1.0  0.0831
  H  H117  1  0.226500  0.531100  0.711900  1.0  0.131
  H  H118  1  0.228900  0.560800  0.635800  1.0  0.1313
  H  H119  1  0.141000  0.664200  0.610000  1.0  0.1286
  H  H120  1  0.056000  0.727700  0.659300  1.0  0.0739
  H  H121  1  0.175500  0.823300  0.737500  1.0  0.1198
  H  H122  1  0.223900  0.936000  0.701900  1.0  0.1139
  H  H123  1  0.138000  0.028400  0.672000  1.0  0.1127
  H  H124  1  0.997500  0.009900  0.677500  1.0  0.136
  H  H125  1  0.949800  0.895000  0.713000  1.0  0.0931
  H  H126  1  0.972000  0.814200  0.818600  1.0  0.4083
  H  H127  1  0.387600  0.738000  0.917000  1.0  0.1075
  H  H128  1  0.179700  0.860500  0.899400  1.0  0.1
  H  H129  1  0.225000  0.658900  0.827600  1.0  0.1149
  H  H130  1  0.547000  0.703000  0.846600  1.0  0.0743
  H  H131  1  0.606000  0.782000  0.793700  1.0  0.1298
  H  H132  1  0.711200  0.726100  0.749600  1.0  0.1278
  H  H133  1  0.736000  0.587800  0.756100  1.0  0.1083
  H  H134  1  0.658700  0.508700  0.802900  1.0  0.0982
  H  H135  1  0.398700  0.138200  0.006600  1.0  0.0837
  H  H136  1  0.468900  0.226500  0.961900  1.0  0.1312
  H  H137  1  0.439200  0.228900  0.885800  1.0  0.132
  H  H138  1  0.335800  0.141000  0.860000  1.0  0.1296
  H  H139  1  0.272300  0.056000  0.909300  1.0  0.0736
  H  H140  1  0.176700  0.175500  0.987500  1.0  0.1197
  H  H141  1  0.064000  0.223900  0.951900  1.0  0.1127
  H  H142  1  0.971600  0.138000  0.922000  1.0  0.1127
  H  H143  1  0.990100  0.997500  0.927500  1.0  0.1349
  H  H144  1  0.105000  0.949800  0.963000  1.0  0.0905
  H  H145  1  0.185800  0.972000  0.068600  1.0  0.4065
  H  H146  1  0.612400  0.262000  0.417000  1.0  0.1073
  H  H147  1  0.820300  0.139500  0.399400  1.0  0.1007
  H  H148  1  0.775000  0.341100  0.327600  1.0  0.1142
  H  H149  1  0.453000  0.297000  0.346600  1.0  0.0748
  H  H150  1  0.394000  0.218000  0.293700  1.0  0.1301
  H  H151  1  0.288800  0.273900  0.249600  1.0  0.128
  H  H152  1  0.264000  0.412200  0.256100  1.0  0.1082
  H  H153  1  0.341300  0.491300  0.302900  1.0  0.0982
  H  H154  1  0.601300  0.861800  0.506600  1.0  0.084
  H  H155  1  0.531100  0.773500  0.461900  1.0  0.1312
  H  H156  1  0.560800  0.771100  0.385800  1.0  0.1318
  H  H157  1  0.664200  0.859000  0.360000  1.0  0.1286
  H  H158  1  0.727700  0.944000  0.409300  1.0  0.0725
  H  H159  1  0.823300  0.824500  0.487500  1.0  0.1196
  H  H160  1  0.936000  0.776100  0.451900  1.0  0.1132
  H  H161  1  0.028400  0.862000  0.422000  1.0  0.1122
  H  H162  1  0.009900  0.002500  0.427500  1.0  0.1346
  H  H163  1  0.895000  0.050200  0.463000  1.0  0.0885
  H  H164  1  0.814200  0.028000  0.568600  1.0  0.4075
  C  C165  1  0.615600  0.367400  0.891300  1.0  0.7164
  C  C166  1  0.686600  0.315600  0.879700  1.0  -0.1718
  C  C167  1  0.744200  0.337800  0.847700  1.0  -0.0245
  C  C168  1  0.809800  0.288800  0.837000  1.0  -0.1755
  C  C169  1  0.868600  0.312600  0.800900  1.0  0.7115
  C  C170  1  0.817300  0.214200  0.858200  1.0  0.0098
  C  C171  1  0.762800  0.189900  0.890100  1.0  -0.1451
  C  C172  1  0.772800  0.107800  0.913000  1.0  0.6774
  C  C173  1  0.696400  0.241300  0.900800  1.0  -0.0289
  C  C174  1  0.678200  0.581300  0.924200  1.0  0.1809
  C  C175  1  0.727000  0.620000  0.953900  1.0  -0.1545
  C  C176  1  0.693800  0.681200  0.980800  1.0  -0.1656
  C  C177  1  0.612100  0.694800  0.977000  1.0  -0.113
  C  C178  1  0.564700  0.648600  0.948500  1.0  0.1349
  C  C179  1  0.138400  0.386300  0.773600  1.0  0.1898
  C  C180  1  0.192200  0.429100  0.800100  1.0  -0.1692
  C  C181  1  0.194000  0.411400  0.844900  1.0  -0.1411
  C  C182  1  0.141700  0.350700  0.860100  1.0  -0.1677
  C  C183  1  0.090800  0.312800  0.830000  1.0  0.1821
  C  C184  1  0.138600  0.139500  0.774600  1.0  0.1226
  C  C185  1  0.167600  0.072000  0.795900  1.0  -0.0536
  C  C186  1  0.117000  0.017400  0.813500  1.0  -0.074
  C  C187  1  0.033800  0.028100  0.810500  1.0  -0.1585
  C  C188  1  0.006200  0.097100  0.788900  1.0  0.1653
  C  C189  1  0.863600  0.218300  0.683700  1.0  0.0826
  C  C190  1  0.824800  0.161500  0.649500  1.0  -0.0124
  C  C191  1  0.384400  0.632600  0.391300  1.0  0.7173
  C  C192  1  0.313400  0.684400  0.379700  1.0  -0.1734
  C  C193  1  0.255800  0.662200  0.347700  1.0  -0.0241
  C  C194  1  0.190200  0.711200  0.337000  1.0  -0.1754
  C  C195  1  0.131400  0.687400  0.300900  1.0  0.7126
  C  C196  1  0.182700  0.785800  0.358200  1.0  0.0117
  C  C197  1  0.237200  0.810100  0.390100  1.0  -0.1442
  C  C198  1  0.227200  0.892200  0.413000  1.0  0.677
  C  C199  1  0.303600  0.758700  0.400800  1.0  -0.0286
  C  C200  1  0.321800  0.418700  0.424200  1.0  0.1813
  C  C201  1  0.273000  0.380000  0.453900  1.0  -0.1558
  C  C202  1  0.306200  0.318800  0.480800  1.0  -0.168
  C  C203  1  0.387900  0.305200  0.477000  1.0  -0.1123
  C  C204  1  0.435300  0.351400  0.448500  1.0  0.1365
  C  C205  1  0.861600  0.613700  0.273600  1.0  0.1902
  C  C206  1  0.807800  0.570900  0.300100  1.0  -0.1696
  C  C207  1  0.806000  0.588600  0.344900  1.0  -0.1434
  C  C208  1  0.858300  0.649300  0.360100  1.0  -0.1672
  C  C209  1  0.909200  0.687200  0.330000  1.0  0.1835
  C  C210  1  0.861400  0.860500  0.274600  1.0  0.1218
  C  C211  1  0.832400  0.928000  0.295900  1.0  -0.0526
  C  C212  1  0.883000  0.982600  0.313500  1.0  -0.0737
  C  C213  1  0.966200  0.971900  0.310500  1.0  -0.1585
  C  C214  1  0.993800  0.902900  0.288900  1.0  0.1657
  C  C215  1  0.136400  0.781700  0.183700  1.0  0.0841
  C  C216  1  0.175200  0.838500  0.149500  1.0  -0.0102
  C  C217  1  0.632600  0.615600  0.141300  1.0  0.7163
  C  C218  1  0.684400  0.686600  0.129700  1.0  -0.1712
  C  C219  1  0.662200  0.744200  0.097700  1.0  -0.0261
  C  C220  1  0.711200  0.809800  0.087000  1.0  -0.177
  C  C221  1  0.687400  0.868600  0.050900  1.0  0.7138
  C  C222  1  0.785800  0.817300  0.108200  1.0  0.0117
  C  C223  1  0.810100  0.762800  0.140100  1.0  -0.1444
  C  C224  1  0.892200  0.772800  0.163000  1.0  0.6763
  C  C225  1  0.758700  0.696400  0.150800  1.0  -0.0279
  C  C226  1  0.418700  0.678200  0.174200  1.0  0.1803
  C  C227  1  0.380000  0.727000  0.203900  1.0  -0.1525
  C  C228  1  0.318800  0.693800  0.230800  1.0  -0.1672
  C  C229  1  0.305200  0.612100  0.227000  1.0  -0.1143
  C  C230  1  0.351400  0.564700  0.198500  1.0  0.1374
  C  C231  1  0.613700  0.138400  0.023600  1.0  0.1878
  C  C232  1  0.570900  0.192200  0.050100  1.0  -0.1699
  C  C233  1  0.588600  0.194000  0.094900  1.0  -0.1436
  C  C234  1  0.649300  0.141700  0.110100  1.0  -0.1671
  C  C235  1  0.687200  0.090800  0.080000  1.0  0.1824
  C  C236  1  0.860500  0.138600  0.024600  1.0  0.1195
  C  C237  1  0.928000  0.167600  0.045900  1.0  -0.051
  C  C238  1  0.982600  0.117000  0.063500  1.0  -0.0732
  C  C239  1  0.971900  0.033800  0.060500  1.0  -0.1564
  C  C240  1  0.902900  0.006200  0.038900  1.0  0.1636
  C  C241  1  0.781700  0.863600  0.933700  1.0  0.0844
  C  C242  1  0.838500  0.824800  0.899500  1.0  -0.01
  C  C243  1  0.367400  0.384400  0.641300  1.0  0.7165
  C  C244  1  0.315600  0.313400  0.629700  1.0  -0.1706
  C  C245  1  0.337800  0.255800  0.597700  1.0  -0.0248
  C  C246  1  0.288800  0.190200  0.587000  1.0  -0.178
  C  C247  1  0.312600  0.131400  0.550900  1.0  0.7138
  C  C248  1  0.214200  0.182700  0.608200  1.0  0.0127
  C  C249  1  0.189900  0.237200  0.640100  1.0  -0.1436
  C  C250  1  0.107800  0.227200  0.663000  1.0  0.6752
  C  C251  1  0.241300  0.303600  0.650800  1.0  -0.0287
  C  C252  1  0.581300  0.321800  0.674200  1.0  0.1799
  C  C253  1  0.620000  0.273000  0.703900  1.0  -0.1556
  C  C254  1  0.681200  0.306200  0.730800  1.0  -0.1684
  C  C255  1  0.694800  0.387900  0.727000  1.0  -0.1128
  C  C256  1  0.648600  0.435300  0.698500  1.0  0.1372
  C  C257  1  0.386300  0.861600  0.523600  1.0  0.1884
  C  C258  1  0.429100  0.807800  0.550100  1.0  -0.1684
  C  C259  1  0.411400  0.806000  0.594900  1.0  -0.1418
  C  C260  1  0.350700  0.858300  0.610100  1.0  -0.1669
  C  C261  1  0.312800  0.909200  0.580000  1.0  0.184
  C  C262  1  0.139500  0.861400  0.524600  1.0  0.1191
  C  C263  1  0.072000  0.832400  0.545900  1.0  -0.0523
  C  C264  1  0.017400  0.883000  0.563500  1.0  -0.0737
  C  C265  1  0.028100  0.966200  0.560500  1.0  -0.1571
  C  C266  1  0.097100  0.993800  0.538900  1.0  0.1631
  C  C267  1  0.218300  0.136400  0.433700  1.0  0.0853
  C  C268  1  0.161500  0.175200  0.399500  1.0  -0.0089
  C  C269  1  0.384400  0.367400  0.108700  1.0  0.718
  C  C270  1  0.313400  0.315600  0.120300  1.0  -0.1725
  C  C271  1  0.255800  0.337800  0.152300  1.0  -0.0233
  C  C272  1  0.190200  0.288800  0.163000  1.0  -0.174
  C  C273  1  0.131400  0.312600  0.199100  1.0  0.7116
  C  C274  1  0.182700  0.214200  0.141800  1.0  0.011
  C  C275  1  0.237200  0.189900  0.109900  1.0  -0.1449
  C  C276  1  0.227200  0.107800  0.087000  1.0  0.6787
  C  C277  1  0.303600  0.241300  0.099200  1.0  -0.0286
  C  C278  1  0.321800  0.581300  0.075800  1.0  0.1809
  C  C279  1  0.273000  0.620000  0.046100  1.0  -0.1561
  C  C280  1  0.306200  0.681200  0.019200  1.0  -0.1673
  C  C281  1  0.387900  0.694800  0.023000  1.0  -0.1133
  C  C282  1  0.435300  0.648600  0.051500  1.0  0.1366
  C  C283  1  0.861600  0.386300  0.226400  1.0  0.1882
  C  C284  1  0.807800  0.429100  0.199900  1.0  -0.1709
  C  C285  1  0.806000  0.411400  0.155100  1.0  -0.14
  C  C286  1  0.858300  0.350700  0.139900  1.0  -0.1678
  C  C287  1  0.909200  0.312800  0.170000  1.0  0.1827
  C  C288  1  0.861400  0.139500  0.225400  1.0  0.1234
  C  C289  1  0.832400  0.072000  0.204100  1.0  -0.0525
  C  C290  1  0.883000  0.017400  0.186500  1.0  -0.0748
  C  C291  1  0.966200  0.028100  0.189500  1.0  -0.1586
  C  C292  1  0.993800  0.097100  0.211100  1.0  0.1661
  C  C293  1  0.136400  0.218300  0.316300  1.0  0.0837
  C  C294  1  0.175200  0.161500  0.350500  1.0  -0.0112
  C  C295  1  0.615600  0.632600  0.608700  1.0  0.7177
  C  C296  1  0.686600  0.684400  0.620300  1.0  -0.1718
  C  C297  1  0.744200  0.662200  0.652300  1.0  -0.0243
  C  C298  1  0.809800  0.711200  0.663000  1.0  -0.175
  C  C299  1  0.868600  0.687400  0.699100  1.0  0.7123
  C  C300  1  0.817300  0.785800  0.641800  1.0  0.0097
  C  C301  1  0.762800  0.810100  0.609900  1.0  -0.1447
  C  C302  1  0.772800  0.892200  0.587000  1.0  0.6765
  C  C303  1  0.696400  0.758700  0.599200  1.0  -0.0286
  C  C304  1  0.678200  0.418700  0.575800  1.0  0.1795
  C  C305  1  0.727000  0.380000  0.546100  1.0  -0.1548
  C  C306  1  0.693800  0.318800  0.519200  1.0  -0.1658
  C  C307  1  0.612100  0.305200  0.523000  1.0  -0.1123
  C  C308  1  0.564700  0.351400  0.551500  1.0  0.1347
  C  C309  1  0.138400  0.613700  0.726400  1.0  0.1888
  C  C310  1  0.192200  0.570900  0.699900  1.0  -0.1694
  C  C311  1  0.194000  0.588600  0.655100  1.0  -0.1398
  C  C312  1  0.141700  0.649300  0.639900  1.0  -0.1681
  C  C313  1  0.090800  0.687200  0.670000  1.0  0.1831
  C  C314  1  0.138600  0.860500  0.725400  1.0  0.1225
  C  C315  1  0.167600  0.928000  0.704100  1.0  -0.0531
  C  C316  1  0.117000  0.982600  0.686500  1.0  -0.0747
  C  C317  1  0.033800  0.971900  0.689500  1.0  -0.1589
  C  C318  1  0.006200  0.902900  0.711100  1.0  0.1655
  C  C319  1  0.863600  0.781700  0.816300  1.0  0.0828
  C  C320  1  0.824800  0.838500  0.850500  1.0  -0.0091
  C  C321  1  0.367400  0.615600  0.858700  1.0  0.7163
  C  C322  1  0.315600  0.686600  0.870300  1.0  -0.1705
  C  C323  1  0.337800  0.744200  0.902300  1.0  -0.0243
  C  C324  1  0.288800  0.809800  0.913000  1.0  -0.1772
  C  C325  1  0.312600  0.868600  0.949100  1.0  0.7131
  C  C326  1  0.214200  0.817300  0.891800  1.0  0.0126
  C  C327  1  0.189900  0.762800  0.859900  1.0  -0.1449
  C  C328  1  0.107800  0.772800  0.837000  1.0  0.6759
  C  C329  1  0.241300  0.696400  0.849200  1.0  -0.0283
  C  C330  1  0.581300  0.678200  0.825800  1.0  0.179
  C  C331  1  0.620000  0.727000  0.796100  1.0  -0.1545
  C  C332  1  0.681200  0.693800  0.769200  1.0  -0.1678
  C  C333  1  0.694800  0.612100  0.773000  1.0  -0.1131
  C  C334  1  0.648600  0.564700  0.801500  1.0  0.1374
  C  C335  1  0.386300  0.138400  0.976400  1.0  0.1873
  C  C336  1  0.429100  0.192200  0.949900  1.0  -0.1706
  C  C337  1  0.411400  0.194000  0.905100  1.0  -0.141
  C  C338  1  0.350700  0.141700  0.889900  1.0  -0.1668
  C  C339  1  0.312800  0.090800  0.920000  1.0  0.1839
  C  C340  1  0.139500  0.138600  0.975400  1.0  0.1193
  C  C341  1  0.072000  0.167600  0.954100  1.0  -0.051
  C  C342  1  0.017400  0.117000  0.936500  1.0  -0.0751
  C  C343  1  0.028100  0.033800  0.939500  1.0  -0.157
  C  C344  1  0.097100  0.006200  0.961100  1.0  0.163
  C  C345  1  0.218300  0.863600  0.066300  1.0  0.0867
  C  C346  1  0.161500  0.824800  0.100500  1.0  -0.0101
  C  C347  1  0.632600  0.384400  0.358700  1.0  0.7189
  C  C348  1  0.684400  0.313400  0.370300  1.0  -0.1696
  C  C349  1  0.662200  0.255800  0.402300  1.0  -0.0255
  C  C350  1  0.711200  0.190200  0.413000  1.0  -0.1771
  C  C351  1  0.687400  0.131400  0.449100  1.0  0.7134
  C  C352  1  0.785800  0.182700  0.391800  1.0  0.0112
  C  C353  1  0.810100  0.237200  0.359900  1.0  -0.1442
  C  C354  1  0.892200  0.227200  0.337000  1.0  0.6759
  C  C355  1  0.758700  0.303600  0.349200  1.0  -0.0281
  C  C356  1  0.418700  0.321800  0.325800  1.0  0.1799
  C  C357  1  0.380000  0.273000  0.296100  1.0  -0.1547
  C  C358  1  0.318800  0.306200  0.269200  1.0  -0.1677
  C  C359  1  0.305200  0.387900  0.273000  1.0  -0.1137
  C  C360  1  0.351400  0.435300  0.301500  1.0  0.1371
  C  C361  1  0.613700  0.861600  0.476400  1.0  0.1868
  C  C362  1  0.570900  0.807800  0.449900  1.0  -0.1699
  C  C363  1  0.588600  0.806000  0.405100  1.0  -0.1396
  C  C364  1  0.649300  0.858300  0.389900  1.0  -0.1676
  C  C365  1  0.687200  0.909200  0.420000  1.0  0.1834
  C  C366  1  0.860500  0.861400  0.475400  1.0  0.1204
  C  C367  1  0.928000  0.832400  0.454100  1.0  -0.0524
  C  C368  1  0.982600  0.883000  0.436500  1.0  -0.0731
  C  C369  1  0.971900  0.966200  0.439500  1.0  -0.1556
  C  C370  1  0.902900  0.993800  0.461100  1.0  0.164
  C  C371  1  0.781700  0.136400  0.566300  1.0  0.0835
  C  C372  1  0.838500  0.175200  0.600500  1.0  -0.0074
  N  N373  1  0.596800  0.589100  0.922700  1.0  -0.3037
  N  N374  1  0.087300  0.329300  0.787300  1.0  -0.3088
  N  N375  1  0.055400  0.154100  0.770400  1.0  -0.3211
  N  N376  1  0.403200  0.410900  0.422700  1.0  -0.302
  N  N377  1  0.912700  0.670700  0.287300  1.0  -0.3077
  N  N378  1  0.944600  0.845900  0.270400  1.0  -0.3209
  N  N379  1  0.410900  0.596800  0.172700  1.0  -0.303
  N  N380  1  0.670700  0.087300  0.037300  1.0  -0.3082
  N  N381  1  0.845900  0.055400  0.020400  1.0  -0.322
  N  N382  1  0.589100  0.403200  0.672700  1.0  -0.3023
  N  N383  1  0.329300  0.912700  0.537300  1.0  -0.3093
  N  N384  1  0.154100  0.944600  0.520400  1.0  -0.3204
  N  N385  1  0.403200  0.589100  0.077300  1.0  -0.3022
  N  N386  1  0.912700  0.329300  0.212700  1.0  -0.307
  N  N387  1  0.944600  0.154100  0.229600  1.0  -0.3215
  N  N388  1  0.596800  0.410900  0.577300  1.0  -0.3025
  N  N389  1  0.087300  0.670700  0.712700  1.0  -0.3093
  N  N390  1  0.055400  0.845900  0.729600  1.0  -0.3215
  N  N391  1  0.589100  0.596800  0.827300  1.0  -0.3031
  N  N392  1  0.329300  0.087300  0.962700  1.0  -0.3082
  N  N393  1  0.154100  0.055400  0.979600  1.0  -0.3206
  N  N394  1  0.410900  0.403200  0.327300  1.0  -0.303
  N  N395  1  0.670700  0.912700  0.462700  1.0  -0.3086
  N  N396  1  0.845900  0.944600  0.479600  1.0  -0.3224
  O  O397  1  0.612800  0.437500  0.871900  1.0  -0.5877
  O  O398  1  0.562500  0.340800  0.918200  1.0  -0.5367
  O  O399  1  0.862300  0.384800  0.783800  1.0  -0.5134
  O  O400  1  0.920800  0.260400  0.788600  1.0  -0.6017
  O  O401  1  0.731200  0.099400  0.948000  1.0  -0.5915
  O  O402  1  0.824000  0.059500  0.898600  1.0  -0.563
  O  O403  1  0.937800  0.188900  0.701300  1.0  -0.6254
  O  O404  1  0.387200  0.562500  0.371900  1.0  -0.5874
  O  O405  1  0.437500  0.659200  0.418200  1.0  -0.5363
  O  O406  1  0.137700  0.615200  0.283800  1.0  -0.515
  O  O407  1  0.079200  0.739600  0.288600  1.0  -0.6023
  O  O408  1  0.268800  0.900600  0.448000  1.0  -0.5915
  O  O409  1  0.176000  0.940500  0.398600  1.0  -0.5619
  O  O410  1  0.062200  0.811100  0.201300  1.0  -0.6262
  O  O411  1  0.562500  0.612800  0.121900  1.0  -0.5871
  O  O412  1  0.659200  0.562500  0.168200  1.0  -0.5358
  O  O413  1  0.615200  0.862300  0.033800  1.0  -0.5205
  O  O414  1  0.739600  0.920800  0.038600  1.0  -0.6013
  O  O415  1  0.900600  0.731200  0.198000  1.0  -0.5919
  O  O416  1  0.940500  0.824000  0.148600  1.0  -0.5637
  O  O417  1  0.811100  0.937800  0.951300  1.0  -0.627
  O  O418  1  0.437500  0.387200  0.621900  1.0  -0.5875
  O  O419  1  0.340800  0.437500  0.668200  1.0  -0.5353
  O  O420  1  0.384800  0.137700  0.533800  1.0  -0.5169
  O  O421  1  0.260400  0.079200  0.538600  1.0  -0.6022
  O  O422  1  0.099400  0.268800  0.698000  1.0  -0.5925
  O  O423  1  0.059500  0.176000  0.648600  1.0  -0.5646
  O  O424  1  0.188900  0.062200  0.451300  1.0  -0.6265
  O  O425  1  0.387200  0.437500  0.128100  1.0  -0.5877
  O  O426  1  0.437500  0.340800  0.081800  1.0  -0.5373
  O  O427  1  0.137700  0.384800  0.216200  1.0  -0.5152
  O  O428  1  0.079200  0.260400  0.211400  1.0  -0.6026
  O  O429  1  0.268800  0.099400  0.052000  1.0  -0.5908
  O  O430  1  0.176000  0.059500  0.101400  1.0  -0.5633
  O  O431  1  0.062200  0.188900  0.298700  1.0  -0.6316
  O  O432  1  0.612800  0.562500  0.628100  1.0  -0.5881
  O  O433  1  0.562500  0.659200  0.581800  1.0  -0.5374
  O  O434  1  0.862300  0.615200  0.716200  1.0  -0.5146
  O  O435  1  0.920800  0.739600  0.711400  1.0  -0.6019
  O  O436  1  0.731200  0.900600  0.552000  1.0  -0.5913
  O  O437  1  0.824000  0.940500  0.601400  1.0  -0.564
  O  O438  1  0.937800  0.811100  0.798700  1.0  -0.6286
  O  O439  1  0.437500  0.612800  0.878100  1.0  -0.5875
  O  O440  1  0.340800  0.562500  0.831800  1.0  -0.5369
  O  O441  1  0.384800  0.862300  0.966200  1.0  -0.5166
  O  O442  1  0.260400  0.920800  0.961400  1.0  -0.6019
  O  O443  1  0.099400  0.731200  0.802000  1.0  -0.5912
  O  O444  1  0.059500  0.824000  0.851400  1.0  -0.5645
  O  O445  1  0.188900  0.937800  0.048700  1.0  -0.631
  O  O446  1  0.562500  0.387200  0.378100  1.0  -0.5879
  O  O447  1  0.659200  0.437500  0.331800  1.0  -0.5375
  O  O448  1  0.615200  0.137700  0.466200  1.0  -0.5195
  O  O449  1  0.739600  0.079200  0.461400  1.0  -0.6019
  O  O450  1  0.900600  0.268800  0.302000  1.0  -0.5916
  O  O451  1  0.940500  0.176000  0.351400  1.0  -0.5645
  O  O452  1  0.811100  0.062200  0.548700  1.0  -0.6296
