# generated using pymatgen
data_NiH16C18(NO2)2
_symmetry_space_group_name_H-M   'P 1'
_cell_length_a   22.58920000
_cell_length_b   22.58920000
_cell_length_c   22.58920000
_cell_angle_alpha   60.00000000
_cell_angle_beta   60.00000000
_cell_angle_gamma   60.00000000
_symmetry_Int_Tables_number   1
_chemical_formula_structural   NiH16C18(NO2)2
_chemical_formula_sum   'Ni12 H192 C216 N24 O48'
_cell_volume   8150.56197283
_cell_formula_units_Z   12
loop_
 _symmetry_equiv_pos_site_id
 _symmetry_equiv_pos_as_xyz
  1  'x, y, z'
loop_
 _atom_site_type_symbol
 _atom_site_label
 _atom_site_symmetry_multiplicity
 _atom_site_fract_x
 _atom_site_fract_y
 _atom_site_fract_z
 _atom_site_occupancy
 _atom_site_charge
  Ni  Ni1  1  0.125000  0.625000  0.396800  1.0  0.6402
  Ni  Ni2  1  0.625000  0.125000  0.853200  1.0  0.6465
  Ni  Ni3  1  0.396800  0.853200  0.125000  1.0  0.6311
  Ni  Ni4  1  0.853200  0.396800  0.625000  1.0  0.6344
  Ni  Ni5  1  0.125000  0.396800  0.853200  1.0  0.6342
  Ni  Ni6  1  0.625000  0.853200  0.396800  1.0  0.6311
  Ni  Ni7  1  0.396800  0.125000  0.625000  1.0  0.6393
  Ni  Ni8  1  0.853200  0.625000  0.125000  1.0  0.6439
  Ni  Ni9  1  0.125000  0.853200  0.625000  1.0  0.6385
  Ni  Ni10  1  0.625000  0.396800  0.125000  1.0  0.6323
  Ni  Ni11  1  0.396800  0.625000  0.853200  1.0  0.6425
  Ni  Ni12  1  0.853200  0.125000  0.396800  1.0  0.64
  H  H13  1  0.349700  0.504700  0.311100  1.0  0.1047
  H  H14  1  0.265900  0.646900  0.275700  1.0  0.0923
  H  H15  1  0.309000  0.701000  0.153400  1.0  0.1365
  H  H16  1  0.204000  0.808200  0.037000  1.0  0.1256
  H  H17  1  0.278500  0.745100  0.033900  1.0  0.1284
  H  H18  1  0.265200  0.813800  0.046200  1.0  0.1317
  H  H19  1  0.111200  0.776600  0.146200  1.0  0.1363
  H  H20  1  0.074100  0.718900  0.267700  1.0  0.0805
  H  H21  1  0.504700  0.349700  0.834500  1.0  0.1036
  H  H22  1  0.646900  0.265900  0.811500  1.0  0.0928
  H  H23  1  0.701000  0.309000  0.836600  1.0  0.1332
  H  H24  1  0.808200  0.204000  0.950800  1.0  0.1261
  H  H25  1  0.745100  0.278500  0.942500  1.0  0.1288
  H  H26  1  0.813800  0.265200  0.874800  1.0  0.1324
  H  H27  1  0.776600  0.111200  0.966000  1.0  0.1364
  H  H28  1  0.718900  0.074100  0.939300  1.0  0.0805
  H  H29  1  0.311100  0.834500  0.349700  1.0  0.1051
  H  H30  1  0.275700  0.811500  0.265900  1.0  0.092
  H  H31  1  0.153400  0.836600  0.309000  1.0  0.1329
  H  H32  1  0.037000  0.950800  0.204000  1.0  0.1256
  H  H33  1  0.033900  0.942500  0.278500  1.0  0.1291
  H  H34  1  0.046200  0.874800  0.265200  1.0  0.1327
  H  H35  1  0.146200  0.966000  0.111200  1.0  0.1373
  H  H36  1  0.267700  0.939300  0.074100  1.0  0.0786
  H  H37  1  0.834500  0.311100  0.504700  1.0  0.1043
  H  H38  1  0.811500  0.275700  0.646900  1.0  0.091
  H  H39  1  0.836600  0.153400  0.701000  1.0  0.1329
  H  H40  1  0.950800  0.037000  0.808200  1.0  0.1263
  H  H41  1  0.942500  0.033900  0.745100  1.0  0.1296
  H  H42  1  0.874800  0.046200  0.813800  1.0  0.1289
  H  H43  1  0.966000  0.146200  0.776600  1.0  0.1358
  H  H44  1  0.939300  0.267700  0.718900  1.0  0.0784
  H  H45  1  0.349700  0.311100  0.834500  1.0  0.106
  H  H46  1  0.265900  0.275700  0.811500  1.0  0.0924
  H  H47  1  0.309000  0.153400  0.836600  1.0  0.134
  H  H48  1  0.204000  0.037000  0.950800  1.0  0.1285
  H  H49  1  0.278500  0.033900  0.942500  1.0  0.1287
  H  H50  1  0.265200  0.046200  0.874800  1.0  0.1308
  H  H51  1  0.111200  0.146200  0.966000  1.0  0.1372
  H  H52  1  0.074100  0.267700  0.939300  1.0  0.079
  H  H53  1  0.504700  0.834500  0.311100  1.0  0.1059
  H  H54  1  0.646900  0.811500  0.275700  1.0  0.0908
  H  H55  1  0.701000  0.836600  0.153400  1.0  0.1338
  H  H56  1  0.808200  0.950800  0.037000  1.0  0.1284
  H  H57  1  0.745100  0.942500  0.033900  1.0  0.1284
  H  H58  1  0.813800  0.874800  0.046200  1.0  0.1332
  H  H59  1  0.776600  0.966000  0.146200  1.0  0.1369
  H  H60  1  0.718900  0.939300  0.267700  1.0  0.0804
  H  H61  1  0.311100  0.349700  0.504700  1.0  0.1051
  H  H62  1  0.275700  0.265900  0.646900  1.0  0.0917
  H  H63  1  0.153400  0.309000  0.701000  1.0  0.132
  H  H64  1  0.037000  0.204000  0.808200  1.0  0.1267
  H  H65  1  0.033900  0.278500  0.745100  1.0  0.1272
  H  H66  1  0.046200  0.265200  0.813800  1.0  0.1306
  H  H67  1  0.146200  0.111200  0.776600  1.0  0.1361
  H  H68  1  0.267700  0.074100  0.718900  1.0  0.0791
  H  H69  1  0.834500  0.504700  0.349700  1.0  0.1042
  H  H70  1  0.811500  0.646900  0.265900  1.0  0.0914
  H  H71  1  0.836600  0.701000  0.309000  1.0  0.1339
  H  H72  1  0.950800  0.808200  0.204000  1.0  0.1289
  H  H73  1  0.942500  0.745100  0.278500  1.0  0.1288
  H  H74  1  0.874800  0.813800  0.265200  1.0  0.1316
  H  H75  1  0.966000  0.776600  0.111200  1.0  0.138
  H  H76  1  0.939300  0.718900  0.074100  1.0  0.0797
  H  H77  1  0.349700  0.834500  0.504700  1.0  0.1075
  H  H78  1  0.265900  0.811500  0.646900  1.0  0.0915
  H  H79  1  0.309000  0.836600  0.701000  1.0  0.1353
  H  H80  1  0.204000  0.950800  0.808200  1.0  0.1258
  H  H81  1  0.278500  0.942500  0.745100  1.0  0.1297
  H  H82  1  0.265200  0.874800  0.813800  1.0  0.1318
  H  H83  1  0.111200  0.966000  0.776600  1.0  0.1354
  H  H84  1  0.074100  0.939300  0.718900  1.0  0.0793
  H  H85  1  0.504700  0.311100  0.349700  1.0  0.1052
  H  H86  1  0.646900  0.275700  0.265900  1.0  0.0924
  H  H87  1  0.701000  0.153400  0.309000  1.0  0.1331
  H  H88  1  0.808200  0.037000  0.204000  1.0  0.125
  H  H89  1  0.745100  0.033900  0.278500  1.0  0.1303
  H  H90  1  0.813800  0.046200  0.265200  1.0  0.1313
  H  H91  1  0.776600  0.146200  0.111200  1.0  0.1364
  H  H92  1  0.718900  0.267700  0.074100  1.0  0.0805
  H  H93  1  0.311100  0.504700  0.834500  1.0  0.1055
  H  H94  1  0.275700  0.646900  0.811500  1.0  0.093
  H  H95  1  0.153400  0.701000  0.836600  1.0  0.1322
  H  H96  1  0.037000  0.808200  0.950800  1.0  0.1252
  H  H97  1  0.033900  0.745100  0.942500  1.0  0.13
  H  H98  1  0.046200  0.813800  0.874800  1.0  0.1313
  H  H99  1  0.146200  0.776600  0.966000  1.0  0.1355
  H  H100  1  0.267700  0.718900  0.939300  1.0  0.0824
  H  H101  1  0.834500  0.349700  0.311100  1.0  0.1056
  H  H102  1  0.811500  0.265900  0.275700  1.0  0.0919
  H  H103  1  0.836600  0.309000  0.153400  1.0  0.1331
  H  H104  1  0.950800  0.204000  0.037000  1.0  0.1253
  H  H105  1  0.942500  0.278500  0.033900  1.0  0.1302
  H  H106  1  0.874800  0.265200  0.046200  1.0  0.1311
  H  H107  1  0.966000  0.111200  0.146200  1.0  0.1358
  H  H108  1  0.939300  0.074100  0.267700  1.0  0.0802
  H  H109  1  0.745300  0.900300  0.938900  1.0  0.1042
  H  H110  1  0.603100  0.984100  0.974300  1.0  0.0926
  H  H111  1  0.549000  0.941000  0.096600  1.0  0.1329
  H  H112  1  0.441800  0.046000  0.213000  1.0  0.1251
  H  H113  1  0.504900  0.971500  0.216100  1.0  0.1283
  H  H114  1  0.436200  0.984800  0.203800  1.0  0.1319
  H  H115  1  0.473400  0.138800  0.103800  1.0  0.1363
  H  H116  1  0.531100  0.175900  0.982300  1.0  0.0796
  H  H117  1  0.900300  0.745300  0.415500  1.0  0.1048
  H  H118  1  0.984100  0.603100  0.438500  1.0  0.0925
  H  H119  1  0.941000  0.549000  0.413400  1.0  0.1366
  H  H120  1  0.046000  0.441800  0.299200  1.0  0.1247
  H  H121  1  0.971500  0.504900  0.307500  1.0  0.1295
  H  H122  1  0.984800  0.436200  0.375200  1.0  0.1317
  H  H123  1  0.138800  0.473400  0.284000  1.0  0.1364
  H  H124  1  0.175900  0.531100  0.310700  1.0  0.0825
  H  H125  1  0.415500  0.938900  0.900300  1.0  0.1041
  H  H126  1  0.438500  0.974300  0.984100  1.0  0.0916
  H  H127  1  0.413400  0.096600  0.941000  1.0  0.133
  H  H128  1  0.299200  0.213000  0.046000  1.0  0.1263
  H  H129  1  0.307500  0.216100  0.971500  1.0  0.1296
  H  H130  1  0.375200  0.203800  0.984800  1.0  0.1292
  H  H131  1  0.284000  0.103800  0.138800  1.0  0.136
  H  H132  1  0.310700  0.982300  0.175900  1.0  0.0791
  H  H133  1  0.938900  0.415500  0.745300  1.0  0.1052
  H  H134  1  0.974300  0.438500  0.603100  1.0  0.0922
  H  H135  1  0.096600  0.413400  0.549000  1.0  0.1332
  H  H136  1  0.213000  0.299200  0.441800  1.0  0.1251
  H  H137  1  0.216100  0.307500  0.504900  1.0  0.1294
  H  H138  1  0.203800  0.375200  0.436200  1.0  0.1337
  H  H139  1  0.103800  0.284000  0.473400  1.0  0.1372
  H  H140  1  0.982300  0.310700  0.531100  1.0  0.0784
  H  H141  1  0.938900  0.900300  0.415500  1.0  0.1065
  H  H142  1  0.974300  0.984100  0.438500  1.0  0.0917
  H  H143  1  0.096600  0.941000  0.413400  1.0  0.1317
  H  H144  1  0.213000  0.046000  0.299200  1.0  0.1258
  H  H145  1  0.216100  0.971500  0.307500  1.0  0.1262
  H  H146  1  0.203800  0.984800  0.375200  1.0  0.1307
  H  H147  1  0.103800  0.138800  0.284000  1.0  0.1368
  H  H148  1  0.982300  0.175900  0.310700  1.0  0.0795
  H  H149  1  0.415500  0.745300  0.938900  1.0  0.1039
  H  H150  1  0.438500  0.603100  0.974300  1.0  0.0916
  H  H151  1  0.413400  0.549000  0.096600  1.0  0.1333
  H  H152  1  0.299200  0.441800  0.213000  1.0  0.1271
  H  H153  1  0.307500  0.504900  0.216100  1.0  0.1284
  H  H154  1  0.375200  0.436200  0.203800  1.0  0.132
  H  H155  1  0.284000  0.473400  0.103800  1.0  0.1371
  H  H156  1  0.310700  0.531100  0.982300  1.0  0.08
  H  H157  1  0.900300  0.938900  0.745300  1.0  0.1065
  H  H158  1  0.984100  0.974300  0.603100  1.0  0.0918
  H  H159  1  0.941000  0.096600  0.549000  1.0  0.1337
  H  H160  1  0.046000  0.213000  0.441800  1.0  0.1295
  H  H161  1  0.971500  0.216100  0.504900  1.0  0.1292
  H  H162  1  0.984800  0.203800  0.436200  1.0  0.13
  H  H163  1  0.138800  0.103800  0.473400  1.0  0.1375
  H  H164  1  0.175900  0.982300  0.531100  1.0  0.0794
  H  H165  1  0.745300  0.415500  0.900300  1.0  0.1055
  H  H166  1  0.603100  0.438500  0.984100  1.0  0.0912
  H  H167  1  0.549000  0.413400  0.941000  1.0  0.1336
  H  H168  1  0.441800  0.299200  0.046000  1.0  0.1273
  H  H169  1  0.504900  0.307500  0.971500  1.0  0.1271
  H  H170  1  0.436200  0.375200  0.984800  1.0  0.1339
  H  H171  1  0.473400  0.284000  0.138800  1.0  0.1364
  H  H172  1  0.531100  0.310700  0.175900  1.0  0.0813
  H  H173  1  0.415500  0.900300  0.745300  1.0  0.1056
  H  H174  1  0.438500  0.984100  0.603100  1.0  0.0915
  H  H175  1  0.413400  0.941000  0.549000  1.0  0.1326
  H  H176  1  0.299200  0.046000  0.441800  1.0  0.1254
  H  H177  1  0.307500  0.971500  0.504900  1.0  0.1295
  H  H178  1  0.375200  0.984800  0.436200  1.0  0.1319
  H  H179  1  0.284000  0.138800  0.473400  1.0  0.1361
  H  H180  1  0.310700  0.175900  0.531100  1.0  0.0796
  H  H181  1  0.938900  0.745300  0.900300  1.0  0.1051
  H  H182  1  0.974300  0.603100  0.984100  1.0  0.0922
  H  H183  1  0.096600  0.549000  0.941000  1.0  0.1331
  H  H184  1  0.213000  0.441800  0.046000  1.0  0.126
  H  H185  1  0.216100  0.504900  0.971500  1.0  0.1299
  H  H186  1  0.203800  0.436200  0.984800  1.0  0.131
  H  H187  1  0.103800  0.473400  0.138800  1.0  0.135
  H  H188  1  0.982300  0.531100  0.175900  1.0  0.0827
  H  H189  1  0.745300  0.938900  0.415500  1.0  0.1056
  H  H190  1  0.603100  0.974300  0.438500  1.0  0.0927
  H  H191  1  0.549000  0.096600  0.413400  1.0  0.1327
  H  H192  1  0.441800  0.213000  0.299200  1.0  0.1246
  H  H193  1  0.504900  0.216100  0.307500  1.0  0.1312
  H  H194  1  0.436200  0.203800  0.375200  1.0  0.1311
  H  H195  1  0.473400  0.103800  0.284000  1.0  0.1361
  H  H196  1  0.531100  0.982300  0.310700  1.0  0.081
  H  H197  1  0.900300  0.415500  0.938900  1.0  0.1076
  H  H198  1  0.984100  0.438500  0.974300  1.0  0.0921
  H  H199  1  0.941000  0.413400  0.096600  1.0  0.1344
  H  H200  1  0.046000  0.299200  0.213000  1.0  0.1251
  H  H201  1  0.971500  0.307500  0.216100  1.0  0.1293
  H  H202  1  0.984800  0.375200  0.203800  1.0  0.1325
  H  H203  1  0.138800  0.284000  0.103800  1.0  0.1355
  H  H204  1  0.175900  0.310700  0.982300  1.0  0.0797
  C  C205  1  0.242800  0.485600  0.437200  1.0  0.7402
  C  C206  1  0.318200  0.435200  0.411600  1.0  -0.0864
  C  C207  1  0.365100  0.457900  0.342100  1.0  -0.0028
  C  C208  1  0.233800  0.673200  0.249800  1.0  0.1704
  C  C209  1  0.260100  0.705700  0.176500  1.0  -0.1965
  C  C210  1  0.214100  0.745500  0.137300  1.0  0.0905
  C  C211  1  0.243200  0.781400  0.056200  1.0  -0.4102
  C  C212  1  0.144000  0.750400  0.171400  1.0  -0.2266
  C  C213  1  0.122700  0.715500  0.244500  1.0  0.1692
  C  C214  1  0.485600  0.242800  0.834400  1.0  0.7447
  C  C215  1  0.435200  0.318200  0.835000  1.0  -0.0879
  C  C216  1  0.457900  0.365100  0.834900  1.0  -0.0012
  C  C217  1  0.673200  0.233800  0.843200  1.0  0.1685
  C  C218  1  0.705700  0.260100  0.857700  1.0  -0.2003
  C  C219  1  0.745500  0.214100  0.903100  1.0  0.0906
  C  C220  1  0.781400  0.243200  0.919200  1.0  -0.4113
  C  C221  1  0.750400  0.144000  0.934200  1.0  -0.2238
  C  C222  1  0.715500  0.122700  0.917300  1.0  0.1744
  C  C223  1  0.437200  0.834400  0.242800  1.0  0.7501
  C  C224  1  0.411600  0.835000  0.318200  1.0  -0.0874
  C  C225  1  0.342100  0.834900  0.365100  1.0  -0.0048
  C  C226  1  0.249800  0.843200  0.233800  1.0  0.1667
  C  C227  1  0.176500  0.857700  0.260100  1.0  -0.1942
  C  C228  1  0.137300  0.903100  0.214100  1.0  0.0882
  C  C229  1  0.056200  0.919200  0.243200  1.0  -0.4099
  C  C230  1  0.171400  0.934200  0.144000  1.0  -0.2241
  C  C231  1  0.244500  0.917300  0.122700  1.0  0.174
  C  C232  1  0.834400  0.437200  0.485600  1.0  0.7483
  C  C233  1  0.835000  0.411600  0.435200  1.0  -0.0892
  C  C234  1  0.834900  0.342100  0.457900  1.0  -0.0007
  C  C235  1  0.843200  0.249800  0.673200  1.0  0.1678
  C  C236  1  0.857700  0.176500  0.705700  1.0  -0.195
  C  C237  1  0.903100  0.137300  0.745500  1.0  0.0906
  C  C238  1  0.919200  0.056200  0.781400  1.0  -0.413
  C  C239  1  0.934200  0.171400  0.750400  1.0  -0.2233
  C  C240  1  0.917300  0.244500  0.715500  1.0  0.1714
  C  C241  1  0.242800  0.437200  0.834400  1.0  0.7435
  C  C242  1  0.318200  0.411600  0.835000  1.0  -0.0871
  C  C243  1  0.365100  0.342100  0.834900  1.0  -0.0031
  C  C244  1  0.233800  0.249800  0.843200  1.0  0.169
  C  C245  1  0.260100  0.176500  0.857700  1.0  -0.1953
  C  C246  1  0.214100  0.137300  0.903100  1.0  0.0894
  C  C247  1  0.243200  0.056200  0.919200  1.0  -0.4103
  C  C248  1  0.144000  0.171400  0.934200  1.0  -0.2228
  C  C249  1  0.122700  0.244500  0.917300  1.0  0.172
  C  C250  1  0.485600  0.834400  0.437200  1.0  0.7484
  C  C251  1  0.435200  0.835000  0.411600  1.0  -0.0891
  C  C252  1  0.457900  0.834900  0.342100  1.0  -0.003
  C  C253  1  0.673200  0.843200  0.249800  1.0  0.1661
  C  C254  1  0.705700  0.857700  0.176500  1.0  -0.1951
  C  C255  1  0.745500  0.903100  0.137300  1.0  0.0892
  C  C256  1  0.781400  0.919200  0.056200  1.0  -0.4107
  C  C257  1  0.750400  0.934200  0.171400  1.0  -0.2247
  C  C258  1  0.715500  0.917300  0.244500  1.0  0.1769
  C  C259  1  0.437200  0.242800  0.485600  1.0  0.7456
  C  C260  1  0.411600  0.318200  0.435200  1.0  -0.0842
  C  C261  1  0.342100  0.365100  0.457900  1.0  -0.0033
  C  C262  1  0.249800  0.233800  0.673200  1.0  0.1681
  C  C263  1  0.176500  0.260100  0.705700  1.0  -0.2017
  C  C264  1  0.137300  0.214100  0.745500  1.0  0.09
  C  C265  1  0.056200  0.243200  0.781400  1.0  -0.409
  C  C266  1  0.171400  0.144000  0.750400  1.0  -0.2265
  C  C267  1  0.244500  0.122700  0.715500  1.0  0.1727
  C  C268  1  0.834400  0.485600  0.242800  1.0  0.747
  C  C269  1  0.835000  0.435200  0.318200  1.0  -0.0868
  C  C270  1  0.834900  0.457900  0.365100  1.0  0.0002
  C  C271  1  0.843200  0.673200  0.233800  1.0  0.1691
  C  C272  1  0.857700  0.705700  0.260100  1.0  -0.1944
  C  C273  1  0.903100  0.745500  0.214100  1.0  0.0896
  C  C274  1  0.919200  0.781400  0.243200  1.0  -0.4112
  C  C275  1  0.934200  0.750400  0.144000  1.0  -0.2234
  C  C276  1  0.917300  0.715500  0.122700  1.0  0.1736
  C  C277  1  0.242800  0.834400  0.485600  1.0  0.7471
  C  C278  1  0.318200  0.835000  0.435200  1.0  -0.089
  C  C279  1  0.365100  0.834900  0.457900  1.0  -0.006
  C  C280  1  0.233800  0.843200  0.673200  1.0  0.1679
  C  C281  1  0.260100  0.857700  0.705700  1.0  -0.1958
  C  C282  1  0.214100  0.903100  0.745500  1.0  0.0884
  C  C283  1  0.243200  0.919200  0.781400  1.0  -0.4156
  C  C284  1  0.144000  0.934200  0.750400  1.0  -0.2258
  C  C285  1  0.122700  0.917300  0.715500  1.0  0.1743
  C  C286  1  0.485600  0.437200  0.242800  1.0  0.7423
  C  C287  1  0.435200  0.411600  0.318200  1.0  -0.0876
  C  C288  1  0.457900  0.342100  0.365100  1.0  -0.0014
  C  C289  1  0.673200  0.249800  0.233800  1.0  0.1677
  C  C290  1  0.705700  0.176500  0.260100  1.0  -0.1947
  C  C291  1  0.745500  0.137300  0.214100  1.0  0.089
  C  C292  1  0.781400  0.056200  0.243200  1.0  -0.4132
  C  C293  1  0.750400  0.171400  0.144000  1.0  -0.2214
  C  C294  1  0.715500  0.244500  0.122700  1.0  0.1751
  C  C295  1  0.437200  0.485600  0.834400  1.0  0.7431
  C  C296  1  0.411600  0.435200  0.835000  1.0  -0.0888
  C  C297  1  0.342100  0.457900  0.834900  1.0  -0.0051
  C  C298  1  0.249800  0.673200  0.843200  1.0  0.1673
  C  C299  1  0.176500  0.705700  0.857700  1.0  -0.1952
  C  C300  1  0.137300  0.745500  0.903100  1.0  0.0895
  C  C301  1  0.056200  0.781400  0.919200  1.0  -0.4095
  C  C302  1  0.171400  0.750400  0.934200  1.0  -0.2212
  C  C303  1  0.244500  0.715500  0.917300  1.0  0.1755
  C  C304  1  0.834400  0.242800  0.437200  1.0  0.7418
  C  C305  1  0.835000  0.318200  0.411600  1.0  -0.0866
  C  C306  1  0.834900  0.365100  0.342100  1.0  -0.0009
  C  C307  1  0.843200  0.233800  0.249800  1.0  0.1678
  C  C308  1  0.857700  0.260100  0.176500  1.0  -0.2013
  C  C309  1  0.903100  0.214100  0.137300  1.0  0.0903
  C  C310  1  0.919200  0.243200  0.056200  1.0  -0.4167
  C  C311  1  0.934200  0.144000  0.171400  1.0  -0.2258
  C  C312  1  0.917300  0.122700  0.244500  1.0  0.1734
  C  C313  1  0.764400  0.007200  0.812800  1.0  0.7455
  C  C314  1  0.814800  0.931800  0.838400  1.0  -0.085
  C  C315  1  0.792100  0.884900  0.907900  1.0  -0.0021
  C  C316  1  0.576800  0.016200  0.000200  1.0  0.1694
  C  C317  1  0.544300  0.989900  0.073500  1.0  -0.1995
  C  C318  1  0.504500  0.035900  0.112700  1.0  0.0893
  C  C319  1  0.468600  0.006800  0.193800  1.0  -0.4111
  C  C320  1  0.499600  0.106000  0.078600  1.0  -0.2239
  C  C321  1  0.534500  0.127300  0.005500  1.0  0.1747
  C  C322  1  0.007200  0.764400  0.415600  1.0  0.7406
  C  C323  1  0.931800  0.814800  0.415000  1.0  -0.0859
  C  C324  1  0.884900  0.792100  0.415100  1.0  -0.0029
  C  C325  1  0.016200  0.576800  0.406800  1.0  0.1699
  C  C326  1  0.989900  0.544300  0.392300  1.0  -0.1976
  C  C327  1  0.035900  0.504500  0.346900  1.0  0.0907
  C  C328  1  0.006800  0.468600  0.330800  1.0  -0.4113
  C  C329  1  0.106000  0.499600  0.315800  1.0  -0.2266
  C  C330  1  0.127300  0.534500  0.332700  1.0  0.1706
  C  C331  1  0.415600  0.812800  0.007200  1.0  0.75
  C  C332  1  0.415000  0.838400  0.931800  1.0  -0.0912
  C  C333  1  0.415100  0.907900  0.884900  1.0  -0.0008
  C  C334  1  0.406800  0.000200  0.016200  1.0  0.1674
  C  C335  1  0.392300  0.073500  0.989900  1.0  -0.1973
  C  C336  1  0.346900  0.112700  0.035900  1.0  0.0886
  C  C337  1  0.330800  0.193800  0.006800  1.0  -0.412
  C  C338  1  0.315800  0.078600  0.106000  1.0  -0.2228
  C  C339  1  0.332700  0.005500  0.127300  1.0  0.172
  C  C340  1  0.812800  0.415600  0.764400  1.0  0.7525
  C  C341  1  0.838400  0.415000  0.814800  1.0  -0.0873
  C  C342  1  0.907900  0.415100  0.792100  1.0  -0.0033
  C  C343  1  0.000200  0.406800  0.576800  1.0  0.1645
  C  C344  1  0.073500  0.392300  0.544300  1.0  -0.1948
  C  C345  1  0.112700  0.346900  0.504500  1.0  0.0891
  C  C346  1  0.193800  0.330800  0.468600  1.0  -0.4107
  C  C347  1  0.078600  0.315800  0.499600  1.0  -0.2239
  C  C348  1  0.005500  0.332700  0.534500  1.0  0.1748
  C  C349  1  0.812800  0.007200  0.415600  1.0  0.7441
  C  C350  1  0.838400  0.931800  0.415000  1.0  -0.085
  C  C351  1  0.907900  0.884900  0.415100  1.0  -0.004
  C  C352  1  0.000200  0.016200  0.406800  1.0  0.1677
  C  C353  1  0.073500  0.989900  0.392300  1.0  -0.1994
  C  C354  1  0.112700  0.035900  0.346900  1.0  0.0897
  C  C355  1  0.193800  0.006800  0.330800  1.0  -0.4107
  C  C356  1  0.078600  0.106000  0.315800  1.0  -0.2263
  C  C357  1  0.005500  0.127300  0.332700  1.0  0.171
  C  C358  1  0.415600  0.764400  0.812800  1.0  0.7458
  C  C359  1  0.415000  0.814800  0.838400  1.0  -0.0894
  C  C360  1  0.415100  0.792100  0.907900  1.0  -0.0009
  C  C361  1  0.406800  0.576800  0.000200  1.0  0.1694
  C  C362  1  0.392300  0.544300  0.073500  1.0  -0.1971
  C  C363  1  0.346900  0.504500  0.112700  1.0  0.0884
  C  C364  1  0.330800  0.468600  0.193800  1.0  -0.4108
  C  C365  1  0.315800  0.499600  0.078600  1.0  -0.2216
  C  C366  1  0.332700  0.534500  0.005500  1.0  0.1735
  C  C367  1  0.007200  0.812800  0.764400  1.0  0.7384
  C  C368  1  0.931800  0.838400  0.814800  1.0  -0.087
  C  C369  1  0.884900  0.907900  0.792100  1.0  -0.0033
  C  C370  1  0.016200  0.000200  0.576800  1.0  0.1687
  C  C371  1  0.989900  0.073500  0.544300  1.0  -0.1925
  C  C372  1  0.035900  0.112700  0.504500  1.0  0.0893
  C  C373  1  0.006800  0.193800  0.468600  1.0  -0.411
  C  C374  1  0.106000  0.078600  0.499600  1.0  -0.224
  C  C375  1  0.127300  0.005500  0.534500  1.0  0.1714
  C  C376  1  0.764400  0.415600  0.007200  1.0  0.7472
  C  C377  1  0.814800  0.415000  0.931800  1.0  -0.09
  C  C378  1  0.792100  0.415100  0.884900  1.0  -0.0026
  C  C379  1  0.576800  0.406800  0.016200  1.0  0.1658
  C  C380  1  0.544300  0.392300  0.989900  1.0  -0.1965
  C  C381  1  0.504500  0.346900  0.035900  1.0  0.088
  C  C382  1  0.468600  0.330800  0.006800  1.0  -0.4092
  C  C383  1  0.499600  0.315800  0.106000  1.0  -0.2246
  C  C384  1  0.534500  0.332700  0.127300  1.0  0.1768
  C  C385  1  0.415600  0.007200  0.764400  1.0  0.7415
  C  C386  1  0.415000  0.931800  0.814800  1.0  -0.0852
  C  C387  1  0.415100  0.884900  0.792100  1.0  -0.0018
  C  C388  1  0.406800  0.016200  0.576800  1.0  0.1695
  C  C389  1  0.392300  0.989900  0.544300  1.0  -0.2001
  C  C390  1  0.346900  0.035900  0.504500  1.0  0.0885
  C  C391  1  0.330800  0.006800  0.468600  1.0  -0.4161
  C  C392  1  0.315800  0.106000  0.499600  1.0  -0.2258
  C  C393  1  0.332700  0.127300  0.534500  1.0  0.173
  C  C394  1  0.812800  0.764400  0.007200  1.0  0.7404
  C  C395  1  0.838400  0.814800  0.931800  1.0  -0.0905
  C  C396  1  0.907900  0.792100  0.884900  1.0  -0.0038
  C  C397  1  0.000200  0.576800  0.016200  1.0  0.1671
  C  C398  1  0.073500  0.544300  0.989900  1.0  -0.1959
  C  C399  1  0.112700  0.504500  0.035900  1.0  0.0891
  C  C400  1  0.193800  0.468600  0.006800  1.0  -0.4113
  C  C401  1  0.078600  0.499600  0.106000  1.0  -0.2203
  C  C402  1  0.005500  0.534500  0.127300  1.0  0.1756
  C  C403  1  0.764400  0.812800  0.415600  1.0  0.7414
  C  C404  1  0.814800  0.838400  0.415000  1.0  -0.0895
  C  C405  1  0.792100  0.907900  0.415100  1.0  -0.0022
  C  C406  1  0.576800  0.000200  0.406800  1.0  0.1695
  C  C407  1  0.544300  0.073500  0.392300  1.0  -0.1953
  C  C408  1  0.504500  0.112700  0.346900  1.0  0.0884
  C  C409  1  0.468600  0.193800  0.330800  1.0  -0.4119
  C  C410  1  0.499600  0.078600  0.315800  1.0  -0.2209
  C  C411  1  0.534500  0.005500  0.332700  1.0  0.1739
  C  C412  1  0.007200  0.415600  0.812800  1.0  0.7462
  C  C413  1  0.931800  0.415000  0.838400  1.0  -0.0901
  C  C414  1  0.884900  0.415100  0.907900  1.0  -0.0043
  C  C415  1  0.016200  0.406800  0.000200  1.0  0.1679
  C  C416  1  0.989900  0.392300  0.073500  1.0  -0.1953
  C  C417  1  0.035900  0.346900  0.112700  1.0  0.0881
  C  C418  1  0.006800  0.330800  0.193800  1.0  -0.4152
  C  C419  1  0.106000  0.315800  0.078600  1.0  -0.2258
  C  C420  1  0.127300  0.332700  0.005500  1.0  0.1753
  N  N421  1  0.163900  0.677300  0.286100  1.0  -0.3268
  N  N422  1  0.677300  0.163900  0.872700  1.0  -0.3301
  N  N423  1  0.286100  0.872700  0.163900  1.0  -0.3281
  N  N424  1  0.872700  0.286100  0.677300  1.0  -0.3271
  N  N425  1  0.163900  0.286100  0.872700  1.0  -0.3276
  N  N426  1  0.677300  0.872700  0.286100  1.0  -0.3295
  N  N427  1  0.286100  0.163900  0.677300  1.0  -0.3282
  N  N428  1  0.872700  0.677300  0.163900  1.0  -0.3304
  N  N429  1  0.163900  0.872700  0.677300  1.0  -0.3299
  N  N430  1  0.677300  0.286100  0.163900  1.0  -0.3253
  N  N431  1  0.286100  0.677300  0.872700  1.0  -0.3284
  N  N432  1  0.872700  0.163900  0.286100  1.0  -0.3277
  N  N433  1  0.572700  0.086100  0.963900  1.0  -0.3295
  N  N434  1  0.086100  0.572700  0.377300  1.0  -0.328
  N  N435  1  0.377300  0.963900  0.086100  1.0  -0.3267
  N  N436  1  0.963900  0.377300  0.572700  1.0  -0.3284
  N  N437  1  0.963900  0.086100  0.377300  1.0  -0.3276
  N  N438  1  0.377300  0.572700  0.963900  1.0  -0.3298
  N  N439  1  0.086100  0.963900  0.572700  1.0  -0.3272
  N  N440  1  0.572700  0.377300  0.086100  1.0  -0.3307
  N  N441  1  0.377300  0.086100  0.572700  1.0  -0.3279
  N  N442  1  0.963900  0.572700  0.086100  1.0  -0.328
  N  N443  1  0.572700  0.963900  0.377300  1.0  -0.3248
  N  N444  1  0.086100  0.377300  0.963900  1.0  -0.3286
  O  O445  1  0.221900  0.543700  0.388700  1.0  -0.6132
  O  O446  1  0.205900  0.467500  0.502500  1.0  -0.5607
  O  O447  1  0.543700  0.221900  0.845700  1.0  -0.6124
  O  O448  1  0.467500  0.205900  0.824100  1.0  -0.5611
  O  O449  1  0.388700  0.845700  0.221900  1.0  -0.6144
  O  O450  1  0.502500  0.824100  0.205900  1.0  -0.5663
  O  O451  1  0.845700  0.388700  0.543700  1.0  -0.6141
  O  O452  1  0.824100  0.502500  0.467500  1.0  -0.5635
  O  O453  1  0.221900  0.388700  0.845700  1.0  -0.6133
  O  O454  1  0.205900  0.502500  0.824100  1.0  -0.5576
  O  O455  1  0.543700  0.845700  0.388700  1.0  -0.6126
  O  O456  1  0.467500  0.824100  0.502500  1.0  -0.5646
  O  O457  1  0.388700  0.221900  0.543700  1.0  -0.6147
  O  O458  1  0.502500  0.205900  0.467500  1.0  -0.5649
  O  O459  1  0.845700  0.543700  0.221900  1.0  -0.6163
  O  O460  1  0.824100  0.467500  0.205900  1.0  -0.56
  O  O461  1  0.221900  0.845700  0.543700  1.0  -0.6153
  O  O462  1  0.205900  0.824100  0.467500  1.0  -0.5664
  O  O463  1  0.543700  0.388700  0.221900  1.0  -0.6154
  O  O464  1  0.467500  0.502500  0.205900  1.0  -0.5645
  O  O465  1  0.388700  0.543700  0.845700  1.0  -0.6175
  O  O466  1  0.502500  0.467500  0.824100  1.0  -0.5663
  O  O467  1  0.845700  0.221900  0.388700  1.0  -0.612
  O  O468  1  0.824100  0.205900  0.502500  1.0  -0.5644
  O  O469  1  0.706300  0.028100  0.861300  1.0  -0.6104
  O  O470  1  0.782500  0.044100  0.747500  1.0  -0.5637
  O  O471  1  0.028100  0.706300  0.404300  1.0  -0.6126
  O  O472  1  0.044100  0.782500  0.425900  1.0  -0.5617
  O  O473  1  0.404300  0.861300  0.028100  1.0  -0.6139
  O  O474  1  0.425900  0.747500  0.044100  1.0  -0.5671
  O  O475  1  0.861300  0.404300  0.706300  1.0  -0.6157
  O  O476  1  0.747500  0.425900  0.782500  1.0  -0.5678
  O  O477  1  0.861300  0.028100  0.404300  1.0  -0.6146
  O  O478  1  0.747500  0.044100  0.425900  1.0  -0.5608
  O  O479  1  0.404300  0.706300  0.861300  1.0  -0.6151
  O  O480  1  0.425900  0.782500  0.747500  1.0  -0.5625
  O  O481  1  0.028100  0.861300  0.706300  1.0  -0.6113
  O  O482  1  0.044100  0.747500  0.782500  1.0  -0.5575
  O  O483  1  0.706300  0.404300  0.028100  1.0  -0.6138
  O  O484  1  0.782500  0.425900  0.044100  1.0  -0.564
  O  O485  1  0.404300  0.028100  0.706300  1.0  -0.6117
  O  O486  1  0.425900  0.044100  0.782500  1.0  -0.5703
  O  O487  1  0.861300  0.706300  0.028100  1.0  -0.6151
  O  O488  1  0.747500  0.782500  0.044100  1.0  -0.5608
  O  O489  1  0.706300  0.861300  0.404300  1.0  -0.6134
  O  O490  1  0.782500  0.747500  0.425900  1.0  -0.5629
  O  O491  1  0.028100  0.404300  0.861300  1.0  -0.6144
  O  O492  1  0.044100  0.425900  0.747500  1.0  -0.5683
