# generated using pymatgen
data_NiH16C18(NO2)2
_symmetry_space_group_name_H-M   'P 1'
_cell_length_a   22.78740000
_cell_length_b   22.78740000
_cell_length_c   22.78740000
_cell_angle_alpha   60.00000000
_cell_angle_beta   60.00000000
_cell_angle_gamma   60.00000000
_symmetry_Int_Tables_number   1
_chemical_formula_structural   NiH16C18(NO2)2
_chemical_formula_sum   'Ni12 H192 C216 N24 O48'
_cell_volume   8366.99153509
_cell_formula_units_Z   12
loop_
 _symmetry_equiv_pos_site_id
 _symmetry_equiv_pos_as_xyz
  1  'x, y, z'
loop_
 _atom_site_type_symbol
 _atom_site_label
 _atom_site_symmetry_multiplicity
 _atom_site_fract_x
 _atom_site_fract_y
 _atom_site_fract_z
 _atom_site_occupancy
 _atom_site_charge
  Ni  Ni1  1  0.125000  0.625000  0.866200  1.0  0.5645
  Ni  Ni2  1  0.625000  0.125000  0.383800  1.0  0.5629
  Ni  Ni3  1  0.866200  0.383800  0.125000  1.0  0.5533
  Ni  Ni4  1  0.383800  0.866200  0.625000  1.0  0.5526
  Ni  Ni5  1  0.125000  0.866200  0.383800  1.0  0.5524
  Ni  Ni6  1  0.625000  0.383800  0.866200  1.0  0.5522
  Ni  Ni7  1  0.866200  0.125000  0.625000  1.0  0.5666
  Ni  Ni8  1  0.383800  0.625000  0.125000  1.0  0.5644
  Ni  Ni9  1  0.125000  0.383800  0.625000  1.0  0.551
  Ni  Ni10  1  0.625000  0.866200  0.125000  1.0  0.5579
  Ni  Ni11  1  0.866200  0.625000  0.383800  1.0  0.5646
  Ni  Ni12  1  0.383800  0.125000  0.866200  1.0  0.5662
  H  H13  1  0.899000  0.751200  0.946400  1.0  0.1044
  H  H14  1  0.986700  0.601700  0.987900  1.0  0.0837
  H  H15  1  0.946400  0.541000  0.107200  1.0  0.1193
  H  H16  1  0.057400  0.425800  0.219000  1.0  0.1321
  H  H17  1  0.998600  0.418600  0.208400  1.0  0.1346
  H  H18  1  0.980500  0.484100  0.227900  1.0  0.1304
  H  H19  1  0.146800  0.464400  0.108800  1.0  0.1194
  H  H20  1  0.179700  0.533500  0.989900  1.0  0.0746
  H  H21  1  0.751200  0.899000  0.403400  1.0  0.1038
  H  H22  1  0.601700  0.986700  0.423700  1.0  0.0843
  H  H23  1  0.541000  0.946400  0.405400  1.0  0.1176
  H  H24  1  0.425800  0.057400  0.297800  1.0  0.1333
  H  H25  1  0.418600  0.998600  0.374400  1.0  0.1326
  H  H26  1  0.484100  0.980500  0.307500  1.0  0.1307
  H  H27  1  0.464400  0.146800  0.280000  1.0  0.1198
  H  H28  1  0.533500  0.179700  0.296900  1.0  0.0737
  H  H29  1  0.946400  0.403400  0.899000  1.0  0.1062
  H  H30  1  0.987900  0.423700  0.986700  1.0  0.0837
  H  H31  1  0.107200  0.405400  0.946400  1.0  0.1175
  H  H32  1  0.219000  0.297800  0.057400  1.0  0.1329
  H  H33  1  0.208400  0.374400  0.998600  1.0  0.1354
  H  H34  1  0.227900  0.307500  0.980500  1.0  0.1307
  H  H35  1  0.108800  0.280000  0.146800  1.0  0.1202
  H  H36  1  0.989900  0.296900  0.179700  1.0  0.0735
  H  H37  1  0.403400  0.946400  0.751200  1.0  0.1048
  H  H38  1  0.423700  0.987900  0.601700  1.0  0.0836
  H  H39  1  0.405400  0.107200  0.541000  1.0  0.1174
  H  H40  1  0.297800  0.219000  0.425800  1.0  0.1322
  H  H41  1  0.374400  0.208400  0.418600  1.0  0.1319
  H  H42  1  0.307500  0.227900  0.484100  1.0  0.1312
  H  H43  1  0.280000  0.108800  0.464400  1.0  0.1206
  H  H44  1  0.296900  0.989900  0.533500  1.0  0.0737
  H  H45  1  0.899000  0.946400  0.403400  1.0  0.1061
  H  H46  1  0.986700  0.987900  0.423700  1.0  0.0833
  H  H47  1  0.946400  0.107200  0.405400  1.0  0.1181
  H  H48  1  0.057400  0.219000  0.297800  1.0  0.1361
  H  H49  1  0.998600  0.208400  0.374400  1.0  0.1324
  H  H50  1  0.980500  0.227900  0.307500  1.0  0.1302
  H  H51  1  0.146800  0.108800  0.280000  1.0  0.1204
  H  H52  1  0.179700  0.989900  0.296900  1.0  0.0733
  H  H53  1  0.751200  0.403400  0.946400  1.0  0.1067
  H  H54  1  0.601700  0.423700  0.987900  1.0  0.0818
  H  H55  1  0.541000  0.405400  0.107200  1.0  0.1185
  H  H56  1  0.425800  0.297800  0.219000  1.0  0.133
  H  H57  1  0.418600  0.374400  0.208400  1.0  0.1366
  H  H58  1  0.484100  0.307500  0.227900  1.0  0.1308
  H  H59  1  0.464400  0.280000  0.108800  1.0  0.1183
  H  H60  1  0.533500  0.296900  0.989900  1.0  0.0742
  H  H61  1  0.946400  0.899000  0.751200  1.0  0.1063
  H  H62  1  0.987900  0.986700  0.601700  1.0  0.0828
  H  H63  1  0.107200  0.946400  0.541000  1.0  0.1167
  H  H64  1  0.219000  0.057400  0.425800  1.0  0.1341
  H  H65  1  0.208400  0.998600  0.418600  1.0  0.1327
  H  H66  1  0.227900  0.980500  0.484100  1.0  0.1296
  H  H67  1  0.108800  0.146800  0.464400  1.0  0.1191
  H  H68  1  0.989900  0.179700  0.533500  1.0  0.0734
  H  H69  1  0.403400  0.751200  0.899000  1.0  0.1046
  H  H70  1  0.423700  0.601700  0.986700  1.0  0.0829
  H  H71  1  0.405400  0.541000  0.946400  1.0  0.1194
  H  H72  1  0.297800  0.425800  0.057400  1.0  0.1325
  H  H73  1  0.374400  0.418600  0.998600  1.0  0.1337
  H  H74  1  0.307500  0.484100  0.980500  1.0  0.1304
  H  H75  1  0.280000  0.464400  0.146800  1.0  0.1201
  H  H76  1  0.296900  0.533500  0.179700  1.0  0.0735
  H  H77  1  0.899000  0.403400  0.751200  1.0  0.1089
  H  H78  1  0.986700  0.423700  0.601700  1.0  0.0831
  H  H79  1  0.946400  0.405400  0.541000  1.0  0.1185
  H  H80  1  0.057400  0.297800  0.425800  1.0  0.1325
  H  H81  1  0.998600  0.374400  0.418600  1.0  0.1357
  H  H82  1  0.980500  0.307500  0.484100  1.0  0.1314
  H  H83  1  0.146800  0.280000  0.464400  1.0  0.1196
  H  H84  1  0.179700  0.296900  0.533500  1.0  0.0734
  H  H85  1  0.751200  0.946400  0.899000  1.0  0.1057
  H  H86  1  0.601700  0.987900  0.986700  1.0  0.0851
  H  H87  1  0.541000  0.107200  0.946400  1.0  0.118
  H  H88  1  0.425800  0.219000  0.057400  1.0  0.1325
  H  H89  1  0.418600  0.208400  0.998600  1.0  0.1334
  H  H90  1  0.484100  0.227900  0.980500  1.0  0.1324
  H  H91  1  0.464400  0.108800  0.146800  1.0  0.1204
  H  H92  1  0.533500  0.989900  0.179700  1.0  0.0744
  H  H93  1  0.946400  0.751200  0.403400  1.0  0.106
  H  H94  1  0.987900  0.601700  0.423700  1.0  0.0848
  H  H95  1  0.107200  0.541000  0.405400  1.0  0.1172
  H  H96  1  0.219000  0.425800  0.297800  1.0  0.1318
  H  H97  1  0.208400  0.418600  0.374400  1.0  0.1339
  H  H98  1  0.227900  0.484100  0.307500  1.0  0.1319
  H  H99  1  0.108800  0.464400  0.280000  1.0  0.1204
  H  H100  1  0.989900  0.533500  0.296900  1.0  0.0753
  H  H101  1  0.403400  0.899000  0.946400  1.0  0.1056
  H  H102  1  0.423700  0.986700  0.987900  1.0  0.0828
  H  H103  1  0.405400  0.946400  0.107200  1.0  0.118
  H  H104  1  0.297800  0.057400  0.219000  1.0  0.1325
  H  H105  1  0.374400  0.998600  0.208400  1.0  0.1338
  H  H106  1  0.307500  0.980500  0.227900  1.0  0.1317
  H  H107  1  0.280000  0.146800  0.108800  1.0  0.1194
  H  H108  1  0.296900  0.179700  0.989900  1.0  0.0747
  H  H109  1  0.498800  0.351000  0.303600  1.0  0.1038
  H  H110  1  0.648300  0.263300  0.262100  1.0  0.0838
  H  H111  1  0.709000  0.303600  0.142800  1.0  0.1173
  H  H112  1  0.824200  0.192600  0.031000  1.0  0.1337
  H  H113  1  0.831400  0.251400  0.041600  1.0  0.1341
  H  H114  1  0.765900  0.269500  0.022100  1.0  0.1312
  H  H115  1  0.785600  0.103200  0.141200  1.0  0.1199
  H  H116  1  0.716500  0.070300  0.260100  1.0  0.0733
  H  H117  1  0.351000  0.498800  0.846600  1.0  0.1051
  H  H118  1  0.263300  0.648300  0.826300  1.0  0.0842
  H  H119  1  0.303600  0.709000  0.844600  1.0  0.1186
  H  H120  1  0.192600  0.824200  0.952200  1.0  0.1315
  H  H121  1  0.251400  0.831400  0.875600  1.0  0.1337
  H  H122  1  0.269500  0.765900  0.942500  1.0  0.1307
  H  H123  1  0.103200  0.785600  0.970000  1.0  0.1197
  H  H124  1  0.070300  0.716500  0.953100  1.0  0.0753
  H  H125  1  0.846600  0.303600  0.351000  1.0  0.1045
  H  H126  1  0.826300  0.262100  0.263300  1.0  0.084
  H  H127  1  0.844600  0.142800  0.303600  1.0  0.1179
  H  H128  1  0.952200  0.031000  0.192600  1.0  0.132
  H  H129  1  0.875600  0.041600  0.251400  1.0  0.1319
  H  H130  1  0.942500  0.022100  0.269500  1.0  0.1312
  H  H131  1  0.970000  0.141200  0.103200  1.0  0.1206
  H  H132  1  0.953100  0.260100  0.070300  1.0  0.0729
  H  H133  1  0.303600  0.846600  0.498800  1.0  0.1063
  H  H134  1  0.262100  0.826300  0.648300  1.0  0.0839
  H  H135  1  0.142800  0.844600  0.709000  1.0  0.1171
  H  H136  1  0.031000  0.952200  0.824200  1.0  0.1319
  H  H137  1  0.041600  0.875600  0.831400  1.0  0.1351
  H  H138  1  0.022100  0.942500  0.765900  1.0  0.1309
  H  H139  1  0.141200  0.970000  0.785600  1.0  0.1203
  H  H140  1  0.260100  0.953100  0.716500  1.0  0.0732
  H  H141  1  0.303600  0.351000  0.846600  1.0  0.1071
  H  H142  1  0.262100  0.263300  0.826300  1.0  0.0824
  H  H143  1  0.142800  0.303600  0.844600  1.0  0.1165
  H  H144  1  0.031000  0.192600  0.952200  1.0  0.1344
  H  H145  1  0.041600  0.251400  0.875600  1.0  0.132
  H  H146  1  0.022100  0.269500  0.942500  1.0  0.1295
  H  H147  1  0.141200  0.103200  0.970000  1.0  0.1193
  H  H148  1  0.260100  0.070300  0.953100  1.0  0.0732
  H  H149  1  0.846600  0.498800  0.303600  1.0  0.1048
  H  H150  1  0.826300  0.648300  0.262100  1.0  0.083
  H  H151  1  0.844600  0.709000  0.142800  1.0  0.1185
  H  H152  1  0.952200  0.824200  0.031000  1.0  0.1331
  H  H153  1  0.875600  0.831400  0.041600  1.0  0.1337
  H  H154  1  0.942500  0.765900  0.022100  1.0  0.1298
  H  H155  1  0.970000  0.785600  0.141200  1.0  0.1206
  H  H156  1  0.953100  0.716500  0.260100  1.0  0.0733
  H  H157  1  0.351000  0.303600  0.498800  1.0  0.1056
  H  H158  1  0.263300  0.262100  0.648300  1.0  0.0835
  H  H159  1  0.303600  0.142800  0.709000  1.0  0.1195
  H  H160  1  0.192600  0.031000  0.824200  1.0  0.1349
  H  H161  1  0.251400  0.041600  0.831400  1.0  0.1323
  H  H162  1  0.269500  0.022100  0.765900  1.0  0.1294
  H  H163  1  0.103200  0.141200  0.785600  1.0  0.1203
  H  H164  1  0.070300  0.260100  0.716500  1.0  0.0733
  H  H165  1  0.498800  0.846600  0.351000  1.0  0.1075
  H  H166  1  0.648300  0.826300  0.263300  1.0  0.0816
  H  H167  1  0.709000  0.844600  0.303600  1.0  0.1193
  H  H168  1  0.824200  0.952200  0.192600  1.0  0.1342
  H  H169  1  0.831400  0.875600  0.251400  1.0  0.1362
  H  H170  1  0.765900  0.942500  0.269500  1.0  0.131
  H  H171  1  0.785600  0.970000  0.103200  1.0  0.1184
  H  H172  1  0.716500  0.953100  0.070300  1.0  0.0739
  H  H173  1  0.846600  0.351000  0.498800  1.0  0.1061
  H  H174  1  0.826300  0.263300  0.648300  1.0  0.0825
  H  H175  1  0.844600  0.303600  0.709000  1.0  0.1177
  H  H176  1  0.952200  0.192600  0.824200  1.0  0.1338
  H  H177  1  0.875600  0.251400  0.831400  1.0  0.1318
  H  H178  1  0.942500  0.269500  0.765900  1.0  0.1318
  H  H179  1  0.970000  0.103200  0.785600  1.0  0.1192
  H  H180  1  0.953100  0.070300  0.716500  1.0  0.0743
  H  H181  1  0.303600  0.498800  0.351000  1.0  0.1072
  H  H182  1  0.262100  0.648300  0.263300  1.0  0.0847
  H  H183  1  0.142800  0.709000  0.303600  1.0  0.1171
  H  H184  1  0.031000  0.824200  0.192600  1.0  0.1317
  H  H185  1  0.041600  0.831400  0.251400  1.0  0.1334
  H  H186  1  0.022100  0.765900  0.269500  1.0  0.1317
  H  H187  1  0.141200  0.785600  0.103200  1.0  0.1204
  H  H188  1  0.260100  0.716500  0.070300  1.0  0.075
  H  H189  1  0.498800  0.303600  0.846600  1.0  0.1052
  H  H190  1  0.648300  0.262100  0.826300  1.0  0.085
  H  H191  1  0.709000  0.142800  0.844600  1.0  0.1181
  H  H192  1  0.824200  0.031000  0.952200  1.0  0.1324
  H  H193  1  0.831400  0.041600  0.875600  1.0  0.1329
  H  H194  1  0.765900  0.022100  0.942500  1.0  0.1314
  H  H195  1  0.785600  0.141200  0.970000  1.0  0.1203
  H  H196  1  0.716500  0.260100  0.953100  1.0  0.0739
  H  H197  1  0.351000  0.846600  0.303600  1.0  0.1091
  H  H198  1  0.263300  0.826300  0.262100  1.0  0.0831
  H  H199  1  0.303600  0.844600  0.142800  1.0  0.1199
  H  H200  1  0.192600  0.952200  0.031000  1.0  0.132
  H  H201  1  0.251400  0.875600  0.041600  1.0  0.1351
  H  H202  1  0.269500  0.942500  0.022100  1.0  0.1329
  H  H203  1  0.103200  0.970000  0.141200  1.0  0.1196
  H  H204  1  0.070300  0.953100  0.260100  1.0  0.0733
  C  C205  1  0.009610  0.765050  0.824450  1.0  0.7459
  C  C206  1  0.934120  0.816940  0.845240  1.0  -0.081
  C  C207  1  0.885520  0.797000  0.913900  1.0  -0.0155
  C  C208  1  0.019450  0.573830  0.012630  1.0  0.1729
  C  C209  1  0.994800  0.536960  0.084520  1.0  -0.2206
  C  C210  1  0.041700  0.493640  0.123680  1.0  0.0928
  C  C211  1  0.017390  0.451790  0.201610  1.0  -0.3955
  C  C212  1  0.112730  0.492550  0.085650  1.0  -0.2197
  C  C213  1  0.132640  0.533220  0.013440  1.0  0.174
  C  C214  1  0.765050  0.009610  0.400890  1.0  0.753
  C  C215  1  0.816940  0.934120  0.403700  1.0  -0.081
  C  C216  1  0.797000  0.885520  0.403580  1.0  -0.0133
  C  C217  1  0.573830  0.019450  0.394090  1.0  0.173
  C  C218  1  0.536960  0.994800  0.383720  1.0  -0.2169
  C  C219  1  0.493640  0.041700  0.340980  1.0  0.0941
  C  C220  1  0.451790  0.017390  0.329210  1.0  -0.3949
  C  C221  1  0.492550  0.112730  0.309070  1.0  -0.2165
  C  C222  1  0.533220  0.132640  0.320700  1.0  0.1744
  C  C223  1  0.824450  0.400890  0.009610  1.0  0.7596
  C  C224  1  0.845240  0.403700  0.934120  1.0  -0.084
  C  C225  1  0.913900  0.403580  0.885520  1.0  -0.0139
  C  C226  1  0.012630  0.394090  0.019450  1.0  0.1681
  C  C227  1  0.084520  0.383720  0.994800  1.0  -0.2174
  C  C228  1  0.123680  0.340980  0.041700  1.0  0.0928
  C  C229  1  0.201610  0.329210  0.017390  1.0  -0.3967
  C  C230  1  0.085650  0.309070  0.112730  1.0  -0.2182
  C  C231  1  0.013440  0.320700  0.132640  1.0  0.1769
  C  C232  1  0.400890  0.824450  0.765050  1.0  0.7549
  C  C233  1  0.403700  0.845240  0.816940  1.0  -0.0827
  C  C234  1  0.403580  0.913900  0.797000  1.0  -0.0128
  C  C235  1  0.394090  0.012630  0.573830  1.0  0.1715
  C  C236  1  0.383720  0.084520  0.536960  1.0  -0.2194
  C  C237  1  0.340980  0.123680  0.493640  1.0  0.0933
  C  C238  1  0.329210  0.201610  0.451790  1.0  -0.3979
  C  C239  1  0.309070  0.085650  0.492550  1.0  -0.2215
  C  C240  1  0.320700  0.013440  0.533220  1.0  0.1739
  C  C241  1  0.009610  0.824450  0.400890  1.0  0.7549
  C  C242  1  0.934120  0.845240  0.403700  1.0  -0.0792
  C  C243  1  0.885520  0.913900  0.403580  1.0  -0.0114
  C  C244  1  0.019450  0.012630  0.394090  1.0  0.1725
  C  C245  1  0.994800  0.084520  0.383720  1.0  -0.2189
  C  C246  1  0.041700  0.123680  0.340980  1.0  0.0928
  C  C247  1  0.017390  0.201610  0.329210  1.0  -0.3965
  C  C248  1  0.112730  0.085650  0.309070  1.0  -0.223
  C  C249  1  0.132640  0.013440  0.320700  1.0  0.176
  C  C250  1  0.765050  0.400890  0.824450  1.0  0.7556
  C  C251  1  0.816940  0.403700  0.845240  1.0  -0.0832
  C  C252  1  0.797000  0.403580  0.913900  1.0  -0.0143
  C  C253  1  0.573830  0.394090  0.012630  1.0  0.1696
  C  C254  1  0.536960  0.383720  0.084520  1.0  -0.219
  C  C255  1  0.493640  0.340980  0.123680  1.0  0.093
  C  C256  1  0.451790  0.329210  0.201610  1.0  -0.3946
  C  C257  1  0.492550  0.309070  0.085650  1.0  -0.2181
  C  C258  1  0.533220  0.320700  0.013440  1.0  0.1776
  C  C259  1  0.824450  0.009610  0.765050  1.0  0.7542
  C  C260  1  0.845240  0.934120  0.816940  1.0  -0.0761
  C  C261  1  0.913900  0.885520  0.797000  1.0  -0.015
  C  C262  1  0.012630  0.019450  0.573830  1.0  0.1702
  C  C263  1  0.084520  0.994800  0.536960  1.0  -0.2167
  C  C264  1  0.123680  0.041700  0.493640  1.0  0.0931
  C  C265  1  0.201610  0.017390  0.451790  1.0  -0.3952
  C  C266  1  0.085650  0.112730  0.492550  1.0  -0.221
  C  C267  1  0.013440  0.132640  0.533220  1.0  0.1743
  C  C268  1  0.400890  0.765050  0.009610  1.0  0.7544
  C  C269  1  0.403700  0.816940  0.934120  1.0  -0.0873
  C  C270  1  0.403580  0.797000  0.885520  1.0  -0.0136
  C  C271  1  0.394090  0.573830  0.019450  1.0  0.1731
  C  C272  1  0.383720  0.536960  0.994800  1.0  -0.2183
  C  C273  1  0.340980  0.493640  0.041700  1.0  0.0932
  C  C274  1  0.329210  0.451790  0.017390  1.0  -0.394
  C  C275  1  0.309070  0.492550  0.112730  1.0  -0.2204
  C  C276  1  0.320700  0.533220  0.132640  1.0  0.1752
  C  C277  1  0.009610  0.400890  0.765050  1.0  0.7553
  C  C278  1  0.934120  0.403700  0.816940  1.0  -0.0818
  C  C279  1  0.885520  0.403580  0.797000  1.0  -0.0135
  C  C280  1  0.019450  0.394090  0.573830  1.0  0.1712
  C  C281  1  0.994800  0.383720  0.536960  1.0  -0.2181
  C  C282  1  0.041700  0.340980  0.493640  1.0  0.0924
  C  C283  1  0.017390  0.329210  0.451790  1.0  -0.398
  C  C284  1  0.112730  0.309070  0.492550  1.0  -0.2174
  C  C285  1  0.132640  0.320700  0.533220  1.0  0.1766
  C  C286  1  0.765050  0.824450  0.009610  1.0  0.7485
  C  C287  1  0.816940  0.845240  0.934120  1.0  -0.0829
  C  C288  1  0.797000  0.913900  0.885520  1.0  -0.0148
  C  C289  1  0.573830  0.012630  0.019450  1.0  0.1709
  C  C290  1  0.536960  0.084520  0.994800  1.0  -0.2192
  C  C291  1  0.493640  0.123680  0.041700  1.0  0.0933
  C  C292  1  0.451790  0.201610  0.017390  1.0  -0.3973
  C  C293  1  0.492550  0.085650  0.112730  1.0  -0.2155
  C  C294  1  0.533220  0.013440  0.132640  1.0  0.1767
  C  C295  1  0.824450  0.765050  0.400890  1.0  0.7458
  C  C296  1  0.845240  0.816940  0.403700  1.0  -0.0837
  C  C297  1  0.913900  0.797000  0.403580  1.0  -0.0177
  C  C298  1  0.012630  0.573830  0.394090  1.0  0.1702
  C  C299  1  0.084520  0.536960  0.383720  1.0  -0.2157
  C  C300  1  0.123680  0.493640  0.340980  1.0  0.0944
  C  C301  1  0.201610  0.451790  0.329210  1.0  -0.3949
  C  C302  1  0.085650  0.492550  0.309070  1.0  -0.2193
  C  C303  1  0.013440  0.533220  0.320700  1.0  0.1749
  C  C304  1  0.400890  0.009610  0.824450  1.0  0.7513
  C  C305  1  0.403700  0.934120  0.845240  1.0  -0.0822
  C  C306  1  0.403580  0.885520  0.913900  1.0  -0.0124
  C  C307  1  0.394090  0.019450  0.012630  1.0  0.1725
  C  C308  1  0.383720  0.994800  0.084520  1.0  -0.2174
  C  C309  1  0.340980  0.041700  0.123680  1.0  0.0941
  C  C310  1  0.329210  0.017390  0.201610  1.0  -0.3975
  C  C311  1  0.309070  0.112730  0.085650  1.0  -0.219
  C  C312  1  0.320700  0.132640  0.013440  1.0  0.1748
  C  C313  1  0.484950  0.240390  0.425550  1.0  0.7538
  C  C314  1  0.433060  0.315880  0.404760  1.0  -0.0806
  C  C315  1  0.453000  0.364480  0.336100  1.0  -0.01
  C  C316  1  0.676170  0.230550  0.237370  1.0  0.1711
  C  C317  1  0.713040  0.255200  0.165480  1.0  -0.2185
  C  C318  1  0.756360  0.208300  0.126320  1.0  0.0938
  C  C319  1  0.798210  0.232610  0.048390  1.0  -0.3959
  C  C320  1  0.757450  0.137270  0.164350  1.0  -0.2153
  C  C321  1  0.716780  0.117360  0.236560  1.0  0.1742
  C  C322  1  0.240390  0.484950  0.849110  1.0  0.7488
  C  C323  1  0.315880  0.433060  0.846300  1.0  -0.0779
  C  C324  1  0.364480  0.453000  0.846420  1.0  -0.0137
  C  C325  1  0.230550  0.676170  0.855910  1.0  0.1731
  C  C326  1  0.255200  0.713040  0.866280  1.0  -0.2202
  C  C327  1  0.208300  0.756360  0.909020  1.0  0.0918
  C  C328  1  0.232610  0.798210  0.920790  1.0  -0.3955
  C  C329  1  0.137270  0.757450  0.940930  1.0  -0.2188
  C  C330  1  0.117360  0.716780  0.929300  1.0  0.1731
  C  C331  1  0.849110  0.425550  0.240390  1.0  0.7546
  C  C332  1  0.846300  0.404760  0.315880  1.0  -0.0848
  C  C333  1  0.846420  0.336100  0.364480  1.0  -0.014
  C  C334  1  0.855910  0.237370  0.230550  1.0  0.171
  C  C335  1  0.866280  0.165480  0.255200  1.0  -0.2189
  C  C336  1  0.909020  0.126320  0.208300  1.0  0.0934
  C  C337  1  0.920790  0.048390  0.232610  1.0  -0.4008
  C  C338  1  0.940930  0.164350  0.137270  1.0  -0.2224
  C  C339  1  0.929300  0.236560  0.117360  1.0  0.174
  C  C340  1  0.425550  0.849110  0.484950  1.0  0.7607
  C  C341  1  0.404760  0.846300  0.433060  1.0  -0.0851
  C  C342  1  0.336100  0.846420  0.453000  1.0  -0.0146
  C  C343  1  0.237370  0.855910  0.676170  1.0  0.1693
  C  C344  1  0.165480  0.866280  0.713040  1.0  -0.2163
  C  C345  1  0.126320  0.909020  0.756360  1.0  0.0924
  C  C346  1  0.048390  0.920790  0.798210  1.0  -0.3959
  C  C347  1  0.164350  0.940930  0.757450  1.0  -0.2188
  C  C348  1  0.236560  0.929300  0.716780  1.0  0.1772
  C  C349  1  0.425550  0.240390  0.849110  1.0  0.7536
  C  C350  1  0.404760  0.315880  0.846300  1.0  -0.0792
  C  C351  1  0.336100  0.364480  0.846420  1.0  -0.0141
  C  C352  1  0.237370  0.230550  0.855910  1.0  0.1701
  C  C353  1  0.165480  0.255200  0.866280  1.0  -0.2202
  C  C354  1  0.126320  0.208300  0.909020  1.0  0.0919
  C  C355  1  0.048390  0.232610  0.920790  1.0  -0.393
  C  C356  1  0.164350  0.137270  0.940930  1.0  -0.2197
  C  C357  1  0.236560  0.117360  0.929300  1.0  0.1756
  C  C358  1  0.849110  0.484950  0.425550  1.0  0.7505
  C  C359  1  0.846300  0.433060  0.404760  1.0  -0.0851
  C  C360  1  0.846420  0.453000  0.336100  1.0  -0.0138
  C  C361  1  0.855910  0.676170  0.237370  1.0  0.1729
  C  C362  1  0.866280  0.713040  0.165480  1.0  -0.2173
  C  C363  1  0.909020  0.756360  0.126320  1.0  0.093
  C  C364  1  0.920790  0.798210  0.048390  1.0  -0.3955
  C  C365  1  0.940930  0.757450  0.164350  1.0  -0.2227
  C  C366  1  0.929300  0.716780  0.236560  1.0  0.1752
  C  C367  1  0.240390  0.425550  0.484950  1.0  0.7544
  C  C368  1  0.315880  0.404760  0.433060  1.0  -0.0753
  C  C369  1  0.364480  0.336100  0.453000  1.0  -0.0103
  C  C370  1  0.230550  0.237370  0.676170  1.0  0.1728
  C  C371  1  0.255200  0.165480  0.713040  1.0  -0.2198
  C  C372  1  0.208300  0.126320  0.756360  1.0  0.0928
  C  C373  1  0.232610  0.048390  0.798210  1.0  -0.3983
  C  C374  1  0.137270  0.164350  0.757450  1.0  -0.2221
  C  C375  1  0.117360  0.236560  0.716780  1.0  0.1762
  C  C376  1  0.484950  0.849110  0.240390  1.0  0.7533
  C  C377  1  0.433060  0.846300  0.315880  1.0  -0.0839
  C  C378  1  0.453000  0.846420  0.364480  1.0  -0.0133
  C  C379  1  0.676170  0.855910  0.230550  1.0  0.1706
  C  C380  1  0.713040  0.866280  0.255200  1.0  -0.2185
  C  C381  1  0.756360  0.909020  0.208300  1.0  0.0926
  C  C382  1  0.798210  0.920790  0.232610  1.0  -0.3957
  C  C383  1  0.757450  0.940930  0.137270  1.0  -0.2178
  C  C384  1  0.716780  0.929300  0.117360  1.0  0.178
  C  C385  1  0.849110  0.240390  0.484950  1.0  0.748
  C  C386  1  0.846300  0.315880  0.433060  1.0  -0.0846
  C  C387  1  0.846420  0.364480  0.453000  1.0  -0.0147
  C  C388  1  0.855910  0.230550  0.676170  1.0  0.1715
  C  C389  1  0.866280  0.255200  0.713040  1.0  -0.2213
  C  C390  1  0.909020  0.208300  0.756360  1.0  0.0941
  C  C391  1  0.920790  0.232610  0.798210  1.0  -0.397
  C  C392  1  0.940930  0.137270  0.757450  1.0  -0.2198
  C  C393  1  0.929300  0.117360  0.716780  1.0  0.1744
  C  C394  1  0.425550  0.484950  0.240390  1.0  0.7507
  C  C395  1  0.404760  0.433060  0.315880  1.0  -0.0827
  C  C396  1  0.336100  0.453000  0.364480  1.0  -0.0149
  C  C397  1  0.237370  0.676170  0.230550  1.0  0.1721
  C  C398  1  0.165480  0.713040  0.255200  1.0  -0.2158
  C  C399  1  0.126320  0.756360  0.208300  1.0  0.0939
  C  C400  1  0.048390  0.798210  0.232610  1.0  -0.3934
  C  C401  1  0.164350  0.757450  0.137270  1.0  -0.2187
  C  C402  1  0.236560  0.716780  0.117360  1.0  0.1748
  C  C403  1  0.484950  0.425550  0.849110  1.0  0.7509
  C  C404  1  0.433060  0.404760  0.846300  1.0  -0.0811
  C  C405  1  0.453000  0.336100  0.846420  1.0  -0.0121
  C  C406  1  0.676170  0.237370  0.855910  1.0  0.1715
  C  C407  1  0.713040  0.165480  0.866280  1.0  -0.2183
  C  C408  1  0.756360  0.126320  0.909020  1.0  0.0933
  C  C409  1  0.798210  0.048390  0.920790  1.0  -0.4004
  C  C410  1  0.757450  0.164350  0.940930  1.0  -0.2151
  C  C411  1  0.716780  0.236560  0.929300  1.0  0.177
  C  C412  1  0.240390  0.849110  0.425550  1.0  0.7549
  C  C413  1  0.315880  0.846300  0.404760  1.0  -0.0832
  C  C414  1  0.364480  0.846420  0.336100  1.0  -0.0142
  C  C415  1  0.230550  0.855910  0.237370  1.0  0.1726
  C  C416  1  0.255200  0.866280  0.165480  1.0  -0.2186
  C  C417  1  0.208300  0.909020  0.126320  1.0  0.0917
  C  C418  1  0.232610  0.920790  0.048390  1.0  -0.3972
  C  C419  1  0.137270  0.940930  0.164350  1.0  -0.2162
  C  C420  1  0.117360  0.929300  0.236560  1.0  0.1769
  N  N421  1  0.087630  0.572130  0.975890  1.0  -0.307
  N  N422  1  0.572130  0.087630  0.364350  1.0  -0.305
  N  N423  1  0.975890  0.364350  0.087630  1.0  -0.3056
  N  N424  1  0.364350  0.975890  0.572130  1.0  -0.3054
  N  N425  1  0.087630  0.975890  0.364350  1.0  -0.3064
  N  N426  1  0.572130  0.364350  0.975890  1.0  -0.3067
  N  N427  1  0.975890  0.087630  0.572130  1.0  -0.3051
  N  N428  1  0.364350  0.572130  0.087630  1.0  -0.3057
  N  N429  1  0.087630  0.364350  0.572130  1.0  -0.306
  N  N430  1  0.572130  0.975890  0.087630  1.0  -0.3042
  N  N431  1  0.975890  0.572130  0.364350  1.0  -0.3053
  N  N432  1  0.364350  0.087630  0.975890  1.0  -0.307
  N  N433  1  0.677870  0.162370  0.274110  1.0  -0.3058
  N  N434  1  0.162370  0.677870  0.885650  1.0  -0.3095
  N  N435  1  0.885650  0.274110  0.162370  1.0  -0.3062
  N  N436  1  0.274110  0.885650  0.677870  1.0  -0.303
  N  N437  1  0.274110  0.162370  0.885650  1.0  -0.3031
  N  N438  1  0.885650  0.677870  0.274110  1.0  -0.3071
  N  N439  1  0.162370  0.274110  0.677870  1.0  -0.3063
  N  N440  1  0.677870  0.885650  0.162370  1.0  -0.3085
  N  N441  1  0.885650  0.162370  0.677870  1.0  -0.3082
  N  N442  1  0.274110  0.677870  0.162370  1.0  -0.303
  N  N443  1  0.677870  0.274110  0.885650  1.0  -0.3059
  N  N444  1  0.162370  0.885650  0.274110  1.0  -0.3062
  O  O445  1  0.027180  0.707340  0.872800  1.0  -0.603
  O  O446  1  0.050170  0.783850  0.760690  1.0  -0.5296
  O  O447  1  0.707340  0.027180  0.392680  1.0  -0.6015
  O  O448  1  0.783850  0.050170  0.405290  1.0  -0.5351
  O  O449  1  0.872800  0.392680  0.027180  1.0  -0.6035
  O  O450  1  0.760690  0.405290  0.050170  1.0  -0.5348
  O  O451  1  0.392680  0.872800  0.707340  1.0  -0.6018
  O  O452  1  0.405290  0.760690  0.783850  1.0  -0.5354
  O  O453  1  0.027180  0.872800  0.392680  1.0  -0.6058
  O  O454  1  0.050170  0.760690  0.405290  1.0  -0.528
  O  O455  1  0.707340  0.392680  0.872800  1.0  -0.6026
  O  O456  1  0.783850  0.405290  0.760690  1.0  -0.5353
  O  O457  1  0.872800  0.027180  0.707340  1.0  -0.6048
  O  O458  1  0.760690  0.050170  0.783850  1.0  -0.531
  O  O459  1  0.392680  0.707340  0.027180  1.0  -0.6034
  O  O460  1  0.405290  0.783850  0.050170  1.0  -0.5333
  O  O461  1  0.027180  0.392680  0.707340  1.0  -0.6034
  O  O462  1  0.050170  0.405290  0.783850  1.0  -0.5379
  O  O463  1  0.707340  0.872800  0.027180  1.0  -0.6028
  O  O464  1  0.783850  0.760690  0.050170  1.0  -0.5313
  O  O465  1  0.872800  0.707340  0.392680  1.0  -0.6054
  O  O466  1  0.760690  0.783850  0.405290  1.0  -0.5293
  O  O467  1  0.392680  0.027180  0.872800  1.0  -0.601
  O  O468  1  0.405290  0.050170  0.760690  1.0  -0.5326
  O  O469  1  0.542660  0.222820  0.377200  1.0  -0.6015
  O  O470  1  0.466150  0.199830  0.489310  1.0  -0.5351
  O  O471  1  0.222820  0.542660  0.857320  1.0  -0.603
  O  O472  1  0.199830  0.466150  0.844710  1.0  -0.5293
  O  O473  1  0.857320  0.377200  0.222820  1.0  -0.6034
  O  O474  1  0.844710  0.489310  0.199830  1.0  -0.5316
  O  O475  1  0.377200  0.857320  0.542660  1.0  -0.6037
  O  O476  1  0.489310  0.844710  0.466150  1.0  -0.5387
  O  O477  1  0.377200  0.222820  0.857320  1.0  -0.6029
  O  O478  1  0.489310  0.199830  0.844710  1.0  -0.5303
  O  O479  1  0.857320  0.542660  0.377200  1.0  -0.6055
  O  O480  1  0.844710  0.466150  0.489310  1.0  -0.5324
  O  O481  1  0.222820  0.377200  0.542660  1.0  -0.605
  O  O482  1  0.199830  0.489310  0.466150  1.0  -0.5249
  O  O483  1  0.542660  0.857320  0.222820  1.0  -0.6034
  O  O484  1  0.466150  0.844710  0.199830  1.0  -0.5325
  O  O485  1  0.857320  0.222820  0.542660  1.0  -0.6032
  O  O486  1  0.844710  0.199830  0.466150  1.0  -0.5317
  O  O487  1  0.377200  0.542660  0.222820  1.0  -0.607
  O  O488  1  0.489310  0.466150  0.199830  1.0  -0.5313
  O  O489  1  0.542660  0.377200  0.857320  1.0  -0.604
  O  O490  1  0.466150  0.489310  0.844710  1.0  -0.528
  O  O491  1  0.222820  0.857320  0.377200  1.0  -0.6015
  O  O492  1  0.199830  0.844710  0.489310  1.0  -0.5356
