# generated using pymatgen
data_NiH14C20(NO4)2
_symmetry_space_group_name_H-M   'P 1'
_cell_length_a   24.77010000
_cell_length_b   24.77010000
_cell_length_c   24.77010000
_cell_angle_alpha   109.47100000
_cell_angle_beta   109.47100000
_cell_angle_gamma   109.47100000
_symmetry_Int_Tables_number   1
_chemical_formula_structural   NiH14C20(NO4)2
_chemical_formula_sum   'Ni12 H168 C240 N24 O96'
_cell_volume   11699.43628297
_cell_formula_units_Z   12
loop_
 _symmetry_equiv_pos_site_id
 _symmetry_equiv_pos_as_xyz
  1  'x, y, z'
loop_
 _atom_site_type_symbol
 _atom_site_label
 _atom_site_symmetry_multiplicity
 _atom_site_fract_x
 _atom_site_fract_y
 _atom_site_fract_z
 _atom_site_occupancy
 _atom_site_charge
  Ni  Ni1  1  0.028030  0.278030  0.556060  1.0  0.8315
  Ni  Ni2  1  0.221970  0.471970  0.943940  1.0  0.8304
  Ni  Ni3  1  0.278030  0.221970  0.250000  1.0  0.8297
  Ni  Ni4  1  0.471970  0.028030  0.250000  1.0  0.8292
  Ni  Ni5  1  0.750000  0.278030  0.721970  1.0  0.8305
  Ni  Ni6  1  0.750000  0.471970  0.528030  1.0  0.8313
  Ni  Ni7  1  0.056060  0.028030  0.778030  1.0  0.83
  Ni  Ni8  1  0.443940  0.221970  0.971970  1.0  0.8292
  Ni  Ni9  1  0.471970  0.443940  0.721970  1.0  0.8306
  Ni  Ni10  1  0.278030  0.056060  0.528030  1.0  0.8319
  Ni  Ni11  1  0.028030  0.750000  0.971970  1.0  0.8302
  Ni  Ni12  1  0.221970  0.750000  0.778030  1.0  0.8302
  H  H13  1  0.087700  0.478700  0.610400  1.0  0.1366
  H  H14  1  0.138100  0.298800  0.678700  1.0  0.131
  H  H15  1  0.250400  0.376700  0.755300  1.0  0.1221
  H  H16  1  0.309200  0.457300  0.741700  1.0  0.1361
  H  H17  1  0.252400  0.474300  0.656900  1.0  0.1522
  H  H18  1  0.137600  0.397700  0.584500  1.0  0.1182
  H  H19  1  0.912100  0.237000  0.471100  1.0  0.4495
  H  H20  1  0.368300  0.477300  0.889600  1.0  0.1367
  H  H21  1  0.120100  0.459400  0.821300  1.0  0.1303
  H  H22  1  0.121400  0.495100  0.744700  1.0  0.1196
  H  H23  1  0.215600  0.567500  0.758300  1.0  0.1387
  H  H24  1  0.317400  0.595500  0.843100  1.0  0.1522
  H  H25  1  0.313200  0.553100  0.915500  1.0  0.1168
  H  H26  1  0.265900  0.441000  0.028900  1.0  0.4492
  H  H27  1  0.131700  0.021300  0.109000  1.0  0.1389
  H  H28  1  0.379900  0.201200  0.339300  1.0  0.1319
  H  H29  1  0.378600  0.123300  0.373700  1.0  0.1209
  H  H30  1  0.284400  0.042700  0.351900  1.0  0.1364
  H  H31  1  0.182600  0.025700  0.278100  1.0  0.1522
  H  H32  1  0.186800  0.102300  0.239900  1.0  0.1168
  H  H33  1  0.234100  0.263000  0.175100  1.0  0.4486
  H  H34  1  0.412300  0.022700  0.391000  1.0  0.1363
  H  H35  1  0.361900  0.040600  0.160700  1.0  0.1306
  H  H36  1  0.249600  0.004900  0.126300  1.0  0.1191
  H  H37  1  0.190800  0.932500  0.148100  1.0  0.1376
  H  H38  1  0.247600  0.904500  0.221900  1.0  0.1529
  H  H39  1  0.362400  0.946900  0.260100  1.0  0.1173
  H  H40  1  0.587900  0.059000  0.324900  1.0  0.4495
  H  H41  1  0.609000  0.131700  0.521300  1.0  0.1381
  H  H42  1  0.839300  0.379900  0.701200  1.0  0.1311
  H  H43  1  0.873700  0.378600  0.623300  1.0  0.1197
  H  H44  1  0.851900  0.284400  0.542700  1.0  0.1397
  H  H45  1  0.778100  0.182600  0.525700  1.0  0.1518
  H  H46  1  0.739900  0.186800  0.602300  1.0  0.1164
  H  H47  1  0.675100  0.234100  0.763000  1.0  0.4482
  H  H48  1  0.891000  0.412300  0.522700  1.0  0.1393
  H  H49  1  0.660700  0.361900  0.540600  1.0  0.1306
  H  H50  1  0.626300  0.249600  0.504900  1.0  0.1203
  H  H51  1  0.648100  0.190800  0.432500  1.0  0.1367
  H  H52  1  0.721900  0.247600  0.404500  1.0  0.1522
  H  H53  1  0.760100  0.362400  0.446900  1.0  0.1191
  H  H54  1  0.824900  0.587900  0.559000  1.0  0.4476
  H  H55  1  0.110400  0.087700  0.978700  1.0  0.1373
  H  H56  1  0.178700  0.138100  0.798800  1.0  0.1315
  H  H57  1  0.255300  0.250400  0.876700  1.0  0.1218
  H  H58  1  0.241700  0.309200  0.957300  1.0  0.137
  H  H59  1  0.156900  0.252400  0.974300  1.0  0.1527
  H  H60  1  0.084500  0.137600  0.897700  1.0  0.118
  H  H61  1  0.971100  0.912100  0.737000  1.0  0.4507
  H  H62  1  0.389600  0.368300  0.977300  1.0  0.1396
  H  H63  1  0.321300  0.120100  0.959400  1.0  0.132
  H  H64  1  0.244700  0.121400  0.995100  1.0  0.121
  H  H65  1  0.258300  0.215600  0.067500  1.0  0.1366
  H  H66  1  0.343100  0.317400  0.095500  1.0  0.1535
  H  H67  1  0.415500  0.313200  0.053100  1.0  0.1173
  H  H68  1  0.528900  0.265900  0.941000  1.0  0.4493
  H  H69  1  0.477300  0.389600  0.868300  1.0  0.1356
  H  H70  1  0.459400  0.321300  0.620100  1.0  0.1318
  H  H71  1  0.495100  0.244700  0.621400  1.0  0.1192
  H  H72  1  0.567500  0.258300  0.715600  1.0  0.1367
  H  H73  1  0.595500  0.343100  0.817400  1.0  0.1514
  H  H74  1  0.553100  0.415500  0.813200  1.0  0.1161
  H  H75  1  0.441000  0.528900  0.765900  1.0  0.449
  H  H76  1  0.478700  0.110400  0.587700  1.0  0.1389
  H  H77  1  0.298800  0.178700  0.638100  1.0  0.1314
  H  H78  1  0.376700  0.255300  0.750400  1.0  0.1217
  H  H79  1  0.457300  0.241700  0.809200  1.0  0.1356
  H  H80  1  0.474300  0.156900  0.752400  1.0  0.1511
  H  H81  1  0.397700  0.084500  0.637600  1.0  0.1171
  H  H82  1  0.237000  0.971100  0.412100  1.0  0.4486
  H  H83  1  0.022700  0.891000  0.912300  1.0  0.138
  H  H84  1  0.040600  0.660700  0.861900  1.0  0.1313
  H  H85  1  0.004900  0.626300  0.749600  1.0  0.1184
  H  H86  1  0.932500  0.648100  0.690800  1.0  0.1394
  H  H87  1  0.904500  0.721900  0.747600  1.0  0.1509
  H  H88  1  0.946900  0.760100  0.862400  1.0  0.1166
  H  H89  1  0.059000  0.824900  0.087900  1.0  0.4502
  H  H90  1  0.021300  0.609000  0.631700  1.0  0.1392
  H  H91  1  0.201200  0.839300  0.879900  1.0  0.1314
  H  H92  1  0.123300  0.873700  0.878600  1.0  0.1193
  H  H93  1  0.042700  0.851900  0.784400  1.0  0.138
  H  H94  1  0.025700  0.778100  0.682600  1.0  0.1512
  H  H95  1  0.102300  0.739900  0.686800  1.0  0.1165
  H  H96  1  0.263000  0.675100  0.734100  1.0  0.4485
  H  H97  1  0.021300  0.412300  0.889600  1.0  0.1384
  H  H98  1  0.201200  0.361900  0.821300  1.0  0.1304
  H  H99  1  0.123300  0.249600  0.744700  1.0  0.1215
  H  H100  1  0.042700  0.190800  0.758300  1.0  0.1374
  H  H101  1  0.025700  0.247600  0.843100  1.0  0.1528
  H  H102  1  0.102300  0.362400  0.915500  1.0  0.1178
  H  H103  1  0.263000  0.587900  0.028900  1.0  0.4474
  H  H104  1  0.022700  0.131700  0.610400  1.0  0.1376
  H  H105  1  0.040600  0.379900  0.678700  1.0  0.131
  H  H106  1  0.004900  0.378600  0.755300  1.0  0.1206
  H  H107  1  0.932500  0.284400  0.741700  1.0  0.1397
  H  H108  1  0.904500  0.182600  0.656900  1.0  0.1526
  H  H109  1  0.946900  0.186800  0.584500  1.0  0.1155
  H  H110  1  0.059000  0.234100  0.471100  1.0  0.4501
  H  H111  1  0.478700  0.368300  0.391000  1.0  0.1373
  H  H112  1  0.298800  0.120100  0.160700  1.0  0.1314
  H  H113  1  0.376700  0.121400  0.126300  1.0  0.1197
  H  H114  1  0.457300  0.215600  0.148100  1.0  0.1364
  H  H115  1  0.474300  0.317400  0.221900  1.0  0.1543
  H  H116  1  0.397700  0.313200  0.260100  1.0  0.1165
  H  H117  1  0.237000  0.265900  0.324900  1.0  0.4488
  H  H118  1  0.477300  0.087700  0.109000  1.0  0.135
  H  H119  1  0.459400  0.138100  0.339300  1.0  0.1316
  H  H120  1  0.495100  0.250400  0.373700  1.0  0.1192
  H  H121  1  0.567500  0.309200  0.351900  1.0  0.1379
  H  H122  1  0.595500  0.252400  0.278100  1.0  0.1519
  H  H123  1  0.553100  0.137600  0.239900  1.0  0.1178
  H  H124  1  0.441000  0.912100  0.175100  1.0  0.4494
  H  H125  1  0.368300  0.891000  0.978700  1.0  0.1381
  H  H126  1  0.120100  0.660700  0.798800  1.0  0.1309
  H  H127  1  0.121400  0.626300  0.876700  1.0  0.1188
  H  H128  1  0.215600  0.648100  0.957300  1.0  0.1391
  H  H129  1  0.317400  0.721900  0.974300  1.0  0.1504
  H  H130  1  0.313200  0.760100  0.897700  1.0  0.1169
  H  H131  1  0.265900  0.824900  0.737000  1.0  0.4498
  H  H132  1  0.087700  0.609000  0.977300  1.0  0.1397
  H  H133  1  0.138100  0.839300  0.959400  1.0  0.131
  H  H134  1  0.250400  0.873700  0.995100  1.0  0.1186
  H  H135  1  0.309200  0.851900  0.067500  1.0  0.1389
  H  H136  1  0.252400  0.778100  0.095500  1.0  0.1526
  H  H137  1  0.137600  0.739900  0.053100  1.0  0.1172
  H  H138  1  0.912100  0.675100  0.941000  1.0  0.4478
  H  H139  1  0.412300  0.389600  0.521300  1.0  0.1363
  H  H140  1  0.361900  0.321300  0.701200  1.0  0.1316
  H  H141  1  0.249600  0.244700  0.623300  1.0  0.1218
  H  H142  1  0.190800  0.258300  0.542700  1.0  0.1363
  H  H143  1  0.247600  0.343100  0.525700  1.0  0.1508
  H  H144  1  0.362400  0.415500  0.602300  1.0  0.1164
  H  H145  1  0.587900  0.528900  0.763000  1.0  0.447
  H  H146  1  0.131700  0.110400  0.522700  1.0  0.1386
  H  H147  1  0.379900  0.178700  0.540600  1.0  0.1307
  H  H148  1  0.378600  0.255300  0.504900  1.0  0.1195
  H  H149  1  0.284400  0.241700  0.432500  1.0  0.1363
  H  H150  1  0.182600  0.156900  0.404500  1.0  0.1494
  H  H151  1  0.186800  0.084500  0.446900  1.0  0.1164
  H  H152  1  0.234100  0.971100  0.559000  1.0  0.4496
  H  H153  1  0.110400  0.022700  0.631700  1.0  0.1371
  H  H154  1  0.178700  0.040600  0.879900  1.0  0.1312
  H  H155  1  0.255300  0.004900  0.878600  1.0  0.1191
  H  H156  1  0.241700  0.932500  0.784400  1.0  0.1377
  H  H157  1  0.156900  0.904500  0.682600  1.0  0.152
  H  H158  1  0.084500  0.946900  0.686800  1.0  0.1165
  H  H159  1  0.971100  0.059000  0.734100  1.0  0.45
  H  H160  1  0.389600  0.021300  0.912300  1.0  0.1397
  H  H161  1  0.321300  0.201200  0.861900  1.0  0.1311
  H  H162  1  0.244700  0.123300  0.749600  1.0  0.1234
  H  H163  1  0.258300  0.042700  0.690800  1.0  0.1356
  H  H164  1  0.343100  0.025700  0.747600  1.0  0.1526
  H  H165  1  0.415500  0.102300  0.862400  1.0  0.1168
  H  H166  1  0.528900  0.263000  0.087900  1.0  0.4481
  H  H167  1  0.609000  0.477300  0.587700  1.0  0.1372
  H  H168  1  0.839300  0.459400  0.638100  1.0  0.1303
  H  H169  1  0.873700  0.495100  0.750400  1.0  0.1202
  H  H170  1  0.851900  0.567500  0.809200  1.0  0.1388
  H  H171  1  0.778100  0.595500  0.752400  1.0  0.1521
  H  H172  1  0.739900  0.553100  0.637600  1.0  0.1165
  H  H173  1  0.675100  0.441000  0.412100  1.0  0.4513
  H  H174  1  0.891000  0.478700  0.868300  1.0  0.1392
  H  H175  1  0.660700  0.298800  0.620100  1.0  0.1301
  H  H176  1  0.626300  0.376700  0.621400  1.0  0.1183
  H  H177  1  0.648100  0.457300  0.715600  1.0  0.137
  H  H178  1  0.721900  0.474300  0.817400  1.0  0.1529
  H  H179  1  0.760100  0.397700  0.813200  1.0  0.1177
  H  H180  1  0.824900  0.237000  0.765900  1.0  0.4477
  C  C181  1  0.973700  0.364780  0.535260  1.0  0.7061
  C  C182  1  0.987470  0.435230  0.561840  1.0  -0.1208
  C  C183  1  0.052040  0.487280  0.600980  1.0  0.002
  C  C184  1  0.932000  0.184300  0.419900  1.0  0.1839
  C  C185  1  0.860600  0.139200  0.363800  1.0  -0.0254
  C  C186  1  0.160100  0.334700  0.673600  1.0  0.1516
  C  C187  1  0.228500  0.381100  0.718800  1.0  -0.0784
  C  C188  1  0.262800  0.429400  0.712400  1.0  -0.0928
  C  C189  1  0.230300  0.438800  0.662500  1.0  -0.0828
  C  C190  1  0.161100  0.392200  0.619500  1.0  0.1962
  C  C191  1  0.329520  0.438440  0.964740  1.0  0.7074
  C  C192  1  0.373390  0.425630  0.938160  1.0  -0.1242
  C  C193  1  0.386300  0.451060  0.899020  1.0  -0.0016
  C  C194  1  0.264400  0.512100  0.080100  1.0  0.1734
  C  C195  1  0.275400  0.496800  0.136200  1.0  -0.0219
  C  C196  1  0.161100  0.486500  0.826400  1.0  0.1519
  C  C197  1  0.162300  0.509700  0.781200  1.0  -0.0804
  C  C198  1  0.217000  0.550400  0.787600  1.0  -0.0955
  C  C199  1  0.276300  0.567800  0.837500  1.0  -0.0863
  C  C200  1  0.272700  0.541600  0.880500  1.0  0.1956
  C  C201  1  0.170480  0.135220  0.108920  1.0  0.7049
  C  C202  1  0.126610  0.064770  0.052240  1.0  -0.1218
  C  C203  1  0.113700  0.012720  0.064760  1.0  0.0036
  C  C204  1  0.235600  0.315700  0.247700  1.0  0.1757
  C  C205  1  0.224600  0.360800  0.221400  1.0  -0.0226
  C  C206  1  0.338900  0.165300  0.325400  1.0  0.1522
  C  C207  1  0.337700  0.118900  0.347400  1.0  -0.0779
  C  C208  1  0.283000  0.070600  0.333400  1.0  -0.0924
  C  C209  1  0.223700  0.061200  0.291500  1.0  -0.0898
  C  C210  1  0.227300  0.107800  0.268900  1.0  0.1965
  C  C211  1  0.526300  0.061560  0.391080  1.0  0.7052
  C  C212  1  0.512530  0.074370  0.447760  1.0  -0.1198
  C  C213  1  0.447960  0.048940  0.435240  1.0  -0.0047
  C  C214  1  0.568000  0.987900  0.252300  1.0  0.1781
  C  C215  1  0.639400  0.003200  0.278600  1.0  -0.0326
  C  C216  1  0.339900  0.013500  0.174600  1.0  0.1506
  C  C217  1  0.271500  0.990300  0.152600  1.0  -0.0788
  C  C218  1  0.237200  0.949600  0.166600  1.0  -0.0942
  C  C219  1  0.269700  0.932200  0.208500  1.0  -0.0859
  C  C220  1  0.338900  0.958400  0.231100  1.0  0.1955
  C  C221  1  0.608920  0.170480  0.635220  1.0  0.7062
  C  C222  1  0.552240  0.126610  0.564770  1.0  -0.1247
  C  C223  1  0.564760  0.113700  0.512720  1.0  0.003
  C  C224  1  0.747700  0.235600  0.815700  1.0  0.1722
  C  C225  1  0.721400  0.224600  0.860800  1.0  -0.0249
  C  C226  1  0.825400  0.338900  0.665300  1.0  0.1515
  C  C227  1  0.847400  0.337700  0.618900  1.0  -0.0772
  C  C228  1  0.833400  0.283000  0.570600  1.0  -0.0947
  C  C229  1  0.791500  0.223700  0.561200  1.0  -0.0873
  C  C230  1  0.768900  0.227300  0.607800  1.0  0.1939
  C  C231  1  0.891080  0.526300  0.561560  1.0  0.7049
  C  C232  1  0.947760  0.512530  0.574370  1.0  -0.1172
  C  C233  1  0.935240  0.447960  0.548940  1.0  -0.0062
  C  C234  1  0.752300  0.568000  0.487900  1.0  0.1754
  C  C235  1  0.778600  0.639400  0.503200  1.0  -0.0251
  C  C236  1  0.674600  0.339900  0.513500  1.0  0.1509
  C  C237  1  0.652600  0.271500  0.490300  1.0  -0.0785
  C  C238  1  0.666667  0.237200  0.449600  1.0  -0.0664
  C  C239  1  0.708500  0.269700  0.432200  1.0  -0.0846
  C  C240  1  0.731100  0.338900  0.458400  1.0  0.1949
  C  C241  1  0.035260  0.973700  0.864780  1.0  0.707
  C  C242  1  0.061840  0.987470  0.935230  1.0  -0.1214
  C  C243  1  0.100980  0.052040  0.987280  1.0  0.0032
  C  C244  1  0.919900  0.932000  0.684300  1.0  0.1788
  C  C245  1  0.863800  0.860600  0.639200  1.0  -0.0365
  C  C246  1  0.173600  0.160100  0.834700  1.0  0.1525
  C  C247  1  0.218800  0.228500  0.881100  1.0  -0.0771
  C  C248  1  0.212400  0.262800  0.929400  1.0  -0.0925
  C  C249  1  0.162500  0.230300  0.938800  1.0  -0.0884
  C  C250  1  0.119500  0.161100  0.892200  1.0  0.1973
  C  C251  1  0.464740  0.329520  0.938440  1.0  0.7061
  C  C252  1  0.438160  0.373390  0.925630  1.0  -0.1234
  C  C253  1  0.399020  0.386300  0.951060  1.0  -0.0024
  C  C254  1  0.580100  0.264400  0.012100  1.0  0.1766
  C  C255  1  0.636200  0.275400  0.996800  1.0  -0.0283
  C  C256  1  0.326400  0.161100  0.986500  1.0  0.1527
  C  C257  1  0.281200  0.162300  0.009700  1.0  -0.0776
  C  C258  1  0.287600  0.217000  0.050400  1.0  -0.094
  C  C259  1  0.337500  0.276300  0.067800  1.0  -0.0833
  C  C260  1  0.380500  0.272700  0.041600  1.0  0.1945
  C  C261  1  0.438440  0.464740  0.829520  1.0  0.7052
  C  C262  1  0.425630  0.438160  0.873390  1.0  -0.1223
  C  C263  1  0.451060  0.399020  0.886300  1.0  0.0039
  C  C264  1  0.512100  0.580100  0.764400  1.0  0.1792
  C  C265  1  0.496800  0.636200  0.775400  1.0  -0.0293
  C  C266  1  0.486500  0.326400  0.661100  1.0  0.1511
  C  C267  1  0.509700  0.281200  0.662300  1.0  -0.0765
  C  C268  1  0.550400  0.287600  0.717000  1.0  -0.0958
  C  C269  1  0.567800  0.337500  0.776300  1.0  -0.0861
  C  C270  1  0.541600  0.380500  0.772700  1.0  0.1939
  C  C271  1  0.364780  0.035260  0.473700  1.0  0.7068
  C  C272  1  0.435230  0.061840  0.487470  1.0  -0.1239
  C  C273  1  0.487280  0.100980  0.552040  1.0  0.0022
  C  C274  1  0.184300  0.919900  0.432000  1.0  0.1792
  C  C275  1  0.139200  0.863800  0.360600  1.0  -0.0283
  C  C276  1  0.334700  0.173600  0.660100  1.0  0.1519
  C  C277  1  0.381100  0.218800  0.728500  1.0  -0.0775
  C  C278  1  0.429400  0.212400  0.762800  1.0  -0.0949
  C  C279  1  0.438800  0.162500  0.730300  1.0  -0.0877
  C  C280  1  0.392200  0.119500  0.661100  1.0  0.195
  C  C281  1  0.061560  0.891080  0.026300  1.0  0.7064
  C  C282  1  0.074370  0.947760  0.012530  1.0  -0.1171
  C  C283  1  0.048940  0.935240  0.947960  1.0  -0.0024
  C  C284  1  0.987900  0.752300  0.068000  1.0  0.1752
  C  C285  1  0.003200  0.778600  0.139400  1.0  -0.0271
  C  C286  1  0.013500  0.674600  0.839900  1.0  0.153
  C  C287  1  0.990300  0.652600  0.771500  1.0  -0.0764
  C  C288  1  0.949600  0.666667  0.737200  1.0  -0.0691
  C  C289  1  0.932200  0.708500  0.769700  1.0  -0.0883
  C  C290  1  0.958400  0.731100  0.838900  1.0  0.1962
  C  C291  1  0.135220  0.608920  0.670480  1.0  0.7058
  C  C292  1  0.064770  0.552240  0.626610  1.0  -0.1201
  C  C293  1  0.012720  0.564760  0.613700  1.0  0.0008
  C  C294  1  0.315700  0.747700  0.735600  1.0  0.1748
  C  C295  1  0.360800  0.721400  0.724600  1.0  -0.0332
  C  C296  1  0.165300  0.825400  0.838900  1.0  0.1517
  C  C297  1  0.118900  0.847400  0.837700  1.0  -0.0787
  C  C298  1  0.070600  0.833400  0.783000  1.0  -0.0961
  C  C299  1  0.061200  0.791500  0.723700  1.0  -0.0878
  C  C300  1  0.107800  0.768900  0.727300  1.0  0.1952
  C  C301  1  0.135220  0.526300  0.964740  1.0  0.7047
  C  C302  1  0.064770  0.512530  0.938160  1.0  -0.1198
  C  C303  1  0.012720  0.447960  0.899020  1.0  0.003
  C  C304  1  0.315700  0.568000  0.080100  1.0  0.1731
  C  C305  1  0.360800  0.639400  0.136200  1.0  -0.0313
  C  C306  1  0.165300  0.339900  0.826400  1.0  0.15
  C  C307  1  0.118900  0.271500  0.781200  1.0  -0.0768
  C  C308  1  0.070600  0.237200  0.787600  1.0  -0.0925
  C  C309  1  0.061200  0.269700  0.837500  1.0  -0.0881
  C  C310  1  0.107800  0.338900  0.880500  1.0  0.1959
  C  C311  1  0.061560  0.170480  0.535260  1.0  0.7068
  C  C312  1  0.074370  0.126610  0.561840  1.0  -0.1233
  C  C313  1  0.048940  0.113700  0.600980  1.0  -0.0022
  C  C314  1  0.987900  0.235600  0.419900  1.0  0.177
  C  C315  1  0.003200  0.224600  0.363800  1.0  -0.023
  C  C316  1  0.013500  0.338900  0.673600  1.0  0.1529
  C  C317  1  0.990300  0.337700  0.718800  1.0  -0.0774
  C  C318  1  0.949600  0.283000  0.712400  1.0  -0.0951
  C  C319  1  0.932200  0.223700  0.662500  1.0  -0.0892
  C  C320  1  0.958400  0.227300  0.619500  1.0  0.1939
  C  C321  1  0.364780  0.329520  0.391080  1.0  0.7052
  C  C322  1  0.435230  0.373390  0.447760  1.0  -0.1237
  C  C323  1  0.487280  0.386300  0.435240  1.0  -0.002
  C  C324  1  0.184300  0.264400  0.252300  1.0  0.1786
  C  C325  1  0.139200  0.275400  0.278600  1.0  -0.0331
  C  C326  1  0.334700  0.161100  0.174600  1.0  0.1516
  C  C327  1  0.381100  0.162300  0.152600  1.0  -0.0772
  C  C328  1  0.429400  0.217000  0.166600  1.0  -0.0955
  C  C329  1  0.438800  0.276300  0.208500  1.0  -0.0825
  C  C330  1  0.392200  0.272700  0.231100  1.0  0.1939
  C  C331  1  0.438440  0.973700  0.108920  1.0  0.7075
  C  C332  1  0.425630  0.987470  0.052240  1.0  -0.1194
  C  C333  1  0.451060  0.052040  0.064760  1.0  -0.0023
  C  C334  1  0.512100  0.932000  0.247700  1.0  0.1708
  C  C335  1  0.496800  0.860600  0.221400  1.0  -0.0265
  C  C336  1  0.486500  0.160100  0.325400  1.0  0.1523
  C  C337  1  0.509700  0.228500  0.347400  1.0  -0.0786
  C  C338  1  0.550400  0.262800  0.333400  1.0  -0.0934
  C  C339  1  0.567800  0.230300  0.291500  1.0  -0.0859
  C  C340  1  0.541600  0.161100  0.268900  1.0  0.1961
  C  C341  1  0.329520  0.891080  0.864780  1.0  0.709
  C  C342  1  0.373390  0.947760  0.935230  1.0  -0.1232
  C  C343  1  0.386300  0.935240  0.987280  1.0  0.0009
  C  C344  1  0.264400  0.752300  0.684300  1.0  0.178
  C  C345  1  0.275400  0.778600  0.639200  1.0  -0.0318
  C  C346  1  0.161100  0.674600  0.834700  1.0  0.1532
  C  C347  1  0.162300  0.652600  0.881100  1.0  -0.0798
  C  C348  1  0.217000  0.666667  0.929400  1.0  -0.0938
  C  C349  1  0.276300  0.708500  0.938800  1.0  -0.0866
  C  C350  1  0.272700  0.731100  0.892200  1.0  0.1953
  C  C351  1  0.973700  0.608920  0.938440  1.0  0.7062
  C  C352  1  0.987470  0.552240  0.925630  1.0  -0.1152
  C  C353  1  0.052040  0.564760  0.951060  1.0  -0.0036
  C  C354  1  0.932000  0.747700  0.012100  1.0  0.1753
  C  C355  1  0.860600  0.721400  0.996800  1.0  -0.026
  C  C356  1  0.160100  0.825400  0.986500  1.0  0.1522
  C  C357  1  0.228500  0.847400  0.009700  1.0  -0.0767
  C  C358  1  0.262800  0.833400  0.050400  1.0  -0.0955
  C  C359  1  0.230300  0.791500  0.067800  1.0  -0.0866
  C  C360  1  0.161100  0.768900  0.041600  1.0  0.1959
  C  C361  1  0.526300  0.464740  0.635220  1.0  0.7059
  C  C362  1  0.512530  0.438160  0.564770  1.0  -0.1248
  C  C363  1  0.447960  0.399020  0.512720  1.0  -0.0003
  C  C364  1  0.568000  0.580100  0.815700  1.0  0.174
  C  C365  1  0.639400  0.636200  0.860800  1.0  -0.0274
  C  C366  1  0.339900  0.326400  0.665300  1.0  0.1508
  C  C367  1  0.271500  0.281200  0.618900  1.0  -0.0784
  C  C368  1  0.237200  0.287600  0.570600  1.0  -0.0957
  C  C369  1  0.269700  0.337500  0.561200  1.0  -0.0863
  C  C370  1  0.338900  0.380500  0.607800  1.0  0.1931
  C  C371  1  0.170480  0.035260  0.561560  1.0  0.7049
  C  C372  1  0.126610  0.061840  0.574370  1.0  -0.1237
  C  C373  1  0.113700  0.100980  0.548940  1.0  -0.0014
  C  C374  1  0.235600  0.919900  0.487900  1.0  0.1789
  C  C375  1  0.224600  0.863800  0.503200  1.0  -0.0199
  C  C376  1  0.338900  0.173600  0.513500  1.0  0.1506
  C  C377  1  0.337700  0.218800  0.490300  1.0  -0.0774
  C  C378  1  0.283000  0.212400  0.449600  1.0  -0.0954
  C  C379  1  0.223700  0.162500  0.432200  1.0  -0.0906
  C  C380  1  0.227300  0.119500  0.458400  1.0  0.1937
  C  C381  1  0.035260  0.061560  0.670480  1.0  0.7045
  C  C382  1  0.061840  0.074370  0.626610  1.0  -0.1242
  C  C383  1  0.100980  0.048940  0.613700  1.0  0.0048
  C  C384  1  0.919900  0.987900  0.735600  1.0  0.173
  C  C385  1  0.863800  0.003200  0.724600  1.0  -0.0228
  C  C386  1  0.173600  0.013500  0.838900  1.0  0.1512
  C  C387  1  0.218800  0.990300  0.837700  1.0  -0.0782
  C  C388  1  0.212400  0.949600  0.783000  1.0  -0.0949
  C  C389  1  0.162500  0.932200  0.723700  1.0  -0.0851
  C  C390  1  0.119500  0.958400  0.727300  1.0  0.1932
  C  C391  1  0.464740  0.135220  0.026300  1.0  0.7049
  C  C392  1  0.438160  0.064770  0.012530  1.0  -0.1198
  C  C393  1  0.399020  0.012720  0.947960  1.0  0.0039
  C  C394  1  0.580100  0.315700  0.068000  1.0  0.1758
  C  C395  1  0.636200  0.360800  0.139400  1.0  -0.0277
  C  C396  1  0.326400  0.165300  0.839900  1.0  0.1521
  C  C397  1  0.281200  0.118900  0.771500  1.0  -0.0809
  C  C398  1  0.287600  0.070600  0.737200  1.0  -0.0931
  C  C399  1  0.337500  0.061200  0.769700  1.0  -0.0896
  C  C400  1  0.380500  0.107800  0.838900  1.0  0.1952
  C  C401  1  0.608920  0.438440  0.473700  1.0  0.7087
  C  C402  1  0.552240  0.425630  0.487470  1.0  -0.1205
  C  C403  1  0.564760  0.451060  0.552040  1.0  -0.0015
  C  C404  1  0.747700  0.512100  0.432000  1.0  0.1772
  C  C405  1  0.721400  0.496800  0.360600  1.0  -0.0238
  C  C406  1  0.825400  0.486500  0.660100  1.0  0.152
  C  C407  1  0.847400  0.509700  0.728500  1.0  -0.0795
  C  C408  1  0.833400  0.550400  0.762800  1.0  -0.0962
  C  C409  1  0.791500  0.567800  0.730300  1.0  -0.0889
  C  C410  1  0.768900  0.541600  0.661100  1.0  0.1952
  C  C411  1  0.891080  0.364780  0.829520  1.0  0.7053
  C  C412  1  0.947760  0.435230  0.873390  1.0  -0.1205
  C  C413  1  0.935240  0.487280  0.886300  1.0  0.0019
  C  C414  1  0.752300  0.184300  0.764400  1.0  0.1803
  C  C415  1  0.778600  0.139200  0.775400  1.0  -0.0253
  C  C416  1  0.674600  0.334700  0.661100  1.0  0.1509
  C  C417  1  0.652600  0.381100  0.662300  1.0  -0.08
  C  C418  1  0.666667  0.429400  0.717000  1.0  -0.093
  C  C419  1  0.708500  0.438800  0.776300  1.0  -0.0812
  C  C420  1  0.731100  0.392200  0.772700  1.0  0.1969
  N  N421  1  0.127440  0.341850  0.624690  1.0  -0.2883
  N  N422  1  0.217160  0.502750  0.875310  1.0  -0.2886
  N  N423  1  0.282840  0.158150  0.285590  1.0  -0.2895
  N  N424  1  0.372560  0.997250  0.214410  1.0  -0.2887
  N  N425  1  0.785590  0.282840  0.658150  1.0  -0.2882
  N  N426  1  0.714410  0.372560  0.497250  1.0  -0.2869
  N  N427  1  0.124690  0.127440  0.841850  1.0  -0.2869
  N  N428  1  0.375310  0.217160  0.002750  1.0  -0.289
  N  N429  1  0.502750  0.375310  0.717160  1.0  -0.2879
  N  N430  1  0.341850  0.124690  0.627440  1.0  -0.2902
  N  N431  1  0.997250  0.714410  0.872560  1.0  -0.2887
  N  N432  1  0.158150  0.785590  0.782840  1.0  -0.2883
  N  N433  1  0.158150  0.372560  0.875310  1.0  -0.2867
  N  N434  1  0.997250  0.282840  0.624690  1.0  -0.2873
  N  N435  1  0.341850  0.217160  0.214410  1.0  -0.2885
  N  N436  1  0.502750  0.127440  0.285590  1.0  -0.2877
  N  N437  1  0.217160  0.714410  0.841850  1.0  -0.2887
  N  N438  1  0.127440  0.785590  0.002750  1.0  -0.2879
  N  N439  1  0.372560  0.375310  0.658150  1.0  -0.2888
  N  N440  1  0.282840  0.124690  0.497250  1.0  -0.2892
  N  N441  1  0.124690  0.997250  0.782840  1.0  -0.2884
  N  N442  1  0.375310  0.158150  0.872560  1.0  -0.2884
  N  N443  1  0.785590  0.502750  0.627440  1.0  -0.2886
  N  N444  1  0.714410  0.341850  0.717160  1.0  -0.288
  O  O445  1  0.022620  0.358390  0.558430  1.0  -0.5633
  O  O446  1  0.916110  0.319090  0.493560  1.0  -0.5701
  O  O447  1  0.929540  0.215790  0.480430  1.0  -0.5876
  O  O448  1  0.833500  0.179400  0.355900  1.0  -0.4855
  O  O449  1  0.299960  0.464190  0.941570  1.0  -0.5637
  O  O450  1  0.325530  0.422550  0.006440  1.0  -0.5735
  O  O451  1  0.235360  0.449110  0.019570  1.0  -0.5858
  O  O452  1  0.323500  0.477600  0.144100  1.0  -0.4682
  O  O453  1  0.200040  0.141610  0.164230  1.0  -0.563
  O  O454  1  0.174470  0.180910  0.097020  1.0  -0.5746
  O  O455  1  0.264640  0.284210  0.213750  1.0  -0.5863
  O  O456  1  0.176500  0.320600  0.154100  1.0  -0.4704
  O  O457  1  0.477380  0.035810  0.335770  1.0  -0.5622
  O  O458  1  0.583890  0.077450  0.402980  1.0  -0.5741
  O  O459  1  0.570460  0.050890  0.286250  1.0  -0.5896
  O  O460  1  0.666500  0.022400  0.345900  1.0  -0.4859
  O  O461  1  0.664230  0.200040  0.641610  1.0  -0.5635
  O  O462  1  0.597020  0.174470  0.680910  1.0  -0.5732
  O  O463  1  0.713750  0.264640  0.784210  1.0  -0.5844
  O  O464  1  0.654100  0.176500  0.820600  1.0  -0.4804
  O  O465  1  0.835770  0.477380  0.535810  1.0  -0.5648
  O  O466  1  0.902980  0.583890  0.577450  1.0  -0.5698
  O  O467  1  0.786250  0.570460  0.550890  1.0  -0.5901
  O  O468  1  0.845900  0.666500  0.522400  1.0  -0.4818
  O  O469  1  0.058430  0.022620  0.858390  1.0  -0.5623
  O  O470  1  0.993560  0.916110  0.819090  1.0  -0.5761
  O  O471  1  0.980430  0.929540  0.715790  1.0  -0.5883
  O  O472  1  0.855900  0.833500  0.679400  1.0  -0.4912
  O  O473  1  0.441570  0.299960  0.964190  1.0  -0.5637
  O  O474  1  0.506440  0.325530  0.922550  1.0  -0.5745
  O  O475  1  0.519570  0.235360  0.949110  1.0  -0.5837
  O  O476  1  0.644100  0.323500  0.977600  1.0  -0.4705
  O  O477  1  0.464190  0.441570  0.799960  1.0  -0.5619
  O  O478  1  0.422550  0.506440  0.825530  1.0  -0.5688
  O  O479  1  0.449110  0.519570  0.735360  1.0  -0.5869
  O  O480  1  0.477600  0.644100  0.823500  1.0  -0.4692
  O  O481  1  0.358390  0.058430  0.522620  1.0  -0.5644
  O  O482  1  0.319090  0.993560  0.416110  1.0  -0.5723
  O  O483  1  0.215790  0.980430  0.429540  1.0  -0.5869
  O  O484  1  0.179400  0.855900  0.333500  1.0  -0.4887
  O  O485  1  0.035810  0.835770  0.977380  1.0  -0.563
  O  O486  1  0.077450  0.902980  0.083890  1.0  -0.5741
  O  O487  1  0.050890  0.786250  0.070460  1.0  -0.5835
  O  O488  1  0.022400  0.845900  0.166500  1.0  -0.4724
  O  O489  1  0.141610  0.664230  0.700040  1.0  -0.5632
  O  O490  1  0.180910  0.597020  0.674470  1.0  -0.5726
  O  O491  1  0.284210  0.713750  0.764640  1.0  -0.5865
  O  O492  1  0.320600  0.654100  0.676500  1.0  -0.4063
  O  O493  1  0.141610  0.477380  0.941570  1.0  -0.5643
  O  O494  1  0.180910  0.583890  0.006440  1.0  -0.5683
  O  O495  1  0.284210  0.570460  0.019570  1.0  -0.5917
  O  O496  1  0.320600  0.666500  0.144100  1.0  -0.4887
  O  O497  1  0.035810  0.200040  0.558430  1.0  -0.5626
  O  O498  1  0.077450  0.174470  0.493560  1.0  -0.5727
  O  O499  1  0.050890  0.264640  0.480430  1.0  -0.5834
  O  O500  1  0.022400  0.176500  0.355900  1.0  -0.4645
  O  O501  1  0.358390  0.299960  0.335770  1.0  -0.5642
  O  O502  1  0.319090  0.325530  0.402980  1.0  -0.5721
  O  O503  1  0.215790  0.235360  0.286250  1.0  -0.5853
  O  O504  1  0.179400  0.323500  0.345900  1.0  -0.4739
  O  O505  1  0.464190  0.022620  0.164230  1.0  -0.5633
  O  O506  1  0.422550  0.916110  0.097020  1.0  -0.5768
  O  O507  1  0.449110  0.929540  0.213750  1.0  -0.5853
  O  O508  1  0.477600  0.833500  0.154100  1.0  -0.4851
  O  O509  1  0.299960  0.835770  0.858390  1.0  -0.5633
  O  O510  1  0.325530  0.902980  0.819090  1.0  -0.5734
  O  O511  1  0.235360  0.786250  0.715790  1.0  -0.5837
  O  O512  1  0.323500  0.845900  0.679400  1.0  -0.4056
  O  O513  1  0.022620  0.664230  0.964190  1.0  -0.5641
  O  O514  1  0.916110  0.597020  0.922550  1.0  -0.5697
  O  O515  1  0.929540  0.713750  0.949110  1.0  -0.5861
  O  O516  1  0.833500  0.654100  0.977600  1.0  -0.4833
  O  O517  1  0.477380  0.441570  0.641610  1.0  -0.5618
  O  O518  1  0.583890  0.506440  0.680910  1.0  -0.57
  O  O519  1  0.570460  0.519570  0.784210  1.0  -0.5857
  O  O520  1  0.666500  0.644100  0.820600  1.0  -0.4889
  O  O521  1  0.200040  0.058430  0.535810  1.0  -0.5657
  O  O522  1  0.174470  0.993560  0.577450  1.0  -0.5732
  O  O523  1  0.264640  0.980430  0.550890  1.0  -0.5863
  O  O524  1  0.176500  0.855900  0.522400  1.0  -0.4683
  O  O525  1  0.058430  0.035810  0.700040  1.0  -0.563
  O  O526  1  0.993560  0.077450  0.674470  1.0  -0.5748
  O  O527  1  0.980430  0.050890  0.764640  1.0  -0.5845
  O  O528  1  0.855900  0.022400  0.676500  1.0  -0.4688
  O  O529  1  0.441570  0.141610  0.977380  1.0  -0.564
  O  O530  1  0.506440  0.180910  0.083890  1.0  -0.5727
  O  O531  1  0.519570  0.284210  0.070460  1.0  -0.5885
  O  O532  1  0.644100  0.320600  0.166500  1.0  -0.4894
  O  O533  1  0.664230  0.464190  0.522620  1.0  -0.5648
  O  O534  1  0.597020  0.422550  0.416110  1.0  -0.573
  O  O535  1  0.713750  0.449110  0.429540  1.0  -0.5849
  O  O536  1  0.654100  0.477600  0.333500  1.0  -0.4806
  O  O537  1  0.835770  0.358390  0.799960  1.0  -0.5627
  O  O538  1  0.902980  0.319090  0.825530  1.0  -0.5699
  O  O539  1  0.786250  0.215790  0.735360  1.0  -0.5896
  O  O540  1  0.845900  0.179400  0.823500  1.0  -0.4824
