# generated using pymatgen
data_NiH2C16(NO2)2
_symmetry_space_group_name_H-M   'P 1'
_cell_length_a   28.71800000
_cell_length_b   28.71800000
_cell_length_c   28.71800000
_cell_angle_alpha   90.00000000
_cell_angle_beta   90.00000000
_cell_angle_gamma   90.00000000
_symmetry_Int_Tables_number   1
_chemical_formula_structural   NiH2C16(NO2)2
_chemical_formula_sum   'Ni24 H48 C384 N48 O96'
_cell_volume   23684.41016223
_cell_formula_units_Z   24
loop_
 _symmetry_equiv_pos_site_id
 _symmetry_equiv_pos_as_xyz
  1  'x, y, z'
loop_
 _atom_site_type_symbol
 _atom_site_label
 _atom_site_symmetry_multiplicity
 _atom_site_fract_x
 _atom_site_fract_y
 _atom_site_fract_z
 _atom_site_occupancy
 _atom_site_charge
  Ni  Ni1  1  0.404200  0.345800  0.875000  1.0  0.7136
  Ni  Ni2  1  0.095800  0.654200  0.375000  1.0  0.709
  Ni  Ni3  1  0.595800  0.845800  0.625000  1.0  0.7105
  Ni  Ni4  1  0.904200  0.154200  0.125000  1.0  0.7125
  Ni  Ni5  1  0.875000  0.404200  0.345800  1.0  0.7133
  Ni  Ni6  1  0.375000  0.095800  0.654200  1.0  0.712
  Ni  Ni7  1  0.625000  0.595800  0.845800  1.0  0.716
  Ni  Ni8  1  0.125000  0.904200  0.154200  1.0  0.7109
  Ni  Ni9  1  0.345800  0.875000  0.404200  1.0  0.7081
  Ni  Ni10  1  0.654200  0.375000  0.095800  1.0  0.7141
  Ni  Ni11  1  0.845800  0.625000  0.595800  1.0  0.7116
  Ni  Ni12  1  0.154200  0.125000  0.904200  1.0  0.7115
  Ni  Ni13  1  0.904200  0.845800  0.375000  1.0  0.7136
  Ni  Ni14  1  0.595800  0.154200  0.875000  1.0  0.709
  Ni  Ni15  1  0.095800  0.345800  0.125000  1.0  0.7105
  Ni  Ni16  1  0.404200  0.654200  0.625000  1.0  0.7125
  Ni  Ni17  1  0.375000  0.904200  0.845800  1.0  0.7133
  Ni  Ni18  1  0.875000  0.595800  0.154200  1.0  0.712
  Ni  Ni19  1  0.125000  0.095800  0.345800  1.0  0.716
  Ni  Ni20  1  0.625000  0.404200  0.654200  1.0  0.7109
  Ni  Ni21  1  0.845800  0.375000  0.904200  1.0  0.7081
  Ni  Ni22  1  0.154200  0.875000  0.595800  1.0  0.7141
  Ni  Ni23  1  0.345800  0.125000  0.095800  1.0  0.7116
  Ni  Ni24  1  0.654200  0.625000  0.404200  1.0  0.7115
  H  H25  1  0.503000  0.390000  0.975900  1.0  0.1131
  H  H26  1  0.997000  0.610000  0.475900  1.0  0.1124
  H  H27  1  0.497000  0.890000  0.524100  1.0  0.107
  H  H28  1  0.003000  0.110000  0.024100  1.0  0.1119
  H  H29  1  0.975900  0.503000  0.390000  1.0  0.1137
  H  H30  1  0.475900  0.997000  0.610000  1.0  0.1128
  H  H31  1  0.524100  0.497000  0.890000  1.0  0.1069
  H  H32  1  0.024100  0.003000  0.110000  1.0  0.1118
  H  H33  1  0.390000  0.975900  0.503000  1.0  0.1142
  H  H34  1  0.610000  0.475900  0.997000  1.0  0.1131
  H  H35  1  0.890000  0.524100  0.497000  1.0  0.1071
  H  H36  1  0.110000  0.024100  0.003000  1.0  0.1122
  H  H37  1  0.140000  0.753000  0.274100  1.0  0.1138
  H  H38  1  0.360000  0.247000  0.774100  1.0  0.1138
  H  H39  1  0.640000  0.747000  0.725900  1.0  0.1126
  H  H40  1  0.860000  0.253000  0.225900  1.0  0.1145
  H  H41  1  0.253000  0.225900  0.860000  1.0  0.1138
  H  H42  1  0.747000  0.725900  0.640000  1.0  0.113
  H  H43  1  0.247000  0.774100  0.360000  1.0  0.1137
  H  H44  1  0.753000  0.274100  0.140000  1.0  0.1138
  H  H45  1  0.725900  0.640000  0.747000  1.0  0.1111
  H  H46  1  0.225900  0.860000  0.253000  1.0  0.1126
  H  H47  1  0.274100  0.140000  0.753000  1.0  0.112
  H  H48  1  0.774100  0.360000  0.247000  1.0  0.1132
  H  H49  1  0.003000  0.890000  0.475900  1.0  0.111
  H  H50  1  0.497000  0.110000  0.975900  1.0  0.1115
  H  H51  1  0.997000  0.390000  0.024100  1.0  0.1113
  H  H52  1  0.503000  0.610000  0.524100  1.0  0.1134
  H  H53  1  0.475900  0.003000  0.890000  1.0  0.1121
  H  H54  1  0.975900  0.497000  0.110000  1.0  0.1122
  H  H55  1  0.024100  0.997000  0.390000  1.0  0.1122
  H  H56  1  0.524100  0.503000  0.610000  1.0  0.1138
  H  H57  1  0.890000  0.475900  0.003000  1.0  0.1124
  H  H58  1  0.110000  0.975900  0.497000  1.0  0.1126
  H  H59  1  0.390000  0.024100  0.997000  1.0  0.1121
  H  H60  1  0.610000  0.524100  0.503000  1.0  0.1136
  H  H61  1  0.640000  0.253000  0.774100  1.0  0.1138
  H  H62  1  0.860000  0.747000  0.274100  1.0  0.1138
  H  H63  1  0.140000  0.247000  0.225900  1.0  0.1143
  H  H64  1  0.360000  0.753000  0.725900  1.0  0.1145
  H  H65  1  0.753000  0.725900  0.360000  1.0  0.1138
  H  H66  1  0.247000  0.225900  0.140000  1.0  0.1142
  H  H67  1  0.747000  0.274100  0.860000  1.0  0.1137
  H  H68  1  0.253000  0.774100  0.640000  1.0  0.1138
  H  H69  1  0.225900  0.140000  0.247000  1.0  0.1132
  H  H70  1  0.725900  0.360000  0.753000  1.0  0.1126
  H  H71  1  0.774100  0.640000  0.253000  1.0  0.112
  H  H72  1  0.274100  0.860000  0.747000  1.0  0.1132
  C  C73  1  0.465200  0.425100  0.901300  1.0  0.6293
  C  C74  1  0.506600  0.441200  0.929500  1.0  0.0151
  C  C75  1  0.520000  0.416200  0.967300  1.0  0.012
  C  C76  1  0.424100  0.307600  0.970200  1.0  0.0208
  C  C77  1  0.434800  0.274600  0.004000  1.0  -0.0322
  C  C78  1  0.440600  0.228200  0.991600  1.0  0.0562
  C  C79  1  0.435700  0.214700  0.945300  1.0  0.0461
  C  C80  1  0.425100  0.247600  0.911500  1.0  0.0815
  C  C81  1  0.034800  0.574900  0.401300  1.0  0.6254
  C  C82  1  0.993400  0.558800  0.429500  1.0  0.0126
  C  C83  1  0.980000  0.583800  0.467300  1.0  0.0129
  C  C84  1  0.075900  0.692400  0.470200  1.0  0.021
  C  C85  1  0.065200  0.725400  0.504000  1.0  -0.0327
  C  C86  1  0.059400  0.771800  0.491600  1.0  0.0551
  C  C87  1  0.064300  0.785300  0.445300  1.0  0.0455
  C  C88  1  0.074900  0.752400  0.411500  1.0  0.0808
  C  C89  1  0.534800  0.925100  0.598700  1.0  0.6261
  C  C90  1  0.493400  0.941200  0.570500  1.0  0.0201
  C  C91  1  0.480000  0.916200  0.532700  1.0  0.0123
  C  C92  1  0.575900  0.807600  0.529800  1.0  0.0215
  C  C93  1  0.565200  0.774600  0.496000  1.0  -0.0277
  C  C94  1  0.559400  0.728200  0.508400  1.0  0.059
  C  C95  1  0.564300  0.714700  0.554700  1.0  0.047
  C  C96  1  0.574900  0.747600  0.588500  1.0  0.0795
  C  C97  1  0.965200  0.074900  0.098700  1.0  0.628
  C  C98  1  0.006600  0.058800  0.070500  1.0  0.0137
  C  C99  1  0.020000  0.083800  0.032700  1.0  0.007
  C  C100  1  0.924100  0.192400  0.029800  1.0  0.0222
  C  C101  1  0.934800  0.225400  0.996000  1.0  -0.0274
  C  C102  1  0.940600  0.271800  0.008400  1.0  0.0593
  C  C103  1  0.935700  0.285300  0.054700  1.0  0.0455
  C  C104  1  0.925100  0.252400  0.088500  1.0  0.0794
  C  C105  1  0.901300  0.465200  0.425100  1.0  0.6245
  C  C106  1  0.929500  0.506600  0.441200  1.0  0.0144
  C  C107  1  0.967300  0.520000  0.416200  1.0  0.0124
  C  C108  1  0.970200  0.424100  0.307600  1.0  0.015
  C  C109  1  0.004000  0.434800  0.274600  1.0  -0.0252
  C  C110  1  0.991600  0.440600  0.228200  1.0  0.0591
  C  C111  1  0.945300  0.435700  0.214700  1.0  0.0446
  C  C112  1  0.911500  0.425100  0.247600  1.0  0.0871
  C  C113  1  0.401300  0.034800  0.574900  1.0  0.6241
  C  C114  1  0.429500  0.993400  0.558800  1.0  0.0114
  C  C115  1  0.467300  0.980000  0.583800  1.0  0.0135
  C  C116  1  0.470200  0.075900  0.692400  1.0  0.0191
  C  C117  1  0.504000  0.065200  0.725400  1.0  -0.0267
  C  C118  1  0.491600  0.059400  0.771800  1.0  0.059
  C  C119  1  0.445300  0.064300  0.785300  1.0  0.0391
  C  C120  1  0.411500  0.074900  0.752400  1.0  0.0859
  C  C121  1  0.598700  0.534800  0.925100  1.0  0.6235
  C  C122  1  0.570500  0.493400  0.941200  1.0  0.0211
  C  C123  1  0.532700  0.480000  0.916200  1.0  0.0125
  C  C124  1  0.529800  0.575900  0.807600  1.0  0.0156
  C  C125  1  0.496000  0.565200  0.774600  1.0  -0.0256
  C  C126  1  0.508400  0.559400  0.728200  1.0  0.0616
  C  C127  1  0.554700  0.564300  0.714700  1.0  0.0442
  C  C128  1  0.588500  0.574900  0.747600  1.0  0.089
  C  C129  1  0.098700  0.965200  0.074900  1.0  0.6247
  C  C130  1  0.070500  0.006600  0.058800  1.0  0.0138
  C  C131  1  0.032700  0.020000  0.083800  1.0  0.0077
  C  C132  1  0.029800  0.924100  0.192400  1.0  0.0192
  C  C133  1  0.996000  0.934800  0.225400  1.0  -0.026
  C  C134  1  0.008400  0.940600  0.271800  1.0  0.0611
  C  C135  1  0.054700  0.935700  0.285300  1.0  0.0385
  C  C136  1  0.088500  0.925100  0.252400  1.0  0.0879
  C  C137  1  0.425100  0.901300  0.465200  1.0  0.6232
  C  C138  1  0.441200  0.929500  0.506600  1.0  0.0171
  C  C139  1  0.416200  0.967300  0.520000  1.0  0.0103
  C  C140  1  0.307600  0.970200  0.424100  1.0  0.0191
  C  C141  1  0.274600  0.004000  0.434800  1.0  -0.0242
  C  C142  1  0.228200  0.991600  0.440600  1.0  0.0615
  C  C143  1  0.214700  0.945300  0.435700  1.0  0.0478
  C  C144  1  0.247600  0.911500  0.425100  1.0  0.0869
  C  C145  1  0.574900  0.401300  0.034800  1.0  0.6244
  C  C146  1  0.558800  0.429500  0.993400  1.0  0.0155
  C  C147  1  0.583800  0.467300  0.980000  1.0  0.0127
  C  C148  1  0.692400  0.470200  0.075900  1.0  0.0223
  C  C149  1  0.725400  0.504000  0.065200  1.0  -0.023
  C  C150  1  0.771800  0.491600  0.059400  1.0  0.0608
  C  C151  1  0.785300  0.445300  0.064300  1.0  0.0497
  C  C152  1  0.752400  0.411500  0.074900  1.0  0.0866
  C  C153  1  0.925100  0.598700  0.534800  1.0  0.6264
  C  C154  1  0.941200  0.570500  0.493400  1.0  0.024
  C  C155  1  0.916200  0.532700  0.480000  1.0  0.011
  C  C156  1  0.807600  0.529800  0.575900  1.0  0.0204
  C  C157  1  0.774600  0.496000  0.565200  1.0  -0.0231
  C  C158  1  0.728200  0.508400  0.559400  1.0  0.0611
  C  C159  1  0.714700  0.554700  0.564300  1.0  0.048
  C  C160  1  0.747600  0.588500  0.574900  1.0  0.0864
  C  C161  1  0.074900  0.098700  0.965200  1.0  0.6219
  C  C162  1  0.058800  0.070500  0.006600  1.0  0.0161
  C  C163  1  0.083800  0.032700  0.020000  1.0  0.0056
  C  C164  1  0.192400  0.029800  0.924100  1.0  0.0224
  C  C165  1  0.225400  0.996000  0.934800  1.0  -0.0229
  C  C166  1  0.271800  0.008400  0.940600  1.0  0.0616
  C  C167  1  0.285300  0.054700  0.935700  1.0  0.0492
  C  C168  1  0.252400  0.088500  0.925100  1.0  0.0855
  C  C169  1  0.175100  0.715200  0.348700  1.0  0.6252
  C  C170  1  0.191200  0.756600  0.320500  1.0  0.0211
  C  C171  1  0.166200  0.770000  0.282700  1.0  0.0117
  C  C172  1  0.057600  0.674100  0.279800  1.0  0.0199
  C  C173  1  0.024600  0.684800  0.246000  1.0  -0.0267
  C  C174  1  0.978200  0.690600  0.258400  1.0  0.0623
  C  C175  1  0.964700  0.685700  0.304700  1.0  0.0478
  C  C176  1  0.997600  0.675100  0.338500  1.0  0.0804
  C  C177  1  0.324900  0.284800  0.848700  1.0  0.6227
  C  C178  1  0.308800  0.243400  0.820500  1.0  0.0209
  C  C179  1  0.333800  0.230000  0.782700  1.0  0.0125
  C  C180  1  0.442400  0.325900  0.779800  1.0  0.0238
  C  C181  1  0.475400  0.315200  0.746000  1.0  -0.0258
  C  C182  1  0.521800  0.309400  0.758400  1.0  0.0605
  C  C183  1  0.535300  0.314300  0.804700  1.0  0.0495
  C  C184  1  0.502400  0.324900  0.838500  1.0  0.0798
  C  C185  1  0.675100  0.784800  0.651300  1.0  0.6254
  C  C186  1  0.691200  0.743400  0.679500  1.0  0.0156
  C  C187  1  0.666200  0.730000  0.717300  1.0  0.006
  C  C188  1  0.557600  0.825900  0.720200  1.0  0.02
  C  C189  1  0.524600  0.815200  0.754000  1.0  -0.0307
  C  C190  1  0.478200  0.809400  0.741600  1.0  0.0593
  C  C191  1  0.464700  0.814300  0.695300  1.0  0.0476
  C  C192  1  0.497600  0.824900  0.661500  1.0  0.0824
  C  C193  1  0.824900  0.215200  0.151300  1.0  0.6234
  C  C194  1  0.808800  0.256600  0.179500  1.0  0.0202
  C  C195  1  0.833800  0.270000  0.217300  1.0  0.0138
  C  C196  1  0.942400  0.174100  0.220200  1.0  0.0232
  C  C197  1  0.975400  0.184800  0.254000  1.0  -0.0324
  C  C198  1  0.021800  0.190600  0.241600  1.0  0.0579
  C  C199  1  0.035300  0.185700  0.195300  1.0  0.0488
  C  C200  1  0.002400  0.175100  0.161500  1.0  0.0812
  C  C201  1  0.215200  0.151300  0.824900  1.0  0.627
  C  C202  1  0.256600  0.179500  0.808800  1.0  0.021
  C  C203  1  0.270000  0.217300  0.833800  1.0  0.0137
  C  C204  1  0.174100  0.220200  0.942400  1.0  0.0172
  C  C205  1  0.184800  0.254000  0.975400  1.0  -0.0255
  C  C206  1  0.190600  0.241600  0.021800  1.0  0.0579
  C  C207  1  0.185700  0.195300  0.035300  1.0  0.0384
  C  C208  1  0.175100  0.161500  0.002400  1.0  0.0856
  C  C209  1  0.784800  0.651300  0.675100  1.0  0.6253
  C  C210  1  0.743400  0.679500  0.691200  1.0  0.0164
  C  C211  1  0.730000  0.717300  0.666200  1.0  0.0077
  C  C212  1  0.825900  0.720200  0.557600  1.0  0.0147
  C  C213  1  0.815200  0.754000  0.524600  1.0  -0.0246
  C  C214  1  0.809400  0.741600  0.478200  1.0  0.0585
  C  C215  1  0.814300  0.695300  0.464700  1.0  0.0433
  C  C216  1  0.824900  0.661500  0.497600  1.0  0.086
  C  C217  1  0.284800  0.848700  0.324900  1.0  0.6251
  C  C218  1  0.243400  0.820500  0.308800  1.0  0.0216
  C  C219  1  0.230000  0.782700  0.333800  1.0  0.0143
  C  C220  1  0.325900  0.779800  0.442400  1.0  0.0184
  C  C221  1  0.315200  0.746000  0.475400  1.0  -0.0253
  C  C222  1  0.309400  0.758400  0.521800  1.0  0.058
  C  C223  1  0.314300  0.804700  0.535300  1.0  0.0383
  C  C224  1  0.324900  0.838500  0.502400  1.0  0.0839
  C  C225  1  0.715200  0.348700  0.175100  1.0  0.6272
  C  C226  1  0.756600  0.320500  0.191200  1.0  0.0207
  C  C227  1  0.770000  0.282700  0.166200  1.0  0.0137
  C  C228  1  0.674100  0.279800  0.057600  1.0  0.015
  C  C229  1  0.684800  0.246000  0.024600  1.0  -0.0243
  C  C230  1  0.690600  0.258400  0.978200  1.0  0.0591
  C  C231  1  0.685700  0.304700  0.964700  1.0  0.0435
  C  C232  1  0.675100  0.338500  0.997600  1.0  0.0862
  C  C233  1  0.651300  0.675100  0.784800  1.0  0.6251
  C  C234  1  0.679500  0.691200  0.743400  1.0  0.0184
  C  C235  1  0.717300  0.666200  0.730000  1.0  0.0081
  C  C236  1  0.720200  0.557600  0.825900  1.0  0.022
  C  C237  1  0.754000  0.524600  0.815200  1.0  -0.0251
  C  C238  1  0.741600  0.478200  0.809400  1.0  0.0596
  C  C239  1  0.695300  0.464700  0.814300  1.0  0.0481
  C  C240  1  0.661500  0.497600  0.824900  1.0  0.0863
  C  C241  1  0.151300  0.824900  0.215200  1.0  0.6236
  C  C242  1  0.179500  0.808800  0.256600  1.0  0.023
  C  C243  1  0.217300  0.833800  0.270000  1.0  0.0139
  C  C244  1  0.220200  0.942400  0.174100  1.0  0.0206
  C  C245  1  0.254000  0.975400  0.184800  1.0  -0.0254
  C  C246  1  0.241600  0.021800  0.190600  1.0  0.0575
  C  C247  1  0.195300  0.035300  0.185700  1.0  0.0471
  C  C248  1  0.161500  0.002400  0.175100  1.0  0.0872
  C  C249  1  0.348700  0.175100  0.715200  1.0  0.6235
  C  C250  1  0.320500  0.191200  0.756600  1.0  0.0233
  C  C251  1  0.282700  0.166200  0.770000  1.0  0.0142
  C  C252  1  0.279800  0.057600  0.674100  1.0  0.0216
  C  C253  1  0.246000  0.024600  0.684800  1.0  -0.0252
  C  C254  1  0.258400  0.978200  0.690600  1.0  0.0611
  C  C255  1  0.304700  0.964700  0.685700  1.0  0.0473
  C  C256  1  0.338500  0.997600  0.675100  1.0  0.0893
  C  C257  1  0.848700  0.324900  0.284800  1.0  0.6272
  C  C258  1  0.820500  0.308800  0.243400  1.0  0.0238
  C  C259  1  0.782700  0.333800  0.230000  1.0  0.0143
  C  C260  1  0.779800  0.442400  0.325900  1.0  0.0227
  C  C261  1  0.746000  0.475400  0.315200  1.0  -0.026
  C  C262  1  0.758400  0.521800  0.309400  1.0  0.0617
  C  C263  1  0.804700  0.535300  0.314300  1.0  0.047
  C  C264  1  0.838500  0.502400  0.324900  1.0  0.0886
  C  C265  1  0.965200  0.925100  0.401300  1.0  0.6293
  C  C266  1  0.006600  0.941200  0.429500  1.0  0.012
  C  C267  1  0.020000  0.916200  0.467300  1.0  0.0084
  C  C268  1  0.924100  0.807600  0.470200  1.0  0.0208
  C  C269  1  0.934800  0.774600  0.504000  1.0  -0.0322
  C  C270  1  0.940600  0.728200  0.491600  1.0  0.0548
  C  C271  1  0.935700  0.714700  0.445300  1.0  0.0461
  C  C272  1  0.925100  0.747600  0.411500  1.0  0.0815
  C  C273  1  0.534800  0.074900  0.901300  1.0  0.6254
  C  C274  1  0.493400  0.058800  0.929500  1.0  0.0145
  C  C275  1  0.480000  0.083800  0.967300  1.0  0.0073
  C  C276  1  0.575900  0.192400  0.970200  1.0  0.021
  C  C277  1  0.565200  0.225400  0.004000  1.0  -0.0327
  C  C278  1  0.559400  0.271800  0.991600  1.0  0.0534
  C  C279  1  0.564300  0.285300  0.945300  1.0  0.0455
  C  C280  1  0.574900  0.252400  0.911500  1.0  0.0808
  C  C281  1  0.034800  0.425100  0.098700  1.0  0.6261
  C  C282  1  0.993400  0.441200  0.070500  1.0  0.0123
  C  C283  1  0.980000  0.416200  0.032700  1.0  0.0069
  C  C284  1  0.075900  0.307600  0.029800  1.0  0.0215
  C  C285  1  0.065200  0.274600  0.996000  1.0  -0.0277
  C  C286  1  0.059400  0.228200  0.008400  1.0  0.0572
  C  C287  1  0.064300  0.214700  0.054700  1.0  0.047
  C  C288  1  0.074900  0.247600  0.088500  1.0  0.0795
  C  C289  1  0.465200  0.574900  0.598700  1.0  0.628
  C  C290  1  0.506600  0.558800  0.570500  1.0  0.0205
  C  C291  1  0.520000  0.583800  0.532700  1.0  0.0137
  C  C292  1  0.424100  0.692400  0.529800  1.0  0.0222
  C  C293  1  0.434800  0.725400  0.496000  1.0  -0.0274
  C  C294  1  0.440600  0.771800  0.508400  1.0  0.0576
  C  C295  1  0.435700  0.785300  0.554700  1.0  0.0455
  C  C296  1  0.425100  0.752400  0.588500  1.0  0.0794
  C  C297  1  0.401300  0.965200  0.925100  1.0  0.6245
  C  C298  1  0.429500  0.006600  0.941200  1.0  0.0109
  C  C299  1  0.467300  0.020000  0.916200  1.0  0.0077
  C  C300  1  0.470200  0.924100  0.807600  1.0  0.015
  C  C301  1  0.504000  0.934800  0.774600  1.0  -0.0252
  C  C302  1  0.491600  0.940600  0.728200  1.0  0.0572
  C  C303  1  0.445300  0.935700  0.714700  1.0  0.0446
  C  C304  1  0.411500  0.925100  0.747600  1.0  0.0871
  C  C305  1  0.901300  0.534800  0.074900  1.0  0.6241
  C  C306  1  0.929500  0.493400  0.058800  1.0  0.0136
  C  C307  1  0.967300  0.480000  0.083800  1.0  0.0078
  C  C308  1  0.970200  0.575900  0.192400  1.0  0.0191
  C  C309  1  0.004000  0.565200  0.225400  1.0  -0.0267
  C  C310  1  0.991600  0.559400  0.271800  1.0  0.0571
  C  C311  1  0.945300  0.564300  0.285300  1.0  0.0391
  C  C312  1  0.911500  0.574900  0.252400  1.0  0.0859
  C  C313  1  0.098700  0.034800  0.425100  1.0  0.6235
  C  C314  1  0.070500  0.993400  0.441200  1.0  0.0119
  C  C315  1  0.032700  0.980000  0.416200  1.0  0.0075
  C  C316  1  0.029800  0.075900  0.307600  1.0  0.0156
  C  C317  1  0.996000  0.065200  0.274600  1.0  -0.0256
  C  C318  1  0.008400  0.059400  0.228200  1.0  0.0597
  C  C319  1  0.054700  0.064300  0.214700  1.0  0.0442
  C  C320  1  0.088500  0.074900  0.247600  1.0  0.089
  C  C321  1  0.598700  0.465200  0.574900  1.0  0.6247
  C  C322  1  0.570500  0.506600  0.558800  1.0  0.0209
  C  C323  1  0.532700  0.520000  0.583800  1.0  0.0139
  C  C324  1  0.529800  0.424100  0.692400  1.0  0.0192
  C  C325  1  0.496000  0.434800  0.725400  1.0  -0.026
  C  C326  1  0.508400  0.440600  0.771800  1.0  0.0591
  C  C327  1  0.554700  0.435700  0.785300  1.0  0.0385
  C  C328  1  0.588500  0.425100  0.752400  1.0  0.0879
  C  C329  1  0.925100  0.401300  0.965200  1.0  0.6232
  C  C330  1  0.941200  0.429500  0.006600  1.0  0.0144
  C  C331  1  0.916200  0.467300  0.020000  1.0  0.0064
  C  C332  1  0.807600  0.470200  0.924100  1.0  0.0191
  C  C333  1  0.774600  0.504000  0.934800  1.0  -0.0242
  C  C334  1  0.728200  0.491600  0.940600  1.0  0.0597
  C  C335  1  0.714700  0.445300  0.935700  1.0  0.0478
  C  C336  1  0.747600  0.411500  0.925100  1.0  0.0869
  C  C337  1  0.074900  0.901300  0.534800  1.0  0.6244
  C  C338  1  0.058800  0.929500  0.493400  1.0  0.0172
  C  C339  1  0.083800  0.967300  0.480000  1.0  0.007
  C  C340  1  0.192400  0.970200  0.575900  1.0  0.0223
  C  C341  1  0.225400  0.004000  0.565200  1.0  -0.023
  C  C342  1  0.271800  0.991600  0.559400  1.0  0.0589
  C  C343  1  0.285300  0.945300  0.564300  1.0  0.0497
  C  C344  1  0.252400  0.911500  0.574900  1.0  0.0866
  C  C345  1  0.425100  0.098700  0.034800  1.0  0.6264
  C  C346  1  0.441200  0.070500  0.993400  1.0  0.0163
  C  C347  1  0.416200  0.032700  0.980000  1.0  0.006
  C  C348  1  0.307600  0.029800  0.075900  1.0  0.0204
  C  C349  1  0.274600  0.996000  0.065200  1.0  -0.0231
  C  C350  1  0.228200  0.008400  0.059400  1.0  0.0593
  C  C351  1  0.214700  0.054700  0.064300  1.0  0.048
  C  C352  1  0.247600  0.088500  0.074900  1.0  0.0864
  C  C353  1  0.574900  0.598700  0.465200  1.0  0.6219
  C  C354  1  0.558800  0.570500  0.506600  1.0  0.023
  C  C355  1  0.583800  0.532700  0.520000  1.0  0.0127
  C  C356  1  0.692400  0.529800  0.424100  1.0  0.0224
  C  C357  1  0.725400  0.496000  0.434800  1.0  -0.0229
  C  C358  1  0.771800  0.508400  0.440600  1.0  0.0597
  C  C359  1  0.785300  0.554700  0.435700  1.0  0.0492
  C  C360  1  0.752400  0.588500  0.425100  1.0  0.0855
  C  C361  1  0.675100  0.215200  0.848700  1.0  0.6252
  C  C362  1  0.691200  0.256600  0.820500  1.0  0.0211
  C  C363  1  0.666200  0.270000  0.782700  1.0  0.0117
  C  C364  1  0.557600  0.174100  0.779800  1.0  0.0199
  C  C365  1  0.524600  0.184800  0.746000  1.0  -0.0267
  C  C366  1  0.478200  0.190600  0.758400  1.0  0.0605
  C  C367  1  0.464700  0.185700  0.804700  1.0  0.0478
  C  C368  1  0.497600  0.175100  0.838500  1.0  0.0804
  C  C369  1  0.824900  0.784800  0.348700  1.0  0.6227
  C  C370  1  0.808800  0.743400  0.320500  1.0  0.0209
  C  C371  1  0.833800  0.730000  0.282700  1.0  0.0125
  C  C372  1  0.942400  0.825900  0.279800  1.0  0.0238
  C  C373  1  0.975400  0.815200  0.246000  1.0  -0.0258
  C  C374  1  0.021800  0.809400  0.258400  1.0  0.0587
  C  C375  1  0.035300  0.814300  0.304700  1.0  0.0495
  C  C376  1  0.002400  0.824900  0.338500  1.0  0.0798
  C  C377  1  0.175100  0.284800  0.151300  1.0  0.6254
  C  C378  1  0.191200  0.243400  0.179500  1.0  0.0217
  C  C379  1  0.166200  0.230000  0.217300  1.0  0.012
  C  C380  1  0.057600  0.325900  0.220200  1.0  0.02
  C  C381  1  0.024600  0.315200  0.254000  1.0  -0.0307
  C  C382  1  0.978200  0.309400  0.241600  1.0  0.0577
  C  C383  1  0.964700  0.314300  0.195300  1.0  0.0476
  C  C384  1  0.997600  0.324900  0.161500  1.0  0.0824
  C  C385  1  0.324900  0.715200  0.651300  1.0  0.6234
  C  C386  1  0.308800  0.756600  0.679500  1.0  0.0202
  C  C387  1  0.333800  0.770000  0.717300  1.0  0.0138
  C  C388  1  0.442400  0.674100  0.720200  1.0  0.0232
  C  C389  1  0.475400  0.684800  0.754000  1.0  -0.0324
  C  C390  1  0.521800  0.690600  0.741600  1.0  0.0562
  C  C391  1  0.535300  0.685700  0.695300  1.0  0.0488
  C  C392  1  0.502400  0.675100  0.661500  1.0  0.0812
  C  C393  1  0.715200  0.651300  0.324900  1.0  0.627
  C  C394  1  0.756600  0.679500  0.308800  1.0  0.021
  C  C395  1  0.770000  0.717300  0.333800  1.0  0.0137
  C  C396  1  0.674100  0.720200  0.442400  1.0  0.0172
  C  C397  1  0.684800  0.754000  0.475400  1.0  -0.0255
  C  C398  1  0.690600  0.741600  0.521800  1.0  0.0562
  C  C399  1  0.685700  0.695300  0.535300  1.0  0.0384
  C  C400  1  0.675100  0.661500  0.502400  1.0  0.0856
  C  C401  1  0.284800  0.151300  0.175100  1.0  0.6253
  C  C402  1  0.243400  0.179500  0.191200  1.0  0.0218
  C  C403  1  0.230000  0.217300  0.166200  1.0  0.0141
  C  C404  1  0.325900  0.220200  0.057600  1.0  0.0147
  C  C405  1  0.315200  0.254000  0.024600  1.0  -0.0246
  C  C406  1  0.309400  0.241600  0.978200  1.0  0.0567
  C  C407  1  0.314300  0.195300  0.964700  1.0  0.0433
  C  C408  1  0.324900  0.161500  0.997600  1.0  0.086
  C  C409  1  0.784800  0.348700  0.824900  1.0  0.6251
  C  C410  1  0.743400  0.320500  0.808800  1.0  0.0216
  C  C411  1  0.730000  0.282700  0.833800  1.0  0.0143
  C  C412  1  0.825900  0.279800  0.942400  1.0  0.0184
  C  C413  1  0.815200  0.246000  0.975400  1.0  -0.0253
  C  C414  1  0.809400  0.258400  0.021800  1.0  0.0561
  C  C415  1  0.814300  0.304700  0.035300  1.0  0.0383
  C  C416  1  0.824900  0.338500  0.002400  1.0  0.0839
  C  C417  1  0.215200  0.848700  0.675100  1.0  0.6272
  C  C418  1  0.256600  0.820500  0.691200  1.0  0.0207
  C  C419  1  0.270000  0.782700  0.666200  1.0  0.0137
  C  C420  1  0.174100  0.779800  0.557600  1.0  0.015
  C  C421  1  0.184800  0.746000  0.524600  1.0  -0.0243
  C  C422  1  0.190600  0.758400  0.478200  1.0  0.0574
  C  C423  1  0.185700  0.804700  0.464700  1.0  0.0435
  C  C424  1  0.175100  0.838500  0.497600  1.0  0.0862
  C  C425  1  0.151300  0.175100  0.284800  1.0  0.6251
  C  C426  1  0.179500  0.191200  0.243400  1.0  0.024
  C  C427  1  0.217300  0.166200  0.230000  1.0  0.0153
  C  C428  1  0.220200  0.057600  0.325900  1.0  0.022
  C  C429  1  0.254000  0.024600  0.315200  1.0  -0.0251
  C  C430  1  0.241600  0.978200  0.309400  1.0  0.0578
  C  C431  1  0.195300  0.964700  0.314300  1.0  0.0481
  C  C432  1  0.161500  0.997600  0.324900  1.0  0.0863
  C  C433  1  0.651300  0.324900  0.715200  1.0  0.6236
  C  C434  1  0.679500  0.308800  0.756600  1.0  0.023
  C  C435  1  0.717300  0.333800  0.770000  1.0  0.0139
  C  C436  1  0.720200  0.442400  0.674100  1.0  0.0206
  C  C437  1  0.754000  0.475400  0.684800  1.0  -0.0254
  C  C438  1  0.741600  0.521800  0.690600  1.0  0.0556
  C  C439  1  0.695300  0.535300  0.685700  1.0  0.0471
  C  C440  1  0.661500  0.502400  0.675100  1.0  0.0872
  C  C441  1  0.848700  0.675100  0.215200  1.0  0.6235
  C  C442  1  0.820500  0.691200  0.256600  1.0  0.0233
  C  C443  1  0.782700  0.666200  0.270000  1.0  0.0142
  C  C444  1  0.779800  0.557600  0.174100  1.0  0.0216
  C  C445  1  0.746000  0.524600  0.184800  1.0  -0.0252
  C  C446  1  0.758400  0.478200  0.190600  1.0  0.0592
  C  C447  1  0.804700  0.464700  0.185700  1.0  0.0473
  C  C448  1  0.838500  0.497600  0.175100  1.0  0.0893
  C  C449  1  0.348700  0.824900  0.784800  1.0  0.6272
  C  C450  1  0.320500  0.808800  0.743400  1.0  0.0238
  C  C451  1  0.282700  0.833800  0.730000  1.0  0.0143
  C  C452  1  0.279800  0.942400  0.825900  1.0  0.0227
  C  C453  1  0.246000  0.975400  0.815200  1.0  -0.026
  C  C454  1  0.258400  0.021800  0.809400  1.0  0.0598
  C  C455  1  0.304700  0.035300  0.814300  1.0  0.047
  C  C456  1  0.338500  0.002400  0.824900  1.0  0.0886
  N  N457  1  0.419300  0.294100  0.923900  1.0  -0.2155
  N  N458  1  0.080700  0.705900  0.423900  1.0  -0.2161
  N  N459  1  0.580700  0.794100  0.576100  1.0  -0.2163
  N  N460  1  0.919300  0.205900  0.076100  1.0  -0.2146
  N  N461  1  0.923900  0.419300  0.294100  1.0  -0.2138
  N  N462  1  0.423900  0.080700  0.705900  1.0  -0.2142
  N  N463  1  0.576100  0.580700  0.794100  1.0  -0.2141
  N  N464  1  0.076100  0.919300  0.205900  1.0  -0.2154
  N  N465  1  0.294100  0.923900  0.419300  1.0  -0.2139
  N  N466  1  0.705900  0.423900  0.080700  1.0  -0.2121
  N  N467  1  0.794100  0.576100  0.580700  1.0  -0.2143
  N  N468  1  0.205900  0.076100  0.919300  1.0  -0.2126
  N  N469  1  0.044100  0.669300  0.326100  1.0  -0.2133
  N  N470  1  0.455900  0.330700  0.826100  1.0  -0.2115
  N  N471  1  0.544100  0.830700  0.673900  1.0  -0.2138
  N  N472  1  0.955900  0.169300  0.173900  1.0  -0.2125
  N  N473  1  0.169300  0.173900  0.955900  1.0  -0.2143
  N  N474  1  0.830700  0.673900  0.544100  1.0  -0.2149
  N  N475  1  0.330700  0.826100  0.455900  1.0  -0.2156
  N  N476  1  0.669300  0.326100  0.044100  1.0  -0.2135
  N  N477  1  0.673900  0.544100  0.830700  1.0  -0.2138
  N  N478  1  0.173900  0.955900  0.169300  1.0  -0.2139
  N  N479  1  0.326100  0.044100  0.669300  1.0  -0.2143
  N  N480  1  0.826100  0.455900  0.330700  1.0  -0.214
  N  N481  1  0.919300  0.794100  0.423900  1.0  -0.2155
  N  N482  1  0.580700  0.205900  0.923900  1.0  -0.2161
  N  N483  1  0.080700  0.294100  0.076100  1.0  -0.2163
  N  N484  1  0.419300  0.705900  0.576100  1.0  -0.2146
  N  N485  1  0.423900  0.919300  0.794100  1.0  -0.2138
  N  N486  1  0.923900  0.580700  0.205900  1.0  -0.2142
  N  N487  1  0.076100  0.080700  0.294100  1.0  -0.2141
  N  N488  1  0.576100  0.419300  0.705900  1.0  -0.2154
  N  N489  1  0.794100  0.423900  0.919300  1.0  -0.2139
  N  N490  1  0.205900  0.923900  0.580700  1.0  -0.2121
  N  N491  1  0.294100  0.076100  0.080700  1.0  -0.2143
  N  N492  1  0.705900  0.576100  0.419300  1.0  -0.2126
  N  N493  1  0.544100  0.169300  0.826100  1.0  -0.2133
  N  N494  1  0.955900  0.830700  0.326100  1.0  -0.2115
  N  N495  1  0.044100  0.330700  0.173900  1.0  -0.2138
  N  N496  1  0.455900  0.669300  0.673900  1.0  -0.2125
  N  N497  1  0.669300  0.673900  0.455900  1.0  -0.2143
  N  N498  1  0.330700  0.173900  0.044100  1.0  -0.2149
  N  N499  1  0.830700  0.326100  0.955900  1.0  -0.2156
  N  N500  1  0.169300  0.826100  0.544100  1.0  -0.2135
  N  N501  1  0.173900  0.044100  0.330700  1.0  -0.2138
  N  N502  1  0.673900  0.455900  0.669300  1.0  -0.2139
  N  N503  1  0.826100  0.544100  0.169300  1.0  -0.2143
  N  N504  1  0.326100  0.955900  0.830700  1.0  -0.214
  O  O505  1  0.448300  0.386400  0.911700  1.0  -0.5978
  O  O506  1  0.449800  0.452200  0.869900  1.0  -0.4953
  O  O507  1  0.051700  0.613600  0.411700  1.0  -0.5968
  O  O508  1  0.050200  0.547800  0.369900  1.0  -0.496
  O  O509  1  0.551700  0.886400  0.588300  1.0  -0.5975
  O  O510  1  0.550200  0.952200  0.630100  1.0  -0.5043
  O  O511  1  0.948300  0.113600  0.088300  1.0  -0.5969
  O  O512  1  0.949800  0.047800  0.130100  1.0  -0.4934
  O  O513  1  0.911700  0.448300  0.386400  1.0  -0.5961
  O  O514  1  0.869900  0.449800  0.452200  1.0  -0.4931
  O  O515  1  0.411700  0.051700  0.613600  1.0  -0.5975
  O  O516  1  0.369900  0.050200  0.547800  1.0  -0.5006
  O  O517  1  0.588300  0.551700  0.886400  1.0  -0.5978
  O  O518  1  0.630100  0.550200  0.952200  1.0  -0.4995
  O  O519  1  0.088300  0.948300  0.113600  1.0  -0.5956
  O  O520  1  0.130100  0.949800  0.047800  1.0  -0.4922
  O  O521  1  0.386400  0.911700  0.448300  1.0  -0.5944
  O  O522  1  0.452200  0.869900  0.449800  1.0  -0.4875
  O  O523  1  0.613600  0.411700  0.051700  1.0  -0.5969
  O  O524  1  0.547800  0.369900  0.050200  1.0  -0.4924
  O  O525  1  0.886400  0.588300  0.551700  1.0  -0.5941
  O  O526  1  0.952200  0.630100  0.550200  1.0  -0.4981
  O  O527  1  0.113600  0.088300  0.948300  1.0  -0.5954
  O  O528  1  0.047800  0.130100  0.949800  1.0  -0.4915
  O  O529  1  0.136400  0.698300  0.338300  1.0  -0.595
  O  O530  1  0.202200  0.699800  0.380100  1.0  -0.4999
  O  O531  1  0.363600  0.301700  0.838300  1.0  -0.5987
  O  O532  1  0.297800  0.300200  0.880100  1.0  -0.501
  O  O533  1  0.636400  0.801700  0.661700  1.0  -0.5967
  O  O534  1  0.702200  0.800200  0.619900  1.0  -0.5015
  O  O535  1  0.863600  0.198300  0.161700  1.0  -0.5957
  O  O536  1  0.797800  0.199800  0.119900  1.0  -0.498
  O  O537  1  0.198300  0.161700  0.863600  1.0  -0.5967
  O  O538  1  0.199800  0.119900  0.797800  1.0  -0.4924
  O  O539  1  0.801700  0.661700  0.636400  1.0  -0.5967
  O  O540  1  0.800200  0.619900  0.702200  1.0  -0.4949
  O  O541  1  0.301700  0.838300  0.363600  1.0  -0.5963
  O  O542  1  0.300200  0.880100  0.297800  1.0  -0.4944
  O  O543  1  0.698300  0.338300  0.136400  1.0  -0.5971
  O  O544  1  0.699800  0.380100  0.202200  1.0  -0.4945
  O  O545  1  0.661700  0.636400  0.801700  1.0  -0.5968
  O  O546  1  0.619900  0.702200  0.800200  1.0  -0.4993
  O  O547  1  0.161700  0.863600  0.198300  1.0  -0.5954
  O  O548  1  0.119900  0.797800  0.199800  1.0  -0.4904
  O  O549  1  0.338300  0.136400  0.698300  1.0  -0.596
  O  O550  1  0.380100  0.202200  0.699800  1.0  -0.4935
  O  O551  1  0.838300  0.363600  0.301700  1.0  -0.5959
  O  O552  1  0.880100  0.297800  0.300200  1.0  -0.4943
  O  O553  1  0.948300  0.886400  0.411700  1.0  -0.5978
  O  O554  1  0.949800  0.952200  0.369900  1.0  -0.4954
  O  O555  1  0.551700  0.113600  0.911700  1.0  -0.5968
  O  O556  1  0.550200  0.047800  0.869900  1.0  -0.4964
  O  O557  1  0.051700  0.386400  0.088300  1.0  -0.5975
  O  O558  1  0.050200  0.452200  0.130100  1.0  -0.4987
  O  O559  1  0.448300  0.613600  0.588300  1.0  -0.5969
  O  O560  1  0.449800  0.547800  0.630100  1.0  -0.4964
  O  O561  1  0.411700  0.948300  0.886400  1.0  -0.5961
  O  O562  1  0.369900  0.949800  0.952200  1.0  -0.492
  O  O563  1  0.911700  0.551700  0.113600  1.0  -0.5975
  O  O564  1  0.869900  0.550200  0.047800  1.0  -0.5018
  O  O565  1  0.088300  0.051700  0.386400  1.0  -0.5978
  O  O566  1  0.130100  0.050200  0.452200  1.0  -0.4932
  O  O567  1  0.588300  0.448300  0.613600  1.0  -0.5956
  O  O568  1  0.630100  0.449800  0.547800  1.0  -0.4954
  O  O569  1  0.886400  0.411700  0.948300  1.0  -0.5944
  O  O570  1  0.952200  0.369900  0.949800  1.0  -0.4868
  O  O571  1  0.113600  0.911700  0.551700  1.0  -0.5969
  O  O572  1  0.047800  0.869900  0.550200  1.0  -0.4932
  O  O573  1  0.386400  0.088300  0.051700  1.0  -0.5941
  O  O574  1  0.452200  0.130100  0.050200  1.0  -0.4919
  O  O575  1  0.613600  0.588300  0.448300  1.0  -0.5954
  O  O576  1  0.547800  0.630100  0.449800  1.0  -0.4949
  O  O577  1  0.636400  0.198300  0.838300  1.0  -0.595
  O  O578  1  0.702200  0.199800  0.880100  1.0  -0.4995
  O  O579  1  0.863600  0.801700  0.338300  1.0  -0.5987
  O  O580  1  0.797800  0.800200  0.380100  1.0  -0.4997
  O  O581  1  0.136400  0.301700  0.161700  1.0  -0.5967
  O  O582  1  0.202200  0.300200  0.119900  1.0  -0.4998
  O  O583  1  0.363600  0.698300  0.661700  1.0  -0.5957
  O  O584  1  0.297800  0.699800  0.619900  1.0  -0.4997
  O  O585  1  0.698300  0.661700  0.363600  1.0  -0.5967
  O  O586  1  0.699800  0.619900  0.297800  1.0  -0.4947
  O  O587  1  0.301700  0.161700  0.136400  1.0  -0.5967
  O  O588  1  0.300200  0.119900  0.202200  1.0  -0.4923
  O  O589  1  0.801700  0.338300  0.863600  1.0  -0.5963
  O  O590  1  0.800200  0.380100  0.797800  1.0  -0.4924
  O  O591  1  0.198300  0.838300  0.636400  1.0  -0.5971
  O  O592  1  0.199800  0.880100  0.702200  1.0  -0.4924
  O  O593  1  0.161700  0.136400  0.301700  1.0  -0.5968
  O  O594  1  0.119900  0.202200  0.300200  1.0  -0.4966
  O  O595  1  0.661700  0.363600  0.698300  1.0  -0.5954
  O  O596  1  0.619900  0.297800  0.699800  1.0  -0.4923
  O  O597  1  0.838300  0.636400  0.198300  1.0  -0.596
  O  O598  1  0.880100  0.702200  0.199800  1.0  -0.4916
  O  O599  1  0.338300  0.863600  0.801700  1.0  -0.5959
  O  O600  1  0.380100  0.797800  0.800200  1.0  -0.4924
