# generated using pymatgen
data_Ni2H31C39(N4O3)2
_symmetry_space_group_name_H-M   'P 1'
_cell_length_a   17.98000000
_cell_length_b   11.71100000
_cell_length_c   19.92100000
_cell_angle_alpha   90.00000000
_cell_angle_beta   110.97000000
_cell_angle_gamma   90.00000000
_symmetry_Int_Tables_number   1
_chemical_formula_structural   Ni2H31C39(N4O3)2
_chemical_formula_sum   'Ni8 H124 C156 N32 O24'
_cell_volume   3916.82134097
_cell_formula_units_Z   4
loop_
 _symmetry_equiv_pos_site_id
 _symmetry_equiv_pos_as_xyz
  1  'x, y, z'
loop_
 _atom_site_type_symbol
 _atom_site_label
 _atom_site_symmetry_multiplicity
 _atom_site_fract_x
 _atom_site_fract_y
 _atom_site_fract_z
 _atom_site_occupancy
 _atom_site_charge
  Ni  Ni1  1  0.486920  0.184000  0.249030  1.0  0.8052
  Ni  Ni2  1  0.496150  0.390630  0.447260  1.0  0.8639
  Ni  Ni3  1  0.513080  0.684000  0.250970  1.0  0.8054
  Ni  Ni4  1  0.503850  0.890630  0.052740  1.0  0.8636
  Ni  Ni5  1  0.513080  0.816000  0.750970  1.0  0.8055
  Ni  Ni6  1  0.503850  0.609370  0.552740  1.0  0.8624
  Ni  Ni7  1  0.486920  0.316000  0.749030  1.0  0.8056
  Ni  Ni8  1  0.496150  0.109370  0.947260  1.0  0.8629
  H  H9  1  0.989000  0.333700  0.166800  1.0  0.1093
  H  H10  1  0.982900  0.246500  0.500600  1.0  0.1158
  H  H11  1  0.493300  0.208900  0.094300  1.0  0.0237
  H  H12  1  0.480200  0.109000  0.391400  1.0  0.0731
  H  H13  1  0.479200  0.426100  0.264200  1.0  0.0693
  H  H14  1  0.331600  0.360100  0.470500  1.0  0.0912
  H  H15  1  0.358900  0.471400  0.295600  1.0  0.1009
  H  H16  1  0.215200  0.482100  0.275700  1.0  0.118
  H  H17  1  0.203900  0.269900  0.457000  1.0  0.1084
  H  H18  1  0.087500  0.261100  0.483200  1.0  0.1213
  H  H19  1  0.001100  0.529200  0.355300  1.0  0.0902
  H  H20  1  0.118400  0.540300  0.330600  1.0  0.1069
  H  H21  1  0.896400  0.520200  0.378400  1.0  0.0945
  H  H22  1  0.654300  0.435600  0.406300  1.0  0.086
  H  H23  1  0.640400  0.275700  0.573900  1.0  0.1039
  H  H24  1  0.778900  0.267500  0.581800  1.0  0.1255
  H  H25  1  0.867100  0.230100  0.522700  1.0  0.1128
  H  H26  1  0.781700  0.507900  0.404100  1.0  0.1126
  H  H27  1  0.321200  0.146500  0.275800  1.0  0.1018
  H  H28  1  0.347000  0.302400  0.110700  1.0  0.0989
  H  H29  1  0.207200  0.322500  0.098000  1.0  0.1196
  H  H30  1  0.099600  0.334800  0.134500  1.0  0.1096
  H  H31  1  0.206900  0.112300  0.293300  1.0  0.1144
  H  H32  1  0.654000  0.250400  0.229500  1.0  0.1003
  H  H33  1  0.630200  0.072100  0.387500  1.0  0.0997
  H  H34  1  0.771200  0.072200  0.405800  1.0  0.1311
  H  H35  1  0.775500  0.323400  0.229500  1.0  0.1197
  H  H36  1  0.891400  0.341500  0.205300  1.0  0.1045
  H  H37  1  0.989500  0.083200  0.338600  1.0  0.1175
  H  H38  1  0.875200  0.064100  0.364800  1.0  0.1148
  H  H39  1  0.094100  0.106700  0.320700  1.0  0.1181
  H  H40  1  0.011000  0.833700  0.333200  1.0  0.1083
  H  H41  1  0.017100  0.746500  0.999400  1.0  0.1152
  H  H42  1  0.506700  0.708900  0.405700  1.0  0.0224
  H  H43  1  0.519800  0.609000  0.108600  1.0  0.0717
  H  H44  1  0.520800  0.926100  0.235800  1.0  0.0692
  H  H45  1  0.668400  0.860100  0.029500  1.0  0.0908
  H  H46  1  0.641100  0.971400  0.204400  1.0  0.102
  H  H47  1  0.784800  0.982100  0.224300  1.0  0.1177
  H  H48  1  0.796100  0.769900  0.043000  1.0  0.1075
  H  H49  1  0.912500  0.761100  0.016800  1.0  0.1208
  H  H50  1  0.998900  0.029200  0.144700  1.0  0.0905
  H  H51  1  0.881600  0.040300  0.169400  1.0  0.1065
  H  H52  1  0.103600  0.020200  0.121600  1.0  0.0939
  H  H53  1  0.345700  0.935600  0.093700  1.0  0.0867
  H  H54  1  0.359600  0.775700  0.926100  1.0  0.1035
  H  H55  1  0.221100  0.767500  0.918200  1.0  0.1246
  H  H56  1  0.132900  0.730100  0.977300  1.0  0.1126
  H  H57  1  0.218300  0.007900  0.095900  1.0  0.1119
  H  H58  1  0.678800  0.646500  0.224200  1.0  0.1015
  H  H59  1  0.653000  0.802400  0.389300  1.0  0.0998
  H  H60  1  0.792800  0.822500  0.402000  1.0  0.1192
  H  H61  1  0.900400  0.834800  0.365500  1.0  0.1101
  H  H62  1  0.793100  0.612300  0.206700  1.0  0.114
  H  H63  1  0.346000  0.750400  0.270500  1.0  0.1007
  H  H64  1  0.369800  0.572100  0.112500  1.0  0.1002
  H  H65  1  0.228800  0.572200  0.094200  1.0  0.1302
  H  H66  1  0.224500  0.823400  0.270500  1.0  0.1195
  H  H67  1  0.108600  0.841500  0.294700  1.0  0.1043
  H  H68  1  0.010500  0.583200  0.161400  1.0  0.1171
  H  H69  1  0.124800  0.564100  0.135200  1.0  0.1143
  H  H70  1  0.905900  0.606700  0.179300  1.0  0.1184
  H  H71  1  0.011000  0.666300  0.833200  1.0  0.1084
  H  H72  1  0.017100  0.753500  0.499400  1.0  0.1165
  H  H73  1  0.506700  0.791100  0.905700  1.0  0.0234
  H  H74  1  0.519800  0.891000  0.608600  1.0  0.0737
  H  H75  1  0.520800  0.573900  0.735800  1.0  0.069
  H  H76  1  0.668400  0.639900  0.529500  1.0  0.0911
  H  H77  1  0.641100  0.528600  0.704400  1.0  0.1022
  H  H78  1  0.784800  0.517900  0.724300  1.0  0.1178
  H  H79  1  0.796100  0.730100  0.543000  1.0  0.1087
  H  H80  1  0.912500  0.738900  0.516800  1.0  0.1207
  H  H81  1  0.998900  0.470800  0.644700  1.0  0.0895
  H  H82  1  0.881600  0.459700  0.669400  1.0  0.1074
  H  H83  1  0.103600  0.479800  0.621600  1.0  0.0941
  H  H84  1  0.345700  0.564400  0.593700  1.0  0.0868
  H  H85  1  0.359600  0.724300  0.426100  1.0  0.1034
  H  H86  1  0.221100  0.732500  0.418200  1.0  0.1256
  H  H87  1  0.132900  0.769900  0.477300  1.0  0.1136
  H  H88  1  0.218300  0.492100  0.595900  1.0  0.1122
  H  H89  1  0.678800  0.853500  0.724200  1.0  0.1017
  H  H90  1  0.653000  0.697600  0.889300  1.0  0.0999
  H  H91  1  0.792800  0.677500  0.902000  1.0  0.1199
  H  H92  1  0.900400  0.665200  0.865500  1.0  0.1097
  H  H93  1  0.793100  0.887700  0.706700  1.0  0.1139
  H  H94  1  0.346000  0.749600  0.770500  1.0  0.1009
  H  H95  1  0.369800  0.927900  0.612500  1.0  0.0998
  H  H96  1  0.228800  0.927800  0.594200  1.0  0.1307
  H  H97  1  0.224500  0.676600  0.770500  1.0  0.1197
  H  H98  1  0.108600  0.658500  0.794700  1.0  0.1045
  H  H99  1  0.010500  0.916800  0.661400  1.0  0.1176
  H  H100  1  0.124800  0.935900  0.635200  1.0  0.1142
  H  H101  1  0.905900  0.893300  0.679300  1.0  0.1185
  H  H102  1  0.989000  0.166300  0.666800  1.0  0.1089
  H  H103  1  0.982900  0.253500  0.000600  1.0  0.1166
  H  H104  1  0.493300  0.291100  0.594300  1.0  0.0234
  H  H105  1  0.480200  0.391000  0.891400  1.0  0.0715
  H  H106  1  0.479200  0.073900  0.764200  1.0  0.0691
  H  H107  1  0.331600  0.139900  0.970500  1.0  0.0913
  H  H108  1  0.358900  0.028600  0.795600  1.0  0.1009
  H  H109  1  0.215200  0.017900  0.775700  1.0  0.1179
  H  H110  1  0.203900  0.230100  0.957000  1.0  0.1088
  H  H111  1  0.087500  0.238900  0.983200  1.0  0.1212
  H  H112  1  0.001100  0.970800  0.855300  1.0  0.0899
  H  H113  1  0.118400  0.959700  0.830600  1.0  0.107
  H  H114  1  0.896400  0.979800  0.878400  1.0  0.0934
  H  H115  1  0.654300  0.064400  0.906300  1.0  0.0857
  H  H116  1  0.640400  0.224300  0.073900  1.0  0.1036
  H  H117  1  0.778900  0.232500  0.081800  1.0  0.1255
  H  H118  1  0.867100  0.269900  0.022700  1.0  0.1132
  H  H119  1  0.781700  0.992100  0.904100  1.0  0.1121
  H  H120  1  0.321200  0.353500  0.775800  1.0  0.1014
  H  H121  1  0.347000  0.197600  0.610700  1.0  0.0993
  H  H122  1  0.207200  0.177500  0.598000  1.0  0.1194
  H  H123  1  0.099600  0.165200  0.634500  1.0  0.109
  H  H124  1  0.206900  0.387700  0.793300  1.0  0.1139
  H  H125  1  0.654000  0.249600  0.729500  1.0  0.1006
  H  H126  1  0.630200  0.427900  0.887500  1.0  0.0993
  H  H127  1  0.771200  0.427800  0.905800  1.0  0.1307
  H  H128  1  0.775500  0.176600  0.729500  1.0  0.1191
  H  H129  1  0.891400  0.158500  0.705300  1.0  0.1038
  H  H130  1  0.989500  0.416800  0.838600  1.0  0.1174
  H  H131  1  0.875200  0.435900  0.864800  1.0  0.1147
  H  H132  1  0.094100  0.393300  0.820700  1.0  0.1184
  C  C133  1  0.027400  0.219300  0.248700  1.0  -0.0327
  C  C134  1  0.032300  0.288000  0.192100  1.0  -0.1003
  C  C135  1  0.954900  0.384400  0.436600  1.0  0.0265
  C  C136  1  0.942600  0.299400  0.480100  1.0  -0.0924
  C  C137  1  0.490600  0.130300  0.099900  1.0  0.5704
  C  C138  1  0.483600  0.187200  0.400300  1.0  0.5277
  C  C139  1  0.504000  0.422900  0.230600  1.0  0.6218
  C  C140  1  0.320600  0.388800  0.424400  1.0  0.1747
  C  C141  1  0.335400  0.450300  0.328500  1.0  0.0103
  C  C142  1  0.255400  0.456000  0.316900  1.0  -0.1461
  C  C143  1  0.173500  0.408700  0.393700  1.0  0.0925
  C  C144  1  0.163800  0.323400  0.437300  1.0  -0.1273
  C  C145  1  0.092800  0.317200  0.452200  1.0  -0.1065
  C  C146  1  0.030300  0.393800  0.421000  1.0  -0.009
  C  C147  1  0.041600  0.476700  0.376400  1.0  -0.0961
  C  C148  1  0.112800  0.484500  0.361700  1.0  -0.143
  C  C149  1  0.891600  0.462000  0.408300  1.0  -0.0912
  C  C150  1  0.667900  0.395200  0.449200  1.0  0.1941
  C  C151  1  0.660500  0.307700  0.541200  1.0  0.0145
  C  C152  1  0.737000  0.302200  0.545500  1.0  -0.1228
  C  C153  1  0.813300  0.367600  0.467100  1.0  0.1037
  C  C154  1  0.873200  0.289800  0.494400  1.0  -0.1477
  C  C155  1  0.822100  0.454700  0.423300  1.0  -0.1164
  C  C156  1  0.310300  0.187300  0.233300  1.0  0.1749
  C  C157  1  0.324300  0.273400  0.142300  1.0  0.0204
  C  C158  1  0.246500  0.284700  0.135000  1.0  -0.1074
  C  C159  1  0.166400  0.224200  0.210900  1.0  0.0869
  C  C160  1  0.099300  0.289800  0.172900  1.0  -0.1635
  C  C161  1  0.163100  0.156400  0.267000  1.0  -0.173
  C  C162  1  0.665100  0.205800  0.270500  1.0  0.1553
  C  C163  1  0.652700  0.107200  0.357500  1.0  0.0403
  C  C164  1  0.731000  0.107800  0.368600  1.0  -0.1254
  C  C165  1  0.812500  0.189600  0.298900  1.0  0.0766
  C  C166  1  0.818100  0.274500  0.251300  1.0  -0.1329
  C  C167  1  0.888200  0.284900  0.236900  1.0  -0.0912
  C  C168  1  0.953900  0.213800  0.268100  1.0  0.0138
  C  C169  1  0.946700  0.131500  0.316300  1.0  -0.118
  C  C170  1  0.877700  0.119300  0.332100  1.0  -0.1532
  C  C171  1  0.094900  0.154400  0.283700  1.0  -0.0957
  C  C172  1  0.972600  0.719300  0.251300  1.0  -0.0322
  C  C173  1  0.967700  0.788000  0.307900  1.0  -0.1024
  C  C174  1  0.045100  0.884400  0.063400  1.0  0.0259
  C  C175  1  0.057400  0.799400  0.019900  1.0  -0.0917
  C  C176  1  0.509400  0.630300  0.400100  1.0  0.5707
  C  C177  1  0.516400  0.687200  0.099700  1.0  0.5271
  C  C178  1  0.496000  0.922900  0.269400  1.0  0.6227
  C  C179  1  0.679400  0.888800  0.075600  1.0  0.1732
  C  C180  1  0.664600  0.950300  0.171500  1.0  0.0084
  C  C181  1  0.744600  0.956000  0.183100  1.0  -0.1456
  C  C182  1  0.826500  0.908700  0.106300  1.0  0.0924
  C  C183  1  0.836200  0.823400  0.062700  1.0  -0.1288
  C  C184  1  0.907200  0.817200  0.047800  1.0  -0.1065
  C  C185  1  0.969700  0.893800  0.079000  1.0  -0.0088
  C  C186  1  0.958400  0.976700  0.123600  1.0  -0.0965
  C  C187  1  0.887200  0.984500  0.138300  1.0  -0.144
  C  C188  1  0.108400  0.962000  0.091700  1.0  -0.0911
  C  C189  1  0.332100  0.895200  0.050800  1.0  0.1949
  C  C190  1  0.339500  0.807700  0.958800  1.0  0.0141
  C  C191  1  0.263000  0.802200  0.954500  1.0  -0.1236
  C  C192  1  0.186700  0.867600  0.032900  1.0  0.1032
  C  C193  1  0.126800  0.789800  0.005600  1.0  -0.148
  C  C194  1  0.177900  0.954700  0.076700  1.0  -0.1193
  C  C195  1  0.689700  0.687300  0.266700  1.0  0.1732
  C  C196  1  0.675700  0.773400  0.357700  1.0  0.0207
  C  C197  1  0.753500  0.784700  0.365000  1.0  -0.1053
  C  C198  1  0.833600  0.724200  0.289100  1.0  0.0859
  C  C199  1  0.900700  0.789800  0.327100  1.0  -0.1628
  C  C200  1  0.836900  0.656400  0.233000  1.0  -0.173
  C  C201  1  0.334900  0.705800  0.229500  1.0  0.1556
  C  C202  1  0.347300  0.607200  0.142500  1.0  0.0408
  C  C203  1  0.269000  0.607800  0.131400  1.0  -0.1276
  C  C204  1  0.187500  0.689600  0.201100  1.0  0.0766
  C  C205  1  0.181900  0.774500  0.248700  1.0  -0.133
  C  C206  1  0.111800  0.784900  0.263100  1.0  -0.0913
  C  C207  1  0.046100  0.713800  0.231900  1.0  0.0134
  C  C208  1  0.053300  0.631500  0.183700  1.0  -0.1173
  C  C209  1  0.122300  0.619300  0.167900  1.0  -0.1531
  C  C210  1  0.905100  0.654400  0.216300  1.0  -0.0955
  C  C211  1  0.972600  0.780700  0.751300  1.0  -0.0322
  C  C212  1  0.967700  0.712000  0.807900  1.0  -0.1024
  C  C213  1  0.045100  0.615600  0.563400  1.0  0.0264
  C  C214  1  0.057400  0.700600  0.519900  1.0  -0.0921
  C  C215  1  0.509400  0.869700  0.900100  1.0  0.572
  C  C216  1  0.516400  0.812800  0.599700  1.0  0.5269
  C  C217  1  0.496000  0.577100  0.769400  1.0  0.6227
  C  C218  1  0.679400  0.611200  0.575600  1.0  0.1725
  C  C219  1  0.664600  0.549700  0.671500  1.0  0.0085
  C  C220  1  0.744600  0.544000  0.683100  1.0  -0.1457
  C  C221  1  0.826500  0.591300  0.606300  1.0  0.0925
  C  C222  1  0.836200  0.676600  0.562700  1.0  -0.1297
  C  C223  1  0.907200  0.682800  0.547800  1.0  -0.1075
  C  C224  1  0.969700  0.606200  0.579000  1.0  -0.0084
  C  C225  1  0.958400  0.523300  0.623600  1.0  -0.0971
  C  C226  1  0.887200  0.515500  0.638300  1.0  -0.1446
  C  C227  1  0.108400  0.538000  0.591700  1.0  -0.0901
  C  C228  1  0.332100  0.604800  0.550800  1.0  0.1953
  C  C229  1  0.339500  0.692300  0.458800  1.0  0.0138
  C  C230  1  0.263000  0.697800  0.454500  1.0  -0.1231
  C  C231  1  0.186700  0.632400  0.532900  1.0  0.1028
  C  C232  1  0.126800  0.710200  0.505600  1.0  -0.1493
  C  C233  1  0.177900  0.545300  0.576700  1.0  -0.119
  C  C234  1  0.689700  0.812700  0.766700  1.0  0.1729
  C  C235  1  0.675700  0.726600  0.857700  1.0  0.0195
  C  C236  1  0.753500  0.715300  0.865000  1.0  -0.1048
  C  C237  1  0.833600  0.775800  0.789100  1.0  0.0857
  C  C238  1  0.900700  0.710200  0.827100  1.0  -0.1624
  C  C239  1  0.836900  0.843600  0.733000  1.0  -0.1736
  C  C240  1  0.334900  0.794200  0.729500  1.0  0.1557
  C  C241  1  0.347300  0.892800  0.642500  1.0  0.04
  C  C242  1  0.269000  0.892200  0.631400  1.0  -0.1268
  C  C243  1  0.187500  0.810400  0.701100  1.0  0.0768
  C  C244  1  0.181900  0.725500  0.748700  1.0  -0.1329
  C  C245  1  0.111800  0.715100  0.763100  1.0  -0.0902
  C  C246  1  0.046100  0.786200  0.731900  1.0  0.0133
  C  C247  1  0.053300  0.868500  0.683700  1.0  -0.117
  C  C248  1  0.122300  0.880700  0.667900  1.0  -0.1539
  C  C249  1  0.905100  0.845600  0.716300  1.0  -0.0964
  C  C250  1  0.027400  0.280700  0.748700  1.0  -0.0326
  C  C251  1  0.032300  0.212000  0.692100  1.0  -0.1009
  C  C252  1  0.954900  0.115600  0.936600  1.0  0.0268
  C  C253  1  0.942600  0.200600  0.980100  1.0  -0.0932
  C  C254  1  0.490600  0.369700  0.599900  1.0  0.5715
  C  C255  1  0.483600  0.312800  0.900300  1.0  0.5265
  C  C256  1  0.504000  0.077100  0.730600  1.0  0.6213
  C  C257  1  0.320600  0.111200  0.924400  1.0  0.1744
  C  C258  1  0.335400  0.049700  0.828500  1.0  0.0103
  C  C259  1  0.255400  0.044000  0.816900  1.0  -0.1461
  C  C260  1  0.173500  0.091300  0.893700  1.0  0.0924
  C  C261  1  0.163800  0.176600  0.937300  1.0  -0.1284
  C  C262  1  0.092800  0.182800  0.952200  1.0  -0.1073
  C  C263  1  0.030300  0.106200  0.921000  1.0  -0.0084
  C  C264  1  0.041600  0.023300  0.876400  1.0  -0.0965
  C  C265  1  0.112800  0.015500  0.861700  1.0  -0.1437
  C  C266  1  0.891600  0.038000  0.908300  1.0  -0.0903
  C  C267  1  0.667900  0.104800  0.949200  1.0  0.1948
  C  C268  1  0.660500  0.192300  0.041200  1.0  0.0128
  C  C269  1  0.737000  0.197800  0.045500  1.0  -0.1235
  C  C270  1  0.813300  0.132400  0.967100  1.0  0.1035
  C  C271  1  0.873200  0.210200  0.994400  1.0  -0.1496
  C  C272  1  0.822100  0.045300  0.923300  1.0  -0.1164
  C  C273  1  0.310300  0.312700  0.733300  1.0  0.1744
  C  C274  1  0.324300  0.226600  0.642300  1.0  0.0192
  C  C275  1  0.246500  0.215300  0.635000  1.0  -0.1064
  C  C276  1  0.166400  0.275800  0.710900  1.0  0.0867
  C  C277  1  0.099300  0.210200  0.672900  1.0  -0.1634
  C  C278  1  0.163100  0.343600  0.767000  1.0  -0.174
  C  C279  1  0.665100  0.294200  0.770500  1.0  0.1551
  C  C280  1  0.652700  0.392800  0.857500  1.0  0.0396
  C  C281  1  0.731000  0.392200  0.868600  1.0  -0.1235
  C  C282  1  0.812500  0.310400  0.798900  1.0  0.0768
  C  C283  1  0.818100  0.225500  0.751300  1.0  -0.132
  C  C284  1  0.888200  0.215100  0.736900  1.0  -0.0906
  C  C285  1  0.953900  0.286200  0.768100  1.0  0.0137
  C  C286  1  0.946700  0.368500  0.816300  1.0  -0.1184
  C  C287  1  0.877700  0.380700  0.832100  1.0  -0.1539
  C  C288  1  0.094900  0.345600  0.783700  1.0  -0.0969
  N  N289  1  0.375100  0.408300  0.396300  1.0  -0.353
  N  N290  1  0.246500  0.415300  0.378700  1.0  0.0152
  N  N291  1  0.616700  0.368900  0.480200  1.0  -0.3777
  N  N292  1  0.741600  0.357800  0.485700  1.0  -0.0229
  N  N293  1  0.364300  0.212200  0.203900  1.0  -0.3557
  N  N294  1  0.236500  0.229500  0.192900  1.0  -0.0391
  N  N295  1  0.609800  0.166300  0.294800  1.0  -0.4185
  N  N296  1  0.739800  0.172800  0.313000  1.0  -0.0342
  N  N297  1  0.624900  0.908300  0.103700  1.0  -0.3544
  N  N298  1  0.753500  0.915300  0.121300  1.0  0.016
  N  N299  1  0.383300  0.868900  0.019800  1.0  -0.3758
  N  N300  1  0.258400  0.857800  0.014300  1.0  -0.0235
  N  N301  1  0.635700  0.712200  0.296100  1.0  -0.3568
  N  N302  1  0.763500  0.729500  0.307100  1.0  -0.0391
  N  N303  1  0.390200  0.666300  0.205200  1.0  -0.4174
  N  N304  1  0.260200  0.672800  0.187000  1.0  -0.0337
  N  N305  1  0.624900  0.591700  0.603700  1.0  -0.354
  N  N306  1  0.753500  0.584700  0.621300  1.0  0.0161
  N  N307  1  0.383300  0.631100  0.519800  1.0  -0.3761
  N  N308  1  0.258400  0.642200  0.514300  1.0  -0.024
  N  N309  1  0.635700  0.787800  0.796100  1.0  -0.3566
  N  N310  1  0.763500  0.770500  0.807100  1.0  -0.0393
  N  N311  1  0.390200  0.833700  0.705200  1.0  -0.4173
  N  N312  1  0.260200  0.827200  0.687000  1.0  -0.034
  N  N313  1  0.375100  0.091700  0.896300  1.0  -0.3529
  N  N314  1  0.246500  0.084700  0.878700  1.0  0.0158
  N  N315  1  0.616700  0.131100  0.980200  1.0  -0.378
  N  N316  1  0.741600  0.142200  0.985700  1.0  -0.0232
  N  N317  1  0.364300  0.287800  0.703900  1.0  -0.3562
  N  N318  1  0.236500  0.270500  0.692900  1.0  -0.0394
  N  N319  1  0.609800  0.333700  0.794800  1.0  -0.4187
  N  N320  1  0.739800  0.327200  0.813000  1.0  -0.0345
  O  O321  1  0.483600  0.219200  0.457200  1.0  -0.5638
  O  O322  1  0.508400  0.333333  0.205900  1.0  -0.5972
  O  O323  1  0.492200  0.068900  0.048800  1.0  -0.6723
  O  O324  1  0.485900  0.096200  0.156900  1.0  -0.5905
  O  O325  1  0.531900  0.520800  0.214300  1.0  -0.616
  O  O326  1  0.488400  0.257000  0.348100  1.0  -0.6555
  O  O327  1  0.516400  0.719200  0.042800  1.0  -0.5628
  O  O328  1  0.491600  0.833300  0.294100  1.0  -0.5977
  O  O329  1  0.507800  0.568900  0.451200  1.0  -0.6732
  O  O330  1  0.514100  0.596200  0.343100  1.0  -0.5901
  O  O331  1  0.468100  0.020800  0.285700  1.0  -0.6144
  O  O332  1  0.511600  0.757000  0.151900  1.0  -0.6575
  O  O333  1  0.516400  0.780800  0.542800  1.0  -0.5642
  O  O334  1  0.491600  0.666667  0.794100  1.0  -0.5977
  O  O335  1  0.507800  0.931100  0.951200  1.0  -0.6725
  O  O336  1  0.514100  0.903800  0.843100  1.0  -0.5907
  O  O337  1  0.468100  0.479200  0.785700  1.0  -0.6149
  O  O338  1  0.511600  0.743000  0.651900  1.0  -0.6579
  O  O339  1  0.483600  0.280800  0.957200  1.0  -0.5647
  O  O340  1  0.508400  0.166700  0.705900  1.0  -0.5987
  O  O341  1  0.492200  0.431100  0.548800  1.0  -0.6721
  O  O342  1  0.485900  0.403800  0.656900  1.0  -0.5912
  O  O343  1  0.531900  0.979200  0.714300  1.0  -0.6164
  O  O344  1  0.488400  0.243000  0.848100  1.0  -0.6565
