# generated using pymatgen
data_Co2H31C39(N4O3)2
_symmetry_space_group_name_H-M   'P 1'
_cell_length_a   17.88400000
_cell_length_b   11.79700000
_cell_length_c   20.24300000
_cell_angle_alpha   90.00000000
_cell_angle_beta   111.77000000
_cell_angle_gamma   90.00000000
_symmetry_Int_Tables_number   1
_chemical_formula_structural   Co2H31C39(N4O3)2
_chemical_formula_sum   'Co8 H124 C156 N32 O24'
_cell_volume   3966.22435771
_cell_formula_units_Z   4
loop_
 _symmetry_equiv_pos_site_id
 _symmetry_equiv_pos_as_xyz
  1  'x, y, z'
loop_
 _atom_site_type_symbol
 _atom_site_label
 _atom_site_symmetry_multiplicity
 _atom_site_fract_x
 _atom_site_fract_y
 _atom_site_fract_z
 _atom_site_occupancy
 _atom_site_charge
  Co  Co1  1  0.512160  0.327280  0.250970  1.0  0.8126
  Co  Co2  1  0.504350  0.107950  0.053480  1.0  0.8591
  Co  Co3  1  0.487840  0.827280  0.249030  1.0  0.8124
  Co  Co4  1  0.495650  0.607950  0.446520  1.0  0.8593
  Co  Co5  1  0.487840  0.672720  0.749030  1.0  0.8125
  Co  Co6  1  0.495650  0.892050  0.946520  1.0  0.8598
  Co  Co7  1  0.512160  0.172720  0.750970  1.0  0.8127
  Co  Co8  1  0.504350  0.392050  0.553480  1.0  0.8592
  H  H9  1  0.509300  0.289800  0.405600  1.0  0.05
  H  H10  1  0.518500  0.397400  0.108300  1.0  0.0416
  H  H11  1  0.481000  0.574100  0.265700  1.0  0.0344
  H  H12  1  0.668800  0.133300  0.031900  1.0  0.0945
  H  H13  1  0.648300  0.032500  0.208100  1.0  0.0886
  H  H14  1  0.790500  0.023500  0.225800  1.0  0.1077
  H  H15  1  0.885400  0.962100  0.171600  1.0  0.1
  H  H16  1  0.001600  0.973600  0.147900  1.0  0.0956
  H  H17  1  0.910500  0.234800  0.018800  1.0  0.1135
  H  H18  1  0.795300  0.225900  0.043400  1.0  0.1155
  H  H19  1  0.345600  0.062300  0.097800  1.0  0.0949
  H  H20  1  0.356300  0.214600  0.930600  1.0  0.1002
  H  H21  1  0.218300  0.229600  0.923800  1.0  0.1199
  H  H22  1  0.128100  0.263400  0.977200  1.0  0.1078
  H  H23  1  0.013700  0.248700  0.001000  1.0  0.1048
  H  H24  1  0.105000  0.982300  0.124700  1.0  0.1011
  H  H25  1  0.219900  0.996200  0.099300  1.0  0.097
  H  H26  1  0.344800  0.260900  0.269200  1.0  0.0954
  H  H27  1  0.362700  0.437900  0.112500  1.0  0.0919
  H  H28  1  0.220500  0.427200  0.092600  1.0  0.1256
  H  H29  1  0.118200  0.435700  0.133400  1.0  0.112
  H  H30  1  0.004200  0.415200  0.159200  1.0  0.1137
  H  H31  1  0.110700  0.167700  0.296200  1.0  0.1044
  H  H32  1  0.224600  0.186600  0.269900  1.0  0.1138
  H  H33  1  0.680900  0.360800  0.227300  1.0  0.0919
  H  H34  1  0.657100  0.205700  0.388500  1.0  0.0918
  H  H35  1  0.796300  0.182900  0.400400  1.0  0.1231
  H  H36  1  0.791900  0.391800  0.209300  1.0  0.1208
  H  H37  1  0.901400  0.391100  0.177000  1.0  0.1175
  H  H38  1  0.013700  0.174600  0.333333  1.0  0.1055
  H  H39  1  0.902400  0.169900  0.363600  1.0  0.1041
  H  H40  1  0.490700  0.789800  0.094400  1.0  0.0494
  H  H41  1  0.481500  0.897400  0.391700  1.0  0.0432
  H  H42  1  0.519000  0.074100  0.234300  1.0  0.033
  H  H43  1  0.331200  0.633300  0.468100  1.0  0.0946
  H  H44  1  0.351700  0.532500  0.291900  1.0  0.0889
  H  H45  1  0.209500  0.523500  0.274200  1.0  0.1075
  H  H46  1  0.114600  0.462100  0.328400  1.0  0.0998
  H  H47  1  0.998400  0.473600  0.352100  1.0  0.0953
  H  H48  1  0.089500  0.734800  0.481200  1.0  0.1131
  H  H49  1  0.204700  0.725900  0.456600  1.0  0.1151
  H  H50  1  0.654400  0.562300  0.402200  1.0  0.0942
  H  H51  1  0.643700  0.714600  0.569400  1.0  0.1007
  H  H52  1  0.781700  0.729600  0.576200  1.0  0.1194
  H  H53  1  0.871900  0.763400  0.522800  1.0  0.108
  H  H54  1  0.986300  0.748700  0.499000  1.0  0.1051
  H  H55  1  0.895000  0.482300  0.375300  1.0  0.1001
  H  H56  1  0.780100  0.496200  0.400700  1.0  0.0967
  H  H57  1  0.655200  0.760900  0.230800  1.0  0.0949
  H  H58  1  0.637300  0.937900  0.387500  1.0  0.0919
  H  H59  1  0.779500  0.927200  0.407400  1.0  0.1254
  H  H60  1  0.881800  0.935700  0.366600  1.0  0.1126
  H  H61  1  0.995800  0.915200  0.340800  1.0  0.1134
  H  H62  1  0.889300  0.667700  0.203800  1.0  0.1038
  H  H63  1  0.775400  0.686600  0.230100  1.0  0.1135
  H  H64  1  0.319100  0.860800  0.272700  1.0  0.0921
  H  H65  1  0.342900  0.705700  0.111500  1.0  0.0916
  H  H66  1  0.203700  0.682900  0.099600  1.0  0.122
  H  H67  1  0.208100  0.891800  0.290700  1.0  0.1204
  H  H68  1  0.098600  0.891100  0.323000  1.0  0.1176
  H  H69  1  0.986300  0.674600  0.166700  1.0  0.1059
  H  H70  1  0.097600  0.669900  0.136400  1.0  0.1041
  H  H71  1  0.490700  0.710200  0.594400  1.0  0.0499
  H  H72  1  0.481500  0.602600  0.891700  1.0  0.0421
  H  H73  1  0.519000  0.425900  0.734300  1.0  0.033
  H  H74  1  0.331200  0.866700  0.968100  1.0  0.0947
  H  H75  1  0.351700  0.967500  0.791900  1.0  0.0887
  H  H76  1  0.209500  0.976500  0.774200  1.0  0.1075
  H  H77  1  0.114600  0.037900  0.828400  1.0  0.1
  H  H78  1  0.998400  0.026400  0.852100  1.0  0.0963
  H  H79  1  0.089500  0.765200  0.981200  1.0  0.1124
  H  H80  1  0.204700  0.774100  0.956600  1.0  0.115
  H  H81  1  0.654400  0.937700  0.902200  1.0  0.0945
  H  H82  1  0.643700  0.785400  0.069400  1.0  0.1012
  H  H83  1  0.781700  0.770400  0.076200  1.0  0.1199
  H  H84  1  0.871900  0.736600  0.022800  1.0  0.1075
  H  H85  1  0.986300  0.751300  0.999000  1.0  0.1045
  H  H86  1  0.895000  0.017700  0.875300  1.0  0.1017
  H  H87  1  0.780100  0.003800  0.900700  1.0  0.0974
  H  H88  1  0.655200  0.739100  0.730800  1.0  0.0953
  H  H89  1  0.637300  0.562100  0.887500  1.0  0.092
  H  H90  1  0.779500  0.572800  0.907400  1.0  0.1259
  H  H91  1  0.881800  0.564300  0.866600  1.0  0.1122
  H  H92  1  0.995800  0.584800  0.840800  1.0  0.1134
  H  H93  1  0.889300  0.832300  0.703800  1.0  0.104
  H  H94  1  0.775400  0.813400  0.730100  1.0  0.1144
  H  H95  1  0.319100  0.639200  0.772700  1.0  0.0923
  H  H96  1  0.342900  0.794300  0.611500  1.0  0.0916
  H  H97  1  0.203700  0.817100  0.599600  1.0  0.1225
  H  H98  1  0.208100  0.608200  0.790700  1.0  0.1202
  H  H99  1  0.098600  0.608900  0.823000  1.0  0.1169
  H  H100  1  0.986300  0.825400  0.666667  1.0  0.1063
  H  H101  1  0.097600  0.830100  0.636400  1.0  0.1043
  H  H102  1  0.509300  0.210200  0.905600  1.0  0.0493
  H  H103  1  0.518500  0.102600  0.608300  1.0  0.0422
  H  H104  1  0.481000  0.925900  0.765700  1.0  0.0344
  H  H105  1  0.668800  0.366700  0.531900  1.0  0.0947
  H  H106  1  0.648300  0.467500  0.708100  1.0  0.0884
  H  H107  1  0.790500  0.476500  0.725800  1.0  0.1077
  H  H108  1  0.885400  0.537900  0.671600  1.0  0.0996
  H  H109  1  0.001600  0.526400  0.647900  1.0  0.0966
  H  H110  1  0.910500  0.265200  0.518800  1.0  0.1127
  H  H111  1  0.795300  0.274100  0.543400  1.0  0.1146
  H  H112  1  0.345600  0.437700  0.597800  1.0  0.0949
  H  H113  1  0.356300  0.285400  0.430600  1.0  0.1006
  H  H114  1  0.218300  0.270400  0.423800  1.0  0.1188
  H  H115  1  0.128100  0.236600  0.477200  1.0  0.1077
  H  H116  1  0.013700  0.251300  0.501000  1.0  0.104
  H  H117  1  0.105000  0.517700  0.624700  1.0  0.1014
  H  H118  1  0.219900  0.503800  0.599300  1.0  0.0966
  H  H119  1  0.344800  0.239100  0.769200  1.0  0.0954
  H  H120  1  0.362700  0.062100  0.612500  1.0  0.0921
  H  H121  1  0.220500  0.072800  0.592600  1.0  0.1253
  H  H122  1  0.118200  0.064300  0.633400  1.0  0.1126
  H  H123  1  0.004200  0.084800  0.659200  1.0  0.113
  H  H124  1  0.110700  0.332300  0.796200  1.0  0.1041
  H  H125  1  0.224600  0.313400  0.769900  1.0  0.114
  H  H126  1  0.680900  0.139200  0.727300  1.0  0.0918
  H  H127  1  0.657100  0.294300  0.888500  1.0  0.0916
  H  H128  1  0.796300  0.317100  0.900400  1.0  0.1227
  H  H129  1  0.791900  0.108200  0.709300  1.0  0.1209
  H  H130  1  0.901400  0.108900  0.677000  1.0  0.1167
  H  H131  1  0.013700  0.325400  0.833300  1.0  0.1053
  H  H132  1  0.902400  0.330100  0.863600  1.0  0.1045
  C  C133  1  0.509700  0.368200  0.401200  1.0  0.5577
  C  C134  1  0.516000  0.319200  0.102300  1.0  0.6909
  C  C135  1  0.505400  0.578600  0.232400  1.0  0.6626
  C  C136  1  0.681200  0.107600  0.078100  1.0  0.1354
  C  C137  1  0.670200  0.051900  0.174500  1.0  0.0341
  C  C138  1  0.748800  0.047400  0.184800  1.0  -0.1598
  C  C139  1  0.828300  0.091100  0.108500  1.0  0.1158
  C  C140  1  0.890200  0.017100  0.140400  1.0  -0.1661
  C  C141  1  0.959900  0.024400  0.126100  1.0  -0.1072
  C  C142  1  0.969600  0.105200  0.080300  1.0  0.0232
  C  C143  1  0.906100  0.179400  0.049800  1.0  -0.1099
  C  C144  1  0.836500  0.173800  0.063900  1.0  -0.1558
  C  C145  1  0.331200  0.102000  0.055100  1.0  0.1586
  C  C146  1  0.336700  0.185400  0.963700  1.0  0.023
  C  C147  1  0.260500  0.194000  0.959700  1.0  -0.1683
  C  C148  1  0.185500  0.131100  0.035700  1.0  0.1211
  C  C149  1  0.123600  0.205800  0.006900  1.0  -0.178
  C  C150  1  0.055000  0.196700  0.021300  1.0  -0.1271
  C  C151  1  0.044900  0.113200  0.065000  1.0  0.0551
  C  C152  1  0.108800  0.039200  0.094200  1.0  -0.1036
  C  C153  1  0.178200  0.047600  0.079400  1.0  -0.1435
  C  C154  1  0.331800  0.304100  0.228100  1.0  0.1524
  C  C155  1  0.341000  0.400900  0.141900  1.0  0.0396
  C  C156  1  0.262500  0.395700  0.130600  1.0  -0.1666
  C  C157  1  0.183400  0.315100  0.200400  1.0  0.0928
  C  C158  1  0.117000  0.382100  0.166700  1.0  -0.1378
  C  C159  1  0.048700  0.369600  0.182300  1.0  -0.1262
  C  C160  1  0.044500  0.290400  0.232000  1.0  0.0205
  C  C161  1  0.111900  0.222500  0.263600  1.0  -0.0887
  C  C162  1  0.180500  0.233700  0.248200  1.0  -0.1785
  C  C163  1  0.691800  0.319000  0.268800  1.0  0.1516
  C  C164  1  0.679300  0.234300  0.357100  1.0  0.0458
  C  C165  1  0.756400  0.221200  0.364000  1.0  -0.161
  C  C166  1  0.835200  0.279000  0.288800  1.0  0.1259
  C  C167  1  0.836100  0.346600  0.233800  1.0  -0.1756
  C  C168  1  0.902500  0.347000  0.215400  1.0  -0.103
  C  C169  1  0.971800  0.284400  0.251700  1.0  0.0542
  C  C170  1  0.969000  0.218200  0.307500  1.0  -0.1108
  C  C171  1  0.902200  0.215200  0.326000  1.0  -0.191
  C  C172  1  0.490300  0.868200  0.098800  1.0  0.5579
  C  C173  1  0.484000  0.819200  0.397700  1.0  0.6914
  C  C174  1  0.494600  0.078600  0.267600  1.0  0.6635
  C  C175  1  0.318800  0.607600  0.421900  1.0  0.1365
  C  C176  1  0.329800  0.551900  0.325500  1.0  0.0354
  C  C177  1  0.251200  0.547400  0.315200  1.0  -0.1602
  C  C178  1  0.171700  0.591100  0.391500  1.0  0.1153
  C  C179  1  0.109800  0.517100  0.359600  1.0  -0.1666
  C  C180  1  0.040100  0.524400  0.373900  1.0  -0.1065
  C  C181  1  0.030400  0.605200  0.419700  1.0  0.0236
  C  C182  1  0.093900  0.679400  0.450200  1.0  -0.1096
  C  C183  1  0.163500  0.673800  0.436100  1.0  -0.157
  C  C184  1  0.668800  0.602000  0.444900  1.0  0.1589
  C  C185  1  0.663300  0.685400  0.536300  1.0  0.0222
  C  C186  1  0.739500  0.694000  0.540300  1.0  -0.167
  C  C187  1  0.814500  0.631100  0.464300  1.0  0.1203
  C  C188  1  0.876400  0.705800  0.493100  1.0  -0.1784
  C  C189  1  0.945000  0.696700  0.478700  1.0  -0.1288
  C  C190  1  0.955100  0.613200  0.435000  1.0  0.0554
  C  C191  1  0.891200  0.539200  0.405800  1.0  -0.103
  C  C192  1  0.821800  0.547600  0.420600  1.0  -0.1432
  C  C193  1  0.668200  0.804100  0.271900  1.0  0.1519
  C  C194  1  0.659000  0.900900  0.358100  1.0  0.0387
  C  C195  1  0.737500  0.895700  0.369400  1.0  -0.1624
  C  C196  1  0.816600  0.815100  0.299600  1.0  0.0918
  C  C197  1  0.883000  0.882100  0.333333  1.0  -0.1482
  C  C198  1  0.951300  0.869600  0.317700  1.0  -0.1278
  C  C199  1  0.955500  0.790400  0.268000  1.0  0.0208
  C  C200  1  0.888100  0.722500  0.236400  1.0  -0.0898
  C  C201  1  0.819500  0.733700  0.251800  1.0  -0.1778
  C  C202  1  0.308200  0.819000  0.231200  1.0  0.1515
  C  C203  1  0.320700  0.734300  0.142900  1.0  0.0455
  C  C204  1  0.243600  0.721200  0.136000  1.0  -0.1637
  C  C205  1  0.164800  0.779000  0.211200  1.0  0.1263
  C  C206  1  0.163900  0.846600  0.266200  1.0  -0.1762
  C  C207  1  0.097500  0.847000  0.284600  1.0  -0.1036
  C  C208  1  0.028200  0.784400  0.248300  1.0  0.0541
  C  C209  1  0.031000  0.718200  0.192500  1.0  -0.1092
  C  C210  1  0.097800  0.715200  0.174000  1.0  -0.1785
  C  C211  1  0.490300  0.631800  0.598800  1.0  0.5569
  C  C212  1  0.484000  0.680800  0.897700  1.0  0.6924
  C  C213  1  0.494600  0.421400  0.767600  1.0  0.6634
  C  C214  1  0.318800  0.892400  0.921900  1.0  0.1377
  C  C215  1  0.329800  0.948100  0.825500  1.0  0.0353
  C  C216  1  0.251200  0.952600  0.815200  1.0  -0.1604
  C  C217  1  0.171700  0.908900  0.891500  1.0  0.1154
  C  C218  1  0.109800  0.982900  0.859600  1.0  -0.1657
  C  C219  1  0.040100  0.975600  0.873900  1.0  -0.1056
  C  C220  1  0.030400  0.894800  0.919700  1.0  0.0237
  C  C221  1  0.093900  0.820600  0.950200  1.0  -0.1086
  C  C222  1  0.163500  0.826200  0.936100  1.0  -0.1558
  C  C223  1  0.668800  0.898000  0.944900  1.0  0.1585
  C  C224  1  0.663300  0.814600  0.036300  1.0  0.0231
  C  C225  1  0.739500  0.806000  0.040300  1.0  -0.1665
  C  C226  1  0.814500  0.868900  0.964300  1.0  0.1207
  C  C227  1  0.876400  0.794200  0.993100  1.0  -0.1765
  C  C228  1  0.945000  0.803300  0.978700  1.0  -0.1293
  C  C229  1  0.955100  0.886800  0.935000  1.0  0.055
  C  C230  1  0.891200  0.960800  0.905800  1.0  -0.1024
  C  C231  1  0.821800  0.952400  0.920600  1.0  -0.1429
  C  C232  1  0.668200  0.695900  0.771900  1.0  0.152
  C  C233  1  0.659000  0.599100  0.858100  1.0  0.0391
  C  C234  1  0.737500  0.604300  0.869400  1.0  -0.1633
  C  C235  1  0.816600  0.684900  0.799600  1.0  0.0923
  C  C236  1  0.883000  0.617900  0.833300  1.0  -0.1381
  C  C237  1  0.951300  0.630400  0.817700  1.0  -0.1274
  C  C238  1  0.955500  0.709600  0.768000  1.0  0.0206
  C  C239  1  0.888100  0.777500  0.736400  1.0  -0.0899
  C  C240  1  0.819500  0.766300  0.751800  1.0  -0.1783
  C  C241  1  0.308200  0.681000  0.731200  1.0  0.1517
  C  C242  1  0.320700  0.765700  0.642900  1.0  0.0453
  C  C243  1  0.243600  0.778800  0.636000  1.0  -0.164
  C  C244  1  0.164800  0.721000  0.711200  1.0  0.1264
  C  C245  1  0.163900  0.653400  0.766200  1.0  -0.1751
  C  C246  1  0.097500  0.653000  0.784600  1.0  -0.1035
  C  C247  1  0.028200  0.715600  0.748300  1.0  0.0543
  C  C248  1  0.031000  0.781800  0.692500  1.0  -0.1088
  C  C249  1  0.097800  0.784800  0.674000  1.0  -0.1901
  C  C250  1  0.509700  0.131800  0.901200  1.0  0.5567
  C  C251  1  0.516000  0.180800  0.602300  1.0  0.6914
  C  C252  1  0.505400  0.921400  0.732400  1.0  0.6628
  C  C253  1  0.681200  0.392400  0.578100  1.0  0.1366
  C  C254  1  0.670200  0.448100  0.674500  1.0  0.0341
  C  C255  1  0.748800  0.452600  0.684800  1.0  -0.1599
  C  C256  1  0.828300  0.408900  0.608500  1.0  0.1158
  C  C257  1  0.890200  0.482900  0.640400  1.0  -0.1655
  C  C258  1  0.959900  0.475600  0.626100  1.0  -0.1068
  C  C259  1  0.969600  0.394800  0.580300  1.0  0.0231
  C  C260  1  0.906100  0.320600  0.549800  1.0  -0.1088
  C  C261  1  0.836500  0.326200  0.563900  1.0  -0.1546
  C  C262  1  0.331200  0.398000  0.555100  1.0  0.1587
  C  C263  1  0.336700  0.314600  0.463700  1.0  0.0224
  C  C264  1  0.260500  0.306000  0.459700  1.0  -0.1682
  C  C265  1  0.185500  0.368900  0.535700  1.0  0.121
  C  C266  1  0.123600  0.294200  0.506900  1.0  -0.1768
  C  C267  1  0.055000  0.303300  0.521300  1.0  -0.128
  C  C268  1  0.044900  0.386800  0.565000  1.0  0.0546
  C  C269  1  0.108800  0.460800  0.594200  1.0  -0.1028
  C  C270  1  0.178200  0.452400  0.579400  1.0  -0.1432
  C  C271  1  0.331800  0.195900  0.728100  1.0  0.1519
  C  C272  1  0.341000  0.099100  0.641900  1.0  0.0399
  C  C273  1  0.262500  0.104300  0.630600  1.0  -0.167
  C  C274  1  0.183400  0.184900  0.700400  1.0  0.0921
  C  C275  1  0.117000  0.117900  0.666667  1.0  -0.1473
  C  C276  1  0.048700  0.130400  0.682300  1.0  -0.1263
  C  C277  1  0.044500  0.209600  0.732000  1.0  0.0204
  C  C278  1  0.111900  0.277500  0.763600  1.0  -0.0911
  C  C279  1  0.180500  0.266300  0.748200  1.0  -0.1783
  C  C280  1  0.691800  0.181000  0.768800  1.0  0.1516
  C  C281  1  0.679300  0.265700  0.857100  1.0  0.0457
  C  C282  1  0.756400  0.278800  0.864000  1.0  -0.161
  C  C283  1  0.835200  0.221000  0.788800  1.0  0.1261
  C  C284  1  0.836100  0.153400  0.733800  1.0  -0.1744
  C  C285  1  0.902500  0.153000  0.715400  1.0  -0.1034
  C  C286  1  0.971800  0.215600  0.751700  1.0  0.0544
  C  C287  1  0.969000  0.281800  0.807500  1.0  -0.1118
  C  C288  1  0.902200  0.284800  0.826000  1.0  -0.1794
  N  N289  1  0.627500  0.089500  0.107100  1.0  -0.3884
  N  N290  1  0.755800  0.084700  0.123400  1.0  0.0405
  N  N291  1  0.381200  0.127200  0.023600  1.0  -0.3638
  N  N292  1  0.256400  0.140600  0.018200  1.0  0.0469
  N  N293  1  0.384900  0.343900  0.203000  1.0  -0.3842
  N  N294  1  0.255800  0.334400  0.186300  1.0  0.0184
  N  N295  1  0.637800  0.296000  0.297100  1.0  -0.3806
  N  N296  1  0.765100  0.274900  0.307200  1.0  0.0209
  N  N297  1  0.372500  0.589500  0.392900  1.0  -0.3879
  N  N298  1  0.244200  0.584700  0.376600  1.0  0.0397
  N  N299  1  0.618800  0.627200  0.476400  1.0  -0.3651
  N  N300  1  0.743600  0.640600  0.481800  1.0  0.0468
  N  N301  1  0.615100  0.843900  0.297000  1.0  -0.3842
  N  N302  1  0.744200  0.834400  0.313700  1.0  0.0177
  N  N303  1  0.362200  0.796000  0.202900  1.0  -0.3805
  N  N304  1  0.234900  0.774900  0.192800  1.0  0.0209
  N  N305  1  0.372500  0.910500  0.892900  1.0  -0.3874
  N  N306  1  0.244200  0.915300  0.876600  1.0  0.0396
  N  N307  1  0.618800  0.872800  0.976400  1.0  -0.3645
  N  N308  1  0.743600  0.859400  0.981800  1.0  0.047
  N  N309  1  0.615100  0.656100  0.797000  1.0  -0.384
  N  N310  1  0.744200  0.665600  0.813700  1.0  0.0182
  N  N311  1  0.362200  0.704000  0.702900  1.0  -0.38
  N  N312  1  0.234900  0.725100  0.692800  1.0  0.0211
  N  N313  1  0.627500  0.410500  0.607100  1.0  -0.3886
  N  N314  1  0.755800  0.415300  0.623400  1.0  0.0408
  N  N315  1  0.381200  0.372800  0.523600  1.0  -0.3635
  N  N316  1  0.256400  0.359400  0.518200  1.0  0.0465
  N  N317  1  0.384900  0.156100  0.703000  1.0  -0.3841
  N  N318  1  0.255800  0.165600  0.686300  1.0  0.0188
  N  N319  1  0.637800  0.204000  0.797100  1.0  -0.3805
  N  N320  1  0.765100  0.225100  0.807200  1.0  0.0211
  O  O321  1  0.507100  0.428600  0.452310  1.0  -0.6767
  O  O322  1  0.512600  0.408500  0.346230  1.0  -0.6105
  O  O323  1  0.516100  0.280100  0.045080  1.0  -0.6049
  O  O324  1  0.512800  0.259700  0.151900  1.0  -0.6439
  O  O325  1  0.530500  0.488600  0.216520  1.0  -0.6131
  O  O326  1  0.509600  0.673700  0.208340  1.0  -0.6134
  O  O327  1  0.492900  0.928600  0.047690  1.0  -0.6758
  O  O328  1  0.487400  0.908500  0.153770  1.0  -0.6108
  O  O329  1  0.483900  0.780100  0.454920  1.0  -0.604
  O  O330  1  0.487200  0.759700  0.348100  1.0  -0.644
  O  O331  1  0.469500  0.988600  0.283480  1.0  -0.6123
  O  O332  1  0.490400  0.173700  0.291660  1.0  -0.6138
  O  O333  1  0.492900  0.571400  0.547690  1.0  -0.676
  O  O334  1  0.487400  0.591500  0.653770  1.0  -0.6109
  O  O335  1  0.483900  0.719900  0.954920  1.0  -0.6063
  O  O336  1  0.487200  0.740300  0.848100  1.0  -0.6445
  O  O337  1  0.469500  0.511400  0.783480  1.0  -0.6124
  O  O338  1  0.490400  0.326300  0.791660  1.0  -0.6131
  O  O339  1  0.507100  0.071400  0.952310  1.0  -0.6772
  O  O340  1  0.512600  0.091500  0.846230  1.0  -0.6105
  O  O341  1  0.516100  0.219900  0.545080  1.0  -0.6057
  O  O342  1  0.512800  0.240300  0.651900  1.0  -0.644
  O  O343  1  0.530500  0.011400  0.716520  1.0  -0.6135
  O  O344  1  0.509600  0.826300  0.708340  1.0  -0.613
