# generated using pymatgen
data_CdH42C60N12(ClO4)2
_symmetry_space_group_name_H-M   'P 1'
_cell_length_a   13.03150000
_cell_length_b   13.03150000
_cell_length_c   25.09420000
_cell_angle_alpha   82.11670000
_cell_angle_beta   80.10250000
_cell_angle_gamma   113.88400000
_symmetry_Int_Tables_number   1
_chemical_formula_structural   CdH42C60N12(ClO4)2
_chemical_formula_sum   'Cd2 H84 C120 N24 Cl4 O16'
_cell_volume   3736.09591355
_cell_formula_units_Z   2
loop_
 _symmetry_equiv_pos_site_id
 _symmetry_equiv_pos_as_xyz
  1  'x, y, z'
loop_
 _atom_site_type_symbol
 _atom_site_label
 _atom_site_symmetry_multiplicity
 _atom_site_fract_x
 _atom_site_fract_y
 _atom_site_fract_z
 _atom_site_occupancy
 _atom_site_charge
  Cd  Cd1  1  0.579600  0.829600  0.250000  1.0  0.7875
  Cd  Cd2  1  0.420400  0.170400  0.750000  1.0  0.7868
  H  H3  1  0.171900  0.674400  0.167900  1.0  0.1069
  H  H4  1  0.616800  0.618300  0.194900  1.0  0.0998
  H  H5  1  0.734800  0.122500  0.234300  1.0  0.1337
  H  H6  1  0.347900  0.779700  0.185600  1.0  0.1337
  H  H7  1  0.992500  0.893400  0.083700  1.0  0.1145
  H  H8  1  0.827100  0.316300  0.191000  1.0  0.1101
  H  H9  1  0.595300  0.858800  0.107500  1.0  0.1311
  H  H10  1  0.951600  0.381100  0.103500  1.0  0.1127
  H  H11  1  0.648800  0.947900  0.014300  1.0  0.1131
  H  H12  1  0.634900  0.499200  0.120700  1.0  0.1242
  H  H13  1  0.322600  0.305300  0.226700  1.0  0.1105
  H  H14  1  0.478100  0.037300  0.244800  1.0  0.0998
  H  H15  1  0.907800  0.120300  0.999300  1.0  0.121
  H  H16  1  0.586300  0.213200  0.049300  1.0  0.1451
  H  H17  1  0.793000  0.846200  0.141800  1.0  0.0967
  H  H18  1  0.346000  0.139600  0.219200  1.0  0.1282
  H  H19  1  0.987500  0.253900  0.055400  1.0  0.135
  H  H20  1  0.243400  0.402000  0.160600  1.0  0.1384
  H  H21  1  0.642900  0.121200  0.985100  1.0  0.1075
  H  H22  1  0.118700  0.488400  0.157100  1.0  0.1042
  H  H23  1  0.663600  0.335700  0.116300  1.0  0.1192
  H  H24  1  0.342300  0.339800  0.332100  1.0  0.1073
  H  H25  1  0.313200  0.811700  0.305100  1.0  0.1001
  H  H26  1  0.856800  0.969100  0.265700  1.0  0.1353
  H  H27  1  0.465300  0.533500  0.314400  1.0  0.1329
  H  H28  1  0.477100  0.076200  0.416300  1.0  0.1126
  H  H29  1  0.007300  0.018100  0.309000  1.0  0.1076
  H  H30  1  0.466300  0.702800  0.392500  1.0  0.13
  H  H31  1  0.984600  0.055100  0.396500  1.0  0.1117
  H  H32  1  0.462200  0.663100  0.485700  1.0  0.1115
  H  H33  1  0.119900  0.755600  0.379300  1.0  0.1237
  H  H34  1  0.032000  0.549300  0.273300  1.0  0.1108
  H  H35  1  0.782100  0.722900  0.255200  1.0  0.0991
  H  H36  1  0.619600  0.907100  0.500700  1.0  0.1214
  H  H37  1  0.762500  0.635600  0.450700  1.0  0.1446
  H  H38  1  0.488000  0.934800  0.358200  1.0  0.0976
  H  H39  1  0.858800  0.565200  0.280800  1.0  0.1286
  H  H40  1  0.809300  0.042900  0.444600  1.0  0.1361
  H  H41  1  0.062600  0.404000  0.339400  1.0  0.1377
  H  H42  1  0.606300  0.628000  0.514900  1.0  0.1076
  H  H43  1  0.145500  0.275800  0.342900  1.0  0.1054
  H  H44  1  0.952000  0.779900  0.383700  1.0  0.1185
  H  H45  1  0.828100  0.325600  0.832100  1.0  0.1074
  H  H46  1  0.383200  0.381700  0.805100  1.0  0.101
  H  H47  1  0.265200  0.877500  0.765700  1.0  0.1336
  H  H48  1  0.652100  0.220300  0.814400  1.0  0.1339
  H  H49  1  0.007500  0.106600  0.916300  1.0  0.1141
  H  H50  1  0.172900  0.683700  0.809000  1.0  0.1103
  H  H51  1  0.404700  0.141200  0.892500  1.0  0.131
  H  H52  1  0.048400  0.618900  0.896500  1.0  0.1128
  H  H53  1  0.351200  0.052100  0.985700  1.0  0.1134
  H  H54  1  0.365100  0.500800  0.879300  1.0  0.1233
  H  H55  1  0.677400  0.694700  0.773300  1.0  0.1111
  H  H56  1  0.521900  0.962700  0.755200  1.0  0.0992
  H  H57  1  0.092200  0.879700  0.000700  1.0  0.12
  H  H58  1  0.413700  0.786800  0.950700  1.0  0.145
  H  H59  1  0.207000  0.153800  0.858200  1.0  0.0967
  H  H60  1  0.654000  0.860400  0.780800  1.0  0.1284
  H  H61  1  0.012500  0.746100  0.944600  1.0  0.1349
  H  H62  1  0.756600  0.598000  0.839400  1.0  0.1382
  H  H63  1  0.357100  0.878800  0.014900  1.0  0.1098
  H  H64  1  0.881300  0.511600  0.842900  1.0  0.1048
  H  H65  1  0.336400  0.664300  0.883700  1.0  0.1188
  H  H66  1  0.657700  0.660200  0.667900  1.0  0.1079
  H  H67  1  0.686800  0.188300  0.694900  1.0  0.1003
  H  H68  1  0.143200  0.030900  0.734300  1.0  0.1347
  H  H69  1  0.534700  0.466500  0.685600  1.0  0.1326
  H  H70  1  0.522900  0.923800  0.583700  1.0  0.1127
  H  H71  1  0.992700  0.981900  0.691000  1.0  0.108
  H  H72  1  0.533700  0.297200  0.607500  1.0  0.1307
  H  H73  1  0.015400  0.944900  0.603500  1.0  0.1119
  H  H74  1  0.537800  0.336900  0.514300  1.0  0.1108
  H  H75  1  0.880100  0.244400  0.620700  1.0  0.1245
  H  H76  1  0.968000  0.450700  0.726700  1.0  0.1108
  H  H77  1  0.217900  0.277100  0.744800  1.0  0.0996
  H  H78  1  0.380400  0.092900  0.499300  1.0  0.1196
  H  H79  1  0.237500  0.364400  0.549300  1.0  0.1447
  H  H80  1  0.512000  0.065200  0.641800  1.0  0.0975
  H  H81  1  0.141200  0.434800  0.719200  1.0  0.1286
  H  H82  1  0.190700  0.957100  0.555400  1.0  0.1359
  H  H83  1  0.937400  0.596000  0.660600  1.0  0.1376
  H  H84  1  0.393700  0.372000  0.485100  1.0  0.1085
  H  H85  1  0.854500  0.724200  0.657100  1.0  0.1058
  H  H86  1  0.048000  0.220100  0.616300  1.0  0.1186
  C  C87  1  0.476590  0.416500  0.174310  1.0  0.171
  C  C88  1  0.222870  0.641690  0.170440  1.0  -0.0866
  C  C89  1  0.545500  0.613070  0.190430  1.0  0.2154
  C  C90  1  0.784110  0.148130  0.198760  1.0  -0.1264
  C  C91  1  0.327560  0.704930  0.180910  1.0  -0.1249
  C  C92  1  0.995740  0.935910  0.049950  1.0  -0.158
  C  C93  1  0.402620  0.653620  0.184360  1.0  0.1566
  C  C94  1  0.839730  0.263230  0.172840  1.0  -0.0867
  C  C95  1  0.594780  0.929560  0.096260  1.0  -0.1583
  C  C96  1  0.915080  0.302450  0.119670  1.0  -0.1216
  C  C97  1  0.804130  0.070840  0.169830  1.0  0.1534
  C  C98  1  0.369780  0.541410  0.176410  1.0  0.0763
  C  C99  1  0.878610  0.111400  0.116590  1.0  0.0916
  C  C100  1  0.625420  0.982830  0.040750  1.0  -0.0774
  C  C101  1  0.578270  0.427040  0.140890  1.0  -0.1871
  C  C102  1  0.389960  0.310510  0.204130  1.0  -0.1867
  C  C103  1  0.504330  0.036690  0.207980  1.0  0.2191
  C  C104  1  0.562820  0.985590  0.134990  1.0  0.1641
  C  C105  1  0.944700  0.072280  0.999420  1.0  -0.2152
  C  C106  1  0.941190  0.007740  0.049070  1.0  0.1587
  C  C107  1  0.507000  0.222380  0.167420  1.0  0.1542
  C  C108  1  0.589430  0.143830  0.060740  1.0  -0.1316
  C  C109  1  0.561330  0.090800  0.116670  1.0  0.1117
  C  C110  1  0.807270  0.921790  0.142740  1.0  0.2089
  C  C111  1  0.404310  0.211900  0.200190  1.0  -0.1835
  C  C112  1  0.936770  0.227730  0.090500  1.0  -0.118
  C  C113  1  0.263950  0.476410  0.165840  1.0  -0.1349
  C  C114  1  0.622430  0.088220  0.022950  1.0  -0.1087
  C  C115  1  0.190960  0.528950  0.163490  1.0  -0.0928
  C  C116  1  0.594810  0.329760  0.137830  1.0  -0.1591
  C  C117  1  0.090810  0.650900  0.325690  1.0  0.17
  C  C118  1  0.312130  0.393310  0.329560  1.0  -0.0878
  C  C119  1  0.303500  0.735930  0.309570  1.0  0.2161
  C  C120  1  0.846890  0.982870  0.301240  1.0  -0.1273
  C  C121  1  0.385840  0.508470  0.319090  1.0  -0.1224
  C  C122  1  0.485860  0.045690  0.450050  1.0  -0.1598
  C  C123  1  0.337980  0.586980  0.315640  1.0  0.1537
  C  C124  1  0.936070  0.012570  0.327160  1.0  -0.0836
  C  C125  1  0.525820  0.691040  0.403740  1.0  -0.1561
  C  C126  1  0.922120  0.034750  0.380330  1.0  -0.1206
  C  C127  1  0.740670  0.973960  0.330170  1.0  0.1554
  C  C128  1  0.217820  0.546190  0.323590  1.0  0.0742
  C  C129  1  0.727990  0.995200  0.383410  1.0  0.0921
  C  C130  1  0.523580  0.666170  0.459250  1.0  -0.0825
  C  C131  1  0.067930  0.719160  0.359110  1.0  -0.1844
  C  C132  1  0.014640  0.594090  0.295870  1.0  -0.1874
  C  C133  1  0.744670  0.712310  0.292020  1.0  0.2193
  C  C134  1  0.620580  0.697810  0.365010  1.0  0.1641
  C  C135  1  0.571700  0.944120  0.500580  1.0  -0.2174
  C  C136  1  0.556810  0.990260  0.450930  1.0  0.156
  C  C137  1  0.889800  0.674420  0.332580  1.0  0.1536
  C  C138  1  0.704570  0.650170  0.439260  1.0  -0.1262
  C  C139  1  0.707470  0.678000  0.383330  1.0  0.1115
  C  C140  1  0.564530  0.950010  0.357260  1.0  0.2091
  C  C141  1  0.912090  0.604500  0.299810  1.0  -0.1853
  C  C142  1  0.818230  0.027270  0.409500  1.0  -0.1205
  C  C143  1  0.142250  0.429790  0.334160  1.0  -0.1348
  C  C144  1  0.611170  0.645380  0.477050  1.0  -0.1054
  C  C145  1  0.192440  0.354450  0.336510  1.0  -0.0976
  C  C146  1  0.967590  0.732640  0.362170  1.0  -0.1586
  C  C147  1  0.523410  0.583500  0.825690  1.0  0.1708
  C  C148  1  0.777130  0.358310  0.829560  1.0  -0.0869
  C  C149  1  0.454500  0.386930  0.809570  1.0  0.2162
  C  C150  1  0.215890  0.851870  0.801240  1.0  -0.1257
  C  C151  1  0.672440  0.295070  0.819090  1.0  -0.1252
  C  C152  1  0.004260  0.064090  0.950050  1.0  -0.1566
  C  C153  1  0.597380  0.346380  0.815640  1.0  0.1578
  C  C154  1  0.160270  0.736770  0.827160  1.0  -0.0872
  C  C155  1  0.405220  0.070440  0.903740  1.0  -0.1593
  C  C156  1  0.084920  0.697550  0.880330  1.0  -0.1211
  C  C157  1  0.195870  0.929160  0.830170  1.0  0.1541
  C  C158  1  0.630220  0.458590  0.823590  1.0  0.0779
  C  C159  1  0.121390  0.888600  0.883410  1.0  0.0932
  C  C160  1  0.374580  0.017170  0.959250  1.0  -0.079
  C  C161  1  0.421730  0.572960  0.859110  1.0  -0.1874
  C  C162  1  0.610040  0.689490  0.795870  1.0  -0.1872
  C  C163  1  0.495670  0.963310  0.792020  1.0  0.2177
  C  C164  1  0.437180  0.014410  0.865010  1.0  0.1632
  C  C165  1  0.055300  0.927720  0.000580  1.0  -0.2157
  C  C166  1  0.058810  0.992260  0.950930  1.0  0.1586
  C  C167  1  0.493000  0.777620  0.832580  1.0  0.1556
  C  C168  1  0.410570  0.856170  0.939260  1.0  -0.1307
  C  C169  1  0.438670  0.909200  0.883330  1.0  0.11
  C  C170  1  0.192730  0.078210  0.857260  1.0  0.2079
  C  C171  1  0.595690  0.788100  0.799810  1.0  -0.1841
  C  C172  1  0.063230  0.772270  0.909500  1.0  -0.121
  C  C173  1  0.736050  0.523590  0.834160  1.0  -0.1358
  C  C174  1  0.377570  0.911780  0.977050  1.0  -0.107
  C  C175  1  0.809040  0.471050  0.836510  1.0  -0.0936
  C  C176  1  0.405190  0.670240  0.862170  1.0  -0.1596
  C  C177  1  0.909190  0.349100  0.674310  1.0  0.1711
  C  C178  1  0.687870  0.606690  0.670440  1.0  -0.0889
  C  C179  1  0.696500  0.264070  0.690430  1.0  0.2157
  C  C180  1  0.153110  0.017130  0.698760  1.0  -0.1274
  C  C181  1  0.614160  0.491530  0.680910  1.0  -0.1208
  C  C182  1  0.514140  0.954310  0.549950  1.0  -0.1574
  C  C183  1  0.662020  0.413020  0.684360  1.0  0.1532
  C  C184  1  0.063930  0.987430  0.672840  1.0  -0.0844
  C  C185  1  0.474180  0.308960  0.596260  1.0  -0.1576
  C  C186  1  0.077880  0.965250  0.619670  1.0  -0.1193
  C  C187  1  0.259330  0.026040  0.669830  1.0  0.1554
  C  C188  1  0.782180  0.453810  0.676410  1.0  0.0738
  C  C189  1  0.272010  0.004800  0.616590  1.0  0.0932
  C  C190  1  0.476420  0.333830  0.540750  1.0  -0.0819
  C  C191  1  0.932070  0.280840  0.640890  1.0  -0.1853
  C  C192  1  0.985360  0.405910  0.704130  1.0  -0.188
  C  C193  1  0.255330  0.287690  0.707980  1.0  0.2206
  C  C194  1  0.379420  0.302190  0.634990  1.0  0.1635
  C  C195  1  0.428300  0.055880  0.499420  1.0  -0.216
  C  C196  1  0.443190  0.009740  0.549070  1.0  0.1563
  C  C197  1  0.110200  0.325580  0.667420  1.0  0.1529
  C  C198  1  0.295430  0.349830  0.560740  1.0  -0.127
  C  C199  1  0.292530  0.322000  0.616670  1.0  0.1122
  C  C200  1  0.435470  0.049990  0.642740  1.0  0.2106
  C  C201  1  0.087910  0.395500  0.700190  1.0  -0.1865
  C  C202  1  0.181770  0.972730  0.590500  1.0  -0.116
  C  C203  1  0.857750  0.570210  0.665840  1.0  -0.1333
  C  C204  1  0.388830  0.354620  0.522950  1.0  -0.1071
  C  C205  1  0.807560  0.645550  0.663490  1.0  -0.0979
  C  C206  1  0.032410  0.267360  0.637830  1.0  -0.1573
  N  N207  1  0.526690  0.953090  0.193200  1.0  -0.4558
  N  N208  1  0.759810  0.950090  0.185320  1.0  -0.4569
  N  N209  1  0.514230  0.696650  0.193760  1.0  -0.4557
  N  N210  1  0.464670  0.519080  0.179890  1.0  0.0015
  N  N211  1  0.878710  0.012960  0.100390  1.0  -0.0382
  N  N212  1  0.523090  0.121420  0.164490  1.0  -0.0085
  N  N213  1  0.646290  0.719890  0.306800  1.0  -0.456
  N  N214  1  0.635410  0.945130  0.314680  1.0  -0.4539
  N  N215  1  0.390410  0.707990  0.306240  1.0  -0.4543
  N  N216  1  0.198970  0.644560  0.320110  1.0  0.0002
  N  N217  1  0.613350  0.979100  0.399610  1.0  -0.037
  N  N218  1  0.785910  0.687580  0.335510  1.0  -0.0062
  N  N219  1  0.473310  0.046910  0.806800  1.0  -0.4572
  N  N220  1  0.240190  0.049910  0.814680  1.0  -0.4555
  N  N221  1  0.485770  0.303350  0.806240  1.0  -0.4545
  N  N222  1  0.535330  0.480920  0.820110  1.0  -0.0005
  N  N223  1  0.121290  0.987040  0.899610  1.0  -0.0369
  N  N224  1  0.476910  0.878580  0.835510  1.0  -0.0064
  N  N225  1  0.353710  0.280110  0.693200  1.0  -0.4552
  N  N226  1  0.364590  0.054870  0.685320  1.0  -0.4543
  N  N227  1  0.609590  0.292010  0.693760  1.0  -0.453
  N  N228  1  0.801030  0.355440  0.679890  1.0  0.0014
  N  N229  1  0.386650  0.020900  0.600390  1.0  -0.0373
  N  N230  1  0.214090  0.312420  0.664490  1.0  -0.007
  Cl  Cl231  1  0.086870  0.371260  0.861550  1.0  1.373
  Cl  Cl232  1  0.732810  0.948420  0.638450  1.0  1.3725
  Cl  Cl233  1  0.913130  0.628740  0.138450  1.0  1.372
  Cl  Cl234  1  0.267190  0.051580  0.361550  1.0  1.3739
  O  O235  1  0.080750  0.457380  0.822070  1.0  -0.5468
  O  O236  1  0.165210  0.330140  0.835850  1.0  -0.5901
  O  O237  1  0.974160  0.279100  0.884140  1.0  -0.5711
  O  O238  1  0.129300  0.423200  0.904500  1.0  -0.5554
  O  O239  1  0.779450  0.902820  0.677930  1.0  -0.5462
  O  O240  1  0.665990  0.001060  0.664150  1.0  -0.5908
  O  O241  1  0.663240  0.858300  0.615860  1.0  -0.5731
  O  O242  1  0.827700  0.033800  0.595500  1.0  -0.5515
  O  O243  1  0.919250  0.542620  0.177930  1.0  -0.5459
  O  O244  1  0.834790  0.669860  0.164150  1.0  -0.591
  O  O245  1  0.025840  0.720900  0.115860  1.0  -0.5708
  O  O246  1  0.870700  0.576800  0.095500  1.0  -0.5547
  O  O247  1  0.220550  0.097180  0.322070  1.0  -0.5474
  O  O248  1  0.334010  0.998940  0.335850  1.0  -0.5897
  O  O249  1  0.336760  0.141700  0.384140  1.0  -0.5731
  O  O250  1  0.172300  0.966200  0.404500  1.0  -0.552
