# generated using pymatgen
data_CdH54C78N12(ClO4)2
_symmetry_space_group_name_H-M   'P 1'
_cell_length_a   13.97930000
_cell_length_b   13.97930000
_cell_length_c   13.97930000
_cell_angle_alpha   100.81600000
_cell_angle_beta   100.81600000
_cell_angle_gamma   100.81600000
_symmetry_Int_Tables_number   1
_chemical_formula_structural   CdH54C78N12(ClO4)2
_chemical_formula_sum   'Cd1 H54 C78 N12 Cl2 O8'
_cell_volume   2564.35797729
_cell_formula_units_Z   1
loop_
 _symmetry_equiv_pos_site_id
 _symmetry_equiv_pos_as_xyz
  1  'x, y, z'
loop_
 _atom_site_type_symbol
 _atom_site_label
 _atom_site_symmetry_multiplicity
 _atom_site_fract_x
 _atom_site_fract_y
 _atom_site_fract_z
 _atom_site_occupancy
 _atom_site_charge
  Cd  Cd1  1  0.000000  0.000000  0.000000  1.0  0.7693
  H  H2  1  0.776400  0.824800  0.935300  1.0  0.105
  H  H3  1  0.872300  0.171600  0.096500  1.0  0.1192
  H  H4  1  0.774200  0.242600  0.193200  1.0  0.1068
  H  H5  1  0.633000  0.145300  0.219900  1.0  0.1028
  H  H6  1  0.582400  0.978600  0.149500  1.0  0.1223
  H  H7  1  0.589600  0.735500  0.868200  1.0  0.1217
  H  H8  1  0.470600  0.596100  0.860200  1.0  0.1157
  H  H9  1  0.490700  0.678600  0.152100  1.0  0.1154
  H  H10  1  0.616000  0.814300  0.165600  1.0  0.117
  H  H11  1  0.935300  0.776400  0.824800  1.0  0.1046
  H  H12  1  0.096500  0.872300  0.171600  1.0  0.1208
  H  H13  1  0.193200  0.774200  0.242600  1.0  0.1078
  H  H14  1  0.219900  0.633000  0.145300  1.0  0.1043
  H  H15  1  0.149500  0.582400  0.978600  1.0  0.1228
  H  H16  1  0.868200  0.589600  0.735500  1.0  0.1189
  H  H17  1  0.860200  0.470600  0.596100  1.0  0.1145
  H  H18  1  0.152100  0.490700  0.678600  1.0  0.1158
  H  H19  1  0.165600  0.616000  0.814300  1.0  0.1179
  H  H20  1  0.824800  0.935300  0.776400  1.0  0.1061
  H  H21  1  0.171600  0.096500  0.872300  1.0  0.1201
  H  H22  1  0.242600  0.193200  0.774200  1.0  0.1064
  H  H23  1  0.145300  0.219900  0.633000  1.0  0.1046
  H  H24  1  0.978600  0.149500  0.582400  1.0  0.1202
  H  H25  1  0.735500  0.868200  0.589600  1.0  0.12
  H  H26  1  0.596100  0.860200  0.470600  1.0  0.115
  H  H27  1  0.678600  0.152100  0.490700  1.0  0.1141
  H  H28  1  0.814300  0.165600  0.616000  1.0  0.1187
  H  H29  1  0.175200  0.223600  0.064700  1.0  0.1045
  H  H30  1  0.828400  0.127700  0.903500  1.0  0.1197
  H  H31  1  0.757400  0.225800  0.806800  1.0  0.1092
  H  H32  1  0.854700  0.367000  0.780100  1.0  0.1031
  H  H33  1  0.021400  0.417600  0.850500  1.0  0.1225
  H  H34  1  0.264500  0.410400  0.131800  1.0  0.12
  H  H35  1  0.403900  0.529400  0.139800  1.0  0.1167
  H  H36  1  0.321400  0.509300  0.847900  1.0  0.1166
  H  H37  1  0.185700  0.384000  0.834400  1.0  0.1189
  H  H38  1  0.223600  0.064700  0.175200  1.0  0.1049
  H  H39  1  0.127700  0.903500  0.828400  1.0  0.121
  H  H40  1  0.225800  0.806800  0.757400  1.0  0.1082
  H  H41  1  0.367000  0.780100  0.854700  1.0  0.1048
  H  H42  1  0.417600  0.850500  0.021400  1.0  0.1231
  H  H43  1  0.410400  0.131800  0.264500  1.0  0.1186
  H  H44  1  0.529400  0.139800  0.403900  1.0  0.1159
  H  H45  1  0.509300  0.847900  0.321400  1.0  0.1156
  H  H46  1  0.384000  0.834400  0.185700  1.0  0.1194
  H  H47  1  0.064700  0.175200  0.223600  1.0  0.1056
  H  H48  1  0.903500  0.828400  0.127700  1.0  0.12
  H  H49  1  0.806800  0.757400  0.225800  1.0  0.1086
  H  H50  1  0.780100  0.854700  0.367000  1.0  0.1059
  H  H51  1  0.850500  0.021400  0.417600  1.0  0.1222
  H  H52  1  0.131800  0.264500  0.410400  1.0  0.12
  H  H53  1  0.139800  0.403900  0.529400  1.0  0.1149
  H  H54  1  0.847900  0.321400  0.509300  1.0  0.1123
  H  H55  1  0.834400  0.185700  0.384000  1.0  0.1166
  C  C56  1  0.766800  0.880400  0.977500  1.0  0.1779
  C  C57  1  0.783000  0.030900  0.060400  1.0  0.1722
  C  C58  1  0.814300  0.132800  0.105400  1.0  -0.1054
  C  C59  1  0.756100  0.174500  0.163900  1.0  -0.1195
  C  C60  1  0.670000  0.115300  0.179600  1.0  -0.0662
  C  C61  1  0.639800  0.016700  0.138600  1.0  -0.1391
  C  C62  1  0.697500  0.972600  0.078500  1.0  0.0902
  C  C63  1  0.614300  0.791700  0.018300  1.0  0.17
  C  C64  1  0.570000  0.724100  0.925900  1.0  -0.2121
  C  C65  1  0.497500  0.641500  0.921400  1.0  -0.1179
  C  C66  1  0.462500  0.622600  0.003200  1.0  0.0482
  C  C67  1  0.510500  0.690200  0.094600  1.0  -0.1124
  C  C68  1  0.585200  0.772100  0.103300  1.0  -0.2295
  C  C69  1  0.977500  0.766800  0.880400  1.0  0.1767
  C  C70  1  0.060400  0.783000  0.030900  1.0  0.1704
  C  C71  1  0.105400  0.814300  0.132800  1.0  -0.1063
  C  C72  1  0.163900  0.756100  0.174500  1.0  -0.1211
  C  C73  1  0.179600  0.670000  0.115300  1.0  -0.0704
  C  C74  1  0.138600  0.639800  0.016700  1.0  -0.1421
  C  C75  1  0.078500  0.697500  0.972600  1.0  0.0896
  C  C76  1  0.018300  0.614300  0.791700  1.0  0.1698
  C  C77  1  0.925900  0.570000  0.724100  1.0  -0.2159
  C  C78  1  0.921400  0.497500  0.641500  1.0  -0.1145
  C  C79  1  0.003200  0.462500  0.622600  1.0  0.0471
  C  C80  1  0.094600  0.510500  0.690200  1.0  -0.1157
  C  C81  1  0.103300  0.585200  0.772100  1.0  -0.23
  C  C82  1  0.880400  0.977500  0.766800  1.0  0.1801
  C  C83  1  0.030900  0.060400  0.783000  1.0  0.1727
  C  C84  1  0.132800  0.105400  0.814300  1.0  -0.104
  C  C85  1  0.174500  0.163900  0.756100  1.0  -0.1259
  C  C86  1  0.115300  0.179600  0.670000  1.0  -0.0682
  C  C87  1  0.016700  0.138600  0.639800  1.0  -0.1359
  C  C88  1  0.972600  0.078500  0.697500  1.0  0.088
  C  C89  1  0.791700  0.018300  0.614300  1.0  0.1692
  C  C90  1  0.724100  0.925900  0.570000  1.0  -0.2165
  C  C91  1  0.641500  0.921400  0.497500  1.0  -0.1191
  C  C92  1  0.622600  0.003200  0.462500  1.0  0.0501
  C  C93  1  0.690200  0.094600  0.510500  1.0  -0.1173
  C  C94  1  0.772100  0.103300  0.585200  1.0  -0.2235
  C  C95  1  0.119600  0.233200  0.022500  1.0  0.1793
  C  C96  1  0.969100  0.217000  0.939600  1.0  0.1722
  C  C97  1  0.867200  0.185700  0.894600  1.0  -0.1044
  C  C98  1  0.825500  0.243900  0.836100  1.0  -0.1244
  C  C99  1  0.884700  0.330000  0.820400  1.0  -0.0701
  C  C100  1  0.983300  0.360200  0.861400  1.0  -0.1327
  C  C101  1  0.027400  0.302500  0.921500  1.0  0.0898
  C  C102  1  0.208300  0.385700  0.981700  1.0  0.1708
  C  C103  1  0.275900  0.430000  0.074100  1.0  -0.2136
  C  C104  1  0.358500  0.502500  0.078600  1.0  -0.1169
  C  C105  1  0.377400  0.537500  0.996800  1.0  0.0482
  C  C106  1  0.309800  0.489500  0.905400  1.0  -0.1069
  C  C107  1  0.227900  0.414800  0.896700  1.0  -0.2227
  C  C108  1  0.233200  0.022500  0.119600  1.0  0.1775
  C  C109  1  0.217000  0.939600  0.969100  1.0  0.1711
  C  C110  1  0.185700  0.894600  0.867200  1.0  -0.1039
  C  C111  1  0.243900  0.836100  0.825500  1.0  -0.1213
  C  C112  1  0.330000  0.820400  0.884700  1.0  -0.0686
  C  C113  1  0.360200  0.861400  0.983300  1.0  -0.139
  C  C114  1  0.302500  0.921500  0.027400  1.0  0.0881
  C  C115  1  0.385700  0.981700  0.208300  1.0  0.17
  C  C116  1  0.430000  0.074100  0.275900  1.0  -0.2176
  C  C117  1  0.502500  0.078600  0.358500  1.0  -0.1169
  C  C118  1  0.537500  0.996800  0.377400  1.0  0.0511
  C  C119  1  0.489500  0.905400  0.309800  1.0  -0.1146
  C  C120  1  0.414800  0.896700  0.227900  1.0  -0.233
  C  C121  1  0.022500  0.119600  0.233200  1.0  0.179
  C  C122  1  0.939600  0.969100  0.217000  1.0  0.1695
  C  C123  1  0.894600  0.867200  0.185700  1.0  -0.1074
  C  C124  1  0.836100  0.825500  0.243900  1.0  -0.1274
  C  C125  1  0.820400  0.884700  0.330000  1.0  -0.0681
  C  C126  1  0.861400  0.983300  0.360200  1.0  -0.1394
  C  C127  1  0.921500  0.027400  0.302500  1.0  0.0873
  C  C128  1  0.981700  0.208300  0.385700  1.0  0.171
  C  C129  1  0.074100  0.275900  0.430000  1.0  -0.2178
  C  C130  1  0.078600  0.358500  0.502500  1.0  -0.1167
  C  C131  1  0.996800  0.377400  0.537500  1.0  0.0499
  C  C132  1  0.905400  0.309800  0.489500  1.0  -0.1106
  C  C133  1  0.896700  0.227900  0.414800  1.0  -0.229
  N  N134  1  0.825900  0.971300  0.998500  1.0  -0.4564
  N  N135  1  0.689200  0.878200  0.025800  1.0  0.0206
  N  N136  1  0.998500  0.825900  0.971300  1.0  -0.4585
  N  N137  1  0.025800  0.689200  0.878200  1.0  0.0199
  N  N138  1  0.971300  0.998500  0.825900  1.0  -0.4573
  N  N139  1  0.878200  0.025800  0.689200  1.0  0.0228
  N  N140  1  0.028700  0.174100  0.001500  1.0  -0.455
  N  N141  1  0.121800  0.310800  0.974200  1.0  0.0226
  N  N142  1  0.174100  0.001500  0.028700  1.0  -0.4574
  N  N143  1  0.310800  0.974200  0.121800  1.0  0.0214
  N  N144  1  0.001500  0.028700  0.174100  1.0  -0.4562
  N  N145  1  0.974200  0.121800  0.310800  1.0  0.0215
  Cl  Cl146  1  0.702800  0.702800  0.702800  1.0  1.4897
  Cl  Cl147  1  0.297200  0.297200  0.297200  1.0  1.4875
  O  O148  1  0.668400  0.789100  0.742400  1.0  -0.5763
  O  O149  1  0.742400  0.668400  0.789100  1.0  -0.585
  O  O150  1  0.789100  0.742400  0.668400  1.0  -0.5809
  O  O151  1  0.627600  0.627600  0.627600  1.0  -0.5586
  O  O152  1  0.210900  0.331600  0.257600  1.0  -0.5781
  O  O153  1  0.331600  0.257600  0.210900  1.0  -0.5789
  O  O154  1  0.257600  0.210900  0.331600  1.0  -0.5802
  O  O155  1  0.372400  0.372400  0.372400  1.0  -0.5594
