# generated using pymatgen
data_CdH30(C3N)12
_symmetry_space_group_name_H-M   'P 1'
_cell_length_a   8.29690000
_cell_length_b   21.75600000
_cell_length_c   13.78100000
_cell_angle_alpha   90.00000000
_cell_angle_beta   103.69000000
_cell_angle_gamma   90.00000000
_symmetry_Int_Tables_number   1
_chemical_formula_structural   CdH30(C3N)12
_chemical_formula_sum   'Cd2 H60 C72 N24'
_cell_volume   2416.90105913
_cell_formula_units_Z   2
loop_
 _symmetry_equiv_pos_site_id
 _symmetry_equiv_pos_as_xyz
  1  'x, y, z'
loop_
 _atom_site_type_symbol
 _atom_site_label
 _atom_site_symmetry_multiplicity
 _atom_site_fract_x
 _atom_site_fract_y
 _atom_site_fract_z
 _atom_site_occupancy
 _atom_site_charge
  Cd  Cd1  1  0.500000  0.000000  0.000000  1.0  0.7636
  Cd  Cd2  1  0.000000  0.500000  0.500000  1.0  0.7636
  H  H3  1  0.430400  0.134800  0.116900  1.0  0.0763
  H  H4  1  0.206900  0.980000  0.141800  1.0  0.0846
  H  H5  1  0.127000  0.052100  0.256700  1.0  0.1123
  H  H6  1  0.023800  0.164200  0.255900  1.0  0.0888
  H  H7  1  0.506000  0.193900  0.279100  1.0  0.0994
  H  H8  1  0.331200  0.974700  0.745700  1.0  0.0795
  H  H9  1  0.170600  0.100800  0.900000  1.0  0.0894
  H  H10  1  0.991900  0.103400  0.730800  1.0  0.1178
  H  H11  1  0.970500  0.098700  0.555200  1.0  0.1006
  H  H12  1  0.143100  0.927600  0.610200  1.0  0.095
  H  H13  1  0.017000  0.362600  0.378400  1.0  0.0736
  H  H14  1  0.371600  0.423700  0.594000  1.0  0.0836
  H  H15  1  0.477800  0.331700  0.528700  1.0  0.1221
  H  H16  1  0.011600  0.250900  0.352500  1.0  0.1063
  H  H17  1  0.492200  0.283100  0.368100  1.0  0.097
  H  H18  1  0.069600  0.634800  0.383100  1.0  0.0759
  H  H19  1  0.293100  0.480000  0.358200  1.0  0.0844
  H  H20  1  0.373000  0.552100  0.243300  1.0  0.1123
  H  H21  1  0.476200  0.664200  0.244100  1.0  0.089
  H  H22  1  0.994000  0.693900  0.220900  1.0  0.0992
  H  H23  1  0.168800  0.474700  0.754300  1.0  0.0798
  H  H24  1  0.329400  0.600800  0.600000  1.0  0.0887
  H  H25  1  0.508100  0.603400  0.769200  1.0  0.1177
  H  H26  1  0.529500  0.598700  0.944800  1.0  0.101
  H  H27  1  0.356900  0.427600  0.889800  1.0  0.0944
  H  H28  1  0.483000  0.862600  0.121600  1.0  0.0739
  H  H29  1  0.128400  0.923700  0.906000  1.0  0.0834
  H  H30  1  0.022200  0.831700  0.971300  1.0  0.1221
  H  H31  1  0.488400  0.750900  0.147500  1.0  0.1062
  H  H32  1  0.007800  0.783100  0.131900  1.0  0.0966
  H  H33  1  0.569600  0.865200  0.883100  1.0  0.0765
  H  H34  1  0.793100  0.020000  0.858200  1.0  0.0842
  H  H35  1  0.873000  0.947900  0.743300  1.0  0.1122
  H  H36  1  0.976200  0.835800  0.744100  1.0  0.0887
  H  H37  1  0.494000  0.806100  0.720900  1.0  0.0992
  H  H38  1  0.668800  0.025300  0.254300  1.0  0.08
  H  H39  1  0.829400  0.899200  0.100000  1.0  0.0886
  H  H40  1  0.008100  0.896600  0.269200  1.0  0.1176
  H  H41  1  0.029500  0.901300  0.444800  1.0  0.1016
  H  H42  1  0.856900  0.072400  0.389800  1.0  0.0952
  H  H43  1  0.983000  0.637400  0.621600  1.0  0.0736
  H  H44  1  0.628400  0.576300  0.406000  1.0  0.0833
  H  H45  1  0.522200  0.668300  0.471300  1.0  0.122
  H  H46  1  0.988400  0.749100  0.647500  1.0  0.1061
  H  H47  1  0.507800  0.716900  0.631900  1.0  0.0963
  H  H48  1  0.930400  0.365200  0.616900  1.0  0.0771
  H  H49  1  0.706900  0.520000  0.641800  1.0  0.0841
  H  H50  1  0.627000  0.447900  0.756700  1.0  0.1127
  H  H51  1  0.523800  0.335800  0.755900  1.0  0.0887
  H  H52  1  0.006000  0.306100  0.779100  1.0  0.0993
  H  H53  1  0.831200  0.525300  0.245700  1.0  0.0796
  H  H54  1  0.670600  0.399200  0.400000  1.0  0.0894
  H  H55  1  0.491900  0.396600  0.230800  1.0  0.1169
  H  H56  1  0.470500  0.401300  0.055200  1.0  0.1011
  H  H57  1  0.643100  0.572400  0.110200  1.0  0.0951
  H  H58  1  0.517000  0.137400  0.878400  1.0  0.0737
  H  H59  1  0.871600  0.076300  0.094000  1.0  0.0836
  H  H60  1  0.977800  0.168300  0.028700  1.0  0.1218
  H  H61  1  0.511600  0.249100  0.852500  1.0  0.1065
  H  H62  1  0.992200  0.216900  0.868100  1.0  0.0967
  C  C63  1  0.364800  0.105100  0.137100  1.0  0.1518
  C  C64  1  0.242400  0.020600  0.151200  1.0  0.0272
  C  C65  1  0.197300  0.060100  0.214700  1.0  -0.1505
  C  C66  1  0.266200  0.170300  0.259500  1.0  0.1138
  C  C67  1  0.118800  0.187500  0.280100  1.0  -0.1406
  C  C68  1  0.406100  0.205700  0.293000  1.0  -0.1525
  C  C69  1  0.268400  0.006300  0.763500  1.0  0.144
  C  C70  1  0.180700  0.075300  0.847600  1.0  -0.005
  C  C71  1  0.080800  0.077000  0.753900  1.0  -0.1641
  C  C72  1  0.067500  0.015600  0.598600  1.0  0.1109
  C  C73  1  0.982500  0.058900  0.533100  1.0  -0.1756
  C  C74  1  0.085500  0.956800  0.566000  1.0  -0.1875
  C  C75  1  0.118100  0.366500  0.424700  1.0  0.1338
  C  C76  1  0.312200  0.399500  0.542000  1.0  0.0362
  C  C77  1  0.372700  0.348700  0.506700  1.0  -0.1577
  C  C78  1  0.251000  0.274500  0.370200  1.0  0.1243
  C  C79  1  0.110800  0.239700  0.337000  1.0  -0.1852
  C  C80  1  0.398700  0.258500  0.347200  1.0  -0.2176
  C  C81  1  0.135200  0.605100  0.362900  1.0  0.1513
  C  C82  1  0.257600  0.520600  0.348800  1.0  0.0272
  C  C83  1  0.302700  0.560100  0.285300  1.0  -0.1521
  C  C84  1  0.233800  0.670300  0.240500  1.0  0.1142
  C  C85  1  0.381200  0.687500  0.219900  1.0  -0.1398
  C  C86  1  0.093900  0.705700  0.207000  1.0  -0.1526
  C  C87  1  0.231600  0.506300  0.736500  1.0  0.1421
  C  C88  1  0.319300  0.575300  0.652400  1.0  -0.0038
  C  C89  1  0.419200  0.577000  0.746100  1.0  -0.1632
  C  C90  1  0.432500  0.515600  0.901400  1.0  0.1105
  C  C91  1  0.517500  0.558900  0.966900  1.0  -0.1753
  C  C92  1  0.414500  0.456800  0.934000  1.0  -0.1864
  C  C93  1  0.381900  0.866500  0.075300  1.0  0.1356
  C  C94  1  0.187800  0.899500  0.958000  1.0  0.0352
  C  C95  1  0.127300  0.848700  0.993300  1.0  -0.1589
  C  C96  1  0.249000  0.774500  0.129800  1.0  0.1246
  C  C97  1  0.389200  0.739700  0.163000  1.0  -0.187
  C  C98  1  0.101300  0.758500  0.152800  1.0  -0.217
  C  C99  1  0.635200  0.894900  0.862900  1.0  0.1513
  C  C100  1  0.757600  0.979400  0.848800  1.0  0.0268
  C  C101  1  0.802700  0.939900  0.785300  1.0  -0.1521
  C  C102  1  0.733800  0.829700  0.740500  1.0  0.114
  C  C103  1  0.881200  0.812500  0.719900  1.0  -0.1404
  C  C104  1  0.593900  0.794300  0.707000  1.0  -0.1531
  C  C105  1  0.731600  0.993700  0.236500  1.0  0.1423
  C  C106  1  0.819300  0.924700  0.152400  1.0  -0.0038
  C  C107  1  0.919200  0.923000  0.246100  1.0  -0.1648
  C  C108  1  0.932500  0.984400  0.401400  1.0  0.1103
  C  C109  1  0.017500  0.941100  0.466900  1.0  -0.1761
  C  C110  1  0.914500  0.043200  0.434000  1.0  -0.1866
  C  C111  1  0.881900  0.633500  0.575300  1.0  0.1352
  C  C112  1  0.687800  0.600500  0.458000  1.0  0.035
  C  C113  1  0.627300  0.651300  0.493300  1.0  -0.1585
  C  C114  1  0.749000  0.725500  0.629800  1.0  0.1248
  C  C115  1  0.889200  0.760300  0.663000  1.0  -0.1867
  C  C116  1  0.601300  0.741500  0.652800  1.0  -0.2169
  C  C117  1  0.864800  0.394900  0.637100  1.0  0.1505
  C  C118  1  0.742400  0.479400  0.651200  1.0  0.0263
  C  C119  1  0.697300  0.439900  0.714700  1.0  -0.1511
  C  C120  1  0.766200  0.329700  0.759500  1.0  0.1135
  C  C121  1  0.618800  0.312500  0.780100  1.0  -0.1404
  C  C122  1  0.906100  0.294300  0.793000  1.0  -0.1527
  C  C123  1  0.768400  0.493700  0.263500  1.0  0.1446
  C  C124  1  0.680700  0.424700  0.347600  1.0  -0.0044
  C  C125  1  0.580800  0.423000  0.253900  1.0  -0.1649
  C  C126  1  0.567500  0.484400  0.098600  1.0  0.1108
  C  C127  1  0.482500  0.441100  0.033100  1.0  -0.1764
  C  C128  1  0.585500  0.543200  0.066000  1.0  -0.1874
  C  C129  1  0.618100  0.133500  0.924700  1.0  0.1342
  C  C130  1  0.812200  0.100500  0.042000  1.0  0.0342
  C  C131  1  0.872700  0.151300  0.006700  1.0  -0.1574
  C  C132  1  0.751000  0.225500  0.870200  1.0  0.1244
  C  C133  1  0.610800  0.260300  0.837000  1.0  -0.185
  C  C134  1  0.898700  0.241500  0.847200  1.0  -0.2174
  N  N135  1  0.348500  0.048570  0.101800  1.0  -0.3926
  N  N136  1  0.276200  0.114900  0.205300  1.0  0.0254
  N  N137  1  0.297800  0.030780  0.853300  1.0  -0.3806
  N  N138  1  0.136900  0.032170  0.700300  1.0  0.0199
  N  N139  1  0.152200  0.410780  0.491200  1.0  -0.412
  N  N140  1  0.245400  0.327700  0.431100  1.0  0.0302
  N  N141  1  0.151500  0.548570  0.398200  1.0  -0.3929
  N  N142  1  0.223800  0.614900  0.294700  1.0  0.0257
  N  N143  1  0.202200  0.530780  0.646700  1.0  -0.3812
  N  N144  1  0.363100  0.532170  0.799700  1.0  0.019
  N  N145  1  0.347800  0.910780  0.008800  1.0  -0.4114
  N  N146  1  0.254600  0.827700  0.068900  1.0  0.0295
  N  N147  1  0.651500  0.951430  0.898200  1.0  -0.3928
  N  N148  1  0.723800  0.885100  0.794700  1.0  0.0258
  N  N149  1  0.702200  0.969220  0.146700  1.0  -0.3813
  N  N150  1  0.863100  0.967830  0.299700  1.0  0.0189
  N  N151  1  0.847800  0.589220  0.508800  1.0  -0.4123
  N  N152  1  0.754600  0.672300  0.568900  1.0  0.0303
  N  N153  1  0.848500  0.451430  0.601800  1.0  -0.3921
  N  N154  1  0.776200  0.385100  0.705300  1.0  0.0255
  N  N155  1  0.797800  0.469220  0.353300  1.0  -0.3804
  N  N156  1  0.636900  0.467830  0.200300  1.0  0.0194
  N  N157  1  0.652200  0.089220  0.991200  1.0  -0.4127
  N  N158  1  0.745400  0.172300  0.931100  1.0  0.0309
