# generated using pymatgen
data_In4P5H5C4O23
_symmetry_space_group_name_H-M   'P 1'
_cell_length_a   8.06740000
_cell_length_b   10.00600000
_cell_length_c   20.44320000
_cell_angle_alpha   100.97200000
_cell_angle_beta   95.06500000
_cell_angle_gamma   105.05300000
_symmetry_Int_Tables_number   1
_chemical_formula_structural   In4P5H5C4O23
_chemical_formula_sum   'In8 P10 H10 C8 O46'
_cell_volume   1547.87318044
_cell_formula_units_Z   2
loop_
 _symmetry_equiv_pos_site_id
 _symmetry_equiv_pos_as_xyz
  1  'x, y, z'
loop_
 _atom_site_type_symbol
 _atom_site_label
 _atom_site_symmetry_multiplicity
 _atom_site_fract_x
 _atom_site_fract_y
 _atom_site_fract_z
 _atom_site_occupancy
 _atom_site_charge
  In  In1  1  0.115470  0.469390  0.625310  1.0  1.579
  In  In2  1  0.904010  0.905850  0.669270  1.0  1.555
  In  In3  1  0.651090  0.683070  0.820150  1.0  1.5716
  In  In4  1  0.022310  0.364390  0.889080  1.0  1.5951
  In  In5  1  0.884530  0.530610  0.374690  1.0  1.5788
  In  In6  1  0.095990  0.094150  0.330730  1.0  1.5575
  In  In7  1  0.348910  0.316930  0.179850  1.0  1.5708
  In  In8  1  0.977690  0.635610  0.110920  1.0  1.5946
  P  P9  1  0.753600  0.541900  0.953300  1.0  1.6777
  P  P10  1  0.010100  0.679600  0.752630  1.0  1.5526
  P  P11  1  0.976800  0.679300  0.539570  1.0  1.5998
  P  P12  1  0.485800  0.740300  0.671970  1.0  1.587
  P  P13  1  0.830000  0.021200  0.832570  1.0  1.6198
  P  P14  1  0.246400  0.458100  0.046700  1.0  1.6771
  P  P15  1  0.989900  0.320400  0.247370  1.0  1.552
  P  P16  1  0.023200  0.320700  0.460430  1.0  1.5992
  P  P17  1  0.514200  0.259700  0.328030  1.0  1.5862
  P  P18  1  0.170000  0.978800  0.167430  1.0  1.6212
  H  H19  1  0.713200  0.033600  0.829700  1.0  0.1111
  H  H20  1  0.561000  0.481000  0.942000  1.0  -0.088
  H  H21  1  0.078000  0.728000  0.813000  1.0  -0.0823
  H  H22  1  0.142000  0.696000  0.522000  1.0  -0.1095
  H  H23  1  0.412000  0.845000  0.661000  1.0  -0.1039
  H  H24  1  0.286800  0.966400  0.170300  1.0  0.1119
  H  H25  1  0.439000  0.519000  0.058000  1.0  -0.0867
  H  H26  1  0.922000  0.272000  0.187000  1.0  -0.0782
  H  H27  1  0.858000  0.304000  0.478000  1.0  -0.1105
  H  H28  1  0.588000  0.155000  0.339000  1.0  -0.103
  C  C29  1  0.315500  0.593500  0.870100  1.0  0.6176
  C  C30  1  0.344500  0.455200  0.830000  1.0  0.5891
  C  C31  1  0.918300  0.182300  0.634900  1.0  0.5312
  C  C32  1  0.107300  0.195300  0.662400  1.0  0.5376
  C  C33  1  0.684500  0.406500  0.129900  1.0  0.618
  C  C34  1  0.655500  0.544800  0.170000  1.0  0.5869
  C  C35  1  0.081700  0.817700  0.365100  1.0  0.5303
  C  C36  1  0.892700  0.804700  0.337600  1.0  0.5361
  O  O37  1  0.362300  0.606300  0.630100  1.0  -0.7982
  O  O38  1  0.948200  0.573500  0.584500  1.0  -0.7807
  O  O39  1  0.079400  0.555000  0.724800  1.0  -0.7943
  O  O40  1  0.854700  0.623900  0.473900  1.0  -0.7464
  O  O41  1  0.886800  0.288700  0.618900  1.0  -0.5759
  O  O42  1  0.217900  0.311200  0.664800  1.0  -0.5881
  O  O43  1  0.655400  0.764900  0.642600  1.0  -0.7994
  O  O44  1  0.857300  0.008100  0.763400  1.0  -0.7161
  O  O45  1  0.963900  0.824100  0.574500  1.0  -0.8092
  O  O46  1  0.057600  0.800400  0.716700  1.0  -0.7861
  O  O47  1  0.808200  0.065200  0.629600  1.0  -0.5512
  O  O48  1  0.136800  0.090000  0.679700  1.0  -0.5388
  O  O49  1  0.802200  0.891000  0.861000  1.0  -0.7865
  O  O50  1  0.816800  0.625400  0.754800  1.0  -0.7859
  O  O51  1  0.780500  0.632600  0.901700  1.0  -0.7861
  O  O52  1  0.506300  0.743000  0.745800  1.0  -0.8457
  O  O53  1  0.473600  0.467100  0.800100  1.0  -0.5774
  O  O54  1  0.434400  0.705100  0.876400  1.0  -0.5791
  O  O55  1  0.829300  0.418400  0.939100  1.0  -0.8125
  O  O56  1  0.925800  0.147500  0.883200  1.0  -0.6933
  O  O57  1  0.816000  0.631900  0.024000  1.0  -0.8036
  O  O58  1  0.177000  0.583100  0.894700  1.0  -0.6038
  O  O59  1  0.236400  0.340300  0.831600  1.0  -0.5828
  O  O60  1  0.637700  0.393700  0.369900  1.0  -0.799
  O  O61  1  0.051800  0.426500  0.415500  1.0  -0.7803
  O  O62  1  0.920600  0.445000  0.275200  1.0  -0.7936
  O  O63  1  0.145300  0.376100  0.526100  1.0  -0.7478
  O  O64  1  0.113200  0.711300  0.381100  1.0  -0.5762
  O  O65  1  0.782100  0.688800  0.335200  1.0  -0.5884
  O  O66  1  0.344600  0.235100  0.357400  1.0  -0.803
  O  O67  1  0.142700  0.991900  0.236600  1.0  -0.7167
  O  O68  1  0.036100  0.175900  0.425500  1.0  -0.8078
  O  O69  1  0.942400  0.199600  0.283300  1.0  -0.7851
  O  O70  1  0.191800  0.934800  0.370400  1.0  -0.5494
  O  O71  1  0.863200  0.910000  0.320300  1.0  -0.5402
  O  O72  1  0.197800  0.109000  0.139000  1.0  -0.7872
  O  O73  1  0.183200  0.374600  0.245200  1.0  -0.784
  O  O74  1  0.219500  0.367400  0.098300  1.0  -0.7858
  O  O75  1  0.493700  0.257000  0.254200  1.0  -0.8442
  O  O76  1  0.526400  0.532900  0.199900  1.0  -0.5767
  O  O77  1  0.565600  0.294900  0.123600  1.0  -0.5801
  O  O78  1  0.170700  0.581600  0.060900  1.0  -0.8126
  O  O79  1  0.074200  0.852500  0.116800  1.0  -0.6967
  O  O80  1  0.184000  0.368100  0.976000  1.0  -0.7995
  O  O81  1  0.823000  0.416900  0.105300  1.0  -0.606
  O  O82  1  0.763600  0.659700  0.168400  1.0  -0.5816
