# generated using pymatgen
data_In4P7H13O24
_symmetry_space_group_name_H-M   'P 1'
_cell_length_a   13.86840000
_cell_length_b   13.86840000
_cell_length_c   18.63680000
_cell_angle_alpha   90.00000000
_cell_angle_beta   90.00000000
_cell_angle_gamma   120.00000000
_symmetry_Int_Tables_number   1
_chemical_formula_structural   In4P7H13O24
_chemical_formula_sum   'In16 P28 H52 O96'
_cell_volume   3104.23574144
_cell_formula_units_Z   4
loop_
 _symmetry_equiv_pos_site_id
 _symmetry_equiv_pos_as_xyz
  1  'x, y, z'
loop_
 _atom_site_type_symbol
 _atom_site_label
 _atom_site_symmetry_multiplicity
 _atom_site_fract_x
 _atom_site_fract_y
 _atom_site_fract_z
 _atom_site_occupancy
 _atom_site_charge
  In  In1  1  0.439180  0.145640  0.039800  1.0  1.5663
  In  In2  1  0.854360  0.293540  0.039800  1.0  1.5684
  In  In3  1  0.706460  0.560820  0.039800  1.0  1.5663
  In  In4  1  0.145640  0.439180  0.460200  1.0  1.5734
  In  In5  1  0.293540  0.854360  0.460200  1.0  1.5657
  In  In6  1  0.560820  0.706460  0.460200  1.0  1.5721
  In  In7  1  0.560820  0.854360  0.960200  1.0  1.5645
  In  In8  1  0.145640  0.706460  0.960200  1.0  1.5742
  In  In9  1  0.293540  0.439180  0.960200  1.0  1.5738
  In  In10  1  0.854360  0.560820  0.539800  1.0  1.5665
  In  In11  1  0.706460  0.145640  0.539800  1.0  1.5657
  In  In12  1  0.439180  0.293540  0.539800  1.0  1.5677
  In  In13  1  0.000000  0.000000  0.000000  1.0  1.6376
  In  In14  1  0.000000  0.000000  0.500000  1.0  1.6376
  In  In15  1  0.000000  0.000000  0.250000  1.0  1.6025
  In  In16  1  0.000000  0.000000  0.750000  1.0  1.6025
  P  P17  1  0.191520  0.031600  0.128070  1.0  1.4425
  P  P18  1  0.630550  0.124060  0.941960  1.0  1.4329
  P  P19  1  0.968400  0.159920  0.128070  1.0  1.438
  P  P20  1  0.875940  0.506490  0.941960  1.0  1.4434
  P  P21  1  0.840080  0.808480  0.128070  1.0  1.4459
  P  P22  1  0.493510  0.369450  0.941960  1.0  1.4478
  P  P23  1  0.031600  0.191520  0.371930  1.0  1.4433
  P  P24  1  0.124060  0.630550  0.558040  1.0  1.4408
  P  P25  1  0.159920  0.968400  0.371930  1.0  1.4332
  P  P26  1  0.506490  0.875940  0.558040  1.0  1.4442
  P  P27  1  0.808480  0.840080  0.371930  1.0  1.4452
  P  P28  1  0.369450  0.493510  0.558040  1.0  1.4446
  P  P29  1  0.808480  0.968400  0.871930  1.0  1.4255
  P  P30  1  0.369450  0.875940  0.058040  1.0  1.4354
  P  P31  1  0.031600  0.840080  0.871930  1.0  1.4354
  P  P32  1  0.124060  0.493510  0.058040  1.0  1.4531
  P  P33  1  0.159920  0.191520  0.871930  1.0  1.4514
  P  P34  1  0.506490  0.630550  0.058040  1.0  1.4396
  P  P35  1  0.968400  0.808480  0.628070  1.0  1.4527
  P  P36  1  0.875940  0.369450  0.441960  1.0  1.4472
  P  P37  1  0.840080  0.031600  0.628070  1.0  1.4344
  P  P38  1  0.493510  0.124060  0.441960  1.0  1.4241
  P  P39  1  0.191520  0.159920  0.628070  1.0  1.4292
  P  P40  1  0.630550  0.506490  0.441960  1.0  1.4515
  P  P41  1  0.666667  0.333333  0.141000  1.0  1.4806
  P  P42  1  0.333333  0.666667  0.359000  1.0  1.4816
  P  P43  1  0.333333  0.666667  0.859000  1.0  1.4816
  P  P44  1  0.666667  0.333333  0.641000  1.0  1.4806
  H  H45  1  0.273000  0.988000  0.985000  1.0  0.2638
  H  H46  1  0.365000  0.103000  0.987000  1.0  0.2254
  H  H47  1  0.201900  0.974000  0.151400  1.0  0.1118
  H  H48  1  0.674900  0.164700  0.900000  1.0  0.1106
  H  H49  1  0.012000  0.285000  0.985000  1.0  0.2625
  H  H50  1  0.897000  0.262000  0.987000  1.0  0.2217
  H  H51  1  0.026000  0.227900  0.151400  1.0  0.111
  H  H52  1  0.835300  0.510200  0.900000  1.0  0.1107
  H  H53  1  0.715000  0.727000  0.985000  1.0  0.2636
  H  H54  1  0.738000  0.635000  0.987000  1.0  0.2231
  H  H55  1  0.772100  0.798100  0.151400  1.0  0.1104
  H  H56  1  0.489800  0.325100  0.900000  1.0  0.1112
  H  H57  1  0.988000  0.273000  0.515000  1.0  0.2634
  H  H58  1  0.103000  0.365000  0.513000  1.0  0.2242
  H  H59  1  0.974000  0.201900  0.348600  1.0  0.1109
  H  H60  1  0.164700  0.674900  0.600000  1.0  0.1122
  H  H61  1  0.285000  0.012000  0.515000  1.0  0.2632
  H  H62  1  0.262000  0.897000  0.513000  1.0  0.2248
  H  H63  1  0.227900  0.026000  0.348600  1.0  0.1121
  H  H64  1  0.510200  0.835300  0.600000  1.0  0.1125
  H  H65  1  0.727000  0.715000  0.515000  1.0  0.2625
  H  H66  1  0.635000  0.738000  0.513000  1.0  0.2242
  H  H67  1  0.798100  0.772100  0.348600  1.0  0.1117
  H  H68  1  0.325100  0.489800  0.600000  1.0  0.1118
  H  H69  1  0.727000  0.012000  0.015000  1.0  0.2637
  H  H70  1  0.635000  0.897000  0.013000  1.0  0.2234
  H  H71  1  0.798100  0.026000  0.848600  1.0  0.1117
  H  H72  1  0.325100  0.835300  0.100000  1.0  0.1123
  H  H73  1  0.988000  0.715000  0.015000  1.0  0.263
  H  H74  1  0.103000  0.738000  0.013000  1.0  0.2255
  H  H75  1  0.974000  0.772100  0.848600  1.0  0.1121
  H  H76  1  0.164700  0.489800  0.100000  1.0  0.1124
  H  H77  1  0.285000  0.273000  0.015000  1.0  0.2626
  H  H78  1  0.262000  0.365000  0.013000  1.0  0.223
  H  H79  1  0.227900  0.201900  0.848600  1.0  0.1112
  H  H80  1  0.510200  0.674900  0.100000  1.0  0.1123
  H  H81  1  0.012000  0.727000  0.485000  1.0  0.2627
  H  H82  1  0.897000  0.635000  0.487000  1.0  0.2216
  H  H83  1  0.026000  0.798100  0.651400  1.0  0.111
  H  H84  1  0.835300  0.325100  0.400000  1.0  0.1098
  H  H85  1  0.715000  0.988000  0.485000  1.0  0.2645
  H  H86  1  0.738000  0.103000  0.487000  1.0  0.2238
  H  H87  1  0.772100  0.974000  0.651400  1.0  0.1113
  H  H88  1  0.489800  0.164700  0.400000  1.0  0.1111
  H  H89  1  0.273000  0.285000  0.485000  1.0  0.2633
  H  H90  1  0.365000  0.262000  0.487000  1.0  0.2249
  H  H91  1  0.201900  0.227900  0.651400  1.0  0.1113
  H  H92  1  0.674900  0.510200  0.400000  1.0  0.1107
  H  H93  1  0.666667  0.333333  0.193600  1.0  0.137
  H  H94  1  0.333333  0.666667  0.306400  1.0  0.1353
  H  H95  1  0.333333  0.666667  0.806400  1.0  0.1353
  H  H96  1  0.666667  0.333333  0.693600  1.0  0.137
  O  O97  1  0.116100  0.977500  0.063400  1.0  -0.782
  O  O98  1  0.145900  0.077600  0.184800  1.0  -0.7999
  O  O99  1  0.557600  0.233200  0.120600  1.0  -0.7755
  O  O100  1  0.552900  0.168300  0.957400  1.0  -0.8596
  O  O101  1  0.568000  0.001700  0.921800  1.0  -0.8088
  O  O102  1  0.712700  0.145700  0.002900  1.0  -0.7407
  O  O103  1  0.307100  0.126200  0.107100  1.0  -0.8245
  O  O104  1  0.308500  0.052600  0.955700  1.0  -0.6501
  O  O105  1  0.022500  0.138600  0.063400  1.0  -0.7807
  O  O106  1  0.922400  0.068300  0.184800  1.0  -0.7987
  O  O107  1  0.766800  0.324400  0.120600  1.0  -0.7723
  O  O108  1  0.831700  0.384600  0.957400  1.0  -0.8615
  O  O109  1  0.998300  0.566300  0.921800  1.0  -0.8094
  O  O110  1  0.854300  0.567000  0.002900  1.0  -0.7375
  O  O111  1  0.873800  0.180900  0.107100  1.0  -0.8221
  O  O112  1  0.947400  0.255900  0.955700  1.0  -0.6506
  O  O113  1  0.861400  0.883900  0.063400  1.0  -0.7809
  O  O114  1  0.931700  0.854100  0.184800  1.0  -0.7998
  O  O115  1  0.675600  0.442400  0.120600  1.0  -0.7753
  O  O116  1  0.615400  0.447100  0.957400  1.0  -0.8607
  O  O117  1  0.433700  0.432000  0.921800  1.0  -0.8105
  O  O118  1  0.433000  0.287300  0.002900  1.0  -0.7388
  O  O119  1  0.819100  0.692900  0.107100  1.0  -0.8217
  O  O120  1  0.744100  0.691500  0.955700  1.0  -0.6501
  O  O121  1  0.977500  0.116100  0.436600  1.0  -0.7829
  O  O122  1  0.077600  0.145900  0.315200  1.0  -0.7999
  O  O123  1  0.233200  0.557600  0.379400  1.0  -0.7789
  O  O124  1  0.168300  0.552900  0.542600  1.0  -0.86
  O  O125  1  0.001700  0.568000  0.578200  1.0  -0.8075
  O  O126  1  0.145700  0.712700  0.497100  1.0  -0.7386
  O  O127  1  0.126200  0.307100  0.392900  1.0  -0.8253
  O  O128  1  0.052600  0.308500  0.544300  1.0  -0.651
  O  O129  1  0.138600  0.022500  0.436600  1.0  -0.7822
  O  O130  1  0.068300  0.922400  0.315200  1.0  -0.8009
  O  O131  1  0.324400  0.766800  0.379400  1.0  -0.7795
  O  O132  1  0.384600  0.831700  0.542600  1.0  -0.8594
  O  O133  1  0.566300  0.998300  0.578200  1.0  -0.8066
  O  O134  1  0.567000  0.854300  0.497100  1.0  -0.7404
  O  O135  1  0.180900  0.873800  0.392900  1.0  -0.8223
  O  O136  1  0.255900  0.947400  0.544300  1.0  -0.6515
  O  O137  1  0.883900  0.861400  0.436600  1.0  -0.7818
  O  O138  1  0.854100  0.931700  0.315200  1.0  -0.7998
  O  O139  1  0.442400  0.675600  0.379400  1.0  -0.7758
  O  O140  1  0.447100  0.615400  0.542600  1.0  -0.8589
  O  O141  1  0.432000  0.433700  0.578200  1.0  -0.8064
  O  O142  1  0.287300  0.433000  0.497100  1.0  -0.7379
  O  O143  1  0.692900  0.819100  0.392900  1.0  -0.8216
  O  O144  1  0.691500  0.744100  0.544300  1.0  -0.652
  O  O145  1  0.883900  0.022500  0.936600  1.0  -0.7823
  O  O146  1  0.854100  0.922400  0.815200  1.0  -0.801
  O  O147  1  0.442400  0.766800  0.879400  1.0  -0.7795
  O  O148  1  0.447100  0.831700  0.042600  1.0  -0.8603
  O  O149  1  0.432000  0.998300  0.078200  1.0  -0.8058
  O  O150  1  0.287300  0.854300  0.997100  1.0  -0.7396
  O  O151  1  0.692900  0.873800  0.892900  1.0  -0.823
  O  O152  1  0.691500  0.947400  0.044300  1.0  -0.6515
  O  O153  1  0.977500  0.861400  0.936600  1.0  -0.7815
  O  O154  1  0.077600  0.931700  0.815200  1.0  -0.7992
  O  O155  1  0.233200  0.675600  0.879400  1.0  -0.7768
  O  O156  1  0.168300  0.615400  0.042600  1.0  -0.8595
  O  O157  1  0.001700  0.433700  0.078200  1.0  -0.8054
  O  O158  1  0.145700  0.433000  0.997100  1.0  -0.7379
  O  O159  1  0.126200  0.819100  0.892900  1.0  -0.8224
  O  O160  1  0.052600  0.744100  0.044300  1.0  -0.6531
  O  O161  1  0.138600  0.116100  0.936600  1.0  -0.7831
  O  O162  1  0.068300  0.145900  0.815200  1.0  -0.7996
  O  O163  1  0.324400  0.557600  0.879400  1.0  -0.779
  O  O164  1  0.384600  0.552900  0.042600  1.0  -0.8597
  O  O165  1  0.566300  0.568000  0.078200  1.0  -0.8097
  O  O166  1  0.567000  0.712700  0.997100  1.0  -0.7398
  O  O167  1  0.180900  0.307100  0.892900  1.0  -0.8251
  O  O168  1  0.255900  0.308500  0.044300  1.0  -0.6519
  O  O169  1  0.022500  0.883900  0.563400  1.0  -0.7813
  O  O170  1  0.922400  0.854100  0.684800  1.0  -0.7989
  O  O171  1  0.766800  0.442400  0.620600  1.0  -0.7757
  O  O172  1  0.831700  0.447100  0.457400  1.0  -0.8597
  O  O173  1  0.998300  0.432000  0.421800  1.0  -0.8118
  O  O174  1  0.854300  0.287300  0.502900  1.0  -0.7403
  O  O175  1  0.873800  0.692900  0.607100  1.0  -0.822
  O  O176  1  0.947400  0.691500  0.455700  1.0  -0.6503
  O  O177  1  0.861400  0.977500  0.563400  1.0  -0.7819
  O  O178  1  0.931700  0.077600  0.684800  1.0  -0.8003
  O  O179  1  0.675600  0.233200  0.620600  1.0  -0.7751
  O  O180  1  0.615400  0.168300  0.457400  1.0  -0.8607
  O  O181  1  0.433700  0.001700  0.421800  1.0  -0.81
  O  O182  1  0.433000  0.145700  0.502900  1.0  -0.7396
  O  O183  1  0.819100  0.126200  0.607100  1.0  -0.8261
  O  O184  1  0.744100  0.052600  0.455700  1.0  -0.6492
  O  O185  1  0.116100  0.138600  0.563400  1.0  -0.7804
  O  O186  1  0.145900  0.068300  0.684800  1.0  -0.7979
  O  O187  1  0.557600  0.324400  0.620600  1.0  -0.7727
  O  O188  1  0.552900  0.384600  0.457400  1.0  -0.8623
  O  O189  1  0.568000  0.566300  0.421800  1.0  -0.8067
  O  O190  1  0.712700  0.567000  0.502900  1.0  -0.7376
  O  O191  1  0.307100  0.180900  0.607100  1.0  -0.8216
  O  O192  1  0.308500  0.255900  0.455700  1.0  -0.6511
