# generated using pymatgen
data_K3Zn2H31C58NO15
_symmetry_space_group_name_H-M   'P 1'
_cell_length_a   16.36560000
_cell_length_b   17.97900000
_cell_length_c   19.23200000
_cell_angle_alpha   65.45200000
_cell_angle_beta   66.27500000
_cell_angle_gamma   69.15400000
_symmetry_Int_Tables_number   1
_chemical_formula_structural   K3Zn2H31C58NO15
_chemical_formula_sum   'K6 Zn4 H62 C116 N2 O30'
_cell_volume   4589.70190081
_cell_formula_units_Z   2
loop_
 _symmetry_equiv_pos_site_id
 _symmetry_equiv_pos_as_xyz
  1  'x, y, z'
loop_
 _atom_site_type_symbol
 _atom_site_label
 _atom_site_symmetry_multiplicity
 _atom_site_fract_x
 _atom_site_fract_y
 _atom_site_fract_z
 _atom_site_occupancy
 _atom_site_charge
  K  K1  1  0.178770  0.947390  0.966980  1.0  0.9437
  K  K2  1  0.396300  0.805860  0.830300  1.0  0.9422
  K  K3  1  0.997900  0.936600  0.954400  1.0  0.839
  K  K4  1  0.821230  0.052610  0.033020  1.0  0.9433
  K  K5  1  0.603700  0.194140  0.169700  1.0  0.9394
  K  K6  1  0.002100  0.063400  0.045600  1.0  0.8381
  Zn  Zn7  1  0.384660  0.798590  0.034690  1.0  1.0446
  Zn  Zn8  1  0.355050  0.035730  0.772460  1.0  1.0097
  Zn  Zn9  1  0.615340  0.201410  0.965310  1.0  1.042
  Zn  Zn10  1  0.644950  0.964270  0.227540  1.0  1.0097
  H  H11  1  0.953100  0.512400  0.860600  1.0  0.1109
  H  H12  1  0.190600  0.494400  0.888400  1.0  0.1094
  H  H13  1  0.976300  0.685900  0.927700  1.0  0.1064
  H  H14  1  0.840600  0.631900  0.809300  1.0  0.1148
  H  H15  1  0.682800  0.685500  0.834500  1.0  0.1021
  H  H16  1  0.667600  0.715400  0.035000  1.0  0.1087
  H  H17  1  0.824700  0.669800  0.007700  1.0  0.0931
  H  H18  1  0.246700  0.423200  0.791900  1.0  0.1124
  H  H19  1  0.308200  0.291200  0.777500  1.0  0.1047
  H  H20  1  0.065300  0.230900  0.904100  1.0  0.0795
  H  H21  1  0.001300  0.364800  0.913100  1.0  0.1029
  H  H22  1  0.098100  0.749700  0.891900  1.0  0.0965
  H  H23  1  0.181800  0.793900  0.932400  1.0  0.0661
  H  H24  1  0.287700  0.554400  0.043200  1.0  0.1049
  H  H25  1  0.211800  0.510100  0.994700  1.0  0.0901
  H  H26  1  0.942400  0.917500  0.669200  1.0  0.1031
  H  H27  1  0.176300  0.871400  0.497800  1.0  0.1089
  H  H28  1  0.937600  0.865700  0.488100  1.0  0.1141
  H  H29  1  0.803600  0.005700  0.651400  1.0  0.0907
  H  H30  1  0.645400  0.038000  0.692400  1.0  0.1101
  H  H31  1  0.648900  0.840900  0.641500  1.0  0.1019
  H  H32  1  0.807600  0.813400  0.594300  1.0  0.1076
  H  H33  1  0.044200  0.865800  0.745400  1.0  0.1105
  H  H34  1  0.114500  0.902700  0.803700  1.0  0.0984
  H  H35  1  0.276600  0.009100  0.586600  1.0  0.1125
  H  H36  1  0.206400  0.971900  0.527000  1.0  0.0918
  H  H37  1  0.231400  0.780200  0.416700  1.0  0.1116
  H  H38  1  0.305000  0.771700  0.290800  1.0  0.112
  H  H39  1  0.089100  0.934800  0.218900  1.0  0.1054
  H  H40  1  0.011500  0.934200  0.348700  1.0  0.0857
  H  H41  1  0.456500  0.992900  0.881000  1.0  0.0096
  H  H42  1  0.046900  0.487600  0.139400  1.0  0.1103
  H  H43  1  0.809400  0.505600  0.111600  1.0  0.1093
  H  H44  1  0.023700  0.314100  0.072300  1.0  0.1064
  H  H45  1  0.159400  0.368100  0.190700  1.0  0.1143
  H  H46  1  0.317200  0.314500  0.165500  1.0  0.1026
  H  H47  1  0.332400  0.284600  0.965000  1.0  0.1089
  H  H48  1  0.175300  0.330200  0.992300  1.0  0.093
  H  H49  1  0.753300  0.576800  0.208100  1.0  0.1122
  H  H50  1  0.691800  0.708800  0.222500  1.0  0.1051
  H  H51  1  0.934700  0.769100  0.095900  1.0  0.0792
  H  H52  1  0.998700  0.635200  0.086900  1.0  0.1041
  H  H53  1  0.901900  0.250300  0.108100  1.0  0.0969
  H  H54  1  0.818200  0.206100  0.067600  1.0  0.0653
  H  H55  1  0.712300  0.445600  0.956800  1.0  0.1043
  H  H56  1  0.788200  0.489900  0.005300  1.0  0.0898
  H  H57  1  0.057600  0.082500  0.330800  1.0  0.1038
  H  H58  1  0.823700  0.128600  0.502200  1.0  0.11
  H  H59  1  0.062400  0.134300  0.511900  1.0  0.1146
  H  H60  1  0.196400  0.994300  0.348600  1.0  0.0917
  H  H61  1  0.354600  0.962000  0.307600  1.0  0.1099
  H  H62  1  0.351100  0.159100  0.358500  1.0  0.1027
  H  H63  1  0.192400  0.186600  0.405700  1.0  0.1072
  H  H64  1  0.955800  0.134200  0.254600  1.0  0.1111
  H  H65  1  0.885500  0.097300  0.196300  1.0  0.0971
  H  H66  1  0.723400  0.990900  0.413400  1.0  0.1122
  H  H67  1  0.793600  0.028100  0.473000  1.0  0.0915
  H  H68  1  0.768600  0.219800  0.583300  1.0  0.113
  H  H69  1  0.695000  0.228300  0.709200  1.0  0.1122
  H  H70  1  0.910900  0.065200  0.781100  1.0  0.1056
  H  H71  1  0.988500  0.065800  0.651300  1.0  0.0863
  H  H72  1  0.543500  0.007100  0.119000  1.0  0.0095
  C  C73  1  0.949400  0.605000  0.895300  1.0  0.0288
  C  C74  1  0.988000  0.532700  0.873700  1.0  -0.1011
  C  C75  1  0.078000  0.489800  0.871200  1.0  0.0516
  C  C76  1  0.130100  0.522200  0.890400  1.0  -0.1305
  C  C77  1  0.092800  0.595100  0.912200  1.0  -0.0117
  C  C78  1  0.001900  0.636800  0.914000  1.0  -0.1228
  C  C79  1  0.849800  0.644300  0.906000  1.0  0.037
  C  C80  1  0.806500  0.649100  0.854300  1.0  -0.107
  C  C81  1  0.711000  0.680100  0.870300  1.0  -0.0472
  C  C82  1  0.659000  0.702400  0.938000  1.0  -0.1132
  C  C83  1  0.702400  0.698900  0.989800  1.0  -0.0463
  C  C84  1  0.796400  0.671000  0.973700  1.0  -0.1149
  C  C85  1  0.118100  0.407700  0.856600  1.0  0.0483
  C  C86  1  0.209700  0.385000  0.814500  1.0  -0.1147
  C  C87  1  0.246700  0.305400  0.805700  1.0  -0.0392
  C  C88  1  0.193600  0.247400  0.838100  1.0  -0.1382
  C  C89  1  0.101600  0.269900  0.880400  1.0  -0.0416
  C  C90  1  0.063600  0.349700  0.887500  1.0  -0.1155
  C  C91  1  0.146300  0.624900  0.938000  1.0  0.0515
  C  C92  1  0.137500  0.710300  0.920900  1.0  -0.1177
  C  C93  1  0.186400  0.736800  0.946300  1.0  -0.0775
  C  C94  1  0.243500  0.678100  0.993400  1.0  -0.1375
  C  C95  1  0.251000  0.593800  0.011600  1.0  -0.0309
  C  C96  1  0.204400  0.567300  0.983300  1.0  -0.123
  C  C97  1  0.234100  0.161000  0.831200  1.0  0.6747
  C  C98  1  0.556600  0.730900  0.957100  1.0  0.7135
  C  C99  1  0.296300  0.705800  0.023100  1.0  0.6601
  C  C100  1  0.924300  0.893200  0.584400  1.0  0.0137
  C  C101  1  0.973400  0.904600  0.621700  1.0  -0.1178
  C  C102  1  0.067500  0.897400  0.590600  1.0  0.0304
  C  C103  1  0.113100  0.877900  0.518800  1.0  -0.1427
  C  C104  1  0.065100  0.867900  0.478300  1.0  0.0487
  C  C105  1  0.970200  0.874200  0.513000  1.0  -0.1164
  C  C106  1  0.822700  0.907700  0.616400  1.0  0.0271
  C  C107  1  0.772600  0.973700  0.647600  1.0  -0.1207
  C  C108  1  0.677500  0.992700  0.673300  1.0  -0.0546
  C  C109  1  0.630200  0.943700  0.670300  1.0  -0.1137
  C  C110  1  0.679800  0.875200  0.641900  1.0  -0.0504
  C  C111  1  0.775300  0.858100  0.614300  1.0  -0.1355
  C  C112  1  0.117500  0.914400  0.629500  1.0  0.0408
  C  C113  1  0.091000  0.894300  0.713400  1.0  -0.1295
  C  C114  1  0.133100  0.916200  0.748300  1.0  -0.0668
  C  C115  1  0.203100  0.958300  0.701900  1.0  -0.1399
  C  C116  1  0.230200  0.980000  0.618000  1.0  -0.0645
  C  C117  1  0.188000  0.957900  0.582500  1.0  -0.0982
  C  C118  1  0.113100  0.858600  0.397400  1.0  0.0588
  C  C119  1  0.202100  0.810400  0.377300  1.0  -0.1132
  C  C120  1  0.246900  0.806400  0.301800  1.0  -0.06
  C  C121  1  0.206000  0.854300  0.240100  1.0  -0.1216
  C  C122  1  0.117500  0.902700  0.258800  1.0  -0.0626
  C  C123  1  0.071600  0.903200  0.336600  1.0  -0.1268
  C  C124  1  0.527900  0.960600  0.700300  1.0  0.677
  C  C125  1  0.250000  0.978900  0.741800  1.0  0.6578
  C  C126  1  0.254100  0.853100  0.155800  1.0  0.6943
  C  C127  1  0.420700  0.953300  0.910500  1.0  0.6682
  C  C128  1  0.996600  0.876900  0.141600  1.0  0.1103
  C  C129  1  0.079700  0.726300  0.204800  1.0  -0.0388
  C  C130  1  0.943200  0.804300  0.277700  1.0  -0.0706
  C  C131  1  0.050600  0.395000  0.104700  1.0  0.0276
  C  C132  1  0.012000  0.467300  0.126300  1.0  -0.1076
  C  C133  1  0.922000  0.510200  0.128800  1.0  0.0534
  C  C134  1  0.869900  0.477800  0.109600  1.0  -0.131
  C  C135  1  0.907200  0.404900  0.087800  1.0  -0.0116
  C  C136  1  0.998100  0.363200  0.086000  1.0  -0.1231
  C  C137  1  0.150200  0.355700  0.094000  1.0  0.0353
  C  C138  1  0.193500  0.350900  0.145700  1.0  -0.1072
  C  C139  1  0.289000  0.319900  0.129700  1.0  -0.0484
  C  C140  1  0.341000  0.297600  0.062000  1.0  -0.1131
  C  C141  1  0.297600  0.301100  0.010200  1.0  -0.0466
  C  C142  1  0.203600  0.329000  0.026300  1.0  -0.1136
  C  C143  1  0.881900  0.592300  0.143400  1.0  0.0467
  C  C144  1  0.790300  0.615000  0.185500  1.0  -0.1142
  C  C145  1  0.753300  0.694600  0.194300  1.0  -0.041
  C  C146  1  0.806400  0.752600  0.161900  1.0  -0.1376
  C  C147  1  0.898400  0.730100  0.119600  1.0  -0.0426
  C  C148  1  0.936400  0.650300  0.112500  1.0  -0.1154
  C  C149  1  0.853700  0.375100  0.062000  1.0  0.0511
  C  C150  1  0.862500  0.289700  0.079100  1.0  -0.118
  C  C151  1  0.813600  0.263200  0.053700  1.0  -0.0758
  C  C152  1  0.756500  0.321900  0.006600  1.0  -0.1369
  C  C153  1  0.749000  0.406200  0.988400  1.0  -0.0298
  C  C154  1  0.795600  0.432700  0.016700  1.0  -0.1248
  C  C155  1  0.765900  0.839000  0.168800  1.0  0.6743
  C  C156  1  0.443400  0.269100  0.042900  1.0  0.7128
  C  C157  1  0.703700  0.294200  0.976900  1.0  0.6611
  C  C158  1  0.075700  0.106800  0.415600  1.0  0.0123
  C  C159  1  0.026600  0.095400  0.378300  1.0  -0.1157
  C  C160  1  0.932500  0.102600  0.409400  1.0  0.03
  C  C161  1  0.886900  0.122100  0.481200  1.0  -0.1403
  C  C162  1  0.934900  0.132100  0.521700  1.0  0.0461
  C  C163  1  0.029800  0.125800  0.487000  1.0  -0.1163
  C  C164  1  0.177300  0.092300  0.383600  1.0  0.0279
  C  C165  1  0.227400  0.026300  0.352400  1.0  -0.1205
  C  C166  1  0.322500  0.007300  0.326700  1.0  -0.053
  C  C167  1  0.369800  0.056300  0.329700  1.0  -0.1143
  C  C168  1  0.320200  0.124800  0.358100  1.0  -0.0512
  C  C169  1  0.224700  0.141900  0.385700  1.0  -0.1378
  C  C170  1  0.882500  0.085600  0.370500  1.0  0.0401
  C  C171  1  0.909000  0.105700  0.286600  1.0  -0.1245
  C  C172  1  0.866900  0.083800  0.251700  1.0  -0.0667
  C  C173  1  0.796900  0.041700  0.298100  1.0  -0.1396
  C  C174  1  0.769800  0.020000  0.382000  1.0  -0.0646
  C  C175  1  0.812000  0.042100  0.417500  1.0  -0.0984
  C  C176  1  0.886900  0.141400  0.602600  1.0  0.0585
  C  C177  1  0.797900  0.189600  0.622700  1.0  -0.1085
  C  C178  1  0.753100  0.193600  0.698200  1.0  -0.06
  C  C179  1  0.794000  0.145700  0.759900  1.0  -0.1218
  C  C180  1  0.882500  0.097300  0.741200  1.0  -0.0619
  C  C181  1  0.928400  0.096800  0.663400  1.0  -0.1272
  C  C182  1  0.472100  0.039400  0.299700  1.0  0.6774
  C  C183  1  0.750000  0.021100  0.258200  1.0  0.6575
  C  C184  1  0.745900  0.146900  0.844200  1.0  0.696
  C  C185  1  0.579300  0.046700  0.089500  1.0  0.6683
  C  C186  1  0.003400  0.123100  0.858400  1.0  0.1115
  C  C187  1  0.920300  0.273700  0.795200  1.0  -0.038
  C  C188  1  0.056800  0.195700  0.722300  1.0  -0.0715
  N  N189  1  0.010100  0.801400  0.204700  1.0  0.0548
  N  N190  1  0.989900  0.198600  0.795300  1.0  0.054
  O  O191  1  0.521500  0.752600  0.903100  1.0  -0.6936
  O  O192  1  0.511300  0.733300  0.028100  1.0  -0.5828
  O  O193  1  0.189300  0.106200  0.870500  1.0  -0.6325
  O  O194  1  0.314700  0.148600  0.783200  1.0  -0.5879
  O  O195  1  0.303000  0.783700  0.991000  1.0  -0.7619
  O  O196  1  0.332900  0.654500  0.074500  1.0  -0.4908
  O  O197  1  0.487400  0.030400  0.717100  1.0  -0.6156
  O  O198  1  0.487000  0.910400  0.708300  1.0  -0.698
  O  O199  1  0.246900  0.937900  0.813200  1.0  -0.7481
  O  O200  1  0.293000  0.037800  0.700500  1.0  -0.5888
  O  O201  1  0.222700  0.903800  0.100500  1.0  -0.6185
  O  O202  1  0.329200  0.795100  0.147100  1.0  -0.5808
  O  O203  1  0.366600  0.951900  0.880200  1.0  -0.6978
  O  O204  1  0.430300  0.905700  0.977200  1.0  -0.5814
  O  O205  1  0.046400  0.869100  0.069000  1.0  -0.6466
  O  O206  1  0.478500  0.247400  0.096900  1.0  -0.6924
  O  O207  1  0.488700  0.266700  0.971900  1.0  -0.5816
  O  O208  1  0.810700  0.893800  0.129500  1.0  -0.6324
  O  O209  1  0.685300  0.851400  0.216800  1.0  -0.5884
  O  O210  1  0.697000  0.216300  0.009000  1.0  -0.7623
  O  O211  1  0.667100  0.345500  0.925500  1.0  -0.4897
  O  O212  1  0.512600  0.969600  0.282900  1.0  -0.6161
  O  O213  1  0.513000  0.089600  0.291700  1.0  -0.6991
  O  O214  1  0.753100  0.062100  0.186800  1.0  -0.7479
  O  O215  1  0.707000  0.962200  0.299500  1.0  -0.591
  O  O216  1  0.777300  0.096200  0.899500  1.0  -0.6202
  O  O217  1  0.670800  0.204900  0.852900  1.0  -0.5816
  O  O218  1  0.633400  0.048100  0.119800  1.0  -0.6985
  O  O219  1  0.569700  0.094300  0.022800  1.0  -0.5785
  O  O220  1  0.953600  0.130900  0.931000  1.0  -0.6473
