# generated using pymatgen
data_Na2Zn3H44C60N2O15
_symmetry_space_group_name_H-M   'P 1'
_cell_length_a   17.10800000
_cell_length_b   21.64400000
_cell_length_c   25.25800000
_cell_angle_alpha   90.00000000
_cell_angle_beta   90.00000000
_cell_angle_gamma   90.00000000
_symmetry_Int_Tables_number   1
_chemical_formula_structural   Na2Zn3H44C60N2O15
_chemical_formula_sum   'Na8 Zn12 H176 C240 N8 O60'
_cell_volume   9352.67247242
_cell_formula_units_Z   4
loop_
 _symmetry_equiv_pos_site_id
 _symmetry_equiv_pos_as_xyz
  1  'x, y, z'
loop_
 _atom_site_type_symbol
 _atom_site_label
 _atom_site_symmetry_multiplicity
 _atom_site_fract_x
 _atom_site_fract_y
 _atom_site_fract_z
 _atom_site_occupancy
 _atom_site_charge
  Na  Na1  1  0.896100  0.250000  0.710600  1.0  0.9605
  Na  Na2  1  0.603900  0.750000  0.210600  1.0  0.9617
  Na  Na3  1  0.784800  0.750000  0.265100  1.0  0.9647
  Na  Na4  1  0.715200  0.250000  0.765100  1.0  0.9218
  Na  Na5  1  0.215200  0.250000  0.734900  1.0  0.9227
  Na  Na6  1  0.284800  0.750000  0.234900  1.0  0.965
  Na  Na7  1  0.103900  0.750000  0.289400  1.0  0.9631
  Na  Na8  1  0.396100  0.250000  0.789400  1.0  0.9618
  Zn  Zn9  1  0.992840  0.834620  0.384240  1.0  1.0695
  Zn  Zn10  1  0.507160  0.165380  0.884240  1.0  1.0692
  Zn  Zn11  1  0.992840  0.665380  0.384240  1.0  1.0694
  Zn  Zn12  1  0.507160  0.334620  0.884240  1.0  1.0694
  Zn  Zn13  1  0.880780  0.750000  0.313650  1.0  1.0064
  Zn  Zn14  1  0.619220  0.250000  0.813650  1.0  1.0048
  Zn  Zn15  1  0.007160  0.334620  0.615760  1.0  1.0684
  Zn  Zn16  1  0.492840  0.665380  0.115760  1.0  1.0686
  Zn  Zn17  1  0.007160  0.165380  0.615760  1.0  1.0681
  Zn  Zn18  1  0.492840  0.834620  0.115760  1.0  1.0688
  Zn  Zn19  1  0.119220  0.250000  0.686350  1.0  1.0046
  Zn  Zn20  1  0.380780  0.750000  0.186350  1.0  1.0063
  H  H21  1  0.852000  0.378900  0.685900  1.0  0.0888
  H  H22  1  0.814400  0.530800  0.693900  1.0  0.1007
  H  H23  1  0.736600  0.511200  0.665700  1.0  0.1115
  H  H24  1  0.816300  0.481700  0.648300  1.0  0.1198
  H  H25  1  0.716300  0.432200  0.782700  1.0  0.1216
  H  H26  1  0.702000  0.496600  0.756000  1.0  0.0953
  H  H27  1  0.779800  0.484100  0.787100  1.0  0.1043
  H  H28  1  0.648000  0.621100  0.185900  1.0  0.0905
  H  H29  1  0.685600  0.469200  0.193900  1.0  0.0985
  H  H30  1  0.763400  0.488800  0.165700  1.0  0.1102
  H  H31  1  0.683700  0.518300  0.148300  1.0  0.1191
  H  H32  1  0.783700  0.567800  0.282700  1.0  0.122
  H  H33  1  0.798000  0.503400  0.256000  1.0  0.0947
  H  H34  1  0.720200  0.515900  0.287100  1.0  0.1054
  H  H35  1  0.883200  0.040000  0.076800  1.0  0.0972
  H  H36  1  0.024000  0.122200  0.971900  1.0  0.0958
  H  H37  1  0.116000  0.034000  0.095900  1.0  0.1002
  H  H38  1  0.898100  0.940500  0.114000  1.0  0.086
  H  H39  1  0.887200  0.874700  0.184000  1.0  0.0891
  H  H40  1  0.061100  0.962300  0.258200  1.0  0.0811
  H  H41  1  0.071600  0.028800  0.187100  1.0  0.0962
  H  H42  1  0.798900  0.114200  0.052900  1.0  0.0974
  H  H43  1  0.687300  0.139900  0.007700  1.0  0.1081
  H  H44  1  0.809600  0.138000  0.872300  1.0  0.083
  H  H45  1  0.919600  0.106700  0.916800  1.0  0.0955
  H  H46  1  0.149500  0.173600  0.979500  1.0  0.0903
  H  H47  1  0.273500  0.184400  0.941600  1.0  0.0921
  H  H48  1  0.329400  0.014200  0.989200  1.0  0.1069
  H  H49  1  0.207200  0.005900  0.029400  1.0  0.082
  H  H50  1  0.616800  0.960000  0.576800  1.0  0.0983
  H  H51  1  0.476000  0.877800  0.471900  1.0  0.0962
  H  H52  1  0.384000  0.966000  0.595900  1.0  0.1008
  H  H53  1  0.601900  0.059500  0.614000  1.0  0.086
  H  H54  1  0.612800  0.125300  0.684000  1.0  0.0896
  H  H55  1  0.438900  0.037700  0.758200  1.0  0.0813
  H  H56  1  0.428400  0.971200  0.687100  1.0  0.0957
  H  H57  1  0.701100  0.885800  0.552900  1.0  0.0968
  H  H58  1  0.812700  0.860100  0.507700  1.0  0.1081
  H  H59  1  0.690400  0.862000  0.372300  1.0  0.0834
  H  H60  1  0.580400  0.893300  0.416800  1.0  0.0959
  H  H61  1  0.350500  0.826400  0.479500  1.0  0.0903
  H  H62  1  0.226500  0.815600  0.441600  1.0  0.0918
  H  H63  1  0.170600  0.985800  0.489200  1.0  0.1069
  H  H64  1  0.292800  0.994100  0.529400  1.0  0.0817
  H  H65  1  0.883200  0.460000  0.076800  1.0  0.0985
  H  H66  1  0.024000  0.377800  0.971900  1.0  0.096
  H  H67  1  0.116000  0.466000  0.095900  1.0  0.1006
  H  H68  1  0.898100  0.559500  0.114000  1.0  0.0864
  H  H69  1  0.887200  0.625300  0.184000  1.0  0.0898
  H  H70  1  0.061100  0.537700  0.258200  1.0  0.0816
  H  H71  1  0.071600  0.471200  0.187100  1.0  0.0962
  H  H72  1  0.798900  0.385800  0.052900  1.0  0.0973
  H  H73  1  0.687300  0.360100  0.007700  1.0  0.1082
  H  H74  1  0.809600  0.362000  0.872300  1.0  0.0832
  H  H75  1  0.919600  0.393300  0.916800  1.0  0.0956
  H  H76  1  0.149500  0.326400  0.979500  1.0  0.0899
  H  H77  1  0.273500  0.315600  0.941600  1.0  0.0919
  H  H78  1  0.329400  0.485800  0.989200  1.0  0.1067
  H  H79  1  0.207200  0.494100  0.029400  1.0  0.0814
  H  H80  1  0.616800  0.540000  0.576800  1.0  0.0969
  H  H81  1  0.476000  0.622200  0.471900  1.0  0.0961
  H  H82  1  0.384000  0.534000  0.595900  1.0  0.1008
  H  H83  1  0.601900  0.440500  0.614000  1.0  0.0857
  H  H84  1  0.612800  0.374700  0.684000  1.0  0.0893
  H  H85  1  0.438900  0.462300  0.758200  1.0  0.0811
  H  H86  1  0.428400  0.528800  0.687100  1.0  0.0953
  H  H87  1  0.701100  0.614200  0.552900  1.0  0.0969
  H  H88  1  0.812700  0.639900  0.507700  1.0  0.1081
  H  H89  1  0.690400  0.638000  0.372300  1.0  0.0833
  H  H90  1  0.580400  0.606700  0.416800  1.0  0.0959
  H  H91  1  0.350500  0.673600  0.479500  1.0  0.0901
  H  H92  1  0.226500  0.684400  0.441600  1.0  0.0923
  H  H93  1  0.170600  0.514200  0.489200  1.0  0.1065
  H  H94  1  0.292800  0.505900  0.529400  1.0  0.082
  H  H95  1  0.852000  0.121100  0.685900  1.0  0.0893
  H  H96  1  0.814400  0.969200  0.693900  1.0  0.0992
  H  H97  1  0.736600  0.988800  0.665700  1.0  0.1111
  H  H98  1  0.816300  0.018300  0.648300  1.0  0.1197
  H  H99  1  0.716300  0.067800  0.782700  1.0  0.1217
  H  H100  1  0.702000  0.003400  0.756000  1.0  0.0924
  H  H101  1  0.779800  0.015900  0.787100  1.0  0.1047
  H  H102  1  0.648000  0.878900  0.185900  1.0  0.0899
  H  H103  1  0.685600  0.030800  0.193900  1.0  0.1008
  H  H104  1  0.763400  0.011200  0.165700  1.0  0.1098
  H  H105  1  0.683700  0.981700  0.148300  1.0  0.119
  H  H106  1  0.783700  0.932200  0.282700  1.0  0.1221
  H  H107  1  0.798000  0.996600  0.256000  1.0  0.0908
  H  H108  1  0.720200  0.984100  0.287100  1.0  0.1051
  H  H109  1  0.116800  0.540000  0.923200  1.0  0.0969
  H  H110  1  0.976000  0.622200  0.028100  1.0  0.0955
  H  H111  1  0.884000  0.534000  0.904100  1.0  0.1008
  H  H112  1  0.101900  0.440500  0.886000  1.0  0.086
  H  H113  1  0.112800  0.374700  0.816000  1.0  0.0892
  H  H114  1  0.938900  0.462300  0.741800  1.0  0.0807
  H  H115  1  0.928400  0.528800  0.812900  1.0  0.096
  H  H116  1  0.201100  0.614200  0.947100  1.0  0.0967
  H  H117  1  0.312700  0.639900  0.992300  1.0  0.1084
  H  H118  1  0.190400  0.638000  0.127700  1.0  0.0836
  H  H119  1  0.080400  0.606700  0.083200  1.0  0.096
  H  H120  1  0.850500  0.673600  0.020500  1.0  0.0892
  H  H121  1  0.726500  0.684400  0.058400  1.0  0.092
  H  H122  1  0.670600  0.514200  0.010800  1.0  0.106
  H  H123  1  0.792800  0.505900  0.970600  1.0  0.0817
  H  H124  1  0.383200  0.460000  0.423200  1.0  0.0981
  H  H125  1  0.524000  0.377800  0.528100  1.0  0.0959
  H  H126  1  0.616000  0.466000  0.404100  1.0  0.1007
  H  H127  1  0.398100  0.559500  0.386000  1.0  0.0859
  H  H128  1  0.387200  0.625300  0.316000  1.0  0.0894
  H  H129  1  0.561100  0.537700  0.241800  1.0  0.0809
  H  H130  1  0.571600  0.471200  0.312900  1.0  0.0958
  H  H131  1  0.298900  0.385800  0.447100  1.0  0.0969
  H  H132  1  0.187300  0.360100  0.492300  1.0  0.108
  H  H133  1  0.309600  0.362000  0.627700  1.0  0.0834
  H  H134  1  0.419600  0.393300  0.583200  1.0  0.0964
  H  H135  1  0.649500  0.326400  0.520500  1.0  0.089
  H  H136  1  0.773500  0.315600  0.558400  1.0  0.092
  H  H137  1  0.829400  0.485800  0.510800  1.0  0.1066
  H  H138  1  0.707200  0.494100  0.470600  1.0  0.0824
  H  H139  1  0.148000  0.878900  0.314100  1.0  0.0904
  H  H140  1  0.185600  0.030800  0.306100  1.0  0.1011
  H  H141  1  0.263400  0.011200  0.334300  1.0  0.1097
  H  H142  1  0.183700  0.981700  0.351700  1.0  0.1206
  H  H143  1  0.283700  0.932200  0.217300  1.0  0.1223
  H  H144  1  0.298000  0.996600  0.244000  1.0  0.0955
  H  H145  1  0.220200  0.984100  0.212900  1.0  0.105
  H  H146  1  0.352000  0.121100  0.814100  1.0  0.0895
  H  H147  1  0.314400  0.969200  0.806100  1.0  0.0988
  H  H148  1  0.236600  0.988800  0.834300  1.0  0.111
  H  H149  1  0.316300  0.018300  0.851700  1.0  0.1197
  H  H150  1  0.216300  0.067800  0.717300  1.0  0.1229
  H  H151  1  0.202000  0.003400  0.744000  1.0  0.0899
  H  H152  1  0.279800  0.015900  0.712900  1.0  0.1039
  H  H153  1  0.148000  0.621100  0.314100  1.0  0.0905
  H  H154  1  0.185600  0.469200  0.306100  1.0  0.0974
  H  H155  1  0.263400  0.488800  0.334300  1.0  0.1096
  H  H156  1  0.183700  0.518300  0.351700  1.0  0.1202
  H  H157  1  0.283700  0.567800  0.217300  1.0  0.1232
  H  H158  1  0.298000  0.503400  0.244000  1.0  0.0949
  H  H159  1  0.220200  0.515900  0.212900  1.0  0.1048
  H  H160  1  0.352000  0.378900  0.814100  1.0  0.0897
  H  H161  1  0.314400  0.530800  0.806100  1.0  0.1012
  H  H162  1  0.236600  0.511200  0.834300  1.0  0.1108
  H  H163  1  0.316300  0.481700  0.851700  1.0  0.1203
  H  H164  1  0.216300  0.432200  0.717300  1.0  0.122
  H  H165  1  0.202000  0.496600  0.744000  1.0  0.0964
  H  H166  1  0.279800  0.484100  0.712900  1.0  0.1037
  H  H167  1  0.116800  0.960000  0.923200  1.0  0.0978
  H  H168  1  0.976000  0.877800  0.028100  1.0  0.096
  H  H169  1  0.884000  0.966000  0.904100  1.0  0.1011
  H  H170  1  0.101900  0.059500  0.886000  1.0  0.0861
  H  H171  1  0.112800  0.125300  0.816000  1.0  0.0892
  H  H172  1  0.938900  0.037700  0.741800  1.0  0.0807
  H  H173  1  0.928400  0.971200  0.812900  1.0  0.0952
  H  H174  1  0.201100  0.885800  0.947100  1.0  0.0968
  H  H175  1  0.312700  0.860100  0.992300  1.0  0.1081
  H  H176  1  0.190400  0.862000  0.127700  1.0  0.0836
  H  H177  1  0.080400  0.893300  0.083200  1.0  0.0963
  H  H178  1  0.850500  0.826400  0.020500  1.0  0.09
  H  H179  1  0.726500  0.815600  0.058400  1.0  0.0918
  H  H180  1  0.670600  0.985800  0.010800  1.0  0.1068
  H  H181  1  0.792800  0.994100  0.970600  1.0  0.0818
  H  H182  1  0.383200  0.040000  0.423200  1.0  0.0972
  H  H183  1  0.524000  0.122200  0.528100  1.0  0.0958
  H  H184  1  0.616000  0.034000  0.404100  1.0  0.1003
  H  H185  1  0.398100  0.940500  0.386000  1.0  0.0858
  H  H186  1  0.387200  0.874700  0.316000  1.0  0.0891
  H  H187  1  0.561100  0.962300  0.241800  1.0  0.0807
  H  H188  1  0.571600  0.028800  0.312900  1.0  0.0968
  H  H189  1  0.298900  0.114200  0.447100  1.0  0.0967
  H  H190  1  0.187300  0.139900  0.492300  1.0  0.1081
  H  H191  1  0.309600  0.138000  0.627700  1.0  0.0834
  H  H192  1  0.419600  0.106700  0.583200  1.0  0.0962
  H  H193  1  0.649500  0.173600  0.520500  1.0  0.0892
  H  H194  1  0.773500  0.184400  0.558400  1.0  0.092
  H  H195  1  0.829400  0.014200  0.510800  1.0  0.1065
  H  H196  1  0.707200  0.005900  0.470600  1.0  0.0823
  C  C197  1  0.809200  0.379900  0.709000  1.0  0.341
  C  C198  1  0.787000  0.497000  0.678000  1.0  -0.2677
  C  C199  1  0.740700  0.466000  0.764600  1.0  -0.1626
  C  C200  1  0.690800  0.620100  0.209000  1.0  0.3409
  C  C201  1  0.713000  0.503000  0.178000  1.0  -0.266
  C  C202  1  0.759300  0.534000  0.264600  1.0  -0.1641
  C  C203  1  0.998600  0.029500  0.094500  1.0  0.052
  C  C204  1  0.933400  0.049900  0.065400  1.0  -0.1521
  C  C205  1  0.943100  0.084400  0.020000  1.0  0.0005
  C  C206  1  0.017800  0.098300  0.002200  1.0  -0.149
  C  C207  1  0.082800  0.077300  0.028600  1.0  -0.0045
  C  C208  1  0.072300  0.045100  0.076200  1.0  -0.1224
  C  C209  1  0.987900  0.988800  0.141300  1.0  0.0665
  C  C210  1  0.932000  0.944700  0.142500  1.0  -0.1401
  C  C211  1  0.924500  0.906000  0.184900  1.0  -0.0339
  C  C212  1  0.971400  0.912500  0.229200  1.0  -0.1363
  C  C213  1  0.028000  0.957900  0.229300  1.0  -0.0284
  C  C214  1  0.035200  0.997000  0.186300  1.0  -0.1477
  C  C215  1  0.872700  0.107200  0.990800  1.0  0.0624
  C  C216  1  0.801100  0.118200  0.016300  1.0  -0.1168
  C  C217  1  0.734200  0.134700  0.989700  1.0  -0.1212
  C  C218  1  0.738100  0.143500  0.934300  1.0  -0.1396
  C  C219  1  0.807300  0.132700  0.908800  1.0  -0.0251
  C  C220  1  0.873800  0.114400  0.935500  1.0  -0.1533
  C  C221  1  0.163400  0.088300  0.006600  1.0  0.0716
  C  C222  1  0.185000  0.141200  0.981900  1.0  -0.1196
  C  C223  1  0.260700  0.148300  0.959500  1.0  -0.0261
  C  C224  1  0.313900  0.102800  0.964200  1.0  -0.1581
  C  C225  1  0.294200  0.047000  0.988300  1.0  -0.0956
  C  C226  1  0.219700  0.041700  0.010900  1.0  -0.137
  C  C227  1  0.962700  0.868600  0.275400  1.0  0.6915
  C  C228  1  0.665400  0.161700  0.905400  1.0  0.6953
  C  C229  1  0.395400  0.110700  0.939000  1.0  0.7317
  C  C230  1  0.501400  0.970500  0.594500  1.0  0.0513
  C  C231  1  0.566600  0.950100  0.565400  1.0  -0.1494
  C  C232  1  0.556900  0.915600  0.520000  1.0  0.0008
  C  C233  1  0.482200  0.901700  0.502200  1.0  -0.151
  C  C234  1  0.417200  0.922700  0.528600  1.0  -0.005
  C  C235  1  0.427700  0.954900  0.576200  1.0  -0.1252
  C  C236  1  0.512100  0.011200  0.641300  1.0  0.0662
  C  C237  1  0.568000  0.055300  0.642500  1.0  -0.1402
  C  C238  1  0.575500  0.094000  0.684900  1.0  -0.0335
  C  C239  1  0.528600  0.087500  0.729200  1.0  -0.1371
  C  C240  1  0.472000  0.042100  0.729300  1.0  -0.0271
  C  C241  1  0.464800  0.003000  0.686300  1.0  -0.1473
  C  C242  1  0.627300  0.892800  0.490800  1.0  0.0612
  C  C243  1  0.698900  0.881800  0.516300  1.0  -0.1172
  C  C244  1  0.765800  0.865300  0.489700  1.0  -0.1197
  C  C245  1  0.761900  0.856500  0.434300  1.0  -0.1396
  C  C246  1  0.692700  0.867300  0.408800  1.0  -0.0243
  C  C247  1  0.626200  0.885600  0.435500  1.0  -0.1534
  C  C248  1  0.336600  0.911700  0.506600  1.0  0.0704
  C  C249  1  0.315000  0.858800  0.481900  1.0  -0.1217
  C  C250  1  0.239300  0.851700  0.459500  1.0  -0.0268
  C  C251  1  0.186100  0.897200  0.464200  1.0  -0.1609
  C  C252  1  0.205800  0.953000  0.488300  1.0  -0.0978
  C  C253  1  0.280300  0.958300  0.510900  1.0  -0.1391
  C  C254  1  0.537300  0.131400  0.775400  1.0  0.6901
  C  C255  1  0.834600  0.838300  0.405400  1.0  0.68
  C  C256  1  0.104600  0.889300  0.439000  1.0  0.7412
  C  C257  1  0.998600  0.470500  0.094500  1.0  0.0522
  C  C258  1  0.933400  0.450100  0.065400  1.0  -0.1501
  C  C259  1  0.943100  0.415600  0.020000  1.0  0.002
  C  C260  1  0.017800  0.401700  0.002200  1.0  -0.1507
  C  C261  1  0.082800  0.422700  0.028600  1.0  -0.0055
  C  C262  1  0.072300  0.454900  0.076200  1.0  -0.1243
  C  C263  1  0.987900  0.511200  0.141300  1.0  0.0665
  C  C264  1  0.932000  0.555300  0.142500  1.0  -0.1404
  C  C265  1  0.924500  0.594000  0.184900  1.0  -0.0331
  C  C266  1  0.971400  0.587500  0.229200  1.0  -0.1374
  C  C267  1  0.028000  0.542100  0.229300  1.0  -0.028
  C  C268  1  0.035200  0.503000  0.186300  1.0  -0.1485
  C  C269  1  0.872700  0.392800  0.990800  1.0  0.0613
  C  C270  1  0.801100  0.381800  0.016300  1.0  -0.1157
  C  C271  1  0.734200  0.365300  0.989700  1.0  -0.1204
  C  C272  1  0.738100  0.356500  0.934300  1.0  -0.1414
  C  C273  1  0.807300  0.367300  0.908800  1.0  -0.0248
  C  C274  1  0.873800  0.385600  0.935500  1.0  -0.1542
  C  C275  1  0.163400  0.411700  0.006600  1.0  0.0712
  C  C276  1  0.185000  0.358800  0.981900  1.0  -0.1219
  C  C277  1  0.260700  0.351700  0.959500  1.0  -0.0276
  C  C278  1  0.313900  0.397200  0.964200  1.0  -0.1594
  C  C279  1  0.294200  0.453000  0.988300  1.0  -0.0952
  C  C280  1  0.219700  0.458300  0.010900  1.0  -0.1378
  C  C281  1  0.962700  0.631400  0.275400  1.0  0.6906
  C  C282  1  0.665400  0.338300  0.905400  1.0  0.6952
  C  C283  1  0.395400  0.389300  0.939000  1.0  0.7324
  C  C284  1  0.501400  0.529500  0.594500  1.0  0.051
  C  C285  1  0.566600  0.549900  0.565400  1.0  -0.1502
  C  C286  1  0.556900  0.584400  0.520000  1.0  -0.0003
  C  C287  1  0.482200  0.598300  0.502200  1.0  -0.1495
  C  C288  1  0.417200  0.577300  0.528600  1.0  -0.0042
  C  C289  1  0.427700  0.545100  0.576200  1.0  -0.1245
  C  C290  1  0.512100  0.488800  0.641300  1.0  0.0665
  C  C291  1  0.568000  0.444700  0.642500  1.0  -0.1402
  C  C292  1  0.575500  0.406000  0.684900  1.0  -0.0353
  C  C293  1  0.528600  0.412500  0.729200  1.0  -0.136
  C  C294  1  0.472000  0.457900  0.729300  1.0  -0.0262
  C  C295  1  0.464800  0.497000  0.686300  1.0  -0.1488
  C  C296  1  0.627300  0.607200  0.490800  1.0  0.0623
  C  C297  1  0.698900  0.618200  0.516300  1.0  -0.1166
  C  C298  1  0.765800  0.634700  0.489700  1.0  -0.1204
  C  C299  1  0.761900  0.643500  0.434300  1.0  -0.1388
  C  C300  1  0.692700  0.632700  0.408800  1.0  -0.0248
  C  C301  1  0.626200  0.614400  0.435500  1.0  -0.1529
  C  C302  1  0.336600  0.588300  0.506600  1.0  0.0707
  C  C303  1  0.315000  0.641200  0.481900  1.0  -0.1203
  C  C304  1  0.239300  0.648300  0.459500  1.0  -0.0262
  C  C305  1  0.186100  0.602800  0.464200  1.0  -0.1588
  C  C306  1  0.205800  0.547000  0.488300  1.0  -0.096
  C  C307  1  0.280300  0.541700  0.510900  1.0  -0.1381
  C  C308  1  0.537300  0.368600  0.775400  1.0  0.6906
  C  C309  1  0.834600  0.661700  0.405400  1.0  0.6804
  C  C310  1  0.104600  0.610700  0.439000  1.0  0.7333
  C  C311  1  0.809200  0.120100  0.709000  1.0  0.3411
  C  C312  1  0.787000  0.003000  0.678000  1.0  -0.2663
  C  C313  1  0.740700  0.034000  0.764600  1.0  -0.1629
  C  C314  1  0.690800  0.879900  0.209000  1.0  0.3413
  C  C315  1  0.713000  0.997000  0.178000  1.0  -0.267
  C  C316  1  0.759300  0.966000  0.264600  1.0  -0.1647
  C  C317  1  0.001400  0.529500  0.905500  1.0  0.0512
  C  C318  1  0.066600  0.549900  0.934600  1.0  -0.1501
  C  C319  1  0.056900  0.584400  0.980000  1.0  1e-04
  C  C320  1  0.982200  0.598300  0.997800  1.0  -0.1484
  C  C321  1  0.917200  0.577300  0.971400  1.0  -0.0036
  C  C322  1  0.927700  0.545100  0.923800  1.0  -0.1231
  C  C323  1  0.012100  0.488800  0.858700  1.0  0.0672
  C  C324  1  0.068000  0.444700  0.857500  1.0  -0.1406
  C  C325  1  0.075500  0.406000  0.815100  1.0  -0.0351
  C  C326  1  0.028600  0.412500  0.770800  1.0  -0.1395
  C  C327  1  0.972000  0.457900  0.770700  1.0  -0.0258
  C  C328  1  0.964800  0.497000  0.813700  1.0  -0.1485
  C  C329  1  0.127300  0.607200  0.009200  1.0  0.0628
  C  C330  1  0.198900  0.618200  0.983700  1.0  -0.1169
  C  C331  1  0.265800  0.634700  0.010300  1.0  -0.1208
  C  C332  1  0.261900  0.643500  0.065700  1.0  -0.1389
  C  C333  1  0.192700  0.632700  0.091200  1.0  -0.0247
  C  C334  1  0.126200  0.614400  0.064500  1.0  -0.1535
  C  C335  1  0.836600  0.588300  0.993400  1.0  0.0708
  C  C336  1  0.815000  0.641200  0.018100  1.0  -0.121
  C  C337  1  0.739300  0.648300  0.040500  1.0  -0.026
  C  C338  1  0.686100  0.602800  0.035800  1.0  -0.1591
  C  C339  1  0.705800  0.547000  0.011700  1.0  -0.0957
  C  C340  1  0.780300  0.541700  0.989100  1.0  -0.1379
  C  C341  1  0.037300  0.368600  0.724600  1.0  0.6911
  C  C342  1  0.334600  0.661700  0.094600  1.0  0.6817
  C  C343  1  0.604600  0.610700  0.061000  1.0  0.7335
  C  C344  1  0.498600  0.470500  0.405500  1.0  0.0497
  C  C345  1  0.433400  0.450100  0.434600  1.0  -0.1511
  C  C346  1  0.443100  0.415600  0.480000  1.0  0.0011
  C  C347  1  0.517800  0.401700  0.497800  1.0  -0.1495
  C  C348  1  0.582800  0.422700  0.471400  1.0  -0.0047
  C  C349  1  0.572300  0.454900  0.423800  1.0  -0.125
  C  C350  1  0.487900  0.511200  0.358700  1.0  0.0667
  C  C351  1  0.432000  0.555300  0.357500  1.0  -0.1409
  C  C352  1  0.424500  0.594000  0.315100  1.0  -0.0333
  C  C353  1  0.471400  0.587500  0.270800  1.0  -0.1394
  C  C354  1  0.528000  0.542100  0.270700  1.0  -0.0229
  C  C355  1  0.535200  0.503000  0.313700  1.0  -0.1492
  C  C356  1  0.372700  0.392800  0.509200  1.0  0.0622
  C  C357  1  0.301100  0.381800  0.483700  1.0  -0.1138
  C  C358  1  0.234200  0.365300  0.510300  1.0  -0.1203
  C  C359  1  0.238100  0.356500  0.565700  1.0  -0.1412
  C  C360  1  0.307300  0.367300  0.591200  1.0  -0.0251
  C  C361  1  0.373800  0.385600  0.564500  1.0  -0.1543
  C  C362  1  0.663400  0.411700  0.493400  1.0  0.0714
  C  C363  1  0.685000  0.358800  0.518100  1.0  -0.122
  C  C364  1  0.760700  0.351700  0.540500  1.0  -0.0272
  C  C365  1  0.813900  0.397200  0.535800  1.0  -0.1587
  C  C366  1  0.794200  0.453000  0.511700  1.0  -0.096
  C  C367  1  0.719700  0.458300  0.489100  1.0  -0.138
  C  C368  1  0.462700  0.631400  0.224600  1.0  0.6906
  C  C369  1  0.165400  0.338300  0.594600  1.0  0.6815
  C  C370  1  0.895400  0.389300  0.561000  1.0  0.7322
  C  C371  1  0.190800  0.879900  0.291000  1.0  0.3422
  C  C372  1  0.213000  0.997000  0.322000  1.0  -0.2662
  C  C373  1  0.259300  0.966000  0.235400  1.0  -0.1657
  C  C374  1  0.309200  0.120100  0.791000  1.0  0.3418
  C  C375  1  0.287000  0.003000  0.822000  1.0  -0.2659
  C  C376  1  0.240700  0.034000  0.735400  1.0  -0.1634
  C  C377  1  0.190800  0.620100  0.291000  1.0  0.3413
  C  C378  1  0.213000  0.503000  0.322000  1.0  -0.2659
  C  C379  1  0.259300  0.534000  0.235400  1.0  -0.1646
  C  C380  1  0.309200  0.379900  0.791000  1.0  0.3422
  C  C381  1  0.287000  0.497000  0.822000  1.0  -0.2667
  C  C382  1  0.240700  0.466000  0.735400  1.0  -0.1645
  C  C383  1  0.001400  0.970500  0.905500  1.0  0.049
  C  C384  1  0.066600  0.950100  0.934600  1.0  -0.1507
  C  C385  1  0.056900  0.915600  0.980000  1.0  0.0005
  C  C386  1  0.982200  0.901700  0.997800  1.0  -0.1498
  C  C387  1  0.917200  0.922700  0.971400  1.0  -0.0044
  C  C388  1  0.927700  0.954900  0.923800  1.0  -0.1238
  C  C389  1  0.012100  0.011200  0.858700  1.0  0.0665
  C  C390  1  0.068000  0.055300  0.857500  1.0  -0.1407
  C  C391  1  0.075500  0.094000  0.815100  1.0  -0.0337
  C  C392  1  0.028600  0.087500  0.770800  1.0  -0.1391
  C  C393  1  0.972000  0.042100  0.770700  1.0  -0.0222
  C  C394  1  0.964800  0.003000  0.813700  1.0  -0.149
  C  C395  1  0.127300  0.892800  0.009200  1.0  0.0619
  C  C396  1  0.198900  0.881800  0.983700  1.0  -0.1155
  C  C397  1  0.265800  0.865300  0.010300  1.0  -0.1205
  C  C398  1  0.261900  0.856500  0.065700  1.0  -0.1394
  C  C399  1  0.192700  0.867300  0.091200  1.0  -0.0252
  C  C400  1  0.126200  0.885600  0.064500  1.0  -0.1535
  C  C401  1  0.836600  0.911700  0.993400  1.0  0.0709
  C  C402  1  0.815000  0.858800  0.018100  1.0  -0.122
  C  C403  1  0.739300  0.851700  0.040500  1.0  -0.0265
  C  C404  1  0.686100  0.897200  0.035800  1.0  -0.1605
  C  C405  1  0.705800  0.953000  0.011700  1.0  -0.0984
  C  C406  1  0.780300  0.958300  0.989100  1.0  -0.1389
  C  C407  1  0.037300  0.131400  0.724600  1.0  0.6921
  C  C408  1  0.334600  0.838300  0.094600  1.0  0.681
  C  C409  1  0.604600  0.889300  0.061000  1.0  0.7418
  C  C410  1  0.498600  0.029500  0.405500  1.0  0.0516
  C  C411  1  0.433400  0.049900  0.434600  1.0  -0.1514
  C  C412  1  0.443100  0.084400  0.480000  1.0  0.0005
  C  C413  1  0.517800  0.098300  0.497800  1.0  -0.1482
  C  C414  1  0.582800  0.077300  0.471400  1.0  -0.0035
  C  C415  1  0.572300  0.045100  0.423800  1.0  -0.1236
  C  C416  1  0.487900  0.988800  0.358700  1.0  0.0672
  C  C417  1  0.432000  0.944700  0.357500  1.0  -0.1403
  C  C418  1  0.424500  0.906000  0.315100  1.0  -0.0337
  C  C419  1  0.471400  0.912500  0.270800  1.0  -0.1399
  C  C420  1  0.528000  0.957900  0.270700  1.0  -0.026
  C  C421  1  0.535200  0.997000  0.313700  1.0  -0.1471
  C  C422  1  0.372700  0.107200  0.509200  1.0  0.0631
  C  C423  1  0.301100  0.118200  0.483700  1.0  -0.1153
  C  C424  1  0.234200  0.134700  0.510300  1.0  -0.1209
  C  C425  1  0.238100  0.143500  0.565700  1.0  -0.1395
  C  C426  1  0.307300  0.132700  0.591200  1.0  -0.0246
  C  C427  1  0.373800  0.114400  0.564500  1.0  -0.1539
  C  C428  1  0.663400  0.088300  0.493400  1.0  0.0716
  C  C429  1  0.685000  0.141200  0.518100  1.0  -0.1202
  C  C430  1  0.760700  0.148300  0.540500  1.0  -0.0259
  C  C431  1  0.813900  0.102800  0.535800  1.0  -0.1581
  C  C432  1  0.794200  0.047000  0.511700  1.0  -0.0954
  C  C433  1  0.719700  0.041700  0.489100  1.0  -0.1367
  C  C434  1  0.462700  0.868600  0.224600  1.0  0.6907
  C  C435  1  0.165400  0.161700  0.594600  1.0  0.6811
  C  C436  1  0.895400  0.110700  0.561000  1.0  0.7312
  N  N437  1  0.775400  0.445000  0.718600  1.0  -0.1685
  N  N438  1  0.724600  0.555000  0.218600  1.0  -0.1677
  N  N439  1  0.775400  0.055000  0.718600  1.0  -0.1676
  N  N440  1  0.724600  0.945000  0.218600  1.0  -0.1687
  N  N441  1  0.224600  0.945000  0.281400  1.0  -0.1688
  N  N442  1  0.275400  0.055000  0.781400  1.0  -0.1674
  N  N443  1  0.224600  0.555000  0.281400  1.0  -0.1678
  N  N444  1  0.275400  0.445000  0.781400  1.0  -0.1684
  O  O445  1  0.791000  0.334000  0.724000  1.0  -0.7442
  O  O446  1  0.709000  0.666000  0.224000  1.0  -0.7449
  O  O447  1  0.994600  0.884300  0.319000  1.0  -0.5986
  O  O448  1  0.926300  0.819200  0.266600  1.0  -0.6591
  O  O449  1  0.441200  0.065700  0.940200  1.0  -0.5028
  O  O450  1  0.407800  0.159500  0.919000  1.0  -0.5683
  O  O451  1  0.675400  0.182700  0.859700  1.0  -0.6514
  O  O452  1  0.600900  0.154100  0.928000  1.0  -0.6082
  O  O453  1  0.505400  0.115700  0.819000  1.0  -0.5981
  O  O454  1  0.573700  0.180800  0.766600  1.0  -0.6602
  O  O455  1  0.058800  0.934300  0.440200  1.0  -0.5011
  O  O456  1  0.092200  0.840500  0.419000  1.0  -0.5683
  O  O457  1  0.824600  0.817300  0.359700  1.0  -0.6519
  O  O458  1  0.899100  0.845900  0.428000  1.0  -0.6074
  O  O459  1  0.994600  0.615700  0.319000  1.0  -0.5981
  O  O460  1  0.926300  0.680800  0.266600  1.0  -0.6594
  O  O461  1  0.441200  0.434300  0.940200  1.0  -0.5023
  O  O462  1  0.407800  0.340500  0.919000  1.0  -0.5693
  O  O463  1  0.675400  0.317300  0.859700  1.0  -0.6511
  O  O464  1  0.600900  0.345900  0.928000  1.0  -0.6088
  O  O465  1  0.505400  0.384300  0.819000  1.0  -0.598
  O  O466  1  0.573700  0.319200  0.766600  1.0  -0.6598
  O  O467  1  0.058800  0.565700  0.440200  1.0  -0.5004
  O  O468  1  0.092200  0.659500  0.419000  1.0  -0.5689
  O  O469  1  0.824600  0.682700  0.359700  1.0  -0.6522
  O  O470  1  0.899100  0.654100  0.428000  1.0  -0.6068
  O  O471  1  0.791000  0.166000  0.724000  1.0  -0.7447
  O  O472  1  0.709000  0.834000  0.224000  1.0  -0.7438
  O  O473  1  0.985300  0.750000  0.355900  1.0  -0.8552
  O  O474  1  0.514700  0.250000  0.855900  1.0  -0.8541
  O  O475  1  0.005400  0.384300  0.681000  1.0  -0.5986
  O  O476  1  0.073700  0.319200  0.733400  1.0  -0.6599
  O  O477  1  0.558800  0.565700  0.059800  1.0  -0.5017
  O  O478  1  0.592200  0.659500  0.081000  1.0  -0.5694
  O  O479  1  0.324600  0.682700  0.140300  1.0  -0.6516
  O  O480  1  0.399100  0.654100  0.072000  1.0  -0.6079
  O  O481  1  0.494600  0.615700  0.181000  1.0  -0.5988
  O  O482  1  0.426300  0.680800  0.233400  1.0  -0.6598
  O  O483  1  0.941200  0.434300  0.559800  1.0  -0.5009
  O  O484  1  0.907800  0.340500  0.581000  1.0  -0.5691
  O  O485  1  0.175400  0.317300  0.640300  1.0  -0.6507
  O  O486  1  0.100900  0.345900  0.572000  1.0  -0.6073
  O  O487  1  0.209000  0.834000  0.276000  1.0  -0.7432
  O  O488  1  0.291000  0.166000  0.776000  1.0  -0.7449
  O  O489  1  0.209000  0.666000  0.276000  1.0  -0.7451
  O  O490  1  0.291000  0.334000  0.776000  1.0  -0.7436
  O  O491  1  0.005400  0.115700  0.681000  1.0  -0.5988
  O  O492  1  0.073700  0.180800  0.733400  1.0  -0.6604
  O  O493  1  0.558800  0.934300  0.059800  1.0  -0.5022
  O  O494  1  0.592200  0.840500  0.081000  1.0  -0.5684
  O  O495  1  0.324600  0.817300  0.140300  1.0  -0.651
  O  O496  1  0.399100  0.845900  0.072000  1.0  -0.6083
  O  O497  1  0.494600  0.884300  0.181000  1.0  -0.5997
  O  O498  1  0.426300  0.819200  0.233400  1.0  -0.6593
  O  O499  1  0.941200  0.065700  0.559800  1.0  -0.502
  O  O500  1  0.907800  0.159500  0.581000  1.0  -0.569
  O  O501  1  0.175400  0.182700  0.640300  1.0  -0.6511
  O  O502  1  0.100900  0.154100  0.572000  1.0  -0.6072
  O  O503  1  0.014700  0.250000  0.644100  1.0  -0.8541
  O  O504  1  0.485300  0.750000  0.144100  1.0  -0.8551
