# generated using pymatgen
data_Co2H20C30S2N5O12
_symmetry_space_group_name_H-M   'P 1'
_cell_length_a   18.07200000
_cell_length_b   21.78500000
_cell_length_c   12.67320000
_cell_angle_alpha   90.00000000
_cell_angle_beta   90.00000000
_cell_angle_gamma   90.00000000
_symmetry_Int_Tables_number   1
_chemical_formula_structural   Co2H20C30S2N5O12
_chemical_formula_sum   'Co8 H80 C120 S8 N20 O48'
_cell_volume   4989.42008366
_cell_formula_units_Z   4
loop_
 _symmetry_equiv_pos_site_id
 _symmetry_equiv_pos_as_xyz
  1  'x, y, z'
loop_
 _atom_site_type_symbol
 _atom_site_label
 _atom_site_symmetry_multiplicity
 _atom_site_fract_x
 _atom_site_fract_y
 _atom_site_fract_z
 _atom_site_occupancy
 _atom_site_charge
  Co  Co1  1  0.338380  0.728680  0.032950  1.0  0.9586
  Co  Co2  1  0.174690  0.722110  0.026500  1.0  0.9157
  Co  Co3  1  0.661620  0.271320  0.532950  1.0  0.9601
  Co  Co4  1  0.825310  0.277890  0.526500  1.0  0.9151
  Co  Co5  1  0.838380  0.771320  0.032950  1.0  0.9585
  Co  Co6  1  0.674690  0.777890  0.026500  1.0  0.9158
  Co  Co7  1  0.161620  0.228680  0.532950  1.0  0.9601
  Co  Co8  1  0.325310  0.222110  0.526500  1.0  0.9151
  H  H9  1  0.477900  0.708400  0.877300  1.0  0.3637
  H  H10  1  0.556300  0.729300  0.872300  1.0  0.3692
  H  H11  1  0.541700  0.866400  0.249900  1.0  0.3691
  H  H12  1  0.611300  0.860200  0.187800  1.0  0.3549
  H  H13  1  0.162600  0.664300  0.732000  1.0  0.1134
  H  H14  1  0.149200  0.632200  0.557900  1.0  0.1217
  H  H15  1  0.366100  0.646700  0.513100  1.0  0.1247
  H  H16  1  0.381100  0.679200  0.689300  1.0  0.1149
  H  H17  1  0.145700  0.514100  0.445200  1.0  0.1259
  H  H18  1  0.153100  0.409400  0.474500  1.0  0.1179
  H  H19  1  0.370400  0.416200  0.411300  1.0  0.1109
  H  H20  1  0.361300  0.520600  0.382000  1.0  0.1247
  H  H21  1  0.348400  0.791400  0.374500  1.0  0.1156
  H  H22  1  0.332500  0.817800  0.547800  1.0  0.1219
  H  H23  1  0.112700  0.798200  0.512700  1.0  0.1153
  H  H24  1  0.131100  0.762100  0.342500  1.0  0.1186
  H  H25  1  0.325200  0.925300  0.689300  1.0  0.1231
  H  H26  1  0.336500  0.029500  0.655100  1.0  0.1088
  H  H27  1  0.120500  0.038700  0.588000  1.0  0.1351
  H  H28  1  0.111800  0.933300  0.620700  1.0  0.1008
  H  H29  1  0.522100  0.291600  0.377300  1.0  0.3632
  H  H30  1  0.443700  0.270700  0.372300  1.0  0.3701
  H  H31  1  0.458300  0.133600  0.749900  1.0  0.37
  H  H32  1  0.388700  0.139800  0.687800  1.0  0.3561
  H  H33  1  0.837400  0.335700  0.232000  1.0  0.1138
  H  H34  1  0.850800  0.367800  0.057900  1.0  0.1221
  H  H35  1  0.633900  0.353300  0.013100  1.0  0.1248
  H  H36  1  0.618900  0.320800  0.189300  1.0  0.1141
  H  H37  1  0.854300  0.485900  0.945200  1.0  0.1257
  H  H38  1  0.846900  0.590600  0.974500  1.0  0.1179
  H  H39  1  0.629600  0.583800  0.911300  1.0  0.1105
  H  H40  1  0.638700  0.479400  0.882000  1.0  0.1247
  H  H41  1  0.651600  0.208600  0.874500  1.0  0.1145
  H  H42  1  0.667500  0.182200  0.047800  1.0  0.1221
  H  H43  1  0.887300  0.201800  0.012700  1.0  0.1165
  H  H44  1  0.868900  0.237900  0.842500  1.0  0.1193
  H  H45  1  0.674800  0.074700  0.189300  1.0  0.1233
  H  H46  1  0.663500  0.970500  0.155100  1.0  0.1085
  H  H47  1  0.879500  0.961300  0.088000  1.0  0.1343
  H  H48  1  0.888200  0.066700  0.120700  1.0  0.1005
  H  H49  1  0.977900  0.791600  0.877300  1.0  0.363
  H  H50  1  0.056300  0.770700  0.872300  1.0  0.3694
  H  H51  1  0.041700  0.633600  0.249900  1.0  0.3694
  H  H52  1  0.111300  0.639800  0.187800  1.0  0.3551
  H  H53  1  0.662600  0.835700  0.732000  1.0  0.1133
  H  H54  1  0.649200  0.867800  0.557900  1.0  0.1218
  H  H55  1  0.866100  0.853300  0.513100  1.0  0.1247
  H  H56  1  0.881100  0.820800  0.689300  1.0  0.1148
  H  H57  1  0.645700  0.985900  0.445200  1.0  0.1261
  H  H58  1  0.653100  0.090600  0.474500  1.0  0.1177
  H  H59  1  0.870400  0.083800  0.411300  1.0  0.1106
  H  H60  1  0.861300  0.979400  0.382000  1.0  0.1245
  H  H61  1  0.848400  0.708600  0.374500  1.0  0.1153
  H  H62  1  0.832500  0.682200  0.547800  1.0  0.1222
  H  H63  1  0.612700  0.701800  0.512700  1.0  0.1154
  H  H64  1  0.631100  0.737900  0.342500  1.0  0.1188
  H  H65  1  0.825200  0.574700  0.689300  1.0  0.1233
  H  H66  1  0.836500  0.470500  0.655100  1.0  0.1089
  H  H67  1  0.620500  0.461300  0.588000  1.0  0.1348
  H  H68  1  0.611800  0.566700  0.620700  1.0  0.1007
  H  H69  1  0.022100  0.208400  0.377300  1.0  0.364
  H  H70  1  0.943700  0.229300  0.372300  1.0  0.3702
  H  H71  1  0.958300  0.366400  0.749900  1.0  0.3702
  H  H72  1  0.888700  0.360200  0.687800  1.0  0.3569
  H  H73  1  0.337400  0.164300  0.232000  1.0  0.1141
  H  H74  1  0.350800  0.132200  0.057900  1.0  0.122
  H  H75  1  0.133900  0.146700  0.013100  1.0  0.1245
  H  H76  1  0.118900  0.179200  0.189300  1.0  0.1144
  H  H77  1  0.354300  0.014100  0.945200  1.0  0.1256
  H  H78  1  0.346900  0.909400  0.974500  1.0  0.1182
  H  H79  1  0.129600  0.916200  0.911300  1.0  0.1109
  H  H80  1  0.138700  0.020600  0.882000  1.0  0.1246
  H  H81  1  0.151600  0.291400  0.874500  1.0  0.1147
  H  H82  1  0.167500  0.317800  0.047800  1.0  0.1217
  H  H83  1  0.387300  0.298200  0.012700  1.0  0.1164
  H  H84  1  0.368900  0.262100  0.842500  1.0  0.1191
  H  H85  1  0.174800  0.425300  0.189300  1.0  0.1233
  H  H86  1  0.163500  0.529500  0.155100  1.0  0.1082
  H  H87  1  0.379500  0.538700  0.088000  1.0  0.1344
  H  H88  1  0.388200  0.433300  0.120700  1.0  0.1005
  C  C89  1  0.280800  0.692600  0.841200  1.0  0.7048
  C  C90  1  0.273400  0.674700  0.728000  1.0  -0.148
  C  C91  1  0.203900  0.660700  0.688800  1.0  -0.0155
  C  C92  1  0.195700  0.641300  0.584900  1.0  -0.0651
  C  C93  1  0.256400  0.635900  0.524300  1.0  -0.1314
  C  C94  1  0.325600  0.649900  0.558100  1.0  -0.0732
  C  C95  1  0.334300  0.669700  0.663600  1.0  -0.0108
  C  C96  1  0.252400  0.524400  0.410400  1.0  -0.1184
  C  C97  1  0.190600  0.493600  0.438500  1.0  -0.0677
  C  C98  1  0.195300  0.431600  0.456800  1.0  0.008
  C  C99  1  0.262900  0.402100  0.449100  1.0  -0.1401
  C  C100  1  0.325100  0.435800  0.419000  1.0  0.0031
  C  C101  1  0.319900  0.497700  0.400600  1.0  -0.055
  C  C102  1  0.269200  0.335900  0.476000  1.0  0.7047
  C  C103  1  0.253400  0.755700  0.227600  1.0  0.675
  C  C104  1  0.241200  0.775500  0.341900  1.0  -0.1098
  C  C105  1  0.301100  0.791800  0.403400  1.0  -0.0273
  C  C106  1  0.291800  0.808500  0.505900  1.0  -0.0242
  C  C107  1  0.221100  0.811600  0.547000  1.0  -0.2033
  C  C108  1  0.160300  0.795500  0.485200  1.0  -0.0122
  C  C109  1  0.170900  0.775400  0.383000  1.0  -0.0039
  C  C110  1  0.216000  0.920400  0.656600  1.0  -0.0788
  C  C111  1  0.284300  0.948100  0.668000  1.0  -0.0606
  C  C112  1  0.290900  0.010300  0.647100  1.0  0.0004
  C  C113  1  0.231100  0.043700  0.615000  1.0  -0.1174
  C  C114  1  0.162100  0.016100  0.606700  1.0  -0.0591
  C  C115  1  0.157300  0.952900  0.627500  1.0  -0.0633
  C  C116  1  0.237700  0.111800  0.588900  1.0  0.6864
  C  C117  1  0.506100  0.757400  0.998000  1.0  0.5175
  C  C118  1  0.530800  0.814700  0.129000  1.0  0.6122
  C  C119  1  0.719200  0.307400  0.341200  1.0  0.7057
  C  C120  1  0.726600  0.325300  0.228000  1.0  -0.1464
  C  C121  1  0.796100  0.339300  0.188800  1.0  -0.0158
  C  C122  1  0.804300  0.358700  0.084900  1.0  -0.0663
  C  C123  1  0.743600  0.364100  0.024300  1.0  -0.1303
  C  C124  1  0.674400  0.350100  0.058100  1.0  -0.071
  C  C125  1  0.665700  0.330300  0.163600  1.0  -0.0109
  C  C126  1  0.747600  0.475600  0.910400  1.0  -0.1184
  C  C127  1  0.809400  0.506400  0.938500  1.0  -0.0692
  C  C128  1  0.804700  0.568400  0.956800  1.0  0.009
  C  C129  1  0.737100  0.597900  0.949100  1.0  -0.1409
  C  C130  1  0.674900  0.564200  0.919000  1.0  0.0028
  C  C131  1  0.680100  0.502300  0.900600  1.0  -0.0543
  C  C132  1  0.730800  0.664100  0.976000  1.0  0.7043
  C  C133  1  0.746600  0.244300  0.727600  1.0  0.6741
  C  C134  1  0.758800  0.224500  0.841900  1.0  -0.1098
  C  C135  1  0.698900  0.208200  0.903400  1.0  -0.0262
  C  C136  1  0.708200  0.191500  0.005900  1.0  -0.0253
  C  C137  1  0.778900  0.188400  0.047000  1.0  -0.2027
  C  C138  1  0.839700  0.204500  0.985200  1.0  -0.0119
  C  C139  1  0.829100  0.224600  0.883000  1.0  -0.0012
  C  C140  1  0.784000  0.079600  0.156600  1.0  -0.0782
  C  C141  1  0.715700  0.051900  0.168000  1.0  -0.0598
  C  C142  1  0.709100  0.989700  0.147100  1.0  -0.0002
  C  C143  1  0.768900  0.956300  0.115000  1.0  -0.1182
  C  C144  1  0.837900  0.983900  0.106700  1.0  -0.0574
  C  C145  1  0.842700  0.047100  0.127500  1.0  -0.0633
  C  C146  1  0.762300  0.888200  0.088900  1.0  0.6869
  C  C147  1  0.493900  0.242600  0.498000  1.0  0.5175
  C  C148  1  0.469200  0.185300  0.629000  1.0  0.6114
  C  C149  1  0.780800  0.807400  0.841200  1.0  0.7058
  C  C150  1  0.773400  0.825300  0.728000  1.0  -0.1466
  C  C151  1  0.703900  0.839300  0.688800  1.0  -0.017
  C  C152  1  0.695700  0.858700  0.584900  1.0  -0.0661
  C  C153  1  0.756400  0.864100  0.524300  1.0  -0.1306
  C  C154  1  0.825600  0.850100  0.558100  1.0  -0.0727
  C  C155  1  0.834300  0.830300  0.663600  1.0  -0.0099
  C  C156  1  0.752400  0.975600  0.410400  1.0  -0.1183
  C  C157  1  0.690600  0.006400  0.438500  1.0  -0.068
  C  C158  1  0.695300  0.068400  0.456800  1.0  0.0076
  C  C159  1  0.762900  0.097900  0.449100  1.0  -0.1409
  C  C160  1  0.825100  0.064200  0.419000  1.0  0.0034
  C  C161  1  0.819900  0.002300  0.400600  1.0  -0.0556
  C  C162  1  0.769200  0.164100  0.476000  1.0  0.7049
  C  C163  1  0.753400  0.744300  0.227600  1.0  0.675
  C  C164  1  0.741200  0.724500  0.341900  1.0  -0.1094
  C  C165  1  0.801100  0.708200  0.403400  1.0  -0.0275
  C  C166  1  0.791800  0.691500  0.505900  1.0  -0.024
  C  C167  1  0.721100  0.688400  0.547000  1.0  -0.2029
  C  C168  1  0.660300  0.704500  0.485200  1.0  -0.0112
  C  C169  1  0.670900  0.724600  0.383000  1.0  -0.0023
  C  C170  1  0.716000  0.579600  0.656600  1.0  -0.0782
  C  C171  1  0.784300  0.551900  0.668000  1.0  -0.0603
  C  C172  1  0.790900  0.489700  0.647100  1.0  -0.0003
  C  C173  1  0.731100  0.456300  0.615000  1.0  -0.1181
  C  C174  1  0.662100  0.483900  0.606700  1.0  -0.0588
  C  C175  1  0.657300  0.547100  0.627500  1.0  -0.0633
  C  C176  1  0.737700  0.388200  0.588900  1.0  0.6865
  C  C177  1  0.006100  0.742600  0.998000  1.0  0.5175
  C  C178  1  0.030800  0.685300  0.129000  1.0  0.6122
  C  C179  1  0.219200  0.192600  0.341200  1.0  0.7044
  C  C180  1  0.226600  0.174700  0.228000  1.0  -0.1478
  C  C181  1  0.296100  0.160700  0.188800  1.0  -0.0164
  C  C182  1  0.304300  0.141300  0.084900  1.0  -0.0659
  C  C183  1  0.243600  0.135900  0.024300  1.0  -0.1312
  C  C184  1  0.174400  0.149900  0.058100  1.0  -0.0707
  C  C185  1  0.165700  0.169700  0.163600  1.0  -0.0102
  C  C186  1  0.247600  0.024400  0.910400  1.0  -0.1184
  C  C187  1  0.309400  0.993600  0.938500  1.0  -0.0678
  C  C188  1  0.304700  0.931600  0.956800  1.0  0.0085
  C  C189  1  0.237100  0.902100  0.949100  1.0  -0.1403
  C  C190  1  0.174900  0.935800  0.919000  1.0  0.0034
  C  C191  1  0.180100  0.997700  0.900600  1.0  -0.0543
  C  C192  1  0.230800  0.835900  0.976000  1.0  0.7041
  C  C193  1  0.246600  0.255700  0.727600  1.0  0.6745
  C  C194  1  0.258800  0.275500  0.841900  1.0  -0.1102
  C  C195  1  0.198900  0.291800  0.903400  1.0  -0.0269
  C  C196  1  0.208200  0.308500  0.005900  1.0  -0.0258
  C  C197  1  0.278900  0.311600  0.047000  1.0  -0.2034
  C  C198  1  0.339700  0.295500  0.985200  1.0  -0.0115
  C  C199  1  0.329100  0.275400  0.883000  1.0  -0.0022
  C  C200  1  0.284000  0.420400  0.156600  1.0  -0.0785
  C  C201  1  0.215700  0.448100  0.168000  1.0  -0.06
  C  C202  1  0.209100  0.510300  0.147100  1.0  -0.0002
  C  C203  1  0.268900  0.543700  0.115000  1.0  -0.1177
  C  C204  1  0.337900  0.516100  0.106700  1.0  -0.057
  C  C205  1  0.342700  0.452900  0.127500  1.0  -0.0637
  C  C206  1  0.262300  0.611800  0.088900  1.0  0.6868
  C  C207  1  0.993900  0.257400  0.498000  1.0  0.5175
  C  C208  1  0.969200  0.314700  0.629000  1.0  0.6112
  S  S209  1  0.245300  0.606350  0.393400  1.0  1.0662
  S  S210  1  0.208620  0.839970  0.676600  1.0  1.0755
  S  S211  1  0.754700  0.393650  0.893400  1.0  1.0665
  S  S212  1  0.791380  0.160030  0.176600  1.0  1.0745
  S  S213  1  0.745300  0.893650  0.393400  1.0  1.0661
  S  S214  1  0.708620  0.660030  0.676600  1.0  1.0751
  S  S215  1  0.254700  0.106350  0.893400  1.0  1.0666
  S  S216  1  0.291380  0.339970  0.176600  1.0  1.0749
  N  N217  1  0.443800  0.758100  0.052900  1.0  -0.3891
  N  N218  1  0.562900  0.790200  0.041800  1.0  -0.492
  N  N219  1  0.460400  0.798400  0.135700  1.0  -0.2697
  N  N220  1  0.514500  0.728100  0.904500  1.0  -0.7449
  N  N221  1  0.565300  0.851400  0.196900  1.0  -0.7284
  N  N222  1  0.556200  0.241900  0.552900  1.0  -0.3884
  N  N223  1  0.437100  0.209800  0.541800  1.0  -0.492
  N  N224  1  0.539600  0.201600  0.635700  1.0  -0.2708
  N  N225  1  0.485500  0.271900  0.404500  1.0  -0.7453
  N  N226  1  0.434700  0.148600  0.696900  1.0  -0.7295
  N  N227  1  0.943800  0.741900  0.052900  1.0  -0.3891
  N  N228  1  0.062900  0.709800  0.041800  1.0  -0.4924
  N  N229  1  0.960400  0.701600  0.135700  1.0  -0.2696
  N  N230  1  0.014500  0.771900  0.904500  1.0  -0.745
  N  N231  1  0.065300  0.648600  0.196900  1.0  -0.728
  N  N232  1  0.056200  0.258100  0.552900  1.0  -0.3882
  N  N233  1  0.937100  0.290200  0.541800  1.0  -0.4916
  N  N234  1  0.039600  0.298400  0.635700  1.0  -0.271
  N  N235  1  0.985500  0.228100  0.404500  1.0  -0.7453
  N  N236  1  0.934700  0.351400  0.696900  1.0  -0.7299
  O  O237  1  0.210600  0.309300  0.502800  1.0  -0.6629
  O  O238  1  0.178900  0.140900  0.574200  1.0  -0.6036
  O  O239  1  0.344900  0.704100  0.876800  1.0  -0.5712
  O  O240  1  0.319300  0.752000  0.193700  1.0  -0.571
  O  O241  1  0.222700  0.695000  0.893700  1.0  -0.6394
  O  O242  1  0.195200  0.746700  0.175100  1.0  -0.5968
  O  O243  1  0.331700  0.310500  0.472200  1.0  -0.5868
  O  O244  1  0.302600  0.132100  0.579600  1.0  -0.6235
  O  O245  1  0.171800  0.621200  0.359800  1.0  -0.5236
  O  O246  1  0.306200  0.626300  0.331300  1.0  -0.5601
  O  O247  1  0.133400  0.826500  0.708800  1.0  -0.5844
  O  O248  1  0.269400  0.819900  0.740300  1.0  -0.5508
  O  O249  1  0.789400  0.690700  0.002800  1.0  -0.6612
  O  O250  1  0.821100  0.859100  0.074200  1.0  -0.6038
  O  O251  1  0.655100  0.295900  0.376800  1.0  -0.5701
  O  O252  1  0.680700  0.248000  0.693700  1.0  -0.5727
  O  O253  1  0.777300  0.305000  0.393700  1.0  -0.6395
  O  O254  1  0.804800  0.253300  0.675100  1.0  -0.5962
  O  O255  1  0.668300  0.689500  0.972200  1.0  -0.5864
  O  O256  1  0.697400  0.867900  0.079600  1.0  -0.6229
  O  O257  1  0.828200  0.378800  0.859800  1.0  -0.5241
  O  O258  1  0.693800  0.373700  0.831300  1.0  -0.5603
  O  O259  1  0.866600  0.173500  0.208800  1.0  -0.5847
  O  O260  1  0.730600  0.180100  0.240300  1.0  -0.55
  O  O261  1  0.710600  0.190700  0.502800  1.0  -0.6626
  O  O262  1  0.678900  0.359100  0.574200  1.0  -0.6034
  O  O263  1  0.844900  0.795900  0.876800  1.0  -0.5717
  O  O264  1  0.819300  0.748000  0.193700  1.0  -0.5714
  O  O265  1  0.722700  0.805000  0.893700  1.0  -0.638
  O  O266  1  0.695200  0.753300  0.175100  1.0  -0.5969
  O  O267  1  0.831700  0.189500  0.472200  1.0  -0.5862
  O  O268  1  0.802600  0.367900  0.579600  1.0  -0.6234
  O  O269  1  0.671800  0.878800  0.359800  1.0  -0.5238
  O  O270  1  0.806200  0.873700  0.331300  1.0  -0.5614
  O  O271  1  0.633400  0.673500  0.708800  1.0  -0.5834
  O  O272  1  0.769400  0.680100  0.740300  1.0  -0.5506
  O  O273  1  0.289400  0.809300  0.002800  1.0  -0.6613
  O  O274  1  0.321100  0.640900  0.074200  1.0  -0.6032
  O  O275  1  0.155100  0.204100  0.376800  1.0  -0.57
  O  O276  1  0.180700  0.252000  0.693700  1.0  -0.5728
  O  O277  1  0.277300  0.195000  0.393700  1.0  -0.6417
  O  O278  1  0.304800  0.246700  0.675100  1.0  -0.5963
  O  O279  1  0.168300  0.810500  0.972200  1.0  -0.5868
  O  O280  1  0.197400  0.632100  0.079600  1.0  -0.6228
  O  O281  1  0.328200  0.121200  0.859800  1.0  -0.5241
  O  O282  1  0.193800  0.126300  0.831300  1.0  -0.5593
  O  O283  1  0.366600  0.326500  0.208800  1.0  -0.5854
  O  O284  1  0.230600  0.319900  0.240300  1.0  -0.5502
