# generated using pymatgen
data_Co2H20C30S2N5O12
_symmetry_space_group_name_H-M   'P 1'
_cell_length_a   17.96970000
_cell_length_b   21.84050000
_cell_length_c   12.66660000
_cell_angle_alpha   90.00000000
_cell_angle_beta   90.00000000
_cell_angle_gamma   90.00000000
_symmetry_Int_Tables_number   1
_chemical_formula_structural   Co2H20C30S2N5O12
_chemical_formula_sum   'Co8 H80 C120 S8 N20 O48'
_cell_volume   4971.22545162
_cell_formula_units_Z   4
loop_
 _symmetry_equiv_pos_site_id
 _symmetry_equiv_pos_as_xyz
  1  'x, y, z'
loop_
 _atom_site_type_symbol
 _atom_site_label
 _atom_site_symmetry_multiplicity
 _atom_site_fract_x
 _atom_site_fract_y
 _atom_site_fract_z
 _atom_site_occupancy
 _atom_site_charge
  Co  Co1  1  0.337300  0.729670  0.034280  1.0  0.9733
  Co  Co2  1  0.174180  0.721650  0.026270  1.0  0.9325
  Co  Co3  1  0.662700  0.270330  0.534280  1.0  0.9741
  Co  Co4  1  0.825820  0.278350  0.526270  1.0  0.9308
  Co  Co5  1  0.837300  0.770330  0.034280  1.0  0.9733
  Co  Co6  1  0.674180  0.778350  0.026270  1.0  0.9329
  Co  Co7  1  0.162700  0.229670  0.534280  1.0  0.9742
  Co  Co8  1  0.325820  0.221650  0.526270  1.0  0.9314
  H  H9  1  0.162700  0.676700  0.720800  1.0  0.1124
  H  H10  1  0.150800  0.643700  0.548800  1.0  0.1228
  H  H11  1  0.373700  0.631600  0.526400  1.0  0.1236
  H  H12  1  0.384000  0.666000  0.698900  1.0  0.1167
  H  H13  1  0.147600  0.513600  0.442800  1.0  0.1314
  H  H14  1  0.156200  0.408500  0.471800  1.0  0.1119
  H  H15  1  0.376500  0.415600  0.419500  1.0  0.1161
  H  H16  1  0.368000  0.520400  0.388200  1.0  0.1261
  H  H17  1  0.346900  0.776400  0.381200  1.0  0.1183
  H  H18  1  0.328400  0.803200  0.557800  1.0  0.116
  H  H19  1  0.109100  0.810900  0.509400  1.0  0.1231
  H  H20  1  0.126600  0.779800  0.335800  1.0  0.1156
  H  H21  1  0.325400  0.925900  0.686200  1.0  0.1202
  H  H22  1  0.336300  0.029700  0.649700  1.0  0.1111
  H  H23  1  0.117400  0.038300  0.592800  1.0  0.1175
  H  H24  1  0.106300  0.934600  0.626400  1.0  0.1244
  H  H25  1  0.562000  0.719000  0.886000  1.0  0.2068
  H  H26  1  0.474000  0.711000  0.896000  1.0  0.3422
  H  H27  1  0.549000  0.862000  0.265000  1.0  0.3267
  H  H28  1  0.611600  0.857000  0.199000  1.0  0.3463
  H  H29  1  0.837300  0.323300  0.220800  1.0  0.1131
  H  H30  1  0.849200  0.356300  0.048800  1.0  0.124
  H  H31  1  0.626300  0.368400  0.026400  1.0  0.1232
  H  H32  1  0.616000  0.334000  0.198900  1.0  0.1163
  H  H33  1  0.852400  0.486400  0.942800  1.0  0.132
  H  H34  1  0.843800  0.591500  0.971800  1.0  0.112
  H  H35  1  0.623500  0.584400  0.919500  1.0  0.1156
  H  H36  1  0.632000  0.479600  0.888200  1.0  0.1254
  H  H37  1  0.653100  0.223600  0.881200  1.0  0.1178
  H  H38  1  0.671600  0.196800  0.057800  1.0  0.1163
  H  H39  1  0.890900  0.189100  0.009400  1.0  0.124
  H  H40  1  0.873400  0.220200  0.835800  1.0  0.1159
  H  H41  1  0.674600  0.074100  0.186200  1.0  0.1197
  H  H42  1  0.663700  0.970300  0.149700  1.0  0.1103
  H  H43  1  0.882600  0.961700  0.092800  1.0  0.1172
  H  H44  1  0.893700  0.065400  0.126400  1.0  0.1244
  H  H45  1  0.438000  0.281000  0.386000  1.0  0.2064
  H  H46  1  0.526000  0.289000  0.396000  1.0  0.3412
  H  H47  1  0.451000  0.138000  0.765000  1.0  0.3263
  H  H48  1  0.388400  0.143000  0.699000  1.0  0.3466
  H  H49  1  0.662700  0.823300  0.720800  1.0  0.1124
  H  H50  1  0.650800  0.856300  0.548800  1.0  0.1228
  H  H51  1  0.873700  0.868400  0.526400  1.0  0.1238
  H  H52  1  0.884000  0.834000  0.698900  1.0  0.1165
  H  H53  1  0.647600  0.986400  0.442800  1.0  0.1317
  H  H54  1  0.656200  0.091500  0.471800  1.0  0.1118
  H  H55  1  0.876500  0.084400  0.419500  1.0  0.1152
  H  H56  1  0.868000  0.979600  0.388200  1.0  0.1262
  H  H57  1  0.846900  0.723600  0.381200  1.0  0.1182
  H  H58  1  0.828400  0.696800  0.557800  1.0  0.1164
  H  H59  1  0.609100  0.689100  0.509400  1.0  0.1231
  H  H60  1  0.626600  0.720200  0.335800  1.0  0.1154
  H  H61  1  0.825400  0.574100  0.686200  1.0  0.1204
  H  H62  1  0.836300  0.470300  0.649700  1.0  0.1119
  H  H63  1  0.617400  0.461700  0.592800  1.0  0.1171
  H  H64  1  0.606300  0.565400  0.626400  1.0  0.1245
  H  H65  1  0.062000  0.781000  0.886000  1.0  0.2065
  H  H66  1  0.974000  0.789000  0.896000  1.0  0.3422
  H  H67  1  0.049000  0.638000  0.265000  1.0  0.3265
  H  H68  1  0.111600  0.643000  0.199000  1.0  0.3471
  H  H69  1  0.337300  0.176700  0.220800  1.0  0.113
  H  H70  1  0.349200  0.143700  0.048800  1.0  0.1241
  H  H71  1  0.126300  0.131600  0.026400  1.0  0.123
  H  H72  1  0.116000  0.166000  0.198900  1.0  0.1164
  H  H73  1  0.352400  0.013600  0.942800  1.0  0.1319
  H  H74  1  0.343800  0.908500  0.971800  1.0  0.1119
  H  H75  1  0.123500  0.915600  0.919500  1.0  0.1168
  H  H76  1  0.132000  0.020400  0.888200  1.0  0.1253
  H  H77  1  0.153100  0.276400  0.881200  1.0  0.1181
  H  H78  1  0.171600  0.303200  0.057800  1.0  0.1159
  H  H79  1  0.390900  0.310900  0.009400  1.0  0.1241
  H  H80  1  0.373400  0.279800  0.835800  1.0  0.116
  H  H81  1  0.174600  0.425900  0.186200  1.0  0.1196
  H  H82  1  0.163700  0.529700  0.149700  1.0  0.1104
  H  H83  1  0.382600  0.538300  0.092800  1.0  0.1176
  H  H84  1  0.393700  0.434600  0.126400  1.0  0.1243
  H  H85  1  0.938000  0.219000  0.386000  1.0  0.2069
  H  H86  1  0.026000  0.211000  0.396000  1.0  0.3414
  H  H87  1  0.951000  0.362000  0.765000  1.0  0.3276
  H  H88  1  0.888400  0.357000  0.699000  1.0  0.3467
  C  C89  1  0.281100  0.693100  0.840900  1.0  0.703
  C  C90  1  0.274400  0.673000  0.727500  1.0  -0.1453
  C  C91  1  0.205000  0.667300  0.681700  1.0  -0.0084
  C  C92  1  0.197600  0.647900  0.579100  1.0  -0.0463
  C  C93  1  0.260700  0.634800  0.521600  1.0  -0.2068
  C  C94  1  0.331400  0.640800  0.565600  1.0  -0.0405
  C  C95  1  0.337300  0.660800  0.668700  1.0  -0.0286
  C  C96  1  0.257200  0.525100  0.411500  1.0  -0.1871
  C  C97  1  0.193100  0.493600  0.437600  1.0  -0.043
  C  C98  1  0.198700  0.431000  0.455800  1.0  -0.0118
  C  C99  1  0.266400  0.402100  0.450500  1.0  -0.1363
  C  C100  1  0.330700  0.435400  0.424100  1.0  -0.0061
  C  C101  1  0.325800  0.497700  0.405000  1.0  -0.0301
  C  C102  1  0.272500  0.335400  0.476000  1.0  0.6976
  C  C103  1  0.250000  0.757300  0.227300  1.0  0.6848
  C  C104  1  0.238500  0.775600  0.341500  1.0  -0.122
  C  C105  1  0.299000  0.782800  0.406900  1.0  -0.0085
  C  C106  1  0.288000  0.799900  0.512200  1.0  -0.0454
  C  C107  1  0.218600  0.811500  0.547200  1.0  -0.1433
  C  C108  1  0.156800  0.803900  0.483400  1.0  -0.0266
  C  C109  1  0.167400  0.785500  0.379800  1.0  -0.0093
  C  C110  1  0.215100  0.920300  0.658200  1.0  -0.162
  C  C111  1  0.283800  0.948400  0.666400  1.0  -0.0163
  C  C112  1  0.290100  0.010500  0.645000  1.0  0.0054
  C  C113  1  0.227700  0.044100  0.616600  1.0  -0.1218
  C  C114  1  0.159400  0.015600  0.610700  1.0  -0.0246
  C  C115  1  0.152500  0.953700  0.631000  1.0  -0.0351
  C  C116  1  0.234500  0.111400  0.588900  1.0  0.7098
  C  C117  1  0.505800  0.759200  0.997900  1.0  0.4783
  C  C118  1  0.530600  0.816200  0.130000  1.0  0.5529
  C  C119  1  0.718900  0.306900  0.340900  1.0  0.7038
  C  C120  1  0.725600  0.327000  0.227500  1.0  -0.1451
  C  C121  1  0.795000  0.332700  0.181700  1.0  -0.009
  C  C122  1  0.802400  0.352100  0.079100  1.0  -0.0498
  C  C123  1  0.739300  0.365200  0.021600  1.0  -0.2067
  C  C124  1  0.668600  0.359200  0.065600  1.0  -0.0419
  C  C125  1  0.662700  0.339200  0.168700  1.0  -0.0297
  C  C126  1  0.742800  0.474900  0.911500  1.0  -0.1871
  C  C127  1  0.806900  0.506400  0.937600  1.0  -0.0463
  C  C128  1  0.801300  0.569000  0.955800  1.0  -0.0093
  C  C129  1  0.733600  0.597900  0.950500  1.0  -0.1394
  C  C130  1  0.669300  0.564600  0.924100  1.0  -0.0083
  C  C131  1  0.674200  0.502300  0.905000  1.0  -0.0301
  C  C132  1  0.727500  0.664600  0.976000  1.0  0.6971
  C  C133  1  0.750000  0.242700  0.727300  1.0  0.6841
  C  C134  1  0.761500  0.224400  0.841500  1.0  -0.122
  C  C135  1  0.701000  0.217200  0.906900  1.0  -0.0096
  C  C136  1  0.712000  0.200100  0.012200  1.0  -0.0404
  C  C137  1  0.781400  0.188500  0.047200  1.0  -0.1444
  C  C138  1  0.843200  0.196100  0.983400  1.0  -0.0297
  C  C139  1  0.832600  0.214500  0.879800  1.0  -0.0067
  C  C140  1  0.784900  0.079700  0.158200  1.0  -0.162
  C  C141  1  0.716200  0.051600  0.166400  1.0  -0.0208
  C  C142  1  0.709900  0.989500  0.145000  1.0  0.0037
  C  C143  1  0.772300  0.955900  0.116600  1.0  -0.1219
  C  C144  1  0.840600  0.984400  0.110700  1.0  -0.0228
  C  C145  1  0.847500  0.046300  0.131000  1.0  -0.0333
  C  C146  1  0.765500  0.888600  0.088900  1.0  0.7093
  C  C147  1  0.494200  0.240800  0.497900  1.0  0.4765
  C  C148  1  0.469400  0.183800  0.630000  1.0  0.552
  C  C149  1  0.781100  0.806900  0.840900  1.0  0.7032
  C  C150  1  0.774400  0.827000  0.727500  1.0  -0.145
  C  C151  1  0.705000  0.832700  0.681700  1.0  -0.0099
  C  C152  1  0.697600  0.852100  0.579100  1.0  -0.0475
  C  C153  1  0.760700  0.865200  0.521600  1.0  -0.2064
  C  C154  1  0.831400  0.859200  0.565600  1.0  -0.0404
  C  C155  1  0.837300  0.839200  0.668700  1.0  -0.0307
  C  C156  1  0.757200  0.974900  0.411500  1.0  -0.1873
  C  C157  1  0.693100  0.006400  0.437600  1.0  -0.044
  C  C158  1  0.698700  0.069000  0.455800  1.0  -0.012
  C  C159  1  0.766400  0.097900  0.450500  1.0  -0.1367
  C  C160  1  0.830700  0.064600  0.424100  1.0  -0.0053
  C  C161  1  0.825800  0.002300  0.405000  1.0  -0.0314
  C  C162  1  0.772500  0.164600  0.476000  1.0  0.6983
  C  C163  1  0.750000  0.742700  0.227300  1.0  0.6849
  C  C164  1  0.738500  0.724400  0.341500  1.0  -0.1215
  C  C165  1  0.799000  0.717200  0.406900  1.0  -0.0087
  C  C166  1  0.788000  0.700100  0.512200  1.0  -0.0484
  C  C167  1  0.718600  0.688500  0.547200  1.0  -0.1437
  C  C168  1  0.656800  0.696100  0.483400  1.0  -0.0269
  C  C169  1  0.667400  0.714500  0.379800  1.0  -0.0084
  C  C170  1  0.715100  0.579700  0.658200  1.0  -0.1617
  C  C171  1  0.783800  0.551600  0.666400  1.0  -0.0166
  C  C172  1  0.790100  0.489500  0.645000  1.0  0.0051
  C  C173  1  0.727700  0.455900  0.616600  1.0  -0.1231
  C  C174  1  0.659400  0.484400  0.610700  1.0  -0.0241
  C  C175  1  0.652500  0.546300  0.631000  1.0  -0.0355
  C  C176  1  0.734500  0.388600  0.588900  1.0  0.7094
  C  C177  1  0.005800  0.740800  0.997900  1.0  0.4784
  C  C178  1  0.030600  0.683800  0.130000  1.0  0.555
  C  C179  1  0.218900  0.193100  0.340900  1.0  0.7035
  C  C180  1  0.225600  0.173000  0.227500  1.0  -0.1456
  C  C181  1  0.295000  0.167300  0.181700  1.0  -0.0085
  C  C182  1  0.302400  0.147900  0.079100  1.0  -0.049
  C  C183  1  0.239300  0.134800  0.021600  1.0  -0.207
  C  C184  1  0.168600  0.140800  0.065600  1.0  -0.0384
  C  C185  1  0.162700  0.160800  0.168700  1.0  -0.0338
  C  C186  1  0.242800  0.025100  0.911500  1.0  -0.1869
  C  C187  1  0.306900  0.993600  0.937600  1.0  -0.0457
  C  C188  1  0.301300  0.931000  0.955800  1.0  -0.0102
  C  C189  1  0.233600  0.902100  0.950500  1.0  -0.1384
  C  C190  1  0.169300  0.935400  0.924100  1.0  -0.0083
  C  C191  1  0.174200  0.997700  0.905000  1.0  -0.0302
  C  C192  1  0.227500  0.835400  0.976000  1.0  0.6977
  C  C193  1  0.250000  0.257300  0.727300  1.0  0.6843
  C  C194  1  0.261500  0.275600  0.841500  1.0  -0.1224
  C  C195  1  0.201000  0.282800  0.906900  1.0  -0.0112
  C  C196  1  0.212000  0.299900  0.012200  1.0  -0.0453
  C  C197  1  0.281400  0.311500  0.047200  1.0  -0.1445
  C  C198  1  0.343200  0.303900  0.983400  1.0  -0.0298
  C  C199  1  0.332600  0.285500  0.879800  1.0  -0.007
  C  C200  1  0.284900  0.420300  0.158200  1.0  -0.1622
  C  C201  1  0.216200  0.448400  0.166400  1.0  -0.0173
  C  C202  1  0.209900  0.510500  0.145000  1.0  0.0028
  C  C203  1  0.272300  0.544100  0.116600  1.0  -0.1211
  C  C204  1  0.340600  0.515600  0.110700  1.0  -0.022
  C  C205  1  0.347500  0.453700  0.131000  1.0  -0.0335
  C  C206  1  0.265500  0.611400  0.088900  1.0  0.7097
  C  C207  1  0.994200  0.259200  0.497900  1.0  0.4765
  C  C208  1  0.969400  0.316200  0.630000  1.0  0.5349
  S  S209  1  0.250650  0.605700  0.391880  1.0  1.1281
  S  S210  1  0.207250  0.840570  0.677290  1.0  1.1014
  S  S211  1  0.749350  0.394300  0.891880  1.0  1.1298
  S  S212  1  0.792750  0.159430  0.177290  1.0  1.1005
  S  S213  1  0.750650  0.894300  0.391880  1.0  1.1282
  S  S214  1  0.707250  0.659430  0.677290  1.0  1.1018
  S  S215  1  0.249350  0.105700  0.891880  1.0  1.1298
  S  S216  1  0.292750  0.340570  0.177290  1.0  1.1011
  N  N217  1  0.443000  0.760300  0.052600  1.0  -0.4067
  N  N218  1  0.561600  0.792000  0.041500  1.0  -0.4811
  N  N219  1  0.459800  0.799500  0.137600  1.0  -0.2567
  N  N220  1  0.513000  0.731100  0.902700  1.0  -0.6216
  N  N221  1  0.564500  0.852900  0.198000  1.0  -0.6568
  N  N222  1  0.557000  0.239700  0.552600  1.0  -0.3986
  N  N223  1  0.438400  0.208000  0.541500  1.0  -0.4837
  N  N224  1  0.540200  0.200500  0.637600  1.0  -0.2595
  N  N225  1  0.487000  0.268900  0.402700  1.0  -0.6218
  N  N226  1  0.435500  0.147100  0.698000  1.0  -0.6578
  N  N227  1  0.943000  0.739700  0.052600  1.0  -0.3999
  N  N228  1  0.061600  0.708000  0.041500  1.0  -0.4818
  N  N229  1  0.959800  0.700500  0.137600  1.0  -0.2587
  N  N230  1  0.013000  0.768900  0.902700  1.0  -0.6211
  N  N231  1  0.064500  0.647100  0.198000  1.0  -0.6562
  N  N232  1  0.057000  0.260300  0.552600  1.0  -0.3983
  N  N233  1  0.938400  0.292000  0.541500  1.0  -0.4832
  N  N234  1  0.040200  0.299500  0.637600  1.0  -0.2543
  N  N235  1  0.987000  0.231100  0.402700  1.0  -0.622
  N  N236  1  0.935500  0.352900  0.698000  1.0  -0.659
  O  O237  1  0.213400  0.309100  0.500900  1.0  -0.6423
  O  O238  1  0.175000  0.140400  0.572000  1.0  -0.604
  O  O239  1  0.344500  0.704100  0.877900  1.0  -0.5618
  O  O240  1  0.315800  0.752400  0.194700  1.0  -0.5741
  O  O241  1  0.220900  0.694800  0.892200  1.0  -0.6471
  O  O242  1  0.191600  0.749200  0.174300  1.0  -0.5979
  O  O243  1  0.335900  0.310000  0.473400  1.0  -0.5795
  O  O244  1  0.298200  0.133100  0.583000  1.0  -0.5763
  O  O245  1  0.177300  0.620200  0.355600  1.0  -0.57
  O  O246  1  0.313300  0.624900  0.331100  1.0  -0.566
  O  O247  1  0.131800  0.827100  0.711000  1.0  -0.5928
  O  O248  1  0.268500  0.820600  0.740600  1.0  -0.5452
  O  O249  1  0.786600  0.690900  0.000900  1.0  -0.6416
  O  O250  1  0.825000  0.859600  0.072000  1.0  -0.6029
  O  O251  1  0.655500  0.295900  0.377900  1.0  -0.5638
  O  O252  1  0.684200  0.247600  0.694700  1.0  -0.574
  O  O253  1  0.779100  0.305200  0.392200  1.0  -0.6458
  O  O254  1  0.808400  0.250800  0.674300  1.0  -0.5979
  O  O255  1  0.664100  0.690000  0.973400  1.0  -0.5795
  O  O256  1  0.701800  0.866900  0.083000  1.0  -0.576
  O  O257  1  0.822700  0.379800  0.855600  1.0  -0.5712
  O  O258  1  0.686700  0.375100  0.831100  1.0  -0.5667
  O  O259  1  0.868200  0.172900  0.211000  1.0  -0.5937
  O  O260  1  0.731500  0.179400  0.240600  1.0  -0.5447
  O  O261  1  0.713400  0.190900  0.500900  1.0  -0.6419
  O  O262  1  0.675000  0.359600  0.572000  1.0  -0.6038
  O  O263  1  0.844500  0.795900  0.877900  1.0  -0.5627
  O  O264  1  0.815800  0.747600  0.194700  1.0  -0.5737
  O  O265  1  0.720900  0.805200  0.892200  1.0  -0.6459
  O  O266  1  0.691600  0.750800  0.174300  1.0  -0.598
  O  O267  1  0.835900  0.190000  0.473400  1.0  -0.5792
  O  O268  1  0.798200  0.366900  0.583000  1.0  -0.5768
  O  O269  1  0.677300  0.879800  0.355600  1.0  -0.5704
  O  O270  1  0.813300  0.875100  0.331100  1.0  -0.5668
  O  O271  1  0.631800  0.672900  0.711000  1.0  -0.5921
  O  O272  1  0.768500  0.679400  0.740600  1.0  -0.5452
  O  O273  1  0.286600  0.809100  0.000900  1.0  -0.6413
  O  O274  1  0.325000  0.640400  0.072000  1.0  -0.6026
  O  O275  1  0.155500  0.204100  0.377900  1.0  -0.5637
  O  O276  1  0.184200  0.252400  0.694700  1.0  -0.5744
  O  O277  1  0.279100  0.194800  0.392200  1.0  -0.6468
  O  O278  1  0.308400  0.249200  0.674300  1.0  -0.5978
  O  O279  1  0.164100  0.810000  0.973400  1.0  -0.5798
  O  O280  1  0.201800  0.633100  0.083000  1.0  -0.5762
  O  O281  1  0.322700  0.120200  0.855600  1.0  -0.5703
  O  O282  1  0.186700  0.124900  0.831100  1.0  -0.5659
  O  O283  1  0.368200  0.327100  0.211000  1.0  -0.5943
  O  O284  1  0.231500  0.320600  0.240600  1.0  -0.5449
