# generated using pymatgen
data_Co2H20C30S2N5O12
_symmetry_space_group_name_H-M   'P 1'
_cell_length_a   17.95980000
_cell_length_b   21.83860000
_cell_length_c   12.66610000
_cell_angle_alpha   90.00000000
_cell_angle_beta   90.00000000
_cell_angle_gamma   90.00000000
_symmetry_Int_Tables_number   1
_chemical_formula_structural   Co2H20C30S2N5O12
_chemical_formula_sum   'Co8 H80 C120 S8 N20 O48'
_cell_volume   4967.85832864
_cell_formula_units_Z   4
loop_
 _symmetry_equiv_pos_site_id
 _symmetry_equiv_pos_as_xyz
  1  'x, y, z'
loop_
 _atom_site_type_symbol
 _atom_site_label
 _atom_site_symmetry_multiplicity
 _atom_site_fract_x
 _atom_site_fract_y
 _atom_site_fract_z
 _atom_site_occupancy
 _atom_site_charge
  Co  Co1  1  0.337970  0.728530  0.034320  1.0  0.9834
  Co  Co2  1  0.174650  0.720060  0.025740  1.0  0.9282
  Co  Co3  1  0.662030  0.271470  0.534320  1.0  0.9851
  Co  Co4  1  0.825350  0.279940  0.525740  1.0  0.927
  Co  Co5  1  0.837970  0.771470  0.034320  1.0  0.9833
  Co  Co6  1  0.674650  0.779940  0.025740  1.0  0.9284
  Co  Co7  1  0.162030  0.228530  0.534320  1.0  0.9852
  Co  Co8  1  0.325350  0.220060  0.525740  1.0  0.9279
  H  H9  1  0.475700  0.712000  0.876300  1.0  0.3695
  H  H10  1  0.554800  0.732300  0.870500  1.0  0.3661
  H  H11  1  0.541600  0.868600  0.251100  1.0  0.3797
  H  H12  1  0.611100  0.863400  0.187600  1.0  0.3621
  H  H13  1  0.163500  0.676900  0.721200  1.0  0.1169
  H  H14  1  0.385500  0.663500  0.698300  1.0  0.1168
  H  H15  1  0.346300  0.771200  0.383300  1.0  0.1152
  H  H16  1  0.126300  0.780200  0.334400  1.0  0.1205
  H  H17  1  0.151200  0.642600  0.549300  1.0  0.1242
  H  H18  1  0.374700  0.630200  0.526800  1.0  0.131
  H  H19  1  0.328900  0.800100  0.558500  1.0  0.1221
  H  H20  1  0.108900  0.810000  0.509900  1.0  0.123
  H  H21  1  0.147600  0.513000  0.442300  1.0  0.1338
  H  H22  1  0.368100  0.518200  0.385900  1.0  0.1252
  H  H23  1  0.324900  0.924400  0.687700  1.0  0.1236
  H  H24  1  0.106100  0.933500  0.623100  1.0  0.1295
  H  H25  1  0.156800  0.407800  0.473100  1.0  0.1157
  H  H26  1  0.376500  0.414200  0.420800  1.0  0.1176
  H  H27  1  0.335200  0.028700  0.654400  1.0  0.1116
  H  H28  1  0.116800  0.035900  0.590000  1.0  0.1149
  H  H29  1  0.524300  0.288000  0.376300  1.0  0.3706
  H  H30  1  0.445200  0.267700  0.370500  1.0  0.3667
  H  H31  1  0.458400  0.131400  0.751100  1.0  0.3798
  H  H32  1  0.388900  0.136600  0.687600  1.0  0.3624
  H  H33  1  0.836500  0.323100  0.221200  1.0  0.1171
  H  H34  1  0.614500  0.336500  0.198300  1.0  0.1171
  H  H35  1  0.653700  0.228800  0.883300  1.0  0.1147
  H  H36  1  0.873700  0.219800  0.834400  1.0  0.1205
  H  H37  1  0.848800  0.357400  0.049300  1.0  0.1255
  H  H38  1  0.625300  0.369800  0.026800  1.0  0.1311
  H  H39  1  0.671100  0.199900  0.058500  1.0  0.1222
  H  H40  1  0.891100  0.190000  0.009900  1.0  0.1235
  H  H41  1  0.852400  0.487000  0.942300  1.0  0.1347
  H  H42  1  0.631900  0.481800  0.885900  1.0  0.1245
  H  H43  1  0.675100  0.075600  0.187700  1.0  0.1234
  H  H44  1  0.893900  0.066500  0.123100  1.0  0.1295
  H  H45  1  0.843200  0.592200  0.973100  1.0  0.1155
  H  H46  1  0.623500  0.585800  0.920800  1.0  0.1177
  H  H47  1  0.664800  0.971300  0.154400  1.0  0.1115
  H  H48  1  0.883200  0.964100  0.090000  1.0  0.1143
  H  H49  1  0.975700  0.788000  0.876300  1.0  0.3702
  H  H50  1  0.054800  0.767700  0.870500  1.0  0.3647
  H  H51  1  0.041600  0.631400  0.251100  1.0  0.3801
  H  H52  1  0.111100  0.636600  0.187600  1.0  0.3613
  H  H53  1  0.663500  0.823100  0.721200  1.0  0.1168
  H  H54  1  0.885500  0.836500  0.698300  1.0  0.1177
  H  H55  1  0.846300  0.728800  0.383300  1.0  0.1151
  H  H56  1  0.626300  0.719800  0.334400  1.0  0.1205
  H  H57  1  0.651200  0.857400  0.549300  1.0  0.124
  H  H58  1  0.874700  0.869800  0.526800  1.0  0.1313
  H  H59  1  0.828900  0.699900  0.558500  1.0  0.1224
  H  H60  1  0.608900  0.690000  0.509900  1.0  0.123
  H  H61  1  0.647600  0.987000  0.442300  1.0  0.1343
  H  H62  1  0.868100  0.981800  0.385900  1.0  0.1252
  H  H63  1  0.824900  0.575600  0.687700  1.0  0.1237
  H  H64  1  0.606100  0.566500  0.623100  1.0  0.1294
  H  H65  1  0.656800  0.092200  0.473100  1.0  0.1154
  H  H66  1  0.876500  0.085800  0.420800  1.0  0.1176
  H  H67  1  0.835200  0.471300  0.654400  1.0  0.1115
  H  H68  1  0.616800  0.464100  0.590000  1.0  0.1144
  H  H69  1  0.024300  0.212000  0.376300  1.0  0.3705
  H  H70  1  0.945200  0.232300  0.370500  1.0  0.3674
  H  H71  1  0.958400  0.368600  0.751100  1.0  0.3794
  H  H72  1  0.888900  0.363400  0.687600  1.0  0.3627
  H  H73  1  0.336500  0.176900  0.221200  1.0  0.117
  H  H74  1  0.114500  0.163500  0.198300  1.0  0.1152
  H  H75  1  0.153700  0.271200  0.883300  1.0  0.1149
  H  H76  1  0.373700  0.280200  0.834400  1.0  0.1204
  H  H77  1  0.348800  0.142600  0.049300  1.0  0.1258
  H  H78  1  0.125300  0.130200  0.026800  1.0  0.1308
  H  H79  1  0.171100  0.300100  0.058500  1.0  0.1221
  H  H80  1  0.391100  0.310000  0.009900  1.0  0.1235
  H  H81  1  0.352400  0.013000  0.942300  1.0  0.1344
  H  H82  1  0.131900  0.018200  0.885900  1.0  0.1245
  H  H83  1  0.175100  0.424400  0.187700  1.0  0.1234
  H  H84  1  0.393900  0.433500  0.123100  1.0  0.1294
  H  H85  1  0.343200  0.907800  0.973100  1.0  0.1154
  H  H86  1  0.123500  0.914200  0.920800  1.0  0.1179
  H  H87  1  0.164800  0.528700  0.154400  1.0  0.1113
  H  H88  1  0.383200  0.535900  0.090000  1.0  0.1149
  C  C89  1  0.505600  0.759500  0.997700  1.0  0.5082
  C  C90  1  0.281400  0.691900  0.840000  1.0  0.7074
  C  C91  1  0.251200  0.755500  0.227100  1.0  0.6798
  C  C92  1  0.530700  0.816900  0.130800  1.0  0.5953
  C  C93  1  0.275600  0.671900  0.727300  1.0  -0.1513
  C  C94  1  0.238500  0.773800  0.341900  1.0  -0.1122
  C  C95  1  0.205500  0.666900  0.682100  1.0  -0.0229
  C  C96  1  0.338600  0.659000  0.668100  1.0  -0.0226
  C  C97  1  0.298600  0.779300  0.408300  1.0  -0.0084
  C  C98  1  0.167100  0.784800  0.379000  1.0  -0.0039
  C  C99  1  0.198100  0.647100  0.579500  1.0  -0.0302
  C  C100  1  0.332600  0.639600  0.566300  1.0  -0.0639
  C  C101  1  0.288400  0.797000  0.513100  1.0  -0.0193
  C  C102  1  0.156600  0.802900  0.483900  1.0  -0.039
  C  C103  1  0.261100  0.634100  0.522600  1.0  -0.2044
  C  C104  1  0.218100  0.809900  0.548100  1.0  -0.1829
  C  C105  1  0.257300  0.524500  0.412000  1.0  -0.1992
  C  C106  1  0.214400  0.919100  0.658300  1.0  -0.1777
  C  C107  1  0.193300  0.493100  0.437700  1.0  -0.0633
  C  C108  1  0.325900  0.496000  0.404300  1.0  -0.0227
  C  C109  1  0.283300  0.947000  0.667900  1.0  -0.0218
  C  C110  1  0.152200  0.952600  0.629000  1.0  -0.0467
  C  C111  1  0.199200  0.430200  0.456400  1.0  -0.0115
  C  C112  1  0.330700  0.433900  0.424600  1.0  -0.0146
  C  C113  1  0.289300  0.009400  0.647400  1.0  0.0133
  C  C114  1  0.158800  0.013600  0.609000  1.0  -0.0189
  C  C115  1  0.267200  0.401000  0.450700  1.0  -0.1457
  C  C116  1  0.227000  0.043200  0.616300  1.0  -0.1166
  C  C117  1  0.271900  0.335000  0.475800  1.0  0.7021
  C  C118  1  0.234100  0.109500  0.588300  1.0  0.6948
  C  C119  1  0.494400  0.240500  0.497700  1.0  0.5062
  C  C120  1  0.718600  0.308100  0.340000  1.0  0.7082
  C  C121  1  0.748800  0.244500  0.727100  1.0  0.6797
  C  C122  1  0.469300  0.183100  0.630800  1.0  0.5947
  C  C123  1  0.724400  0.328100  0.227300  1.0  -0.1517
  C  C124  1  0.761500  0.226200  0.841900  1.0  -0.1127
  C  C125  1  0.794500  0.333100  0.182100  1.0  -0.024
  C  C126  1  0.661400  0.341000  0.168100  1.0  -0.0283
  C  C127  1  0.701400  0.220700  0.908300  1.0  -0.0081
  C  C128  1  0.832900  0.215200  0.879000  1.0  -0.0018
  C  C129  1  0.801900  0.352900  0.079500  1.0  -0.0323
  C  C130  1  0.667400  0.360400  0.066300  1.0  -0.064
  C  C131  1  0.711600  0.203000  0.013100  1.0  -0.0196
  C  C132  1  0.843400  0.197100  0.983900  1.0  -0.0416
  C  C133  1  0.738900  0.365900  0.022600  1.0  -0.2031
  C  C134  1  0.781900  0.190100  0.048100  1.0  -0.1832
  C  C135  1  0.742700  0.475500  0.912000  1.0  -0.1996
  C  C136  1  0.785600  0.080900  0.158300  1.0  -0.1775
  C  C137  1  0.806700  0.506900  0.937700  1.0  -0.0651
  C  C138  1  0.674100  0.504000  0.904300  1.0  -0.0242
  C  C139  1  0.716700  0.053000  0.167900  1.0  -0.025
  C  C140  1  0.847800  0.047400  0.129000  1.0  -0.0457
  C  C141  1  0.800800  0.569800  0.956400  1.0  -0.0103
  C  C142  1  0.669300  0.566100  0.924600  1.0  -0.0168
  C  C143  1  0.710700  0.990600  0.147400  1.0  0.0114
  C  C144  1  0.841200  0.986400  0.109000  1.0  -0.0167
  C  C145  1  0.732800  0.599000  0.950700  1.0  -0.1457
  C  C146  1  0.773000  0.956800  0.116300  1.0  -0.1188
  C  C147  1  0.728100  0.665000  0.975800  1.0  0.7017
  C  C148  1  0.765900  0.890500  0.088300  1.0  0.6946
  C  C149  1  0.005600  0.740500  0.997700  1.0  0.5082
  C  C150  1  0.781400  0.808100  0.840000  1.0  0.7078
  C  C151  1  0.751200  0.744500  0.227100  1.0  0.6798
  C  C152  1  0.030700  0.683100  0.130800  1.0  0.5994
  C  C153  1  0.775600  0.828100  0.727300  1.0  -0.1507
  C  C154  1  0.738500  0.726200  0.341900  1.0  -0.1124
  C  C155  1  0.705500  0.833100  0.682100  1.0  -0.0246
  C  C156  1  0.838600  0.841000  0.668100  1.0  -0.0282
  C  C157  1  0.798600  0.720700  0.408300  1.0  -0.0093
  C  C158  1  0.667100  0.715200  0.379000  1.0  -0.0032
  C  C159  1  0.698100  0.852900  0.579500  1.0  -0.0312
  C  C160  1  0.832600  0.860400  0.566300  1.0  -0.0633
  C  C161  1  0.788400  0.703000  0.513100  1.0  -0.0228
  C  C162  1  0.656600  0.697100  0.483900  1.0  -0.0392
  C  C163  1  0.761100  0.865900  0.522600  1.0  -0.2037
  C  C164  1  0.718100  0.690100  0.548100  1.0  -0.1826
  C  C165  1  0.757300  0.975500  0.412000  1.0  -0.1997
  C  C166  1  0.714400  0.580900  0.658300  1.0  -0.177
  C  C167  1  0.693300  0.006900  0.437700  1.0  -0.064
  C  C168  1  0.825900  0.004000  0.404300  1.0  -0.023
  C  C169  1  0.783300  0.553000  0.667900  1.0  -0.0214
  C  C170  1  0.652200  0.547400  0.629000  1.0  -0.0471
  C  C171  1  0.699200  0.069800  0.456400  1.0  -0.0121
  C  C172  1  0.830700  0.066100  0.424600  1.0  -0.0137
  C  C173  1  0.789300  0.490600  0.647400  1.0  0.0129
  C  C174  1  0.658800  0.486400  0.609000  1.0  -0.0185
  C  C175  1  0.767200  0.099000  0.450700  1.0  -0.146
  C  C176  1  0.727000  0.456800  0.616300  1.0  -0.1194
  C  C177  1  0.771900  0.165000  0.475800  1.0  0.7029
  C  C178  1  0.734100  0.390500  0.588300  1.0  0.6944
  C  C179  1  0.994400  0.259500  0.497700  1.0  0.5061
  C  C180  1  0.218600  0.191900  0.340000  1.0  0.7078
  C  C181  1  0.248800  0.255500  0.727100  1.0  0.6794
  C  C182  1  0.969300  0.316900  0.630800  1.0  0.5789
  C  C183  1  0.224400  0.171900  0.227300  1.0  -0.1522
  C  C184  1  0.261500  0.273800  0.841900  1.0  -0.1128
  C  C185  1  0.294500  0.166900  0.182100  1.0  -0.0236
  C  C186  1  0.161400  0.159000  0.168100  1.0  -0.0316
  C  C187  1  0.201400  0.279300  0.908300  1.0  -0.0092
  C  C188  1  0.332900  0.284800  0.879000  1.0  -0.002
  C  C189  1  0.301900  0.147100  0.079500  1.0  -0.0315
  C  C190  1  0.167400  0.139600  0.066300  1.0  -0.0618
  C  C191  1  0.211600  0.297000  0.013100  1.0  -0.0188
  C  C192  1  0.343400  0.302900  0.983900  1.0  -0.0412
  C  C193  1  0.238900  0.134100  0.022600  1.0  -0.2038
  C  C194  1  0.281900  0.309900  0.048100  1.0  -0.1837
  C  C195  1  0.242700  0.024500  0.912000  1.0  -0.1991
  C  C196  1  0.285600  0.419100  0.158300  1.0  -0.178
  C  C197  1  0.306700  0.993100  0.937700  1.0  -0.0648
  C  C198  1  0.174100  0.996000  0.904300  1.0  -0.0234
  C  C199  1  0.216700  0.447000  0.167900  1.0  -0.0218
  C  C200  1  0.347800  0.452600  0.129000  1.0  -0.0438
  C  C201  1  0.300800  0.930200  0.956400  1.0  -0.0105
  C  C202  1  0.169300  0.933900  0.924600  1.0  -0.017
  C  C203  1  0.210700  0.509400  0.147400  1.0  0.0108
  C  C204  1  0.341200  0.513600  0.109000  1.0  -0.0159
  C  C205  1  0.232800  0.901000  0.950700  1.0  -0.1455
  C  C206  1  0.273000  0.543200  0.116300  1.0  -0.1162
  C  C207  1  0.228100  0.835000  0.975800  1.0  0.7014
  C  C208  1  0.265900  0.609500  0.088300  1.0  0.6952
  S  S209  1  0.251300  0.604610  0.391500  1.0  1.0938
  S  S210  1  0.205970  0.838860  0.678110  1.0  1.0742
  S  S211  1  0.748700  0.395390  0.891500  1.0  1.0934
  S  S212  1  0.794030  0.161140  0.178110  1.0  1.0732
  S  S213  1  0.751300  0.895390  0.391500  1.0  1.0927
  S  S214  1  0.705970  0.661140  0.678110  1.0  1.075
  S  S215  1  0.248700  0.104610  0.891500  1.0  1.0934
  S  S216  1  0.294030  0.338860  0.178110  1.0  1.0737
  N  N217  1  0.443800  0.760000  0.053000  1.0  -0.367
  N  N218  1  0.561800  0.792900  0.040400  1.0  -0.4794
  N  N219  1  0.459700  0.799000  0.138200  1.0  -0.2476
  N  N220  1  0.512900  0.731100  0.903400  1.0  -0.7454
  N  N221  1  0.565200  0.854000  0.197600  1.0  -0.7401
  N  N222  1  0.556200  0.240000  0.553000  1.0  -0.365
  N  N223  1  0.438200  0.207100  0.540400  1.0  -0.4801
  N  N224  1  0.540300  0.201000  0.638200  1.0  -0.2541
  N  N225  1  0.487100  0.268900  0.403400  1.0  -0.7459
  N  N226  1  0.434800  0.146000  0.697600  1.0  -0.7428
  N  N227  1  0.943800  0.740000  0.053000  1.0  -0.3641
  N  N228  1  0.061800  0.707100  0.040400  1.0  -0.4794
  N  N229  1  0.959700  0.701000  0.138200  1.0  -0.2525
  N  N230  1  0.012900  0.768900  0.903400  1.0  -0.7456
  N  N231  1  0.065200  0.646000  0.197600  1.0  -0.7406
  N  N232  1  0.056200  0.260000  0.553000  1.0  -0.3634
  N  N233  1  0.938200  0.292900  0.540400  1.0  -0.48
  N  N234  1  0.040300  0.299000  0.638200  1.0  -0.2478
  N  N235  1  0.987100  0.231100  0.403400  1.0  -0.7456
  N  N236  1  0.934800  0.354000  0.697600  1.0  -0.742
  O  O237  1  0.345500  0.703200  0.878000  1.0  -0.5565
  O  O238  1  0.316400  0.750700  0.195400  1.0  -0.5702
  O  O239  1  0.213400  0.307600  0.502000  1.0  -0.6626
  O  O240  1  0.174700  0.139300  0.572200  1.0  -0.6017
  O  O241  1  0.222100  0.693400  0.892000  1.0  -0.6419
  O  O242  1  0.191800  0.748200  0.173800  1.0  -0.5901
  O  O243  1  0.335300  0.308600  0.473200  1.0  -0.5952
  O  O244  1  0.298600  0.131400  0.583700  1.0  -0.6087
  O  O245  1  0.177800  0.619200  0.354400  1.0  -0.5423
  O  O246  1  0.314400  0.623800  0.329800  1.0  -0.5791
  O  O247  1  0.130600  0.825500  0.710900  1.0  -0.5826
  O  O248  1  0.267900  0.819000  0.741700  1.0  -0.5715
  O  O249  1  0.654500  0.296800  0.378000  1.0  -0.5591
  O  O250  1  0.683600  0.249300  0.695400  1.0  -0.5713
  O  O251  1  0.786600  0.692400  0.002000  1.0  -0.6631
  O  O252  1  0.825300  0.860700  0.072200  1.0  -0.6012
  O  O253  1  0.777900  0.306600  0.392000  1.0  -0.6391
  O  O254  1  0.808200  0.251800  0.673800  1.0  -0.5913
  O  O255  1  0.664700  0.691400  0.973200  1.0  -0.5952
  O  O256  1  0.701400  0.868600  0.083700  1.0  -0.6087
  O  O257  1  0.822200  0.380800  0.854400  1.0  -0.5418
  O  O258  1  0.685600  0.376200  0.829800  1.0  -0.5803
  O  O259  1  0.869400  0.174500  0.210900  1.0  -0.5831
  O  O260  1  0.732100  0.181000  0.241700  1.0  -0.5707
  O  O261  1  0.845500  0.796800  0.878000  1.0  -0.5564
  O  O262  1  0.816400  0.749300  0.195400  1.0  -0.5706
  O  O263  1  0.713400  0.192400  0.502000  1.0  -0.6626
  O  O264  1  0.674700  0.360700  0.572200  1.0  -0.6016
  O  O265  1  0.722100  0.806600  0.892000  1.0  -0.6399
  O  O266  1  0.691800  0.751800  0.173800  1.0  -0.5917
  O  O267  1  0.835300  0.191400  0.473200  1.0  -0.595
  O  O268  1  0.798600  0.368600  0.583700  1.0  -0.6091
  O  O269  1  0.677800  0.880800  0.354400  1.0  -0.5426
  O  O270  1  0.814400  0.876200  0.329800  1.0  -0.5801
  O  O271  1  0.630600  0.674500  0.710900  1.0  -0.5823
  O  O272  1  0.767900  0.681000  0.741700  1.0  -0.5713
  O  O273  1  0.154500  0.203200  0.378000  1.0  -0.5586
  O  O274  1  0.183600  0.250700  0.695400  1.0  -0.571
  O  O275  1  0.286600  0.807600  0.002000  1.0  -0.6622
  O  O276  1  0.325300  0.639300  0.072200  1.0  -0.6015
  O  O277  1  0.277900  0.193400  0.392000  1.0  -0.6417
  O  O278  1  0.308200  0.248200  0.673800  1.0  -0.59
  O  O279  1  0.164700  0.808600  0.973200  1.0  -0.5957
  O  O280  1  0.201400  0.631400  0.083700  1.0  -0.6084
  O  O281  1  0.322200  0.119200  0.854400  1.0  -0.5418
  O  O282  1  0.185600  0.123800  0.829800  1.0  -0.5793
  O  O283  1  0.369400  0.325500  0.210900  1.0  -0.5833
  O  O284  1  0.232100  0.319000  0.241700  1.0  -0.571
