# generated using pymatgen
data_Co2H20C30S2N5O12
_symmetry_space_group_name_H-M   'P 1'
_cell_length_a   18.01560000
_cell_length_b   21.75980000
_cell_length_c   12.70700000
_cell_angle_alpha   90.00000000
_cell_angle_beta   90.00000000
_cell_angle_gamma   90.00000000
_symmetry_Int_Tables_number   1
_chemical_formula_structural   Co2H20C30S2N5O12
_chemical_formula_sum   'Co8 H80 C120 S8 N20 O48'
_cell_volume   4981.34544255
_cell_formula_units_Z   4
loop_
 _symmetry_equiv_pos_site_id
 _symmetry_equiv_pos_as_xyz
  1  'x, y, z'
loop_
 _atom_site_type_symbol
 _atom_site_label
 _atom_site_symmetry_multiplicity
 _atom_site_fract_x
 _atom_site_fract_y
 _atom_site_fract_z
 _atom_site_occupancy
 _atom_site_charge
  Co  Co1  1  0.334850  0.736290  0.038610  1.0  0.9681
  Co  Co2  1  0.172600  0.726880  0.031510  1.0  0.9793
  Co  Co3  1  0.665150  0.263710  0.538610  1.0  0.9686
  Co  Co4  1  0.827400  0.273120  0.531510  1.0  0.9794
  Co  Co5  1  0.834850  0.763710  0.038610  1.0  0.9682
  Co  Co6  1  0.672600  0.773120  0.031510  1.0  0.9792
  Co  Co7  1  0.165150  0.236290  0.538610  1.0  0.9686
  Co  Co8  1  0.327400  0.226880  0.531510  1.0  0.9792
  H  H9  1  0.469800  0.712100  0.883800  1.0  0.37
  H  H10  1  0.550400  0.726800  0.878000  1.0  0.3646
  H  H11  1  0.543000  0.869800  0.251100  1.0  0.3648
  H  H12  1  0.613500  0.859900  0.192300  1.0  0.3562
  H  H13  1  0.161600  0.664200  0.735200  1.0  0.1234
  H  H14  1  0.377200  0.684300  0.696500  1.0  0.1127
  H  H15  1  0.342800  0.796600  0.383700  1.0  0.1111
  H  H16  1  0.126100  0.770100  0.345700  1.0  0.1188
  H  H17  1  0.149600  0.636400  0.563100  1.0  0.1101
  H  H18  1  0.367800  0.654700  0.522700  1.0  0.1308
  H  H19  1  0.324600  0.829700  0.551800  1.0  0.1311
  H  H20  1  0.108500  0.802200  0.518100  1.0  0.0999
  H  H21  1  0.148000  0.517200  0.441300  1.0  0.1209
  H  H22  1  0.368600  0.528600  0.399700  1.0  0.1191
  H  H23  1  0.318600  0.932500  0.692600  1.0  0.126
  H  H24  1  0.103200  0.941800  0.629900  1.0  0.0994
  H  H25  1  0.159600  0.410400  0.472100  1.0  0.1246
  H  H26  1  0.379700  0.423800  0.425800  1.0  0.1202
  H  H27  1  0.329500  0.034300  0.660600  1.0  0.0929
  H  H28  1  0.113600  0.047100  0.596600  1.0  0.1303
  H  H29  1  0.530200  0.287900  0.383800  1.0  0.3697
  H  H30  1  0.449600  0.273200  0.378000  1.0  0.3647
  H  H31  1  0.457000  0.130200  0.751100  1.0  0.3653
  H  H32  1  0.386500  0.140100  0.692300  1.0  0.3559
  H  H33  1  0.838400  0.335800  0.235200  1.0  0.1229
  H  H34  1  0.622800  0.315700  0.196500  1.0  0.1124
  H  H35  1  0.657200  0.203400  0.883700  1.0  0.111
  H  H36  1  0.873900  0.229900  0.845700  1.0  0.1196
  H  H37  1  0.850400  0.363600  0.063100  1.0  0.1113
  H  H38  1  0.632200  0.345300  0.022700  1.0  0.1308
  H  H39  1  0.675400  0.170300  0.051800  1.0  0.1308
  H  H40  1  0.891500  0.197800  0.018100  1.0  0.0999
  H  H41  1  0.852000  0.482800  0.941300  1.0  0.1211
  H  H42  1  0.631400  0.471400  0.899700  1.0  0.1184
  H  H43  1  0.681400  0.067500  0.192600  1.0  0.127
  H  H44  1  0.896800  0.058200  0.129900  1.0  0.0992
  H  H45  1  0.840400  0.589600  0.972100  1.0  0.1246
  H  H46  1  0.620300  0.576200  0.925800  1.0  0.1196
  H  H47  1  0.670500  0.965700  0.160600  1.0  0.0934
  H  H48  1  0.886400  0.952900  0.096600  1.0  0.1297
  H  H49  1  0.969800  0.787900  0.883800  1.0  0.3698
  H  H50  1  0.050400  0.773200  0.878000  1.0  0.3648
  H  H51  1  0.043000  0.630200  0.251100  1.0  0.3641
  H  H52  1  0.113500  0.640100  0.192300  1.0  0.3568
  H  H53  1  0.661600  0.835800  0.735200  1.0  0.1234
  H  H54  1  0.877200  0.815700  0.696500  1.0  0.1124
  H  H55  1  0.842800  0.703400  0.383700  1.0  0.1111
  H  H56  1  0.626100  0.729900  0.345700  1.0  0.1189
  H  H57  1  0.649600  0.863600  0.563100  1.0  0.1104
  H  H58  1  0.867800  0.845300  0.522700  1.0  0.131
  H  H59  1  0.824600  0.670300  0.551800  1.0  0.1313
  H  H60  1  0.608500  0.697800  0.518100  1.0  0.0997
  H  H61  1  0.648000  0.982800  0.441300  1.0  0.1211
  H  H62  1  0.868600  0.971400  0.399700  1.0  0.1191
  H  H63  1  0.818600  0.567500  0.692600  1.0  0.1265
  H  H64  1  0.603200  0.558200  0.629900  1.0  0.0995
  H  H65  1  0.659600  0.089600  0.472100  1.0  0.1245
  H  H66  1  0.879700  0.076200  0.425800  1.0  0.1204
  H  H67  1  0.829500  0.465700  0.660600  1.0  0.0928
  H  H68  1  0.613600  0.452900  0.596600  1.0  0.1298
  H  H69  1  0.030200  0.212100  0.383800  1.0  0.3699
  H  H70  1  0.949600  0.226800  0.378000  1.0  0.3647
  H  H71  1  0.957000  0.369800  0.751100  1.0  0.3661
  H  H72  1  0.886500  0.359900  0.692300  1.0  0.3563
  H  H73  1  0.338400  0.164200  0.235200  1.0  0.1229
  H  H74  1  0.122800  0.184300  0.196500  1.0  0.1123
  H  H75  1  0.157200  0.296600  0.883700  1.0  0.1111
  H  H76  1  0.373900  0.270100  0.845700  1.0  0.1192
  H  H77  1  0.350400  0.136400  0.063100  1.0  0.1111
  H  H78  1  0.132200  0.154700  0.022700  1.0  0.1305
  H  H79  1  0.175400  0.329700  0.051800  1.0  0.1306
  H  H80  1  0.391500  0.302200  0.018100  1.0  0.0997
  H  H81  1  0.352000  0.017200  0.941300  1.0  0.1209
  H  H82  1  0.131400  0.028600  0.899700  1.0  0.1185
  H  H83  1  0.181400  0.432500  0.192600  1.0  0.1267
  H  H84  1  0.396800  0.441800  0.129900  1.0  0.0993
  H  H85  1  0.340400  0.910400  0.972100  1.0  0.1248
  H  H86  1  0.120300  0.923800  0.925800  1.0  0.1194
  H  H87  1  0.170500  0.534300  0.160600  1.0  0.0932
  H  H88  1  0.386400  0.547100  0.096600  1.0  0.13
  C  C89  1  0.503200  0.761400  0.001700  1.0  0.557
  C  C90  1  0.276400  0.698800  0.844400  1.0  0.7155
  C  C91  1  0.249700  0.763100  0.232900  1.0  0.6692
  C  C92  1  0.531000  0.817700  0.131000  1.0  0.6184
  C  C93  1  0.269400  0.679500  0.730900  1.0  -0.1354
  C  C94  1  0.235500  0.782300  0.345100  1.0  -0.1043
  C  C95  1  0.203200  0.663400  0.692000  1.0  -0.0157
  C  C96  1  0.330900  0.674900  0.668500  1.0  -0.0278
  C  C97  1  0.294800  0.798700  0.410200  1.0  -0.0312
  C  C98  1  0.166400  0.782400  0.386200  1.0  -0.0502
  C  C99  1  0.196300  0.645800  0.589600  1.0  -0.0326
  C  C100  1  0.325800  0.656800  0.565000  1.0  -0.0852
  C  C101  1  0.284600  0.817400  0.510600  1.0  -0.0785
  C  C102  1  0.156200  0.801200  0.490200  1.0  -0.0033
  C  C103  1  0.256400  0.641600  0.525300  1.0  -0.1162
  C  C104  1  0.213300  0.817800  0.550400  1.0  -0.0844
  C  C105  1  0.258100  0.531900  0.415600  1.0  -0.1823
  C  C106  1  0.207800  0.926400  0.662400  1.0  -0.0926
  C  C107  1  0.194100  0.498200  0.438600  1.0  -0.0524
  C  C108  1  0.326600  0.504900  0.413100  1.0  -0.0228
  C  C109  1  0.277100  0.955200  0.672600  1.0  -0.1022
  C  C110  1  0.149500  0.960600  0.635400  1.0  -0.0218
  C  C111  1  0.201100  0.434400  0.457700  1.0  -0.0317
  C  C112  1  0.333500  0.442700  0.430400  1.0  -0.036
  C  C113  1  0.283300  0.015900  0.653100  1.0  -0.0136
  C  C114  1  0.155000  0.024000  0.615000  1.0  -0.0907
  C  C115  1  0.271300  0.408500  0.454600  1.0  -0.1141
  C  C116  1  0.225300  0.051100  0.623300  1.0  -0.1386
  C  C117  1  0.278700  0.341300  0.480200  1.0  0.6927
  C  C118  1  0.233900  0.117900  0.596100  1.0  0.7029
  C  C119  1  0.496800  0.238600  0.501700  1.0  0.555
  C  C120  1  0.723600  0.301200  0.344400  1.0  0.7153
  C  C121  1  0.750300  0.236900  0.732900  1.0  0.6687
  C  C122  1  0.469000  0.182300  0.631000  1.0  0.6189
  C  C123  1  0.730600  0.320500  0.230900  1.0  -0.1343
  C  C124  1  0.764500  0.217700  0.845100  1.0  -0.1046
  C  C125  1  0.796800  0.336600  0.192000  1.0  -0.015
  C  C126  1  0.669100  0.325100  0.168500  1.0  -0.0277
  C  C127  1  0.705200  0.201300  0.910200  1.0  -0.0327
  C  C128  1  0.833600  0.217600  0.886200  1.0  -0.0474
  C  C129  1  0.803700  0.354200  0.089600  1.0  -0.0337
  C  C130  1  0.674200  0.343200  0.065000  1.0  -0.0836
  C  C131  1  0.715400  0.182600  0.010600  1.0  -0.077
  C  C132  1  0.843800  0.198800  0.990200  1.0  -0.0041
  C  C133  1  0.743600  0.358400  0.025300  1.0  -0.1153
  C  C134  1  0.786700  0.182200  0.050400  1.0  -0.0832
  C  C135  1  0.741900  0.468100  0.915600  1.0  -0.1817
  C  C136  1  0.792200  0.073600  0.162400  1.0  -0.0906
  C  C137  1  0.805900  0.501800  0.938600  1.0  -0.0541
  C  C138  1  0.673400  0.495100  0.913100  1.0  -0.0229
  C  C139  1  0.722900  0.044800  0.172600  1.0  -0.0999
  C  C140  1  0.850500  0.039400  0.135400  1.0  -0.0215
  C  C141  1  0.798900  0.565600  0.957700  1.0  -0.0307
  C  C142  1  0.666500  0.557300  0.930400  1.0  -0.0395
  C  C143  1  0.716700  0.984100  0.153100  1.0  -0.0161
  C  C144  1  0.845000  0.976000  0.115000  1.0  -0.087
  C  C145  1  0.728700  0.591500  0.954600  1.0  -0.1147
  C  C146  1  0.774700  0.948900  0.123300  1.0  -0.1396
  C  C147  1  0.721300  0.658700  0.980200  1.0  0.693
  C  C148  1  0.766100  0.882100  0.096100  1.0  0.7034
  C  C149  1  0.003200  0.738600  0.001700  1.0  0.5572
  C  C150  1  0.776400  0.801200  0.844400  1.0  0.7155
  C  C151  1  0.749700  0.736900  0.232900  1.0  0.6697
  C  C152  1  0.031000  0.682300  0.131000  1.0  0.6184
  C  C153  1  0.769400  0.820500  0.730900  1.0  -0.1334
  C  C154  1  0.735500  0.717700  0.345100  1.0  -0.1042
  C  C155  1  0.703200  0.836600  0.692000  1.0  -0.0157
  C  C156  1  0.830900  0.825100  0.668500  1.0  -0.0281
  C  C157  1  0.794800  0.701300  0.410200  1.0  -0.0312
  C  C158  1  0.666400  0.717600  0.386200  1.0  -0.0492
  C  C159  1  0.696300  0.854200  0.589600  1.0  -0.033
  C  C160  1  0.825800  0.843200  0.565000  1.0  -0.0849
  C  C161  1  0.784600  0.682600  0.510600  1.0  -0.0777
  C  C162  1  0.656200  0.698800  0.490200  1.0  -0.0028
  C  C163  1  0.756400  0.858400  0.525300  1.0  -0.1156
  C  C164  1  0.713300  0.682200  0.550400  1.0  -0.0844
  C  C165  1  0.758100  0.968100  0.415600  1.0  -0.182
  C  C166  1  0.707800  0.573600  0.662400  1.0  -0.092
  C  C167  1  0.694100  0.001800  0.438600  1.0  -0.0537
  C  C168  1  0.826600  0.995100  0.413100  1.0  -0.0232
  C  C169  1  0.777100  0.544800  0.672600  1.0  -0.1019
  C  C170  1  0.649500  0.539400  0.635400  1.0  -0.0219
  C  C171  1  0.701100  0.065600  0.457700  1.0  -0.0321
  C  C172  1  0.833500  0.057300  0.430400  1.0  -0.0349
  C  C173  1  0.783300  0.484100  0.653100  1.0  -0.0138
  C  C174  1  0.655000  0.476000  0.615000  1.0  -0.0903
  C  C175  1  0.771300  0.091500  0.454600  1.0  -0.1142
  C  C176  1  0.725300  0.448900  0.623300  1.0  -0.1394
  C  C177  1  0.778700  0.158700  0.480200  1.0  0.693
  C  C178  1  0.733900  0.382100  0.596100  1.0  0.7035
  C  C179  1  0.996800  0.261400  0.501700  1.0  0.5548
  C  C180  1  0.223600  0.198800  0.344400  1.0  0.7151
  C  C181  1  0.250300  0.263100  0.732900  1.0  0.6687
  C  C182  1  0.969000  0.317700  0.631000  1.0  0.6185
  C  C183  1  0.230600  0.179500  0.230900  1.0  -0.1362
  C  C184  1  0.264500  0.282300  0.845100  1.0  -0.1046
  C  C185  1  0.296800  0.163400  0.192000  1.0  -0.0156
  C  C186  1  0.169100  0.174900  0.168500  1.0  -0.0268
  C  C187  1  0.205200  0.298700  0.910200  1.0  -0.0336
  C  C188  1  0.333600  0.282400  0.886200  1.0  -0.0471
  C  C189  1  0.303700  0.145800  0.089600  1.0  -0.0332
  C  C190  1  0.174200  0.156800  0.065000  1.0  -0.0836
  C  C191  1  0.215400  0.317400  0.010600  1.0  -0.0777
  C  C192  1  0.343800  0.301200  0.990200  1.0  -0.0036
  C  C193  1  0.243600  0.141600  0.025300  1.0  -0.1158
  C  C194  1  0.286700  0.317800  0.050400  1.0  -0.0835
  C  C195  1  0.241900  0.031900  0.915600  1.0  -0.1821
  C  C196  1  0.292200  0.426400  0.162400  1.0  -0.0908
  C  C197  1  0.305900  0.998200  0.938600  1.0  -0.0529
  C  C198  1  0.173400  0.004900  0.913100  1.0  -0.0227
  C  C199  1  0.222900  0.455200  0.172600  1.0  -0.1004
  C  C200  1  0.350500  0.460600  0.135400  1.0  -0.0218
  C  C201  1  0.298900  0.934400  0.957700  1.0  -0.0312
  C  C202  1  0.166500  0.942700  0.930400  1.0  -0.039
  C  C203  1  0.216700  0.515900  0.153100  1.0  -0.0162
  C  C204  1  0.345000  0.524000  0.115000  1.0  -0.0867
  C  C205  1  0.228700  0.908500  0.954600  1.0  -0.1146
  C  C206  1  0.274700  0.551100  0.123300  1.0  -0.1392
  C  C207  1  0.221300  0.841300  0.980200  1.0  0.6927
  C  C208  1  0.266100  0.617900  0.096100  1.0  0.7028
  S  S209  1  0.247600  0.612120  0.397800  1.0  1.092
  S  S210  1  0.199900  0.846170  0.680400  1.0  1.0816
  S  S211  1  0.752400  0.387880  0.897800  1.0  1.0932
  S  S212  1  0.800100  0.153830  0.180400  1.0  1.0815
  S  S213  1  0.747600  0.887880  0.397800  1.0  1.0922
  S  S214  1  0.699900  0.653830  0.680400  1.0  1.0815
  S  S215  1  0.252400  0.112120  0.897800  1.0  1.093
  S  S216  1  0.300100  0.346170  0.180400  1.0  1.082
  N  N217  1  0.440400  0.766500  0.052400  1.0  -0.3698
  N  N218  1  0.561900  0.791200  0.046400  1.0  -0.4707
  N  N219  1  0.458400  0.805400  0.137400  1.0  -0.2994
  N  N220  1  0.508500  0.729500  0.909900  1.0  -0.7391
  N  N221  1  0.566800  0.853400  0.199600  1.0  -0.7203
  N  N222  1  0.559600  0.233500  0.552400  1.0  -0.3697
  N  N223  1  0.438100  0.208800  0.546400  1.0  -0.4711
  N  N224  1  0.541600  0.194600  0.637400  1.0  -0.3008
  N  N225  1  0.491500  0.270500  0.409900  1.0  -0.7396
  N  N226  1  0.433200  0.146600  0.699600  1.0  -0.7219
  N  N227  1  0.940400  0.733500  0.052400  1.0  -0.3695
  N  N228  1  0.061900  0.708800  0.046400  1.0  -0.4714
  N  N229  1  0.958400  0.694600  0.137400  1.0  -0.2997
  N  N230  1  0.008500  0.770500  0.909900  1.0  -0.7397
  N  N231  1  0.066800  0.646600  0.199600  1.0  -0.7203
  N  N232  1  0.059600  0.266500  0.552400  1.0  -0.3698
  N  N233  1  0.938100  0.291200  0.546400  1.0  -0.4704
  N  N234  1  0.041600  0.305400  0.637400  1.0  -0.3005
  N  N235  1  0.991500  0.229500  0.409900  1.0  -0.7387
  N  N236  1  0.933200  0.353400  0.699600  1.0  -0.7221
  O  O237  1  0.340300  0.709700  0.883300  1.0  -0.5831
  O  O238  1  0.314000  0.761200  0.198600  1.0  -0.57
  O  O239  1  0.219700  0.313300  0.504600  1.0  -0.666
  O  O240  1  0.175200  0.148300  0.581500  1.0  -0.6076
  O  O241  1  0.217200  0.700900  0.896000  1.0  -0.6272
  O  O242  1  0.190000  0.751700  0.180900  1.0  -0.614
  O  O243  1  0.341900  0.316500  0.479500  1.0  -0.5826
  O  O244  1  0.298700  0.137800  0.585200  1.0  -0.6014
  O  O245  1  0.172800  0.623700  0.362400  1.0  -0.5918
  O  O246  1  0.309100  0.634300  0.336900  1.0  -0.5659
  O  O247  1  0.124200  0.832400  0.711500  1.0  -0.5827
  O  O248  1  0.260200  0.826100  0.744900  1.0  -0.5508
  O  O249  1  0.659700  0.290300  0.383300  1.0  -0.5839
  O  O250  1  0.686000  0.238800  0.698600  1.0  -0.5712
  O  O251  1  0.780300  0.686700  0.004600  1.0  -0.6662
  O  O252  1  0.824800  0.851700  0.081500  1.0  -0.6073
  O  O253  1  0.782800  0.299100  0.396000  1.0  -0.6251
  O  O254  1  0.810000  0.248300  0.680900  1.0  -0.6129
  O  O255  1  0.658100  0.683500  0.979500  1.0  -0.5827
  O  O256  1  0.701300  0.862200  0.085200  1.0  -0.6013
  O  O257  1  0.827200  0.376300  0.862400  1.0  -0.5942
  O  O258  1  0.690900  0.365700  0.836900  1.0  -0.5668
  O  O259  1  0.875800  0.167600  0.211500  1.0  -0.5814
  O  O260  1  0.739800  0.173900  0.244900  1.0  -0.5502
  O  O261  1  0.840300  0.790300  0.883300  1.0  -0.5835
  O  O262  1  0.814000  0.738800  0.198600  1.0  -0.5703
  O  O263  1  0.719700  0.186700  0.504600  1.0  -0.666
  O  O264  1  0.675200  0.351700  0.581500  1.0  -0.6073
  O  O265  1  0.717200  0.799100  0.896000  1.0  -0.6257
  O  O266  1  0.690000  0.748300  0.180900  1.0  -0.6134
  O  O267  1  0.841900  0.183500  0.479500  1.0  -0.582
  O  O268  1  0.798700  0.362200  0.585200  1.0  -0.601
  O  O269  1  0.672800  0.876300  0.362400  1.0  -0.5925
  O  O270  1  0.809100  0.865700  0.336900  1.0  -0.5668
  O  O271  1  0.624200  0.667600  0.711500  1.0  -0.5817
  O  O272  1  0.760200  0.673900  0.744900  1.0  -0.5503
  O  O273  1  0.159700  0.209700  0.383300  1.0  -0.5848
  O  O274  1  0.186000  0.261200  0.698600  1.0  -0.5706
  O  O275  1  0.280300  0.813300  0.004600  1.0  -0.6658
  O  O276  1  0.324800  0.648300  0.081500  1.0  -0.6075
  O  O277  1  0.282800  0.200900  0.396000  1.0  -0.6263
  O  O278  1  0.310000  0.251700  0.680900  1.0  -0.6132
  O  O279  1  0.158100  0.816500  0.979500  1.0  -0.5832
  O  O280  1  0.201300  0.637800  0.085200  1.0  -0.6015
  O  O281  1  0.327200  0.123700  0.862400  1.0  -0.5937
  O  O282  1  0.190900  0.134300  0.836900  1.0  -0.566
  O  O283  1  0.375800  0.332400  0.211500  1.0  -0.582
  O  O284  1  0.239800  0.326100  0.244900  1.0  -0.5509
