# generated using pymatgen
data_LaH2C8NO6
_symmetry_space_group_name_H-M   'P 1'
_cell_length_a   6.86360000
_cell_length_b   11.97900000
_cell_length_c   13.65100000
_cell_angle_alpha   90.00000000
_cell_angle_beta   99.65000000
_cell_angle_gamma   90.00000000
_symmetry_Int_Tables_number   1
_chemical_formula_structural   LaH2C8NO6
_chemical_formula_sum   'La4 H8 C32 N4 O24'
_cell_volume   1106.49102217
_cell_formula_units_Z   4
loop_
 _symmetry_equiv_pos_site_id
 _symmetry_equiv_pos_as_xyz
  1  'x, y, z'
loop_
 _atom_site_type_symbol
 _atom_site_label
 _atom_site_symmetry_multiplicity
 _atom_site_fract_x
 _atom_site_fract_y
 _atom_site_fract_z
 _atom_site_occupancy
 _atom_site_charge
  La  La1  1  0.940720  0.830390  0.242160  1.0  2.1661
  La  La2  1  0.059280  0.330390  0.257840  1.0  2.1659
  La  La3  1  0.059280  0.169610  0.757840  1.0  2.1659
  La  La4  1  0.940720  0.669610  0.742160  1.0  2.1661
  H  H5  1  0.198400  0.933900  0.038100  1.0  0.1244
  H  H6  1  0.539000  0.800800  0.854800  1.0  0.1183
  H  H7  1  0.801600  0.433900  0.461900  1.0  0.1236
  H  H8  1  0.461000  0.300800  0.645200  1.0  0.1183
  H  H9  1  0.801600  0.066100  0.961900  1.0  0.1236
  H  H10  1  0.461000  0.199200  0.145200  1.0  0.1178
  H  H11  1  0.198400  0.566100  0.538100  1.0  0.1242
  H  H12  1  0.539000  0.699200  0.354800  1.0  0.1173
  C  C13  1  0.464600  0.876000  0.105600  1.0  0.1169
  C  C14  1  0.315000  0.900400  0.027100  1.0  -0.0325
  C  C15  1  0.343400  0.873400  0.931500  1.0  -0.1005
  C  C16  1  0.520000  0.823500  0.917600  1.0  -0.0268
  C  C17  1  0.667100  0.808500  0.999700  1.0  0.1308
  C  C18  1  0.872200  0.763100  0.993300  1.0  0.7089
  C  C19  1  0.448000  0.897100  0.212800  1.0  0.7204
  C  C20  1  0.185800  0.898800  0.842600  1.0  0.7325
  C  C21  1  0.535400  0.376000  0.394400  1.0  0.1172
  C  C22  1  0.685000  0.400400  0.472900  1.0  -0.033
  C  C23  1  0.656600  0.373400  0.568500  1.0  -0.1002
  C  C24  1  0.480000  0.323500  0.582400  1.0  -0.0262
  C  C25  1  0.332900  0.308500  0.500300  1.0  0.1312
  C  C26  1  0.127800  0.263100  0.506700  1.0  0.7095
  C  C27  1  0.552000  0.397100  0.287200  1.0  0.7211
  C  C28  1  0.814200  0.398800  0.657400  1.0  0.7312
  C  C29  1  0.535400  0.124000  0.894400  1.0  0.1179
  C  C30  1  0.685000  0.099600  0.972900  1.0  -0.0321
  C  C31  1  0.656600  0.126600  0.068500  1.0  -0.1004
  C  C32  1  0.480000  0.176500  0.082400  1.0  -0.0269
  C  C33  1  0.332900  0.191500  0.000300  1.0  0.1312
  C  C34  1  0.127800  0.236900  0.006700  1.0  0.7075
  C  C35  1  0.552000  0.102900  0.787200  1.0  0.7208
  C  C36  1  0.814200  0.101200  0.157400  1.0  0.7303
  C  C37  1  0.464600  0.624000  0.605600  1.0  0.1174
  C  C38  1  0.315000  0.599600  0.527100  1.0  -0.0323
  C  C39  1  0.343400  0.626600  0.431500  1.0  -0.1009
  C  C40  1  0.520000  0.676500  0.417600  1.0  -0.0281
  C  C41  1  0.667100  0.691500  0.499700  1.0  0.1309
  C  C42  1  0.872200  0.736900  0.493300  1.0  0.7071
  C  C43  1  0.448000  0.602900  0.712800  1.0  0.7199
  C  C44  1  0.185800  0.601200  0.342600  1.0  0.7322
  N  N45  1  0.640500  0.834300  0.092100  1.0  -0.4734
  N  N46  1  0.359500  0.334300  0.407900  1.0  -0.4735
  N  N47  1  0.359500  0.165700  0.907900  1.0  -0.4738
  N  N48  1  0.640500  0.665700  0.592100  1.0  -0.4741
  O  O49  1  0.607100  0.901900  0.273900  1.0  -0.6855
  O  O50  1  0.278900  0.909200  0.234000  1.0  -0.7023
  O  O51  1  0.988600  0.752400  0.074400  1.0  -0.6753
  O  O52  1  0.911800  0.741600  0.909700  1.0  -0.7526
  O  O53  1  0.170700  0.831100  0.771600  1.0  -0.684
  O  O54  1  0.083300  0.984800  0.847000  1.0  -0.6848
  O  O55  1  0.392900  0.401900  0.226100  1.0  -0.6851
  O  O56  1  0.721100  0.409200  0.266000  1.0  -0.7024
  O  O57  1  0.011400  0.252400  0.425600  1.0  -0.6753
  O  O58  1  0.088200  0.241600  0.590300  1.0  -0.7506
  O  O59  1  0.829300  0.331100  0.728400  1.0  -0.6839
  O  O60  1  0.916700  0.484800  0.653000  1.0  -0.6856
  O  O61  1  0.392900  0.098100  0.726100  1.0  -0.6844
  O  O62  1  0.721100  0.090800  0.766000  1.0  -0.7022
  O  O63  1  0.011400  0.247600  0.925600  1.0  -0.6751
  O  O64  1  0.088200  0.258400  0.090300  1.0  -0.7506
  O  O65  1  0.829300  0.168900  0.228400  1.0  -0.6836
  O  O66  1  0.916700  0.015200  0.153000  1.0  -0.6854
  O  O67  1  0.607100  0.598100  0.773900  1.0  -0.6849
  O  O68  1  0.278900  0.590800  0.734000  1.0  -0.7016
  O  O69  1  0.988600  0.747600  0.574400  1.0  -0.6756
  O  O70  1  0.911800  0.758400  0.409700  1.0  -0.7522
  O  O71  1  0.170700  0.668900  0.271600  1.0  -0.6836
  O  O72  1  0.083300  0.515200  0.347000  1.0  -0.685
