# generated using pymatgen
data_Er2Cu3H30C24(NO4)6
_symmetry_space_group_name_H-M   'P 1'
_cell_length_a   13.34730000
_cell_length_b   13.34730000
_cell_length_c   14.25990000
_cell_angle_alpha   90.00000000
_cell_angle_beta   90.00000000
_cell_angle_gamma   120.00000000
_symmetry_Int_Tables_number   1
_chemical_formula_structural   Er2Cu3H30C24(NO4)6
_chemical_formula_sum   'Er4 Cu6 H60 C48 N12 O48'
_cell_volume   2200.05711531
_cell_formula_units_Z   2
loop_
 _symmetry_equiv_pos_site_id
 _symmetry_equiv_pos_as_xyz
  1  'x, y, z'
loop_
 _atom_site_type_symbol
 _atom_site_label
 _atom_site_symmetry_multiplicity
 _atom_site_fract_x
 _atom_site_fract_y
 _atom_site_fract_z
 _atom_site_occupancy
 _atom_site_charge
  Er  Er1  1  0.333333  0.666667  0.333040  1.0  1.4597
  Er  Er2  1  0.666667  0.333333  0.166960  1.0  1.46
  Er  Er3  1  0.666667  0.333333  0.666960  1.0  1.46
  Er  Er4  1  0.333333  0.666667  0.833040  1.0  1.4597
  Cu  Cu5  1  0.500000  0.000000  0.500000  1.0  0.8579
  Cu  Cu6  1  0.500000  0.500000  0.500000  1.0  0.8579
  Cu  Cu7  1  0.000000  0.500000  0.500000  1.0  0.8579
  Cu  Cu8  1  0.500000  0.000000  0.000000  1.0  0.8579
  Cu  Cu9  1  0.000000  0.500000  0.000000  1.0  0.8579
  Cu  Cu10  1  0.500000  0.500000  0.000000  1.0  0.8579
  H  H11  1  0.672900  0.022600  0.579700  1.0  0.2592
  H  H12  1  0.682900  0.862500  0.520200  1.0  0.1137
  H  H13  1  0.705000  0.960100  0.447900  1.0  0.1291
  H  H14  1  0.601000  0.913300  0.695600  1.0  0.1441
  H  H15  1  0.539500  0.805500  0.629300  1.0  0.1333
  H  H16  1  0.349700  0.327100  0.579700  1.0  0.2598
  H  H17  1  0.179600  0.317100  0.520200  1.0  0.1135
  H  H18  1  0.255100  0.295000  0.447900  1.0  0.1293
  H  H19  1  0.312300  0.399000  0.695600  1.0  0.144
  H  H20  1  0.266000  0.460500  0.629300  1.0  0.136
  H  H21  1  0.977400  0.650300  0.579700  1.0  0.2603
  H  H22  1  0.137500  0.820400  0.520200  1.0  0.114
  H  H23  1  0.039900  0.744900  0.447900  1.0  0.1298
  H  H24  1  0.086700  0.687700  0.695600  1.0  0.1444
  H  H25  1  0.194500  0.734000  0.629300  1.0  0.132
  H  H26  1  0.650300  0.977400  0.920300  1.0  0.2593
  H  H27  1  0.820400  0.137500  0.979800  1.0  0.1137
  H  H28  1  0.744900  0.039900  0.052100  1.0  0.1291
  H  H29  1  0.687700  0.086700  0.804400  1.0  0.1452
  H  H30  1  0.734000  0.194500  0.870700  1.0  0.1334
  H  H31  1  0.022600  0.672900  0.920300  1.0  0.2593
  H  H32  1  0.862500  0.682900  0.979800  1.0  0.1128
  H  H33  1  0.960100  0.705000  0.052100  1.0  0.1297
  H  H34  1  0.913300  0.601000  0.804400  1.0  0.1451
  H  H35  1  0.805500  0.539500  0.870700  1.0  0.1362
  H  H36  1  0.327100  0.349700  0.920300  1.0  0.2606
  H  H37  1  0.317100  0.179600  0.979800  1.0  0.1139
  H  H38  1  0.295000  0.255100  0.052100  1.0  0.13
  H  H39  1  0.399000  0.312300  0.804400  1.0  0.145
  H  H40  1  0.460500  0.266000  0.870700  1.0  0.1327
  H  H41  1  0.327100  0.977400  0.420300  1.0  0.2591
  H  H42  1  0.317100  0.137500  0.479800  1.0  0.1141
  H  H43  1  0.295000  0.039900  0.552100  1.0  0.1271
  H  H44  1  0.399000  0.086700  0.304400  1.0  0.1439
  H  H45  1  0.460500  0.194500  0.370700  1.0  0.1334
  H  H46  1  0.650300  0.672900  0.420300  1.0  0.2596
  H  H47  1  0.820400  0.682900  0.479800  1.0  0.1132
  H  H48  1  0.744900  0.705000  0.552100  1.0  0.127
  H  H49  1  0.687700  0.601000  0.304400  1.0  0.1439
  H  H50  1  0.734000  0.539500  0.370700  1.0  0.1381
  H  H51  1  0.022600  0.349700  0.420300  1.0  0.2602
  H  H52  1  0.862500  0.179600  0.479800  1.0  0.1148
  H  H53  1  0.960100  0.255100  0.552100  1.0  0.1275
  H  H54  1  0.913300  0.312300  0.304400  1.0  0.144
  H  H55  1  0.805500  0.266000  0.370700  1.0  0.1332
  H  H56  1  0.349700  0.022600  0.079700  1.0  0.2594
  H  H57  1  0.179600  0.862500  0.020200  1.0  0.1146
  H  H58  1  0.255100  0.960100  0.947900  1.0  0.1269
  H  H59  1  0.312300  0.913300  0.195600  1.0  0.1444
  H  H60  1  0.266000  0.805500  0.129300  1.0  0.1332
  H  H61  1  0.977400  0.327100  0.079700  1.0  0.26
  H  H62  1  0.137500  0.317100  0.020200  1.0  0.1136
  H  H63  1  0.039900  0.295000  0.947900  1.0  0.1266
  H  H64  1  0.086700  0.399000  0.195600  1.0  0.1436
  H  H65  1  0.194500  0.460500  0.129300  1.0  0.138
  H  H66  1  0.672900  0.650300  0.079700  1.0  0.2597
  H  H67  1  0.682900  0.820400  0.020200  1.0  0.1133
  H  H68  1  0.705000  0.744900  0.947900  1.0  0.1276
  H  H69  1  0.601000  0.687700  0.195600  1.0  0.1443
  H  H70  1  0.539500  0.734000  0.129300  1.0  0.1333
  C  C71  1  0.546700  0.814500  0.430200  1.0  0.6877
  C  C72  1  0.647400  0.901300  0.488600  1.0  -0.1952
  C  C73  1  0.551300  0.882100  0.641100  1.0  -0.2149
  C  C74  1  0.436600  0.873300  0.661700  1.0  0.7149
  C  C75  1  0.267800  0.453300  0.430200  1.0  0.6871
  C  C76  1  0.253900  0.352600  0.488600  1.0  -0.1945
  C  C77  1  0.330800  0.448700  0.641100  1.0  -0.216
  C  C78  1  0.436700  0.563400  0.661700  1.0  0.7181
  C  C79  1  0.185500  0.732200  0.430200  1.0  0.6859
  C  C80  1  0.098700  0.746100  0.488600  1.0  -0.1935
  C  C81  1  0.117900  0.669200  0.641100  1.0  -0.2157
  C  C82  1  0.126700  0.563300  0.661700  1.0  0.7182
  C  C83  1  0.732200  0.185500  0.069800  1.0  0.6882
  C  C84  1  0.746100  0.098700  0.011400  1.0  -0.1955
  C  C85  1  0.669200  0.117900  0.858900  1.0  -0.215
  C  C86  1  0.563300  0.126700  0.838300  1.0  0.715
  C  C87  1  0.814500  0.546700  0.069800  1.0  0.6865
  C  C88  1  0.901300  0.647400  0.011400  1.0  -0.1949
  C  C89  1  0.882100  0.551300  0.858900  1.0  -0.2156
  C  C90  1  0.873300  0.436600  0.838300  1.0  0.7169
  C  C91  1  0.453300  0.267800  0.069800  1.0  0.6866
  C  C92  1  0.352600  0.253900  0.011400  1.0  -0.1937
  C  C93  1  0.448700  0.330800  0.858900  1.0  -0.2157
  C  C94  1  0.563400  0.436700  0.838300  1.0  0.7173
  C  C95  1  0.453300  0.185500  0.569800  1.0  0.6876
  C  C96  1  0.352600  0.098700  0.511400  1.0  -0.1954
  C  C97  1  0.448700  0.117900  0.358900  1.0  -0.2156
  C  C98  1  0.563400  0.126700  0.338300  1.0  0.7154
  C  C99  1  0.732200  0.546700  0.569800  1.0  0.6876
  C  C100  1  0.746100  0.647400  0.511400  1.0  -0.1945
  C  C101  1  0.669200  0.551300  0.358900  1.0  -0.2147
  C  C102  1  0.563300  0.436600  0.338300  1.0  0.7162
  C  C103  1  0.814500  0.267800  0.569800  1.0  0.6853
  C  C104  1  0.901300  0.253900  0.511400  1.0  -0.1937
  C  C105  1  0.882100  0.330800  0.358900  1.0  -0.2153
  C  C106  1  0.873300  0.436700  0.338300  1.0  0.7168
  C  C107  1  0.267800  0.814500  0.930200  1.0  0.6871
  C  C108  1  0.253900  0.901300  0.988600  1.0  -0.1954
  C  C109  1  0.330800  0.882100  0.141100  1.0  -0.2161
  C  C110  1  0.436700  0.873300  0.161700  1.0  0.7158
  C  C111  1  0.185500  0.453300  0.930200  1.0  0.687
  C  C112  1  0.098700  0.352600  0.988600  1.0  -0.1948
  C  C113  1  0.117900  0.448700  0.141100  1.0  -0.2146
  C  C114  1  0.126700  0.563400  0.161700  1.0  0.7172
  C  C115  1  0.546700  0.732200  0.930200  1.0  0.6856
  C  C116  1  0.647400  0.746100  0.988600  1.0  -0.1938
  C  C117  1  0.551300  0.669200  0.141100  1.0  -0.2149
  C  C118  1  0.436600  0.563300  0.161700  1.0  0.7173
  N  N119  1  0.609600  0.956900  0.559130  1.0  -0.2499
  N  N120  1  0.347300  0.390400  0.559130  1.0  -0.2498
  N  N121  1  0.043100  0.652700  0.559130  1.0  -0.2481
  N  N122  1  0.652700  0.043100  0.940870  1.0  -0.2504
  N  N123  1  0.956900  0.609600  0.940870  1.0  -0.2494
  N  N124  1  0.390400  0.347300  0.940870  1.0  -0.2481
  N  N125  1  0.390400  0.043100  0.440870  1.0  -0.2496
  N  N126  1  0.652700  0.609600  0.440870  1.0  -0.2489
  N  N127  1  0.956900  0.347300  0.440870  1.0  -0.2479
  N  N128  1  0.347300  0.956900  0.059130  1.0  -0.2493
  N  N129  1  0.043100  0.390400  0.059130  1.0  -0.2495
  N  N130  1  0.609600  0.652700  0.059130  1.0  -0.2482
  O  O131  1  0.449900  0.809700  0.440740  1.0  -0.6678
  O  O132  1  0.559900  0.752600  0.372020  1.0  -0.6205
  O  O133  1  0.402000  0.926300  0.609090  1.0  -0.5424
  O  O134  1  0.379400  0.813900  0.730030  1.0  -0.6062
  O  O135  1  0.359800  0.550100  0.440740  1.0  -0.6713
  O  O136  1  0.192700  0.440100  0.372020  1.0  -0.6196
  O  O137  1  0.524300  0.598000  0.609090  1.0  -0.5431
  O  O138  1  0.434500  0.620600  0.730030  1.0  -0.6082
  O  O139  1  0.190300  0.640200  0.440740  1.0  -0.6697
  O  O140  1  0.247400  0.807300  0.372020  1.0  -0.6213
  O  O141  1  0.073700  0.475700  0.609090  1.0  -0.543
  O  O142  1  0.186100  0.565500  0.730030  1.0  -0.6054
  O  O143  1  0.640200  0.190300  0.059260  1.0  -0.6673
  O  O144  1  0.807300  0.247400  0.127980  1.0  -0.621
  O  O145  1  0.475700  0.073700  0.890910  1.0  -0.5417
  O  O146  1  0.565500  0.186100  0.769970  1.0  -0.6093
  O  O147  1  0.809700  0.449900  0.059260  1.0  -0.6711
  O  O148  1  0.752600  0.559900  0.127980  1.0  -0.62
  O  O149  1  0.926300  0.402000  0.890910  1.0  -0.5419
  O  O150  1  0.813900  0.379400  0.769970  1.0  -0.6096
  O  O151  1  0.550100  0.359800  0.059260  1.0  -0.6695
  O  O152  1  0.440100  0.192700  0.127980  1.0  -0.6221
  O  O153  1  0.598000  0.524300  0.890910  1.0  -0.5423
  O  O154  1  0.620600  0.434500  0.769970  1.0  -0.608
  O  O155  1  0.550100  0.190300  0.559260  1.0  -0.6681
  O  O156  1  0.440100  0.247400  0.627980  1.0  -0.6217
  O  O157  1  0.598000  0.073700  0.390910  1.0  -0.5413
  O  O158  1  0.620600  0.186100  0.269970  1.0  -0.6074
  O  O159  1  0.640200  0.449900  0.559260  1.0  -0.6712
  O  O160  1  0.807300  0.559900  0.627980  1.0  -0.62
  O  O161  1  0.475700  0.402000  0.390910  1.0  -0.5426
  O  O162  1  0.565500  0.379400  0.269970  1.0  -0.6103
  O  O163  1  0.809700  0.359800  0.559260  1.0  -0.6692
  O  O164  1  0.752600  0.192700  0.627980  1.0  -0.622
  O  O165  1  0.926300  0.524300  0.390910  1.0  -0.5421
  O  O166  1  0.813900  0.434500  0.269970  1.0  -0.6085
  O  O167  1  0.359800  0.809700  0.940740  1.0  -0.6684
  O  O168  1  0.192700  0.752600  0.872020  1.0  -0.6209
  O  O169  1  0.524300  0.926300  0.109090  1.0  -0.5419
  O  O170  1  0.434500  0.813900  0.230030  1.0  -0.6052
  O  O171  1  0.190300  0.550100  0.940740  1.0  -0.6712
  O  O172  1  0.247400  0.440100  0.872020  1.0  -0.6197
  O  O173  1  0.073700  0.598000  0.109090  1.0  -0.5436
  O  O174  1  0.186100  0.620600  0.230030  1.0  -0.6087
  O  O175  1  0.449900  0.640200  0.940740  1.0  -0.6694
  O  O176  1  0.559900  0.807300  0.872020  1.0  -0.6213
  O  O177  1  0.402000  0.475700  0.109090  1.0  -0.5427
  O  O178  1  0.379400  0.565500  0.230030  1.0  -0.6059
