# generated using pymatgen
data_La2Cu3H30C24(NO4)6
_symmetry_space_group_name_H-M   'P 1'
_cell_length_a   13.49460000
_cell_length_b   13.49460000
_cell_length_c   14.91200000
_cell_angle_alpha   90.00000000
_cell_angle_beta   90.00000000
_cell_angle_gamma   120.00000000
_symmetry_Int_Tables_number   1
_chemical_formula_structural   La2Cu3H30C24(NO4)6
_chemical_formula_sum   'La4 Cu6 H60 C48 N12 O48'
_cell_volume   2351.72512264
_cell_formula_units_Z   2
loop_
 _symmetry_equiv_pos_site_id
 _symmetry_equiv_pos_as_xyz
  1  'x, y, z'
loop_
 _atom_site_type_symbol
 _atom_site_label
 _atom_site_symmetry_multiplicity
 _atom_site_fract_x
 _atom_site_fract_y
 _atom_site_fract_z
 _atom_site_occupancy
 _atom_site_charge
  La  La1  1  0.333333  0.666667  0.669120  1.0  2.1478
  La  La2  1  0.666667  0.333333  0.830880  1.0  2.1478
  La  La3  1  0.666667  0.333333  0.330880  1.0  2.1478
  La  La4  1  0.333333  0.666667  0.169120  1.0  2.1478
  Cu  Cu5  1  0.500000  0.000000  0.500000  1.0  0.8168
  Cu  Cu6  1  0.500000  0.500000  0.500000  1.0  0.8168
  Cu  Cu7  1  0.000000  0.500000  0.500000  1.0  0.8168
  Cu  Cu8  1  0.500000  0.000000  0.000000  1.0  0.8168
  Cu  Cu9  1  0.000000  0.500000  0.000000  1.0  0.8168
  Cu  Cu10  1  0.500000  0.500000  0.000000  1.0  0.8168
  H  H11  1  0.352800  0.025600  0.423300  1.0  0.2624
  H  H12  1  0.183300  0.863800  0.477900  1.0  0.1073
  H  H13  1  0.255300  0.961800  0.546900  1.0  0.1281
  H  H14  1  0.316400  0.919600  0.311500  1.0  0.1341
  H  H15  1  0.269600  0.811700  0.373600  1.0  0.1296
  H  H16  1  0.672800  0.647200  0.423300  1.0  0.2609
  H  H17  1  0.680500  0.816700  0.477900  1.0  0.1066
  H  H18  1  0.706500  0.744700  0.546900  1.0  0.1275
  H  H19  1  0.603200  0.683600  0.311500  1.0  0.1341
  H  H20  1  0.542100  0.730400  0.373600  1.0  0.129
  H  H21  1  0.974400  0.327200  0.423300  1.0  0.2615
  H  H22  1  0.136200  0.319500  0.477900  1.0  0.1066
  H  H23  1  0.038200  0.293500  0.546900  1.0  0.1276
  H  H24  1  0.080400  0.396800  0.311500  1.0  0.134
  H  H25  1  0.188300  0.457900  0.373600  1.0  0.1267
  H  H26  1  0.327200  0.974400  0.076700  1.0  0.2627
  H  H27  1  0.319500  0.136200  0.022100  1.0  0.1073
  H  H28  1  0.293500  0.038200  0.953100  1.0  0.1281
  H  H29  1  0.396800  0.080400  0.188500  1.0  0.1339
  H  H30  1  0.457900  0.188300  0.126400  1.0  0.1299
  H  H31  1  0.025600  0.352800  0.076700  1.0  0.2613
  H  H32  1  0.863800  0.183300  0.022100  1.0  0.1074
  H  H33  1  0.961800  0.255300  0.953100  1.0  0.128
  H  H34  1  0.919600  0.316400  0.188500  1.0  0.1328
  H  H35  1  0.811700  0.269600  0.126400  1.0  0.1281
  H  H36  1  0.647200  0.672800  0.076700  1.0  0.2616
  H  H37  1  0.816700  0.680500  0.022100  1.0  0.1071
  H  H38  1  0.744700  0.706500  0.953100  1.0  0.1277
  H  H39  1  0.683600  0.603200  0.188500  1.0  0.1329
  H  H40  1  0.730400  0.542100  0.126400  1.0  0.1252
  H  H41  1  0.647200  0.974400  0.576700  1.0  0.2623
  H  H42  1  0.816700  0.136200  0.522100  1.0  0.1072
  H  H43  1  0.744700  0.038200  0.453100  1.0  0.1258
  H  H44  1  0.683600  0.080400  0.688500  1.0  0.1333
  H  H45  1  0.730400  0.188300  0.626400  1.0  0.1295
  H  H46  1  0.327200  0.352800  0.576700  1.0  0.2616
  H  H47  1  0.319500  0.183300  0.522100  1.0  0.1072
  H  H48  1  0.293500  0.255300  0.453100  1.0  0.1268
  H  H49  1  0.396800  0.316400  0.688500  1.0  0.1336
  H  H50  1  0.457900  0.269600  0.626400  1.0  0.1278
  H  H51  1  0.025600  0.672800  0.576700  1.0  0.2614
  H  H52  1  0.863800  0.680500  0.522100  1.0  0.1063
  H  H53  1  0.961800  0.706500  0.453100  1.0  0.1253
  H  H54  1  0.919600  0.603200  0.688500  1.0  0.1332
  H  H55  1  0.811700  0.542100  0.626400  1.0  0.1273
  H  H56  1  0.672800  0.025600  0.923300  1.0  0.2623
  H  H57  1  0.680500  0.863800  0.977900  1.0  0.1075
  H  H58  1  0.706500  0.961800  0.046900  1.0  0.1252
  H  H59  1  0.603200  0.919600  0.811500  1.0  0.1336
  H  H60  1  0.542100  0.811700  0.873600  1.0  0.1298
  H  H61  1  0.974400  0.647200  0.923300  1.0  0.2616
  H  H62  1  0.136200  0.816700  0.977900  1.0  0.1068
  H  H63  1  0.038200  0.744700  0.046900  1.0  0.1264
  H  H64  1  0.080400  0.683600  0.811500  1.0  0.1339
  H  H65  1  0.188300  0.730400  0.873600  1.0  0.1283
  H  H66  1  0.352800  0.327200  0.923300  1.0  0.2614
  H  H67  1  0.183300  0.319500  0.977900  1.0  0.1062
  H  H68  1  0.255300  0.293500  0.046900  1.0  0.1257
  H  H69  1  0.316400  0.396800  0.811500  1.0  0.1334
  H  H70  1  0.269600  0.457900  0.873600  1.0  0.128
  C  C71  1  0.272900  0.819900  0.565900  1.0  0.6971
  C  C72  1  0.256300  0.904100  0.508700  1.0  -0.19
  C  C73  1  0.334100  0.887700  0.363200  1.0  -0.224
  C  C74  1  0.439300  0.878400  0.342900  1.0  0.7435
  C  C75  1  0.547000  0.727100  0.565900  1.0  0.6952
  C  C76  1  0.647800  0.743700  0.508700  1.0  -0.1904
  C  C77  1  0.553600  0.665900  0.363200  1.0  -0.2242
  C  C78  1  0.439100  0.560700  0.342900  1.0  0.7445
  C  C79  1  0.180100  0.453000  0.565900  1.0  0.6971
  C  C80  1  0.095900  0.352200  0.508700  1.0  -0.1913
  C  C81  1  0.112300  0.446400  0.363200  1.0  -0.2238
  C  C82  1  0.121600  0.560900  0.342900  1.0  0.7455
  C  C83  1  0.453000  0.180100  0.934100  1.0  0.6973
  C  C84  1  0.352200  0.095900  0.991300  1.0  -0.1901
  C  C85  1  0.446400  0.112300  0.136800  1.0  -0.2245
  C  C86  1  0.560900  0.121600  0.157100  1.0  0.7439
  C  C87  1  0.819900  0.272900  0.934100  1.0  0.6953
  C  C88  1  0.904100  0.256300  0.991300  1.0  -0.19
  C  C89  1  0.887700  0.334100  0.136800  1.0  -0.2249
  C  C90  1  0.878400  0.439300  0.157100  1.0  0.7445
  C  C91  1  0.727100  0.547000  0.934100  1.0  0.697
  C  C92  1  0.743700  0.647800  0.991300  1.0  -0.191
  C  C93  1  0.665900  0.553600  0.136800  1.0  -0.2231
  C  C94  1  0.560700  0.439100  0.157100  1.0  0.7455
  C  C95  1  0.727100  0.180100  0.434100  1.0  0.6975
  C  C96  1  0.743700  0.095900  0.491300  1.0  -0.1913
  C  C97  1  0.665900  0.112300  0.636800  1.0  -0.224
  C  C98  1  0.560700  0.121600  0.657100  1.0  0.7434
  C  C99  1  0.453000  0.272900  0.434100  1.0  0.6958
  C  C100  1  0.352200  0.256300  0.491300  1.0  -0.1902
  C  C101  1  0.446400  0.334100  0.636800  1.0  -0.2252
  C  C102  1  0.560900  0.439300  0.657100  1.0  0.745
  C  C103  1  0.819900  0.547000  0.434100  1.0  0.6973
  C  C104  1  0.904100  0.647800  0.491300  1.0  -0.1903
  C  C105  1  0.887700  0.553600  0.636800  1.0  -0.2236
  C  C106  1  0.878400  0.439100  0.657100  1.0  0.746
  C  C107  1  0.547000  0.819900  0.065900  1.0  0.6971
  C  C108  1  0.647800  0.904100  0.008700  1.0  -0.1923
  C  C109  1  0.553600  0.887700  0.863200  1.0  -0.2241
  C  C110  1  0.439100  0.878400  0.842900  1.0  0.7432
  C  C111  1  0.180100  0.727100  0.065900  1.0  0.6957
  C  C112  1  0.095900  0.743700  0.008700  1.0  -0.19
  C  C113  1  0.112300  0.665900  0.863200  1.0  -0.2246
  C  C114  1  0.121600  0.560700  0.842900  1.0  0.7444
  C  C115  1  0.272900  0.453000  0.065900  1.0  0.6966
  C  C116  1  0.256300  0.352200  0.008700  1.0  -0.1904
  C  C117  1  0.334100  0.446400  0.863200  1.0  -0.2237
  C  C118  1  0.439300  0.560900  0.842900  1.0  0.7457
  N  N119  1  0.349500  0.959900  0.442200  1.0  -0.2788
  N  N120  1  0.610400  0.650500  0.442200  1.0  -0.2785
  N  N121  1  0.040100  0.389600  0.442200  1.0  -0.2793
  N  N122  1  0.389600  0.040100  0.057800  1.0  -0.279
  N  N123  1  0.959900  0.349500  0.057800  1.0  -0.2784
  N  N124  1  0.650500  0.610400  0.057800  1.0  -0.279
  N  N125  1  0.650500  0.040100  0.557800  1.0  -0.2795
  N  N126  1  0.389600  0.349500  0.557800  1.0  -0.2778
  N  N127  1  0.959900  0.610400  0.557800  1.0  -0.2792
  N  N128  1  0.610400  0.959900  0.942200  1.0  -0.2796
  N  N129  1  0.040100  0.650500  0.942200  1.0  -0.2775
  N  N130  1  0.349500  0.389600  0.942200  1.0  -0.2792
  O  O131  1  0.364300  0.817000  0.556000  1.0  -0.6991
  O  O132  1  0.198700  0.759700  0.622500  1.0  -0.6577
  O  O133  1  0.523700  0.927000  0.395210  1.0  -0.5717
  O  O134  1  0.436200  0.823400  0.275900  1.0  -0.7
  O  O135  1  0.452700  0.635700  0.556000  1.0  -0.6985
  O  O136  1  0.561000  0.801300  0.622500  1.0  -0.6584
  O  O137  1  0.403300  0.476300  0.395210  1.0  -0.5726
  O  O138  1  0.387200  0.563800  0.275900  1.0  -0.699
  O  O139  1  0.183000  0.547300  0.556000  1.0  -0.6992
  O  O140  1  0.240300  0.439000  0.622500  1.0  -0.656
  O  O141  1  0.073000  0.596700  0.395210  1.0  -0.5724
  O  O142  1  0.176600  0.612800  0.275900  1.0  -0.7007
  O  O143  1  0.547300  0.183000  0.944000  1.0  -0.6996
  O  O144  1  0.439000  0.240300  0.877500  1.0  -0.6575
  O  O145  1  0.596700  0.073000  0.104790  1.0  -0.5722
  O  O146  1  0.612800  0.176600  0.224100  1.0  -0.6997
  O  O147  1  0.817000  0.364300  0.944000  1.0  -0.6991
  O  O148  1  0.759700  0.198700  0.877500  1.0  -0.6588
  O  O149  1  0.927000  0.523700  0.104790  1.0  -0.5733
  O  O150  1  0.823400  0.436200  0.224100  1.0  -0.6999
  O  O151  1  0.635700  0.452700  0.944000  1.0  -0.6994
  O  O152  1  0.801300  0.561000  0.877500  1.0  -0.6561
  O  O153  1  0.476300  0.403300  0.104790  1.0  -0.5723
  O  O154  1  0.563800  0.387200  0.224100  1.0  -0.7006
  O  O155  1  0.635700  0.183000  0.444000  1.0  -0.6991
  O  O156  1  0.801300  0.240300  0.377500  1.0  -0.6567
  O  O157  1  0.476300  0.073000  0.604790  1.0  -0.5721
  O  O158  1  0.563800  0.176600  0.724100  1.0  -0.7006
  O  O159  1  0.547300  0.364300  0.444000  1.0  -0.6987
  O  O160  1  0.439000  0.198700  0.377500  1.0  -0.6592
  O  O161  1  0.596700  0.523700  0.604790  1.0  -0.5733
  O  O162  1  0.612800  0.436200  0.724100  1.0  -0.6999
  O  O163  1  0.817000  0.452700  0.444000  1.0  -0.7001
  O  O164  1  0.759700  0.561000  0.377500  1.0  -0.6565
  O  O165  1  0.927000  0.403300  0.604790  1.0  -0.5725
  O  O166  1  0.823400  0.387200  0.724100  1.0  -0.7013
  O  O167  1  0.452700  0.817000  0.056000  1.0  -0.6987
  O  O168  1  0.561000  0.759700  0.122500  1.0  -0.6568
  O  O169  1  0.403300  0.927000  0.895210  1.0  -0.5718
  O  O170  1  0.387200  0.823400  0.775900  1.0  -0.7007
  O  O171  1  0.183000  0.635700  0.056000  1.0  -0.6983
  O  O172  1  0.240300  0.801300  0.122500  1.0  -0.6589
  O  O173  1  0.073000  0.476300  0.895210  1.0  -0.5727
  O  O174  1  0.176600  0.563800  0.775900  1.0  -0.6995
  O  O175  1  0.364300  0.547300  0.056000  1.0  -0.7001
  O  O176  1  0.198700  0.439000  0.122500  1.0  -0.6567
  O  O177  1  0.523700  0.596700  0.895210  1.0  -0.5728
  O  O178  1  0.436200  0.612800  0.775900  1.0  -0.7009
