# generated using pymatgen
data_Ho2Cu3H30C24(NO4)6
_symmetry_space_group_name_H-M   'P 1'
_cell_length_a   13.38800000
_cell_length_b   13.38800000
_cell_length_c   14.30600000
_cell_angle_alpha   90.00000000
_cell_angle_beta   90.00000000
_cell_angle_gamma   120.00000000
_symmetry_Int_Tables_number   1
_chemical_formula_structural   Ho2Cu3H30C24(NO4)6
_chemical_formula_sum   'Ho4 Cu6 H60 C48 N12 O48'
_cell_volume   2220.65074471
_cell_formula_units_Z   2
loop_
 _symmetry_equiv_pos_site_id
 _symmetry_equiv_pos_as_xyz
  1  'x, y, z'
loop_
 _atom_site_type_symbol
 _atom_site_label
 _atom_site_symmetry_multiplicity
 _atom_site_fract_x
 _atom_site_fract_y
 _atom_site_fract_z
 _atom_site_occupancy
 _atom_site_charge
  Ho  Ho1  1  0.333333  0.666667  0.666910  1.0  2.231
  Ho  Ho2  1  0.666667  0.333333  0.833090  1.0  2.231
  Ho  Ho3  1  0.666667  0.333333  0.333090  1.0  2.231
  Ho  Ho4  1  0.333333  0.666667  0.166910  1.0  2.231
  Cu  Cu5  1  0.500000  0.000000  0.500000  1.0  0.8265
  Cu  Cu6  1  0.500000  0.500000  0.500000  1.0  0.8265
  Cu  Cu7  1  0.000000  0.500000  0.500000  1.0  0.8265
  Cu  Cu8  1  0.500000  0.000000  0.000000  1.0  0.8265
  Cu  Cu9  1  0.000000  0.500000  0.000000  1.0  0.8265
  Cu  Cu10  1  0.500000  0.500000  0.000000  1.0  0.8265
  H  H11  1  0.672500  0.022300  0.420500  1.0  0.2543
  H  H12  1  0.703900  0.958900  0.552100  1.0  0.1241
  H  H13  1  0.681000  0.861300  0.480100  1.0  0.1106
  H  H14  1  0.539100  0.805900  0.371000  1.0  0.1305
  H  H15  1  0.600300  0.913400  0.304900  1.0  0.1405
  H  H16  1  0.349800  0.327500  0.420500  1.0  0.2539
  H  H17  1  0.255000  0.296100  0.552100  1.0  0.1246
  H  H18  1  0.180300  0.319000  0.480100  1.0  0.1092
  H  H19  1  0.266800  0.460900  0.371000  1.0  0.1309
  H  H20  1  0.313100  0.399700  0.304900  1.0  0.1398
  H  H21  1  0.977700  0.650200  0.420500  1.0  0.2548
  H  H22  1  0.041100  0.745000  0.552100  1.0  0.1249
  H  H23  1  0.138700  0.819700  0.480100  1.0  0.1087
  H  H24  1  0.194100  0.733200  0.371000  1.0  0.1295
  H  H25  1  0.086600  0.686900  0.304900  1.0  0.1399
  H  H26  1  0.650200  0.977700  0.079500  1.0  0.2543
  H  H27  1  0.745000  0.041100  0.947900  1.0  0.1244
  H  H28  1  0.819700  0.138700  0.019900  1.0  0.1106
  H  H29  1  0.733200  0.194100  0.129000  1.0  0.1299
  H  H30  1  0.686900  0.086600  0.195100  1.0  0.1412
  H  H31  1  0.022300  0.672500  0.079500  1.0  0.2533
  H  H32  1  0.958900  0.703900  0.947900  1.0  0.1244
  H  H33  1  0.861300  0.681000  0.019900  1.0  0.109
  H  H34  1  0.805900  0.539100  0.129000  1.0  0.1303
  H  H35  1  0.913400  0.600300  0.195100  1.0  0.1416
  H  H36  1  0.327500  0.349800  0.079500  1.0  0.2546
  H  H37  1  0.296100  0.255000  0.947900  1.0  0.1247
  H  H38  1  0.319000  0.180300  0.019900  1.0  0.1084
  H  H39  1  0.460900  0.266800  0.129000  1.0  0.129
  H  H40  1  0.399700  0.313100  0.195100  1.0  0.141
  H  H41  1  0.327500  0.977700  0.579500  1.0  0.2542
  H  H42  1  0.296100  0.041100  0.447900  1.0  0.1224
  H  H43  1  0.319000  0.138700  0.519900  1.0  0.1104
  H  H44  1  0.460900  0.194100  0.629000  1.0  0.1302
  H  H45  1  0.399700  0.086600  0.695100  1.0  0.1408
  H  H46  1  0.650200  0.672500  0.579500  1.0  0.2537
  H  H47  1  0.745000  0.703900  0.447900  1.0  0.1224
  H  H48  1  0.819700  0.681000  0.519900  1.0  0.1097
  H  H49  1  0.733200  0.539100  0.629000  1.0  0.1315
  H  H50  1  0.686900  0.600300  0.695100  1.0  0.1402
  H  H51  1  0.022300  0.349800  0.579500  1.0  0.2544
  H  H52  1  0.958900  0.255000  0.447900  1.0  0.1223
  H  H53  1  0.861300  0.180300  0.519900  1.0  0.1094
  H  H54  1  0.805900  0.266800  0.629000  1.0  0.1297
  H  H55  1  0.913400  0.313100  0.695100  1.0  0.14
  H  H56  1  0.349800  0.022300  0.920500  1.0  0.254
  H  H57  1  0.255000  0.958900  0.052100  1.0  0.1226
  H  H58  1  0.180300  0.861300  0.980100  1.0  0.1104
  H  H59  1  0.266800  0.805900  0.871000  1.0  0.1308
  H  H60  1  0.313100  0.913400  0.804900  1.0  0.1409
  H  H61  1  0.977700  0.327500  0.920500  1.0  0.2543
  H  H62  1  0.041100  0.296100  0.052100  1.0  0.1221
  H  H63  1  0.138700  0.319000  0.980100  1.0  0.1098
  H  H64  1  0.194100  0.460900  0.871000  1.0  0.1326
  H  H65  1  0.086600  0.399700  0.804900  1.0  0.1395
  H  H66  1  0.672500  0.650200  0.920500  1.0  0.2544
  H  H67  1  0.703900  0.745000  0.052100  1.0  0.1227
  H  H68  1  0.681000  0.819700  0.980100  1.0  0.1086
  H  H69  1  0.539100  0.733200  0.871000  1.0  0.1308
  H  H70  1  0.600300  0.686900  0.804900  1.0  0.1401
  C  C71  1  0.545700  0.814800  0.569600  1.0  0.699
  C  C72  1  0.646200  0.900600  0.511500  1.0  -0.1933
  C  C73  1  0.550900  0.882500  0.359300  1.0  -0.2264
  C  C74  1  0.437300  0.873300  0.339000  1.0  0.7371
  C  C75  1  0.269100  0.454300  0.569600  1.0  0.6982
  C  C76  1  0.254400  0.353800  0.511500  1.0  -0.1922
  C  C77  1  0.331600  0.449100  0.359300  1.0  -0.2264
  C  C78  1  0.436000  0.562700  0.339000  1.0  0.7393
  C  C79  1  0.185200  0.730900  0.569600  1.0  0.6977
  C  C80  1  0.099400  0.745600  0.511500  1.0  -0.191
  C  C81  1  0.117500  0.668400  0.359300  1.0  -0.2266
  C  C82  1  0.126700  0.564000  0.339000  1.0  0.7384
  C  C83  1  0.730900  0.185200  0.930400  1.0  0.6986
  C  C84  1  0.745600  0.099400  0.988500  1.0  -0.1918
  C  C85  1  0.668400  0.117500  0.140700  1.0  -0.2261
  C  C86  1  0.564000  0.126700  0.161000  1.0  0.7374
  C  C87  1  0.814800  0.545700  0.930400  1.0  0.6981
  C  C88  1  0.900600  0.646200  0.988500  1.0  -0.1923
  C  C89  1  0.882500  0.550900  0.140700  1.0  -0.227
  C  C90  1  0.873300  0.437300  0.161000  1.0  0.7392
  C  C91  1  0.454300  0.269100  0.930400  1.0  0.6967
  C  C92  1  0.353800  0.254400  0.988500  1.0  -0.1913
  C  C93  1  0.449100  0.331600  0.140700  1.0  -0.2271
  C  C94  1  0.562700  0.436000  0.161000  1.0  0.7394
  C  C95  1  0.454300  0.185200  0.430400  1.0  0.6983
  C  C96  1  0.353800  0.099400  0.488500  1.0  -0.1924
  C  C97  1  0.449100  0.117500  0.640700  1.0  -0.2271
  C  C98  1  0.562700  0.126700  0.661000  1.0  0.7374
  C  C99  1  0.730900  0.545700  0.430400  1.0  0.6981
  C  C100  1  0.745600  0.646200  0.488500  1.0  -0.1922
  C  C101  1  0.668400  0.550900  0.640700  1.0  -0.2258
  C  C102  1  0.564000  0.437300  0.661000  1.0  0.7386
  C  C103  1  0.814800  0.269100  0.430400  1.0  0.6963
  C  C104  1  0.900600  0.254400  0.488500  1.0  -0.1906
  C  C105  1  0.882500  0.331600  0.640700  1.0  -0.2265
  C  C106  1  0.873300  0.436000  0.661000  1.0  0.7388
  C  C107  1  0.269100  0.814800  0.069600  1.0  0.6986
  C  C108  1  0.254400  0.900600  0.011500  1.0  -0.193
  C  C109  1  0.331600  0.882500  0.859300  1.0  -0.2269
  C  C110  1  0.436000  0.873300  0.839000  1.0  0.737
  C  C111  1  0.185200  0.454300  0.069600  1.0  0.6988
  C  C112  1  0.099400  0.353800  0.011500  1.0  -0.1924
  C  C113  1  0.117500  0.449100  0.859300  1.0  -0.2257
  C  C114  1  0.126700  0.562700  0.839000  1.0  0.7395
  C  C115  1  0.545700  0.730900  0.069600  1.0  0.6968
  C  C116  1  0.646200  0.745600  0.011500  1.0  -0.1915
  C  C117  1  0.550900  0.668400  0.859300  1.0  -0.2258
  C  C118  1  0.437300  0.564000  0.839000  1.0  0.7378
  N  N119  1  0.609200  0.956900  0.440800  1.0  -0.2768
  N  N120  1  0.347700  0.390800  0.440800  1.0  -0.2768
  N  N121  1  0.043100  0.652300  0.440800  1.0  -0.2751
  N  N122  1  0.652300  0.043100  0.059200  1.0  -0.2775
  N  N123  1  0.956900  0.609200  0.059200  1.0  -0.2769
  N  N124  1  0.390800  0.347700  0.059200  1.0  -0.2759
  N  N125  1  0.390800  0.043100  0.559200  1.0  -0.2767
  N  N126  1  0.652300  0.609200  0.559200  1.0  -0.2766
  N  N127  1  0.956900  0.347700  0.559200  1.0  -0.2762
  N  N128  1  0.347700  0.956900  0.940800  1.0  -0.276
  N  N129  1  0.043100  0.390800  0.940800  1.0  -0.2766
  N  N130  1  0.609200  0.652300  0.940800  1.0  -0.2759
  O  O131  1  0.449700  0.810000  0.559000  1.0  -0.7538
  O  O132  1  0.559000  0.753000  0.627600  1.0  -0.6454
  O  O133  1  0.402100  0.926500  0.390800  1.0  -0.555
  O  O134  1  0.379700  0.814100  0.270100  1.0  -0.6999
  O  O135  1  0.360300  0.550300  0.559000  1.0  -0.7565
  O  O136  1  0.194000  0.441000  0.627600  1.0  -0.6439
  O  O137  1  0.524400  0.597900  0.390800  1.0  -0.5555
  O  O138  1  0.434400  0.620300  0.270100  1.0  -0.7005
  O  O139  1  0.190000  0.639700  0.559000  1.0  -0.7543
  O  O140  1  0.247000  0.806000  0.627600  1.0  -0.6465
  O  O141  1  0.073500  0.475600  0.390800  1.0  -0.5558
  O  O142  1  0.185900  0.565600  0.270100  1.0  -0.6998
  O  O143  1  0.639700  0.190000  0.941000  1.0  -0.7535
  O  O144  1  0.806000  0.247000  0.872400  1.0  -0.6447
  O  O145  1  0.475600  0.073500  0.109200  1.0  -0.556
  O  O146  1  0.565600  0.185900  0.229900  1.0  -0.7006
  O  O147  1  0.810000  0.449700  0.941000  1.0  -0.7562
  O  O148  1  0.753000  0.559000  0.872400  1.0  -0.6434
  O  O149  1  0.926500  0.402100  0.109200  1.0  -0.5561
  O  O150  1  0.814100  0.379700  0.229900  1.0  -0.7013
  O  O151  1  0.550300  0.360300  0.941000  1.0  -0.755
  O  O152  1  0.441000  0.194000  0.872400  1.0  -0.6462
  O  O153  1  0.597900  0.524400  0.109200  1.0  -0.5571
  O  O154  1  0.620300  0.434400  0.229900  1.0  -0.7014
  O  O155  1  0.550300  0.190000  0.441000  1.0  -0.7536
  O  O156  1  0.441000  0.247000  0.372400  1.0  -0.6448
  O  O157  1  0.597900  0.073500  0.609200  1.0  -0.5556
  O  O158  1  0.620300  0.185900  0.729900  1.0  -0.7001
  O  O159  1  0.639700  0.449700  0.441000  1.0  -0.7565
  O  O160  1  0.806000  0.559000  0.372400  1.0  -0.6437
  O  O161  1  0.475600  0.402100  0.609200  1.0  -0.5568
  O  O162  1  0.565600  0.379700  0.729900  1.0  -0.7026
  O  O163  1  0.810000  0.360300  0.441000  1.0  -0.7553
  O  O164  1  0.753000  0.194000  0.372400  1.0  -0.646
  O  O165  1  0.926500  0.524400  0.609200  1.0  -0.5571
  O  O166  1  0.814100  0.434400  0.729900  1.0  -0.7
  O  O167  1  0.360300  0.810000  0.059000  1.0  -0.7534
  O  O168  1  0.194000  0.753000  0.127600  1.0  -0.6457
  O  O169  1  0.524400  0.926500  0.890800  1.0  -0.5544
  O  O170  1  0.434400  0.814100  0.770100  1.0  -0.699
  O  O171  1  0.190000  0.550300  0.059000  1.0  -0.7567
  O  O172  1  0.247000  0.441000  0.127600  1.0  -0.6441
  O  O173  1  0.073500  0.597900  0.890800  1.0  -0.5561
  O  O174  1  0.185900  0.620300  0.770100  1.0  -0.702
  O  O175  1  0.449700  0.639700  0.059000  1.0  -0.7546
  O  O176  1  0.559000  0.806000  0.127600  1.0  -0.646
  O  O177  1  0.402100  0.475600  0.890800  1.0  -0.5558
  O  O178  1  0.379700  0.565600  0.770100  1.0  -0.6995
