# generated using pymatgen
data_Nd2Cu3H30C24(NO4)6
_symmetry_space_group_name_H-M   'P 1'
_cell_length_a   13.45670000
_cell_length_b   13.45670000
_cell_length_c   14.69820000
_cell_angle_alpha   90.00000000
_cell_angle_beta   90.00000000
_cell_angle_gamma   120.00000000
_symmetry_Int_Tables_number   1
_chemical_formula_structural   Nd2Cu3H30C24(NO4)6
_chemical_formula_sum   'Nd4 Cu6 H60 C48 N12 O48'
_cell_volume   2305.00528356
_cell_formula_units_Z   2
loop_
 _symmetry_equiv_pos_site_id
 _symmetry_equiv_pos_as_xyz
  1  'x, y, z'
loop_
 _atom_site_type_symbol
 _atom_site_label
 _atom_site_symmetry_multiplicity
 _atom_site_fract_x
 _atom_site_fract_y
 _atom_site_fract_z
 _atom_site_occupancy
 _atom_site_charge
  Nd  Nd1  1  0.333333  0.666667  0.668220  1.0  2.2905
  Nd  Nd2  1  0.666667  0.333333  0.831780  1.0  2.2906
  Nd  Nd3  1  0.666667  0.333333  0.331780  1.0  2.2906
  Nd  Nd4  1  0.333333  0.666667  0.168220  1.0  2.2905
  Cu  Cu5  1  0.500000  0.500000  0.500000  1.0  0.8151
  Cu  Cu6  1  0.000000  0.500000  0.500000  1.0  0.8151
  Cu  Cu7  1  0.500000  0.000000  0.500000  1.0  0.8151
  Cu  Cu8  1  0.000000  0.500000  0.000000  1.0  0.8151
  Cu  Cu9  1  0.500000  0.500000  0.000000  1.0  0.8151
  Cu  Cu10  1  0.500000  0.000000  0.000000  1.0  0.8151
  H  H11  1  0.672800  0.647900  0.422800  1.0  0.253
  H  H12  1  0.680300  0.817900  0.478200  1.0  0.1089
  H  H13  1  0.706100  0.745800  0.548500  1.0  0.1209
  H  H14  1  0.602500  0.683800  0.309100  1.0  0.133
  H  H15  1  0.541800  0.731400  0.372100  1.0  0.123
  H  H16  1  0.975100  0.327200  0.422800  1.0  0.2538
  H  H17  1  0.137600  0.319700  0.478200  1.0  0.1064
  H  H18  1  0.039700  0.293900  0.548500  1.0  0.1247
  H  H19  1  0.081300  0.397500  0.309100  1.0  0.1329
  H  H20  1  0.189600  0.458200  0.372100  1.0  0.1273
  H  H21  1  0.352100  0.024900  0.422800  1.0  0.2547
  H  H22  1  0.182100  0.862400  0.478200  1.0  0.1086
  H  H23  1  0.254200  0.960300  0.548500  1.0  0.1246
  H  H24  1  0.316200  0.918700  0.309100  1.0  0.1284
  H  H25  1  0.268600  0.810400  0.372100  1.0  0.126
  H  H26  1  0.024900  0.352100  0.077200  1.0  0.2552
  H  H27  1  0.862400  0.182100  0.021800  1.0  0.1093
  H  H28  1  0.960300  0.254200  0.951500  1.0  0.1262
  H  H29  1  0.918700  0.316200  0.190900  1.0  0.1295
  H  H30  1  0.810400  0.268600  0.127900  1.0  0.125
  H  H31  1  0.647900  0.672800  0.077200  1.0  0.2551
  H  H32  1  0.817900  0.680300  0.021800  1.0  0.1068
  H  H33  1  0.745800  0.706100  0.951500  1.0  0.1279
  H  H34  1  0.683800  0.602500  0.190900  1.0  0.1311
  H  H35  1  0.731400  0.541800  0.127900  1.0  0.1269
  H  H36  1  0.327200  0.975100  0.077200  1.0  0.2561
  H  H37  1  0.319700  0.137600  0.021800  1.0  0.1074
  H  H38  1  0.293900  0.039700  0.951500  1.0  0.1283
  H  H39  1  0.397500  0.081300  0.190900  1.0  0.1291
  H  H40  1  0.458200  0.189600  0.127900  1.0  0.1265
  H  H41  1  0.327200  0.352100  0.577200  1.0  0.2555
  H  H42  1  0.319700  0.182100  0.521800  1.0  0.107
  H  H43  1  0.293900  0.254200  0.451500  1.0  0.129
  H  H44  1  0.397500  0.316200  0.690900  1.0  0.1299
  H  H45  1  0.458200  0.268600  0.627900  1.0  0.1231
  H  H46  1  0.024900  0.672800  0.577200  1.0  0.2548
  H  H47  1  0.862400  0.680300  0.521800  1.0  0.106
  H  H48  1  0.960300  0.706100  0.451500  1.0  0.1236
  H  H49  1  0.918700  0.602500  0.690900  1.0  0.1286
  H  H50  1  0.810400  0.541800  0.627900  1.0  0.1267
  H  H51  1  0.647900  0.975100  0.577200  1.0  0.2558
  H  H52  1  0.817900  0.137600  0.521800  1.0  0.1071
  H  H53  1  0.745800  0.039700  0.451500  1.0  0.1283
  H  H54  1  0.683800  0.081300  0.690900  1.0  0.133
  H  H55  1  0.731400  0.189600  0.627900  1.0  0.1236
  H  H56  1  0.975100  0.647900  0.922800  1.0  0.2529
  H  H57  1  0.137600  0.817900  0.978200  1.0  0.1067
  H  H58  1  0.039700  0.745800  0.048500  1.0  0.1255
  H  H59  1  0.081300  0.683800  0.809100  1.0  0.1301
  H  H60  1  0.189600  0.731400  0.872100  1.0  0.1232
  H  H61  1  0.352100  0.327200  0.922800  1.0  0.2542
  H  H62  1  0.182100  0.319700  0.978200  1.0  0.1072
  H  H63  1  0.254200  0.293900  0.048500  1.0  0.1209
  H  H64  1  0.316200  0.397500  0.809100  1.0  0.1279
  H  H65  1  0.268600  0.458200  0.872100  1.0  0.1258
  H  H66  1  0.672800  0.024900  0.922800  1.0  0.2548
  H  H67  1  0.680300  0.862400  0.978200  1.0  0.1086
  H  H68  1  0.706100  0.960300  0.048500  1.0  0.1233
  H  H69  1  0.602500  0.918700  0.809100  1.0  0.1299
  H  H70  1  0.541800  0.810400  0.872100  1.0  0.1235
  C  C71  1  0.546200  0.728300  0.567500  1.0  0.7034
  C  C72  1  0.647400  0.744800  0.509600  1.0  -0.1921
  C  C73  1  0.552900  0.666400  0.361700  1.0  -0.2226
  C  C74  1  0.438300  0.561500  0.341500  1.0  0.7498
  C  C75  1  0.182100  0.453800  0.567500  1.0  0.7057
  C  C76  1  0.097400  0.352600  0.509600  1.0  -0.1933
  C  C77  1  0.113500  0.447100  0.361700  1.0  -0.2221
  C  C78  1  0.123200  0.561700  0.341500  1.0  0.7516
  C  C79  1  0.271700  0.817900  0.567500  1.0  0.7054
  C  C80  1  0.255200  0.902600  0.509600  1.0  -0.1925
  C  C81  1  0.333600  0.886500  0.361700  1.0  -0.2228
  C  C82  1  0.438500  0.876800  0.341500  1.0  0.7495
  C  C83  1  0.817900  0.271700  0.932500  1.0  0.7038
  C  C84  1  0.902600  0.255200  0.990400  1.0  -0.1913
  C  C85  1  0.886500  0.333600  0.138300  1.0  -0.2237
  C  C86  1  0.876800  0.438500  0.158500  1.0  0.7507
  C  C87  1  0.728300  0.546200  0.932500  1.0  0.7051
  C  C88  1  0.744800  0.647400  0.990400  1.0  -0.1929
  C  C89  1  0.666400  0.552900  0.138300  1.0  -0.2244
  C  C90  1  0.561500  0.438300  0.158500  1.0  0.751
  C  C91  1  0.453800  0.182100  0.932500  1.0  0.706
  C  C92  1  0.352600  0.097400  0.990400  1.0  -0.1923
  C  C93  1  0.447100  0.113500  0.138300  1.0  -0.2266
  C  C94  1  0.561700  0.123200  0.158500  1.0  0.7502
  C  C95  1  0.453800  0.271700  0.432500  1.0  0.7047
  C  C96  1  0.352600  0.255200  0.490400  1.0  -0.1914
  C  C97  1  0.447100  0.333600  0.638300  1.0  -0.2236
  C  C98  1  0.561700  0.438500  0.658500  1.0  0.751
  C  C99  1  0.817900  0.546200  0.432500  1.0  0.7053
  C  C100  1  0.902600  0.647400  0.490400  1.0  -0.1927
  C  C101  1  0.886500  0.552900  0.638300  1.0  -0.2222
  C  C102  1  0.876800  0.438300  0.658500  1.0  0.7516
  C  C103  1  0.728300  0.182100  0.432500  1.0  0.7057
  C  C104  1  0.744800  0.097400  0.490400  1.0  -0.192
  C  C105  1  0.666400  0.113500  0.638300  1.0  -0.2265
  C  C106  1  0.561500  0.123200  0.658500  1.0  0.7494
  C  C107  1  0.182100  0.728300  0.067500  1.0  0.7043
  C  C108  1  0.097400  0.744800  0.009600  1.0  -0.1916
  C  C109  1  0.113500  0.666400  0.861700  1.0  -0.2236
  C  C110  1  0.123200  0.561500  0.841500  1.0  0.7496
  C  C111  1  0.271700  0.453800  0.067500  1.0  0.7052
  C  C112  1  0.255200  0.352600  0.009600  1.0  -0.1923
  C  C113  1  0.333600  0.447100  0.861700  1.0  -0.2254
  C  C114  1  0.438500  0.561700  0.841500  1.0  0.7519
  C  C115  1  0.546200  0.817900  0.067500  1.0  0.7054
  C  C116  1  0.647400  0.902600  0.009600  1.0  -0.1934
  C  C117  1  0.552900  0.886500  0.861700  1.0  -0.223
  C  C118  1  0.438300  0.876800  0.841500  1.0  0.7492
  N  N119  1  0.610100  0.651000  0.441900  1.0  -0.2846
  N  N120  1  0.040900  0.389900  0.441900  1.0  -0.2823
  N  N121  1  0.349000  0.959100  0.441900  1.0  -0.2851
  N  N122  1  0.959100  0.349000  0.058100  1.0  -0.281
  N  N123  1  0.651000  0.610100  0.058100  1.0  -0.2839
  N  N124  1  0.389900  0.040900  0.058100  1.0  -0.2822
  N  N125  1  0.389900  0.349000  0.558100  1.0  -0.2811
  N  N126  1  0.959100  0.610100  0.558100  1.0  -0.2824
  N  N127  1  0.651000  0.040900  0.558100  1.0  -0.2827
  N  N128  1  0.040900  0.651000  0.941900  1.0  -0.2808
  N  N129  1  0.349000  0.389900  0.941900  1.0  -0.2822
  N  N130  1  0.610100  0.959100  0.941900  1.0  -0.2859
  O  O131  1  0.451100  0.636600  0.556500  1.0  -0.7378
  O  O132  1  0.559100  0.801800  0.625000  1.0  -0.6556
  O  O133  1  0.402500  0.475600  0.393600  1.0  -0.5685
  O  O134  1  0.385300  0.564900  0.273800  1.0  -0.7079
  O  O135  1  0.185500  0.548900  0.556500  1.0  -0.7401
  O  O136  1  0.242700  0.440900  0.625000  1.0  -0.6536
  O  O137  1  0.073100  0.597500  0.393600  1.0  -0.5683
  O  O138  1  0.179600  0.614700  0.273800  1.0  -0.7101
  O  O139  1  0.363400  0.814500  0.556500  1.0  -0.736
  O  O140  1  0.198200  0.757300  0.625000  1.0  -0.6558
  O  O141  1  0.524400  0.926900  0.393600  1.0  -0.5676
  O  O142  1  0.435100  0.820400  0.273800  1.0  -0.7086
  O  O143  1  0.814500  0.363400  0.943500  1.0  -0.7385
  O  O144  1  0.757300  0.198200  0.875000  1.0  -0.6554
  O  O145  1  0.926900  0.524400  0.106400  1.0  -0.5686
  O  O146  1  0.820400  0.435100  0.226200  1.0  -0.7087
  O  O147  1  0.636600  0.451100  0.943500  1.0  -0.7405
  O  O148  1  0.801800  0.559100  0.875000  1.0  -0.6525
  O  O149  1  0.475600  0.402500  0.106400  1.0  -0.5683
  O  O150  1  0.564900  0.385300  0.226200  1.0  -0.7112
  O  O151  1  0.548900  0.185500  0.943500  1.0  -0.7371
  O  O152  1  0.440900  0.242700  0.875000  1.0  -0.6543
  O  O153  1  0.597500  0.073100  0.106400  1.0  -0.5679
  O  O154  1  0.614700  0.179600  0.226200  1.0  -0.7091
  O  O155  1  0.548900  0.363400  0.443500  1.0  -0.738
  O  O156  1  0.440900  0.198200  0.375000  1.0  -0.6558
  O  O157  1  0.597500  0.524400  0.606400  1.0  -0.5688
  O  O158  1  0.614700  0.435100  0.726200  1.0  -0.709
  O  O159  1  0.814500  0.451100  0.443500  1.0  -0.7403
  O  O160  1  0.757300  0.559100  0.375000  1.0  -0.6523
  O  O161  1  0.926900  0.402500  0.606400  1.0  -0.5684
  O  O162  1  0.820400  0.385300  0.726200  1.0  -0.7105
  O  O163  1  0.636600  0.185500  0.443500  1.0  -0.7364
  O  O164  1  0.801800  0.242700  0.375000  1.0  -0.6533
  O  O165  1  0.475600  0.073100  0.606400  1.0  -0.568
  O  O166  1  0.564900  0.179600  0.726200  1.0  -0.7092
  O  O167  1  0.185500  0.636600  0.056500  1.0  -0.7375
  O  O168  1  0.242700  0.801800  0.125000  1.0  -0.6568
  O  O169  1  0.073100  0.475600  0.893600  1.0  -0.5685
  O  O170  1  0.179600  0.564900  0.773800  1.0  -0.7081
  O  O171  1  0.363400  0.548900  0.056500  1.0  -0.7401
  O  O172  1  0.198200  0.440900  0.125000  1.0  -0.6543
  O  O173  1  0.524400  0.597500  0.893600  1.0  -0.5687
  O  O174  1  0.435100  0.614700  0.773800  1.0  -0.7094
  O  O175  1  0.451100  0.814500  0.056500  1.0  -0.7362
  O  O176  1  0.559100  0.757300  0.125000  1.0  -0.6547
  O  O177  1  0.402500  0.926900  0.893600  1.0  -0.5681
  O  O178  1  0.385300  0.820400  0.773800  1.0  -0.7087
