# generated using pymatgen
data_Sm2Cu3H30C24(NO4)6
_symmetry_space_group_name_H-M   'P 1'
_cell_length_a   13.41050000
_cell_length_b   13.41050000
_cell_length_c   14.58080000
_cell_angle_alpha   90.00000000
_cell_angle_beta   90.00000000
_cell_angle_gamma   120.00000000
_symmetry_Int_Tables_number   1
_chemical_formula_structural   Sm2Cu3H30C24(NO4)6
_chemical_formula_sum   'Sm4 Cu6 H60 C48 N12 O48'
_cell_volume   2270.92047288
_cell_formula_units_Z   2
loop_
 _symmetry_equiv_pos_site_id
 _symmetry_equiv_pos_as_xyz
  1  'x, y, z'
loop_
 _atom_site_type_symbol
 _atom_site_label
 _atom_site_symmetry_multiplicity
 _atom_site_fract_x
 _atom_site_fract_y
 _atom_site_fract_z
 _atom_site_occupancy
 _atom_site_charge
  Sm  Sm1  1  0.333333  0.666667  0.667860  1.0  2.3005
  Sm  Sm2  1  0.666667  0.333333  0.832140  1.0  2.3004
  Sm  Sm3  1  0.666667  0.333333  0.332140  1.0  2.3004
  Sm  Sm4  1  0.333333  0.666667  0.167860  1.0  2.3005
  Cu  Cu5  1  0.500000  0.000000  0.500000  1.0  0.8166
  Cu  Cu6  1  0.500000  0.500000  0.500000  1.0  0.8166
  Cu  Cu7  1  0.000000  0.500000  0.500000  1.0  0.8166
  Cu  Cu8  1  0.500000  0.000000  0.000000  1.0  0.8166
  Cu  Cu9  1  0.000000  0.500000  0.000000  1.0  0.8166
  Cu  Cu10  1  0.500000  0.500000  0.000000  1.0  0.8166
  H  H11  1  0.351200  0.023700  0.422200  1.0  0.2653
  H  H12  1  0.181000  0.862000  0.479100  1.0  0.1104
  H  H13  1  0.254400  0.960100  0.549800  1.0  0.1281
  H  H14  1  0.314800  0.916700  0.308000  1.0  0.1221
  H  H15  1  0.267900  0.808400  0.371900  1.0  0.1237
  H  H16  1  0.672500  0.648800  0.422200  1.0  0.2648
  H  H17  1  0.681000  0.819000  0.479100  1.0  0.1102
  H  H18  1  0.705700  0.745600  0.549800  1.0  0.1275
  H  H19  1  0.601900  0.685200  0.308000  1.0  0.1224
  H  H20  1  0.540500  0.732100  0.371900  1.0  0.1235
  H  H21  1  0.976300  0.327500  0.422200  1.0  0.2645
  H  H22  1  0.138000  0.319000  0.479100  1.0  0.1098
  H  H23  1  0.039900  0.294300  0.549800  1.0  0.1277
  H  H24  1  0.083300  0.398100  0.308000  1.0  0.1217
  H  H25  1  0.191600  0.459500  0.371900  1.0  0.1287
  H  H26  1  0.327500  0.976300  0.077800  1.0  0.2654
  H  H27  1  0.319000  0.138000  0.020900  1.0  0.1104
  H  H28  1  0.294300  0.039900  0.950200  1.0  0.1284
  H  H29  1  0.398100  0.083300  0.192000  1.0  0.1232
  H  H30  1  0.459500  0.191600  0.128100  1.0  0.1231
  H  H31  1  0.023700  0.351200  0.077800  1.0  0.2649
  H  H32  1  0.862000  0.181000  0.020900  1.0  0.1111
  H  H33  1  0.960100  0.254400  0.950200  1.0  0.1281
  H  H34  1  0.916700  0.314800  0.192000  1.0  0.1226
  H  H35  1  0.808400  0.267900  0.128100  1.0  0.1225
  H  H36  1  0.648800  0.672500  0.077800  1.0  0.2645
  H  H37  1  0.819000  0.681000  0.020900  1.0  0.1103
  H  H38  1  0.745600  0.705700  0.950200  1.0  0.1278
  H  H39  1  0.685200  0.601900  0.192000  1.0  0.1222
  H  H40  1  0.732100  0.540500  0.128100  1.0  0.1274
  H  H41  1  0.648800  0.976300  0.577800  1.0  0.2651
  H  H42  1  0.819000  0.138000  0.520900  1.0  0.1106
  H  H43  1  0.745600  0.039900  0.450200  1.0  0.1265
  H  H44  1  0.685200  0.083300  0.692000  1.0  0.1221
  H  H45  1  0.732100  0.191600  0.628100  1.0  0.1232
  H  H46  1  0.327500  0.351200  0.577800  1.0  0.2647
  H  H47  1  0.319000  0.181000  0.520900  1.0  0.1106
  H  H48  1  0.294300  0.254400  0.450200  1.0  0.1269
  H  H49  1  0.398100  0.314800  0.692000  1.0  0.1228
  H  H50  1  0.459500  0.267900  0.628100  1.0  0.1221
  H  H51  1  0.023700  0.672500  0.577800  1.0  0.2642
  H  H52  1  0.862000  0.681000  0.520900  1.0  0.1098
  H  H53  1  0.960100  0.705700  0.450200  1.0  0.1258
  H  H54  1  0.916700  0.601900  0.692000  1.0  0.1225
  H  H55  1  0.808400  0.540500  0.628100  1.0  0.1257
  H  H56  1  0.672500  0.023700  0.922200  1.0  0.2652
  H  H57  1  0.681000  0.862000  0.979100  1.0  0.1106
  H  H58  1  0.705700  0.960100  0.049800  1.0  0.1257
  H  H59  1  0.601900  0.916700  0.808000  1.0  0.1218
  H  H60  1  0.540500  0.808400  0.871900  1.0  0.124
  H  H61  1  0.976300  0.648800  0.922200  1.0  0.2649
  H  H62  1  0.138000  0.819000  0.979100  1.0  0.1102
  H  H63  1  0.039900  0.745600  0.049800  1.0  0.1263
  H  H64  1  0.083300  0.685200  0.808000  1.0  0.1222
  H  H65  1  0.191600  0.732100  0.871900  1.0  0.1224
  H  H66  1  0.351200  0.327500  0.922200  1.0  0.2642
  H  H67  1  0.181000  0.319000  0.979100  1.0  0.1094
  H  H68  1  0.254400  0.294300  0.049800  1.0  0.1262
  H  H69  1  0.314800  0.398100  0.808000  1.0  0.1215
  H  H70  1  0.267900  0.459500  0.871900  1.0  0.1264
  C  C71  1  0.270900  0.816800  0.568100  1.0  0.6952
  C  C72  1  0.254600  0.901900  0.510300  1.0  -0.1992
  C  C73  1  0.332700  0.884800  0.361100  1.0  -0.228
  C  C74  1  0.437500  0.875700  0.340800  1.0  0.739
  C  C75  1  0.545900  0.729100  0.568100  1.0  0.6936
  C  C76  1  0.647300  0.745400  0.510300  1.0  -0.1976
  C  C77  1  0.552100  0.667300  0.361100  1.0  -0.2277
  C  C78  1  0.438200  0.562500  0.340800  1.0  0.7399
  C  C79  1  0.183200  0.454100  0.568100  1.0  0.6955
  C  C80  1  0.098100  0.352700  0.510300  1.0  -0.1989
  C  C81  1  0.115200  0.447900  0.361100  1.0  -0.2272
  C  C82  1  0.124300  0.561800  0.340800  1.0  0.7406
  C  C83  1  0.454100  0.183200  0.931900  1.0  0.6958
  C  C84  1  0.352700  0.098100  0.989700  1.0  -0.1989
  C  C85  1  0.447900  0.115200  0.138900  1.0  -0.2276
  C  C86  1  0.561800  0.124300  0.159200  1.0  0.7392
  C  C87  1  0.816800  0.270900  0.931900  1.0  0.6938
  C  C88  1  0.901900  0.254600  0.989700  1.0  -0.1971
  C  C89  1  0.884800  0.332700  0.138900  1.0  -0.2275
  C  C90  1  0.875700  0.437500  0.159200  1.0  0.7398
  C  C91  1  0.729100  0.545900  0.931900  1.0  0.6952
  C  C92  1  0.745400  0.647300  0.989700  1.0  -0.1985
  C  C93  1  0.667300  0.552100  0.138900  1.0  -0.2264
  C  C94  1  0.562500  0.438200  0.159200  1.0  0.7397
  C  C95  1  0.729100  0.183200  0.431900  1.0  0.6957
  C  C96  1  0.745400  0.098100  0.489700  1.0  -0.1981
  C  C97  1  0.667300  0.115200  0.638900  1.0  -0.2271
  C  C98  1  0.562500  0.124300  0.659200  1.0  0.7382
  C  C99  1  0.454100  0.270900  0.431900  1.0  0.6944
  C  C100  1  0.352700  0.254600  0.489700  1.0  -0.1976
  C  C101  1  0.447900  0.332700  0.638900  1.0  -0.228
  C  C102  1  0.561800  0.437500  0.659200  1.0  0.7407
  C  C103  1  0.816800  0.545900  0.431900  1.0  0.6957
  C  C104  1  0.901900  0.647300  0.489700  1.0  -0.1984
  C  C105  1  0.884800  0.552100  0.638900  1.0  -0.2276
  C  C106  1  0.875700  0.438200  0.659200  1.0  0.7409
  C  C107  1  0.545900  0.816800  0.068100  1.0  0.6957
  C  C108  1  0.647300  0.901900  0.010300  1.0  -0.1991
  C  C109  1  0.552100  0.884800  0.861100  1.0  -0.2278
  C  C110  1  0.438200  0.875700  0.840800  1.0  0.7388
  C  C111  1  0.183200  0.729100  0.068100  1.0  0.6942
  C  C112  1  0.098100  0.745400  0.010300  1.0  -0.1978
  C  C113  1  0.115200  0.667300  0.861100  1.0  -0.2284
  C  C114  1  0.124300  0.562500  0.840800  1.0  0.7403
  C  C115  1  0.270900  0.454100  0.068100  1.0  0.695
  C  C116  1  0.254600  0.352700  0.010300  1.0  -0.1982
  C  C117  1  0.332700  0.447900  0.861100  1.0  -0.2279
  C  C118  1  0.437500  0.561800  0.840800  1.0  0.7411
  N  N119  1  0.348500  0.958100  0.441800  1.0  -0.2722
  N  N120  1  0.609600  0.651500  0.441800  1.0  -0.2718
  N  N121  1  0.041900  0.390400  0.441800  1.0  -0.2732
  N  N122  1  0.390400  0.041900  0.058200  1.0  -0.2725
  N  N123  1  0.958100  0.348500  0.058200  1.0  -0.2712
  N  N124  1  0.651500  0.609600  0.058200  1.0  -0.2725
  N  N125  1  0.651500  0.041900  0.558200  1.0  -0.2732
  N  N126  1  0.390400  0.348500  0.558200  1.0  -0.2713
  N  N127  1  0.958100  0.609600  0.558200  1.0  -0.2725
  N  N128  1  0.609600  0.958100  0.941800  1.0  -0.2731
  N  N129  1  0.041900  0.651500  0.941800  1.0  -0.2714
  N  N130  1  0.348500  0.390400  0.941800  1.0  -0.273
  O  O131  1  0.362300  0.813100  0.557000  1.0  -0.7313
  O  O132  1  0.196500  0.755300  0.626100  1.0  -0.6437
  O  O133  1  0.524400  0.926500  0.392900  1.0  -0.5665
  O  O134  1  0.435400  0.818600  0.272900  1.0  -0.7142
  O  O135  1  0.450800  0.637700  0.557000  1.0  -0.7345
  O  O136  1  0.558800  0.803500  0.626100  1.0  -0.6443
  O  O137  1  0.402100  0.475600  0.392900  1.0  -0.5681
  O  O138  1  0.383200  0.564600  0.272900  1.0  -0.7142
  O  O139  1  0.186900  0.549200  0.557000  1.0  -0.7371
  O  O140  1  0.244700  0.441200  0.626100  1.0  -0.6421
  O  O141  1  0.073500  0.597900  0.392900  1.0  -0.5679
  O  O142  1  0.181400  0.616800  0.272900  1.0  -0.7166
  O  O143  1  0.549200  0.186900  0.943000  1.0  -0.7316
  O  O144  1  0.441200  0.244700  0.873900  1.0  -0.643
  O  O145  1  0.597900  0.073500  0.107100  1.0  -0.5666
  O  O146  1  0.616800  0.181400  0.227100  1.0  -0.7154
  O  O147  1  0.813100  0.362300  0.943000  1.0  -0.7347
  O  O148  1  0.755300  0.196500  0.873900  1.0  -0.6446
  O  O149  1  0.926500  0.524400  0.107100  1.0  -0.5683
  O  O150  1  0.818600  0.435400  0.227100  1.0  -0.7154
  O  O151  1  0.637700  0.450800  0.943000  1.0  -0.7364
  O  O152  1  0.803500  0.558800  0.873900  1.0  -0.6418
  O  O153  1  0.475600  0.402100  0.107100  1.0  -0.5676
  O  O154  1  0.564600  0.383200  0.227100  1.0  -0.718
  O  O155  1  0.637700  0.186900  0.443000  1.0  -0.7327
  O  O156  1  0.803500  0.244700  0.373900  1.0  -0.6426
  O  O157  1  0.475600  0.073500  0.607100  1.0  -0.5667
  O  O158  1  0.564600  0.181400  0.727100  1.0  -0.7155
  O  O159  1  0.549200  0.362300  0.443000  1.0  -0.7339
  O  O160  1  0.441200  0.196500  0.373900  1.0  -0.6449
  O  O161  1  0.597900  0.524400  0.607100  1.0  -0.5683
  O  O162  1  0.616800  0.435400  0.727100  1.0  -0.7157
  O  O163  1  0.813100  0.450800  0.443000  1.0  -0.7357
  O  O164  1  0.755300  0.558800  0.373900  1.0  -0.6417
  O  O165  1  0.926500  0.402100  0.607100  1.0  -0.5672
  O  O166  1  0.818600  0.383200  0.727100  1.0  -0.7168
  O  O167  1  0.450800  0.813100  0.057000  1.0  -0.7328
  O  O168  1  0.558800  0.755300  0.126100  1.0  -0.643
  O  O169  1  0.402100  0.926500  0.892900  1.0  -0.5665
  O  O170  1  0.383200  0.818600  0.772900  1.0  -0.7144
  O  O171  1  0.186900  0.637700  0.057000  1.0  -0.7337
  O  O172  1  0.244700  0.803500  0.126100  1.0  -0.6451
  O  O173  1  0.073500  0.475600  0.892900  1.0  -0.5682
  O  O174  1  0.181400  0.564600  0.772900  1.0  -0.7148
  O  O175  1  0.362300  0.549200  0.057000  1.0  -0.7369
  O  O176  1  0.196500  0.441200  0.126100  1.0  -0.6423
  O  O177  1  0.524400  0.597900  0.892900  1.0  -0.5678
  O  O178  1  0.435400  0.616800  0.772900  1.0  -0.7151
