# generated using pymatgen
data_Gd2Cu3H30C24(NO4)6
_symmetry_space_group_name_H-M   'P 1'
_cell_length_a   13.41470000
_cell_length_b   13.41470000
_cell_length_c   14.46220000
_cell_angle_alpha   90.00000000
_cell_angle_beta   90.00000000
_cell_angle_gamma   120.00000000
_symmetry_Int_Tables_number   1
_chemical_formula_structural   Gd2Cu3H30C24(NO4)6
_chemical_formula_sum   'Gd4 Cu6 H60 C48 N12 O48'
_cell_volume   2253.85993939
_cell_formula_units_Z   2
loop_
 _symmetry_equiv_pos_site_id
 _symmetry_equiv_pos_as_xyz
  1  'x, y, z'
loop_
 _atom_site_type_symbol
 _atom_site_label
 _atom_site_symmetry_multiplicity
 _atom_site_fract_x
 _atom_site_fract_y
 _atom_site_fract_z
 _atom_site_occupancy
 _atom_site_charge
  Gd  Gd1  1  0.333333  0.666667  0.667300  1.0  2.1548
  Gd  Gd2  1  0.666667  0.333333  0.832700  1.0  2.1548
  Gd  Gd3  1  0.666667  0.333333  0.332700  1.0  2.1548
  Gd  Gd4  1  0.333333  0.666667  0.167300  1.0  2.1548
  Cu  Cu5  1  0.500000  0.000000  0.500000  1.0  0.8266
  Cu  Cu6  1  0.500000  0.500000  0.500000  1.0  0.8266
  Cu  Cu7  1  0.000000  0.500000  0.500000  1.0  0.8266
  Cu  Cu8  1  0.500000  0.000000  0.000000  1.0  0.8266
  Cu  Cu9  1  0.000000  0.500000  0.000000  1.0  0.8266
  Cu  Cu10  1  0.500000  0.500000  0.000000  1.0  0.8266
  H  H11  1  0.704500  0.959600  0.551000  1.0  0.1286
  H  H12  1  0.681700  0.862300  0.479600  1.0  0.1159
  H  H13  1  0.540000  0.807300  0.371600  1.0  0.1343
  H  H14  1  0.601600  0.914900  0.306600  1.0  0.1406
  H  H15  1  0.672700  0.023100  0.421200  1.0  0.2687
  H  H16  1  0.255100  0.295500  0.551000  1.0  0.1287
  H  H17  1  0.180600  0.318300  0.479600  1.0  0.1151
  H  H18  1  0.267300  0.460000  0.371600  1.0  0.1356
  H  H19  1  0.313300  0.398400  0.306600  1.0  0.1407
  H  H20  1  0.350400  0.327300  0.421200  1.0  0.2683
  H  H21  1  0.040400  0.744900  0.551000  1.0  0.1294
  H  H22  1  0.137700  0.819400  0.479600  1.0  0.1159
  H  H23  1  0.192700  0.732700  0.371600  1.0  0.1329
  H  H24  1  0.085100  0.686700  0.306600  1.0  0.1405
  H  H25  1  0.976900  0.649600  0.421200  1.0  0.2684
  H  H26  1  0.744900  0.040400  0.949000  1.0  0.1288
  H  H27  1  0.819400  0.137700  0.020400  1.0  0.1161
  H  H28  1  0.732700  0.192700  0.128400  1.0  0.1334
  H  H29  1  0.686700  0.085100  0.193400  1.0  0.1421
  H  H30  1  0.649600  0.976900  0.078800  1.0  0.2688
  H  H31  1  0.959600  0.704500  0.949000  1.0  0.1287
  H  H32  1  0.862300  0.681700  0.020400  1.0  0.1151
  H  H33  1  0.807300  0.540000  0.128400  1.0  0.1349
  H  H34  1  0.914900  0.601600  0.193400  1.0  0.1426
  H  H35  1  0.023100  0.672700  0.078800  1.0  0.2675
  H  H36  1  0.295500  0.255100  0.949000  1.0  0.1293
  H  H37  1  0.318300  0.180600  0.020400  1.0  0.1164
  H  H38  1  0.460000  0.267300  0.128400  1.0  0.1327
  H  H39  1  0.398400  0.313300  0.193400  1.0  0.1426
  H  H40  1  0.327300  0.350400  0.078800  1.0  0.2685
  H  H41  1  0.295500  0.040400  0.449000  1.0  0.1268
  H  H42  1  0.318300  0.137700  0.520400  1.0  0.1163
  H  H43  1  0.460000  0.192700  0.628400  1.0  0.1334
  H  H44  1  0.398400  0.085100  0.693400  1.0  0.1414
  H  H45  1  0.327300  0.976900  0.578800  1.0  0.2689
  H  H46  1  0.744900  0.704500  0.449000  1.0  0.1267
  H  H47  1  0.819400  0.681700  0.520400  1.0  0.1158
  H  H48  1  0.732700  0.540000  0.628400  1.0  0.1377
  H  H49  1  0.686700  0.601600  0.693400  1.0  0.141
  H  H50  1  0.649600  0.672700  0.578800  1.0  0.2679
  H  H51  1  0.959600  0.255100  0.449000  1.0  0.1269
  H  H52  1  0.862300  0.180600  0.520400  1.0  0.1169
  H  H53  1  0.807300  0.267300  0.628400  1.0  0.1334
  H  H54  1  0.914900  0.313300  0.693400  1.0  0.1414
  H  H55  1  0.023100  0.350400  0.578800  1.0  0.2681
  H  H56  1  0.255100  0.959600  0.051000  1.0  0.127
  H  H57  1  0.180600  0.862300  0.979600  1.0  0.1162
  H  H58  1  0.267300  0.807300  0.871600  1.0  0.134
  H  H59  1  0.313300  0.914900  0.806600  1.0  0.1406
  H  H60  1  0.350400  0.023100  0.921200  1.0  0.2686
  H  H61  1  0.040400  0.295500  0.051000  1.0  0.1264
  H  H62  1  0.137700  0.318300  0.979600  1.0  0.1156
  H  H63  1  0.192700  0.460000  0.871600  1.0  0.1388
  H  H64  1  0.085100  0.398400  0.806600  1.0  0.1408
  H  H65  1  0.976900  0.327300  0.921200  1.0  0.2683
  H  H66  1  0.704500  0.744900  0.051000  1.0  0.1271
  H  H67  1  0.681700  0.819400  0.979600  1.0  0.1156
  H  H68  1  0.540000  0.732700  0.871600  1.0  0.1339
  H  H69  1  0.601600  0.686700  0.806600  1.0  0.141
  H  H70  1  0.672700  0.649600  0.921200  1.0  0.2678
  C  C71  1  0.545600  0.815700  0.568000  1.0  0.704
  C  C72  1  0.647000  0.901500  0.510800  1.0  -0.1894
  C  C73  1  0.552000  0.883800  0.360200  1.0  -0.2159
  C  C74  1  0.437800  0.875300  0.339700  1.0  0.7471
  C  C75  1  0.270100  0.454400  0.568000  1.0  0.7032
  C  C76  1  0.254500  0.353000  0.510800  1.0  -0.1885
  C  C77  1  0.331800  0.448000  0.360200  1.0  -0.2164
  C  C78  1  0.437500  0.562200  0.339700  1.0  0.7489
  C  C79  1  0.184300  0.729900  0.568000  1.0  0.7028
  C  C80  1  0.098500  0.745500  0.510800  1.0  -0.1878
  C  C81  1  0.116200  0.668200  0.360200  1.0  -0.2168
  C  C82  1  0.124700  0.562500  0.339700  1.0  0.7484
  C  C83  1  0.729900  0.184300  0.932000  1.0  0.7036
  C  C84  1  0.745500  0.098500  0.989200  1.0  -0.1882
  C  C85  1  0.668200  0.116200  0.139800  1.0  -0.2157
  C  C86  1  0.562500  0.124700  0.160300  1.0  0.7472
  C  C87  1  0.815700  0.545600  0.932000  1.0  0.7028
  C  C88  1  0.901500  0.647000  0.989200  1.0  -0.1884
  C  C89  1  0.883800  0.552000  0.139800  1.0  -0.2166
  C  C90  1  0.875300  0.437800  0.160300  1.0  0.7492
  C  C91  1  0.454400  0.270100  0.932000  1.0  0.7018
  C  C92  1  0.353000  0.254500  0.989200  1.0  -0.1879
  C  C93  1  0.448000  0.331800  0.139800  1.0  -0.2167
  C  C94  1  0.562200  0.437500  0.160300  1.0  0.7491
  C  C95  1  0.454400  0.184300  0.432000  1.0  0.7031
  C  C96  1  0.353000  0.098500  0.489200  1.0  -0.1895
  C  C97  1  0.448000  0.116200  0.639800  1.0  -0.2166
  C  C98  1  0.562200  0.124700  0.660300  1.0  0.7473
  C  C99  1  0.729900  0.545600  0.432000  1.0  0.7029
  C  C100  1  0.745500  0.647000  0.489200  1.0  -0.1886
  C  C101  1  0.668200  0.552000  0.639800  1.0  -0.2152
  C  C102  1  0.562500  0.437800  0.660300  1.0  0.7482
  C  C103  1  0.815700  0.270100  0.432000  1.0  0.7018
  C  C104  1  0.901500  0.254500  0.489200  1.0  -0.1879
  C  C105  1  0.883800  0.331800  0.639800  1.0  -0.2161
  C  C106  1  0.875300  0.437500  0.660300  1.0  0.7483
  C  C107  1  0.270100  0.815700  0.068000  1.0  0.7038
  C  C108  1  0.254500  0.901500  0.010800  1.0  -0.1899
  C  C109  1  0.331800  0.883800  0.860200  1.0  -0.2165
  C  C110  1  0.437500  0.875300  0.839700  1.0  0.7468
  C  C111  1  0.184300  0.454400  0.068000  1.0  0.7042
  C  C112  1  0.098500  0.353000  0.010800  1.0  -0.1895
  C  C113  1  0.116200  0.448000  0.860200  1.0  -0.2157
  C  C114  1  0.124700  0.562200  0.839700  1.0  0.7486
  C  C115  1  0.545600  0.729900  0.068000  1.0  0.7022
  C  C116  1  0.647000  0.745500  0.010800  1.0  -0.1882
  C  C117  1  0.552000  0.668200  0.860200  1.0  -0.2158
  C  C118  1  0.437800  0.562500  0.839700  1.0  0.7479
  N  N119  1  0.609700  0.957600  0.441100  1.0  -0.265
  N  N120  1  0.347900  0.390300  0.441100  1.0  -0.2648
  N  N121  1  0.042400  0.652100  0.441100  1.0  -0.2632
  N  N122  1  0.652100  0.042400  0.058900  1.0  -0.2651
  N  N123  1  0.957600  0.609700  0.058900  1.0  -0.2646
  N  N124  1  0.390300  0.347900  0.058900  1.0  -0.2636
  N  N125  1  0.390300  0.042400  0.558900  1.0  -0.2647
  N  N126  1  0.652100  0.609700  0.558900  1.0  -0.2645
  N  N127  1  0.957600  0.347900  0.558900  1.0  -0.2632
  N  N128  1  0.347900  0.957600  0.941100  1.0  -0.2644
  N  N129  1  0.042400  0.390300  0.941100  1.0  -0.2648
  N  N130  1  0.609700  0.652100  0.941100  1.0  -0.2634
  O  O131  1  0.450200  0.812100  0.557400  1.0  -0.7643
  O  O132  1  0.557900  0.754000  0.626500  1.0  -0.6469
  O  O133  1  0.402400  0.926800  0.392000  1.0  -0.5604
  O  O134  1  0.381800  0.816800  0.271700  1.0  -0.7275
  O  O135  1  0.361900  0.549800  0.557400  1.0  -0.7676
  O  O136  1  0.196100  0.442100  0.626500  1.0  -0.6454
  O  O137  1  0.524400  0.597600  0.392000  1.0  -0.5619
  O  O138  1  0.435000  0.618200  0.271700  1.0  -0.7275
  O  O139  1  0.187900  0.638100  0.557400  1.0  -0.7656
  O  O140  1  0.246000  0.803900  0.626500  1.0  -0.6477
  O  O141  1  0.073200  0.475600  0.392000  1.0  -0.5623
  O  O142  1  0.183200  0.565000  0.271700  1.0  -0.7269
  O  O143  1  0.638100  0.187900  0.942600  1.0  -0.764
  O  O144  1  0.803900  0.246000  0.873500  1.0  -0.6458
  O  O145  1  0.475600  0.073200  0.108000  1.0  -0.561
  O  O146  1  0.565000  0.183200  0.228300  1.0  -0.7278
  O  O147  1  0.812100  0.450200  0.942600  1.0  -0.7673
  O  O148  1  0.754000  0.557900  0.873500  1.0  -0.6445
  O  O149  1  0.926800  0.402400  0.108000  1.0  -0.5618
  O  O150  1  0.816800  0.381800  0.228300  1.0  -0.729
  O  O151  1  0.549800  0.361900  0.942600  1.0  -0.7658
  O  O152  1  0.442100  0.196100  0.873500  1.0  -0.6475
  O  O153  1  0.597600  0.524400  0.108000  1.0  -0.563
  O  O154  1  0.618200  0.435000  0.228300  1.0  -0.7284
  O  O155  1  0.549800  0.187900  0.442600  1.0  -0.7637
  O  O156  1  0.442100  0.246000  0.373500  1.0  -0.6458
  O  O157  1  0.597600  0.073200  0.608000  1.0  -0.5609
  O  O158  1  0.618200  0.183200  0.728300  1.0  -0.7281
  O  O159  1  0.638100  0.450200  0.442600  1.0  -0.7675
  O  O160  1  0.803900  0.557900  0.373500  1.0  -0.645
  O  O161  1  0.475600  0.402400  0.608000  1.0  -0.5619
  O  O162  1  0.565000  0.381800  0.728300  1.0  -0.7294
  O  O163  1  0.812100  0.361900  0.442600  1.0  -0.766
  O  O164  1  0.754000  0.196100  0.373500  1.0  -0.6471
  O  O165  1  0.926800  0.524400  0.608000  1.0  -0.5623
  O  O166  1  0.816800  0.435000  0.728300  1.0  -0.7281
  O  O167  1  0.361900  0.812100  0.057400  1.0  -0.7638
  O  O168  1  0.196100  0.754000  0.126500  1.0  -0.647
  O  O169  1  0.524400  0.926800  0.892000  1.0  -0.5604
  O  O170  1  0.435000  0.816800  0.771700  1.0  -0.7273
  O  O171  1  0.187900  0.549800  0.057400  1.0  -0.7675
  O  O172  1  0.246000  0.442100  0.126500  1.0  -0.6458
  O  O173  1  0.073200  0.597600  0.892000  1.0  -0.562
  O  O174  1  0.183200  0.618200  0.771700  1.0  -0.728
  O  O175  1  0.450200  0.638100  0.057400  1.0  -0.7656
  O  O176  1  0.557900  0.803900  0.126500  1.0  -0.6471
  O  O177  1  0.402400  0.475600  0.892000  1.0  -0.5615
  O  O178  1  0.381800  0.565000  0.771700  1.0  -0.7271
