# generated using pymatgen
data_Cd3Mo12(P4O25)2
_symmetry_space_group_name_H-M   'P 1'
_cell_length_a   12.02490000
_cell_length_b   12.18730000
_cell_length_c   14.86850000
_cell_angle_alpha   67.91600000
_cell_angle_beta   74.12100000
_cell_angle_gamma   63.58100000
_symmetry_Int_Tables_number   1
_chemical_formula_structural   Cd3Mo12(P4O25)2
_chemical_formula_sum   'Cd3 Mo12 P8 O50'
_cell_volume   1793.35622314
_cell_formula_units_Z   1
loop_
 _symmetry_equiv_pos_site_id
 _symmetry_equiv_pos_as_xyz
  1  'x, y, z'
loop_
 _atom_site_type_symbol
 _atom_site_label
 _atom_site_symmetry_multiplicity
 _atom_site_fract_x
 _atom_site_fract_y
 _atom_site_fract_z
 _atom_site_occupancy
 _atom_site_charge
  Cd  Cd1  1  0.738410  0.665880  0.991840  1.0  1.0985
  Cd  Cd2  1  0.261590  0.334120  0.008160  1.0  1.0987
  Cd  Cd3  1  0.500000  0.500000  0.500000  1.0  1.0972
  Mo  Mo4  1  0.263220  0.595500  0.322670  1.0  1.3074
  Mo  Mo5  1  0.577910  0.790880  0.326460  1.0  1.3503
  Mo  Mo6  1  0.747120  0.302930  0.333160  1.0  1.3091
  Mo  Mo7  1  0.281050  0.798040  0.324720  1.0  1.3475
  Mo  Mo8  1  0.528940  0.310320  0.330420  1.0  1.3258
  Mo  Mo9  1  0.776060  0.581540  0.328960  1.0  1.346
  Mo  Mo10  1  0.736780  0.404500  0.677330  1.0  1.3066
  Mo  Mo11  1  0.422090  0.209120  0.673540  1.0  1.3511
  Mo  Mo12  1  0.252880  0.697070  0.666840  1.0  1.3107
  Mo  Mo13  1  0.718950  0.201960  0.675280  1.0  1.3432
  Mo  Mo14  1  0.471060  0.689680  0.669580  1.0  1.3295
  Mo  Mo15  1  0.223940  0.418460  0.671040  1.0  1.3487
  P  P16  1  0.551630  0.605960  0.215420  1.0  1.8885
  P  P17  1  0.391710  0.008090  0.159560  1.0  1.7151
  P  P18  1  0.937850  0.423620  0.165830  1.0  1.7211
  P  P19  1  0.306700  0.406930  0.194290  1.0  1.7313
  P  P20  1  0.448370  0.394040  0.784580  1.0  1.8893
  P  P21  1  0.608290  0.991910  0.840440  1.0  1.7134
  P  P22  1  0.062150  0.576380  0.834170  1.0  1.7197
  P  P23  1  0.693300  0.593070  0.805710  1.0  1.7303
  O  O24  1  0.572300  0.651400  0.106300  1.0  -0.7757
  O  O25  1  0.356000  0.147600  0.115000  1.0  -0.7377
  O  O26  1  0.913700  0.516200  0.222900  1.0  -0.6894
  O  O27  1  0.311500  0.430200  0.085500  1.0  -0.6721
  O  O28  1  0.883000  0.485400  0.071500  1.0  -0.7828
  O  O29  1  0.084600  0.359100  0.141300  1.0  -0.6869
  O  O30  1  0.897900  0.312300  0.231600  1.0  -0.6424
  O  O31  1  0.468300  0.526900  0.255100  1.0  -0.8277
  O  O32  1  0.253100  0.537000  0.214500  1.0  -0.6613
  O  O33  1  0.222800  0.332000  0.256200  1.0  -0.4801
  O  O34  1  0.618400  0.616200  0.417800  1.0  -0.7132
  O  O35  1  0.675400  0.520500  0.260900  1.0  -0.7815
  O  O36  1  0.285500  0.966600  0.221900  1.0  -0.6448
  O  O37  1  0.441000  0.329600  0.222400  1.0  -0.6556
  O  O38  1  0.498600  0.955600  0.220800  1.0  -0.6867
  O  O39  1  0.249800  0.757700  0.223300  1.0  -0.5859
  O  O40  1  0.810900  0.385400  0.402200  1.0  -0.5987
  O  O41  1  0.390300  0.832100  0.395400  1.0  -0.6013
  O  O42  1  0.347300  0.397900  0.395900  1.0  -0.615
  O  O43  1  0.485800  0.721200  0.259100  1.0  -0.7812
  O  O44  1  0.588400  0.353000  0.419000  1.0  -0.7057
  O  O45  1  0.334400  0.623100  0.413600  1.0  -0.7177
  O  O46  1  0.674300  0.302100  0.232100  1.0  -0.6265
  O  O47  1  0.718200  0.742600  0.229000  1.0  -0.6014
  O  O48  1  0.441300  0.939600  0.076400  1.0  -0.4134
  O  O49  1  0.427700  0.348600  0.893700  1.0  -0.778
  O  O50  1  0.644000  0.852400  0.885000  1.0  -0.7376
  O  O51  1  0.086300  0.483800  0.777100  1.0  -0.6906
  O  O52  1  0.688500  0.569800  0.914500  1.0  -0.6739
  O  O53  1  0.117000  0.514600  0.928500  1.0  -0.784
  O  O54  1  0.915400  0.640900  0.858700  1.0  -0.6889
  O  O55  1  0.102100  0.687700  0.768400  1.0  -0.645
  O  O56  1  0.531700  0.473100  0.744900  1.0  -0.8303
  O  O57  1  0.746900  0.463000  0.785500  1.0  -0.6627
  O  O58  1  0.777200  0.668000  0.743800  1.0  -0.4828
  O  O59  1  0.381600  0.383800  0.582200  1.0  -0.7121
  O  O60  1  0.324600  0.479500  0.739100  1.0  -0.7812
  O  O61  1  0.714500  0.033400  0.778100  1.0  -0.6458
  O  O62  1  0.559000  0.670400  0.777600  1.0  -0.6542
  O  O63  1  0.501400  0.044400  0.779200  1.0  -0.6863
  O  O64  1  0.750200  0.242300  0.776700  1.0  -0.5892
  O  O65  1  0.189100  0.614600  0.597800  1.0  -0.5948
  O  O66  1  0.609700  0.167900  0.604600  1.0  -0.6011
  O  O67  1  0.652700  0.602100  0.604100  1.0  -0.614
  O  O68  1  0.514200  0.278800  0.740900  1.0  -0.7824
  O  O69  1  0.411600  0.647000  0.581000  1.0  -0.7068
  O  O70  1  0.665600  0.376900  0.586400  1.0  -0.7182
  O  O71  1  0.325700  0.697900  0.767900  1.0  -0.6221
  O  O72  1  0.281800  0.257400  0.771000  1.0  -0.5985
  O  O73  1  0.558700  0.060400  0.923600  1.0  -0.4138
