# generated using pymatgen
data_ZnH15C11N2ClO2
_symmetry_space_group_name_H-M   'P 1'
_cell_length_a   10.58500000
_cell_length_b   17.70300000
_cell_length_c   17.70300000
_cell_angle_alpha   120.00000000
_cell_angle_beta   90.00000000
_cell_angle_gamma   90.00000000
_symmetry_Int_Tables_number   1
_chemical_formula_structural   ZnH15C11N2ClO2
_chemical_formula_sum   'Zn6 H90 C66 N12 Cl6 O12'
_cell_volume   2872.86509533
_cell_formula_units_Z   6
loop_
 _symmetry_equiv_pos_site_id
 _symmetry_equiv_pos_as_xyz
  1  'x, y, z'
loop_
 _atom_site_type_symbol
 _atom_site_label
 _atom_site_symmetry_multiplicity
 _atom_site_fract_x
 _atom_site_fract_y
 _atom_site_fract_z
 _atom_site_occupancy
 _atom_site_charge
  Zn  Zn1  1  0.019460  0.540140  0.071090  1.0  0.7847
  Zn  Zn2  1  0.352790  0.530950  0.459860  1.0  0.7781
  Zn  Zn3  1  0.686130  0.928910  0.469050  1.0  0.7843
  Zn  Zn4  1  0.519460  0.459860  0.928910  1.0  0.7839
  Zn  Zn5  1  0.852790  0.469050  0.540140  1.0  0.7797
  Zn  Zn6  1  0.186130  0.071090  0.530950  1.0  0.7846
  H  H7  1  0.927700  0.469000  0.918700  1.0  0.2647
  H  H8  1  0.054900  0.618200  0.954100  1.0  0.0902
  H  H9  1  0.910800  0.616700  0.973800  1.0  0.109
  H  H10  1  0.775100  0.506500  0.834600  1.0  0.1236
  H  H11  1  0.102500  0.613500  0.818200  1.0  0.1363
  H  H12  1  0.051000  0.572500  0.677300  1.0  0.0742
  H  H13  1  0.735700  0.466000  0.692000  1.0  0.0876
  H  H14  1  0.129400  0.470200  0.845400  1.0  0.0867
  H  H15  1  0.161300  0.324100  0.805200  1.0  0.0639
  H  H16  1  0.907600  0.357000  0.782100  1.0  0.0888
  H  H17  1  0.976400  0.267600  0.724900  1.0  0.1175
  H  H18  1  0.019600  0.350400  0.721200  1.0  0.1094
  H  H19  1  0.970800  0.346300  0.924000  1.0  0.0934
  H  H20  1  0.111000  0.318900  0.926200  1.0  0.117
  H  H21  1  0.019300  0.254400  0.852500  1.0  0.1134
  H  H22  1  0.261030  0.449700  0.531000  1.0  0.2633
  H  H23  1  0.388230  0.335900  0.381800  1.0  0.0892
  H  H24  1  0.244130  0.357100  0.383300  1.0  0.1111
  H  H25  1  0.108430  0.328100  0.493500  1.0  0.1255
  H  H26  1  0.435830  0.204700  0.386500  1.0  0.1368
  H  H27  1  0.384330  0.104800  0.427500  1.0  0.0734
  H  H28  1  0.069030  0.226000  0.534000  1.0  0.0868
  H  H29  1  0.462730  0.375200  0.529800  1.0  0.0861
  H  H30  1  0.494630  0.481100  0.675900  1.0  0.0644
  H  H31  1  0.240930  0.425100  0.643000  1.0  0.0888
  H  H32  1  0.309730  0.457300  0.732400  1.0  0.1175
  H  H33  1  0.352930  0.370800  0.649600  1.0  0.1101
  H  H34  1  0.304130  0.577700  0.653700  1.0  0.0943
  H  H35  1  0.444330  0.607300  0.681100  1.0  0.1142
  H  H36  1  0.352630  0.598100  0.745600  1.0  0.1134
  H  H37  1  0.594370  0.081300  0.550300  1.0  0.2634
  H  H38  1  0.721570  0.045900  0.664100  1.0  0.0899
  H  H39  1  0.577470  0.026200  0.642900  1.0  0.1108
  H  H40  1  0.441770  0.165400  0.671900  1.0  0.1261
  H  H41  1  0.769170  0.181800  0.795300  1.0  0.1377
  H  H42  1  0.717670  0.322700  0.895200  1.0  0.0741
  H  H43  1  0.402370  0.308000  0.774000  1.0  0.0869
  H  H44  1  0.796070  0.154600  0.624800  1.0  0.0855
  H  H45  1  0.827970  0.194800  0.518900  1.0  0.0645
  H  H46  1  0.574270  0.217900  0.574900  1.0  0.0883
  H  H47  1  0.643070  0.275100  0.542700  1.0  0.1189
  H  H48  1  0.686270  0.278800  0.629200  1.0  0.1094
  H  H49  1  0.637470  0.076000  0.422300  1.0  0.0935
  H  H50  1  0.777670  0.073800  0.392700  1.0  0.1145
  H  H51  1  0.685970  0.147500  0.401900  1.0  0.1142
  H  H52  1  0.427700  0.531000  0.081300  1.0  0.265
  H  H53  1  0.554900  0.381800  0.045900  1.0  0.0904
  H  H54  1  0.410800  0.383300  0.026200  1.0  0.1093
  H  H55  1  0.275100  0.493500  0.165400  1.0  0.1244
  H  H56  1  0.602500  0.386500  0.181800  1.0  0.1362
  H  H57  1  0.551000  0.427500  0.322700  1.0  0.0743
  H  H58  1  0.235700  0.534000  0.308000  1.0  0.0871
  H  H59  1  0.629400  0.529800  0.154600  1.0  0.0856
  H  H60  1  0.661300  0.675900  0.194800  1.0  0.0641
  H  H61  1  0.407600  0.643000  0.217900  1.0  0.0886
  H  H62  1  0.476400  0.732400  0.275100  1.0  0.1173
  H  H63  1  0.519600  0.649600  0.278800  1.0  0.1095
  H  H64  1  0.470800  0.653700  0.076000  1.0  0.0949
  H  H65  1  0.611000  0.681100  0.073800  1.0  0.1171
  H  H66  1  0.519300  0.745600  0.147500  1.0  0.1141
  H  H67  1  0.761030  0.550300  0.469000  1.0  0.2636
  H  H68  1  0.888230  0.664100  0.618200  1.0  0.0899
  H  H69  1  0.744130  0.642900  0.616700  1.0  0.1109
  H  H70  1  0.608430  0.671900  0.506500  1.0  0.1257
  H  H71  1  0.935830  0.795300  0.613500  1.0  0.136
  H  H72  1  0.884330  0.895200  0.572500  1.0  0.0738
  H  H73  1  0.569030  0.774000  0.466000  1.0  0.0866
  H  H74  1  0.962730  0.624800  0.470200  1.0  0.0853
  H  H75  1  0.994630  0.518900  0.324100  1.0  0.0651
  H  H76  1  0.740930  0.574900  0.357000  1.0  0.0884
  H  H77  1  0.809730  0.542700  0.267600  1.0  0.1173
  H  H78  1  0.852930  0.629200  0.350400  1.0  0.1106
  H  H79  1  0.804130  0.422300  0.346300  1.0  0.0939
  H  H80  1  0.944330  0.392700  0.318900  1.0  0.1138
  H  H81  1  0.852630  0.401900  0.254400  1.0  0.1132
  H  H82  1  0.094370  0.918700  0.449700  1.0  0.2632
  H  H83  1  0.221570  0.954100  0.335900  1.0  0.0895
  H  H84  1  0.077470  0.973800  0.357100  1.0  0.1104
  H  H85  1  0.941770  0.834600  0.328100  1.0  0.1256
  H  H86  1  0.269170  0.818200  0.204700  1.0  0.1385
  H  H87  1  0.217670  0.677300  0.104800  1.0  0.0737
  H  H88  1  0.902370  0.692000  0.226000  1.0  0.0869
  H  H89  1  0.296070  0.845400  0.375200  1.0  0.086
  H  H90  1  0.327970  0.805200  0.481100  1.0  0.0644
  H  H91  1  0.074270  0.782100  0.425100  1.0  0.0879
  H  H92  1  0.143070  0.724900  0.457300  1.0  0.1183
  H  H93  1  0.186270  0.721200  0.370800  1.0  0.1094
  H  H94  1  0.137470  0.924000  0.577700  1.0  0.0941
  H  H95  1  0.277670  0.926200  0.607300  1.0  0.1154
  H  H96  1  0.185970  0.852500  0.598100  1.0  0.1133
  C  C97  1  0.224800  0.468100  0.946200  1.0  0.6426
  C  C98  1  0.978700  0.583000  0.934500  1.0  -0.0278
  C  C99  1  0.946800  0.564700  0.843900  1.0  0.1173
  C  C100  1  0.833100  0.519800  0.803500  1.0  -0.1916
  C  C101  1  0.027400  0.583800  0.794400  1.0  -0.2283
  C  C102  1  0.995500  0.558400  0.709100  1.0  0.1754
  C  C103  1  0.809700  0.496200  0.718000  1.0  0.1713
  C  C104  1  0.108500  0.450100  0.886400  1.0  -0.0878
  C  C105  1  0.081300  0.352300  0.832800  1.0  0.0899
  C  C106  1  0.987400  0.329700  0.758200  1.0  -0.3562
  C  C107  1  0.042000  0.314500  0.888900  1.0  -0.3524
  C  C108  1  0.558130  0.478100  0.531900  1.0  0.6447
  C  C109  1  0.312030  0.351500  0.417000  1.0  -0.0279
  C  C110  1  0.280130  0.279200  0.435300  1.0  0.1146
  C  C111  1  0.166430  0.283700  0.480200  1.0  -0.189
  C  C112  1  0.360730  0.210600  0.416200  1.0  -0.2287
  C  C113  1  0.328830  0.150700  0.441600  1.0  0.1738
  C  C114  1  0.143030  0.221800  0.503800  1.0  0.1721
  C  C115  1  0.441830  0.436300  0.549900  1.0  -0.0872
  C  C116  1  0.414630  0.480500  0.647700  1.0  0.0909
  C  C117  1  0.320730  0.428500  0.670300  1.0  -0.3553
  C  C118  1  0.375330  0.574400  0.685500  1.0  -0.3542
  C  C119  1  0.891470  0.053800  0.521900  1.0  0.6433
  C  C120  1  0.645370  0.065500  0.648500  1.0  -0.0292
  C  C121  1  0.613470  0.156100  0.720800  1.0  0.1179
  C  C122  1  0.499770  0.196500  0.716300  1.0  -0.1927
  C  C123  1  0.694070  0.205600  0.789400  1.0  -0.2279
  C  C124  1  0.662170  0.290900  0.849300  1.0  0.1753
  C  C125  1  0.476370  0.282000  0.778200  1.0  0.1723
  C  C126  1  0.775170  0.113600  0.563700  1.0  -0.0854
  C  C127  1  0.747970  0.167200  0.519500  1.0  0.0907
  C  C128  1  0.654070  0.241800  0.571500  1.0  -0.3538
  C  C129  1  0.708670  0.111100  0.425600  1.0  -0.3526
  C  C130  1  0.724800  0.531900  0.053800  1.0  0.6428
  C  C131  1  0.478700  0.417000  0.065500  1.0  -0.0272
  C  C132  1  0.446800  0.435300  0.156100  1.0  0.116
  C  C133  1  0.333100  0.480200  0.196500  1.0  -0.1893
  C  C134  1  0.527400  0.416200  0.205600  1.0  -0.2281
  C  C135  1  0.495500  0.441600  0.290900  1.0  0.1755
  C  C136  1  0.309700  0.503800  0.282000  1.0  0.1718
  C  C137  1  0.608500  0.549900  0.113600  1.0  -0.0896
  C  C138  1  0.581300  0.647700  0.167200  1.0  0.0893
  C  C139  1  0.487400  0.670300  0.241800  1.0  -0.3566
  C  C140  1  0.542000  0.685500  0.111100  1.0  -0.3532
  C  C141  1  0.058130  0.521900  0.468100  1.0  0.6434
  C  C142  1  0.812030  0.648500  0.583000  1.0  -0.028
  C  C143  1  0.780130  0.720800  0.564700  1.0  0.1161
  C  C144  1  0.666430  0.716300  0.519800  1.0  -0.1892
  C  C145  1  0.860730  0.789400  0.583800  1.0  -0.2281
  C  C146  1  0.828830  0.849300  0.558400  1.0  0.1739
  C  C147  1  0.643030  0.778200  0.496200  1.0  0.1722
  C  C148  1  0.941830  0.563700  0.450100  1.0  -0.0856
  C  C149  1  0.914630  0.519500  0.352300  1.0  0.0909
  C  C150  1  0.820730  0.571500  0.329700  1.0  -0.3548
  C  C151  1  0.875330  0.425600  0.314500  1.0  -0.354
  C  C152  1  0.391470  0.946200  0.478100  1.0  0.6431
  C  C153  1  0.145370  0.934500  0.351500  1.0  -0.0278
  C  C154  1  0.113470  0.843900  0.279200  1.0  0.1176
  C  C155  1  0.999770  0.803500  0.283700  1.0  -0.1902
  C  C156  1  0.194070  0.794400  0.210600  1.0  -0.2297
  C  C157  1  0.162170  0.709100  0.150700  1.0  0.1743
  C  C158  1  0.976370  0.718000  0.221800  1.0  0.172
  C  C159  1  0.275170  0.886400  0.436300  1.0  -0.0849
  C  C160  1  0.247970  0.832800  0.480500  1.0  0.0912
  C  C161  1  0.154070  0.758200  0.428500  1.0  -0.3538
  C  C162  1  0.208670  0.888900  0.574400  1.0  -0.3529
  N  N163  1  0.891000  0.515200  0.669700  1.0  -0.3261
  N  N164  1  0.998400  0.502600  0.939400  1.0  -0.3725
  N  N165  1  0.224330  0.154500  0.484800  1.0  -0.3254
  N  N166  1  0.331730  0.436800  0.497400  1.0  -0.3724
  N  N167  1  0.557670  0.330300  0.845500  1.0  -0.3236
  N  N168  1  0.665070  0.060600  0.563200  1.0  -0.3696
  N  N169  1  0.391000  0.484800  0.330300  1.0  -0.3255
  N  N170  1  0.498400  0.497400  0.060600  1.0  -0.372
  N  N171  1  0.724330  0.845500  0.515200  1.0  -0.3252
  N  N172  1  0.831730  0.563200  0.502600  1.0  -0.373
  N  N173  1  0.057670  0.669700  0.154500  1.0  -0.3243
  N  N174  1  0.165070  0.939400  0.436800  1.0  -0.3694
  Cl  Cl175  1  0.020100  0.454400  0.131160  1.0  -0.5527
  Cl  Cl176  1  0.353430  0.676760  0.545600  1.0  -0.5539
  Cl  Cl177  1  0.686770  0.868840  0.323240  1.0  -0.5521
  Cl  Cl178  1  0.520100  0.545600  0.868840  1.0  -0.5529
  Cl  Cl179  1  0.853430  0.323240  0.454400  1.0  -0.5537
  Cl  Cl180  1  0.186770  0.131160  0.676760  1.0  -0.5506
  O  O181  1  0.325300  0.433800  0.906300  1.0  -0.5966
  O  O182  1  0.213700  0.514900  0.026700  1.0  -0.5681
  O  O183  1  0.658630  0.472500  0.566200  1.0  -0.5962
  O  O184  1  0.547030  0.511800  0.485100  1.0  -0.5678
  O  O185  1  0.991970  0.093700  0.527500  1.0  -0.5965
  O  O186  1  0.880370  0.973300  0.488200  1.0  -0.5685
  O  O187  1  0.825300  0.566200  0.093700  1.0  -0.5969
  O  O188  1  0.713700  0.485100  0.973300  1.0  -0.5687
  O  O189  1  0.158630  0.527500  0.433800  1.0  -0.5967
  O  O190  1  0.047030  0.488200  0.514900  1.0  -0.5676
  O  O191  1  0.491970  0.906300  0.472500  1.0  -0.5966
  O  O192  1  0.380370  0.026700  0.511800  1.0  -0.5681
