# generated using pymatgen
data_ZnH15C11Br(NO)2
_symmetry_space_group_name_H-M   'P 1'
_cell_length_a   10.48680000
_cell_length_b   17.77860000
_cell_length_c   17.77860000
_cell_angle_alpha   120.00000000
_cell_angle_beta   90.00000000
_cell_angle_gamma   90.00000000
_symmetry_Int_Tables_number   1
_chemical_formula_structural   ZnH15C11Br(NO)2
_chemical_formula_sum   'Zn6 H90 C66 Br6 N12 O12'
_cell_volume   2870.57391995
_cell_formula_units_Z   6
loop_
 _symmetry_equiv_pos_site_id
 _symmetry_equiv_pos_as_xyz
  1  'x, y, z'
loop_
 _atom_site_type_symbol
 _atom_site_label
 _atom_site_symmetry_multiplicity
 _atom_site_fract_x
 _atom_site_fract_y
 _atom_site_fract_z
 _atom_site_occupancy
 _atom_site_charge
  Zn  Zn1  1  0.922760  0.929570  0.472190  1.0  0.7383
  Zn  Zn2  1  0.256090  0.542620  0.070430  1.0  0.7409
  Zn  Zn3  1  0.589430  0.527810  0.457380  1.0  0.7318
  Zn  Zn4  1  0.422760  0.070430  0.527810  1.0  0.737
  Zn  Zn5  1  0.756090  0.457380  0.929570  1.0  0.7415
  Zn  Zn6  1  0.089430  0.472190  0.542620  1.0  0.7332
  H  H7  1  0.831000  0.079600  0.553700  1.0  0.2673
  H  H8  1  0.636300  0.302000  0.778900  1.0  0.0815
  H  H9  1  0.957300  0.323600  0.896600  1.0  0.0756
  H  H10  1  0.012200  0.182000  0.794600  1.0  0.1333
  H  H11  1  0.679900  0.163600  0.677300  1.0  0.1244
  H  H12  1  0.962700  0.048000  0.668800  1.0  0.0918
  H  H13  1  0.817500  0.026900  0.648600  1.0  0.1146
  H  H14  1  0.035400  0.153300  0.625600  1.0  0.0858
  H  H15  1  0.062300  0.196300  0.521700  1.0  0.0638
  H  H16  1  0.864900  0.080400  0.426700  1.0  0.0917
  H  H17  1  0.007700  0.070100  0.397000  1.0  0.1098
  H  H18  1  0.925400  0.146600  0.403100  1.0  0.1113
  H  H19  1  0.873500  0.274000  0.547100  1.0  0.1132
  H  H20  1  0.921800  0.278000  0.632500  1.0  0.1106
  H  H21  1  0.808800  0.216200  0.579900  1.0  0.0877
  H  H22  1  0.164330  0.474100  0.920400  1.0  0.2677
  H  H23  1  0.969630  0.476900  0.698000  1.0  0.0821
  H  H24  1  0.290630  0.573000  0.676400  1.0  0.0761
  H  H25  1  0.345530  0.612600  0.818000  1.0  0.1325
  H  H26  1  0.013230  0.513700  0.836400  1.0  0.1232
  H  H27  1  0.296030  0.620800  0.952000  1.0  0.092
  H  H28  1  0.150830  0.621700  0.973100  1.0  0.1139
  H  H29  1  0.368730  0.472300  0.846700  1.0  0.087
  H  H30  1  0.395630  0.325400  0.803700  1.0  0.0635
  H  H31  1  0.198230  0.346300  0.919600  1.0  0.0923
  H  H32  1  0.341030  0.326900  0.929900  1.0  0.1104
  H  H33  1  0.258730  0.256500  0.853400  1.0  0.1112
  H  H34  1  0.206830  0.273100  0.726000  1.0  0.1116
  H  H35  1  0.255130  0.354500  0.722000  1.0  0.1108
  H  H36  1  0.142130  0.363700  0.783800  1.0  0.0879
  H  H37  1  0.497670  0.446300  0.525900  1.0  0.2667
  H  H38  1  0.302970  0.221100  0.523100  1.0  0.0809
  H  H39  1  0.623970  0.103400  0.427000  1.0  0.0751
  H  H40  1  0.678870  0.205400  0.387400  1.0  0.1341
  H  H41  1  0.346570  0.322700  0.486300  1.0  0.1241
  H  H42  1  0.629370  0.331200  0.379200  1.0  0.0915
  H  H43  1  0.484170  0.351400  0.378300  1.0  0.1176
  H  H44  1  0.702070  0.374400  0.527700  1.0  0.0865
  H  H45  1  0.728970  0.478300  0.674600  1.0  0.0635
  H  H46  1  0.531570  0.573300  0.653700  1.0  0.0925
  H  H47  1  0.674370  0.603000  0.673100  1.0  0.1106
  H  H48  1  0.592070  0.596900  0.743500  1.0  0.1119
  H  H49  1  0.540170  0.452900  0.726900  1.0  0.1133
  H  H50  1  0.588470  0.367500  0.645500  1.0  0.1118
  H  H51  1  0.475470  0.420100  0.636300  1.0  0.0885
  H  H52  1  0.331000  0.920400  0.446300  1.0  0.2669
  H  H53  1  0.136300  0.698000  0.221100  1.0  0.0814
  H  H54  1  0.457300  0.676400  0.103400  1.0  0.0753
  H  H55  1  0.512200  0.818000  0.205400  1.0  0.1339
  H  H56  1  0.179900  0.836400  0.322700  1.0  0.1241
  H  H57  1  0.462700  0.952000  0.331200  1.0  0.0919
  H  H58  1  0.317500  0.973100  0.351400  1.0  0.1151
  H  H59  1  0.535400  0.846700  0.374400  1.0  0.0862
  H  H60  1  0.562300  0.803700  0.478300  1.0  0.0637
  H  H61  1  0.364900  0.919600  0.573300  1.0  0.0923
  H  H62  1  0.507700  0.929900  0.603000  1.0  0.1099
  H  H63  1  0.425400  0.853400  0.596900  1.0  0.1113
  H  H64  1  0.373500  0.726000  0.452900  1.0  0.1125
  H  H65  1  0.421800  0.722000  0.367500  1.0  0.1107
  H  H66  1  0.308800  0.783800  0.420100  1.0  0.0876
  H  H67  1  0.664330  0.525900  0.079600  1.0  0.2683
  H  H68  1  0.469630  0.523100  0.302000  1.0  0.0818
  H  H69  1  0.790630  0.427000  0.323600  1.0  0.0766
  H  H70  1  0.845530  0.387400  0.182000  1.0  0.1324
  H  H71  1  0.513230  0.486300  0.163600  1.0  0.1232
  H  H72  1  0.796030  0.379200  0.048000  1.0  0.0918
  H  H73  1  0.650830  0.378300  0.026900  1.0  0.1135
  H  H74  1  0.868730  0.527700  0.153300  1.0  0.0862
  H  H75  1  0.895630  0.674600  0.196300  1.0  0.0634
  H  H76  1  0.698230  0.653700  0.080400  1.0  0.0916
  H  H77  1  0.841030  0.673100  0.070100  1.0  0.1105
  H  H78  1  0.758730  0.743500  0.146600  1.0  0.1117
  H  H79  1  0.706830  0.726900  0.274000  1.0  0.1125
  H  H80  1  0.755130  0.645500  0.278000  1.0  0.111
  H  H81  1  0.642130  0.636300  0.216200  1.0  0.0876
  H  H82  1  0.997670  0.553700  0.474100  1.0  0.2676
  H  H83  1  0.802970  0.778900  0.476900  1.0  0.0812
  H  H84  1  0.123970  0.896600  0.573000  1.0  0.0757
  H  H85  1  0.178870  0.794600  0.612600  1.0  0.1338
  H  H86  1  0.846570  0.677300  0.513700  1.0  0.1239
  H  H87  1  0.129370  0.668800  0.620800  1.0  0.0917
  H  H88  1  0.984170  0.648600  0.621700  1.0  0.1149
  H  H89  1  0.202070  0.625600  0.472300  1.0  0.086
  H  H90  1  0.228970  0.521700  0.325400  1.0  0.0642
  H  H91  1  0.031570  0.426700  0.346300  1.0  0.0922
  H  H92  1  0.174370  0.397000  0.326900  1.0  0.1106
  H  H93  1  0.092070  0.403100  0.256500  1.0  0.1118
  H  H94  1  0.040170  0.547100  0.273100  1.0  0.1123
  H  H95  1  0.088470  0.632500  0.354500  1.0  0.1119
  H  H96  1  0.975470  0.579900  0.363700  1.0  0.0875
  C  C97  1  0.713800  0.277900  0.781500  1.0  0.1806
  C  C98  1  0.902000  0.291200  0.850700  1.0  0.1721
  C  C99  1  0.935100  0.205400  0.790100  1.0  -0.2282
  C  C100  1  0.851600  0.156700  0.724100  1.0  0.1169
  C  C101  1  0.738800  0.195100  0.721100  1.0  -0.1915
  C  C102  1  0.884900  0.066300  0.653100  1.0  -0.0323
  C  C103  1  0.128800  0.052700  0.521800  1.0  0.6453
  C  C104  1  0.012400  0.113000  0.564900  1.0  -0.088
  C  C105  1  0.982300  0.168300  0.522700  1.0  0.0928
  C  C106  1  0.941300  0.111100  0.428700  1.0  -0.3504
  C  C107  1  0.887900  0.240800  0.575400  1.0  -0.3565
  C  C108  1  0.047130  0.503600  0.722100  1.0  0.1792
  C  C109  1  0.235330  0.559500  0.708800  1.0  0.1728
  C  C110  1  0.268430  0.584700  0.794600  1.0  -0.2293
  C  C111  1  0.184930  0.567400  0.843300  1.0  0.1194
  C  C112  1  0.072130  0.526000  0.804900  1.0  -0.1905
  C  C113  1  0.218230  0.586800  0.933700  1.0  -0.0291
  C  C114  1  0.462130  0.469100  0.947300  1.0  0.6454
  C  C115  1  0.345730  0.451900  0.887000  1.0  -0.0903
  C  C116  1  0.315630  0.354400  0.831700  1.0  0.0911
  C  C117  1  0.274630  0.317600  0.888900  1.0  -0.3505
  C  C118  1  0.221230  0.334600  0.759200  1.0  -0.3579
  C  C119  1  0.380470  0.218500  0.496400  1.0  0.1813
  C  C120  1  0.568670  0.149300  0.440500  1.0  0.1711
  C  C121  1  0.601770  0.209900  0.415300  1.0  -0.2306
  C  C122  1  0.518270  0.275900  0.432600  1.0  0.1158
  C  C123  1  0.405470  0.278900  0.474000  1.0  -0.1917
  C  C124  1  0.551570  0.346900  0.413200  1.0  -0.0308
  C  C125  1  0.795470  0.478200  0.530900  1.0  0.6467
  C  C126  1  0.679070  0.435100  0.548100  1.0  -0.0902
  C  C127  1  0.648970  0.477300  0.645600  1.0  0.093
  C  C128  1  0.607970  0.571300  0.682400  1.0  -0.3513
  C  C129  1  0.554570  0.424600  0.665400  1.0  -0.3571
  C  C130  1  0.213800  0.722100  0.218500  1.0  0.1798
  C  C131  1  0.402000  0.708800  0.149300  1.0  0.1727
  C  C132  1  0.435100  0.794600  0.209900  1.0  -0.2273
  C  C133  1  0.351600  0.843300  0.275900  1.0  0.1181
  C  C134  1  0.238800  0.804900  0.278900  1.0  -0.1919
  C  C135  1  0.384900  0.933700  0.346900  1.0  -0.0313
  C  C136  1  0.628800  0.947300  0.478200  1.0  0.6455
  C  C137  1  0.512400  0.887000  0.435100  1.0  -0.0875
  C  C138  1  0.482300  0.831700  0.477300  1.0  0.0929
  C  C139  1  0.441300  0.888900  0.571300  1.0  -0.35
  C  C140  1  0.387900  0.759200  0.424600  1.0  -0.3555
  C  C141  1  0.547130  0.496400  0.277900  1.0  0.1797
  C  C142  1  0.735330  0.440500  0.291200  1.0  0.1718
  C  C143  1  0.768430  0.415300  0.205400  1.0  -0.2326
  C  C144  1  0.684930  0.432600  0.156700  1.0  0.1178
  C  C145  1  0.572130  0.474000  0.195100  1.0  -0.1912
  C  C146  1  0.718230  0.413200  0.066300  1.0  -0.0285
  C  C147  1  0.962130  0.530900  0.052700  1.0  0.6448
  C  C148  1  0.845730  0.548100  0.113000  1.0  -0.0915
  C  C149  1  0.815630  0.645600  0.168300  1.0  0.0906
  C  C150  1  0.774630  0.682400  0.111100  1.0  -0.3513
  C  C151  1  0.721230  0.665400  0.240800  1.0  -0.3579
  C  C152  1  0.880470  0.781500  0.503600  1.0  0.181
  C  C153  1  0.068670  0.850700  0.559500  1.0  0.1719
  C  C154  1  0.101770  0.790100  0.584700  1.0  -0.2293
  C  C155  1  0.018270  0.724100  0.567400  1.0  0.1167
  C  C156  1  0.905470  0.721100  0.526000  1.0  -0.1902
  C  C157  1  0.051570  0.653100  0.586800  1.0  -0.0296
  C  C158  1  0.295470  0.521800  0.469100  1.0  0.6459
  C  C159  1  0.179070  0.564900  0.451900  1.0  -0.0889
  C  C160  1  0.148970  0.522700  0.354400  1.0  0.0922
  C  C161  1  0.107970  0.428700  0.317600  1.0  -0.3508
  C  C162  1  0.054570  0.575400  0.334600  1.0  -0.3564
  Br  Br163  1  0.912310  0.868740  0.320530  1.0  -0.5203
  Br  Br164  1  0.245640  0.451790  0.131260  1.0  -0.5193
  Br  Br165  1  0.578980  0.679470  0.548210  1.0  -0.5217
  Br  Br166  1  0.412310  0.131260  0.679470  1.0  -0.5202
  Br  Br167  1  0.745640  0.548210  0.868740  1.0  -0.5192
  Br  Br168  1  0.078980  0.320530  0.451790  1.0  -0.5217
  N  N169  1  0.796200  0.327500  0.845300  1.0  -0.3094
  N  N170  1  0.903100  0.059400  0.566000  1.0  -0.3654
  N  N171  1  0.129530  0.517800  0.672500  1.0  -0.3125
  N  N172  1  0.236430  0.506600  0.940600  1.0  -0.3677
  N  N173  1  0.462870  0.154700  0.482200  1.0  -0.3114
  N  N174  1  0.569770  0.434000  0.493400  1.0  -0.3675
  N  N175  1  0.296200  0.672500  0.154700  1.0  -0.3096
  N  N176  1  0.403100  0.940600  0.434000  1.0  -0.3653
  N  N177  1  0.629530  0.482200  0.327500  1.0  -0.3112
  N  N178  1  0.736430  0.493400  0.059400  1.0  -0.368
  N  N179  1  0.962870  0.845300  0.517800  1.0  -0.3106
  N  N180  1  0.069770  0.566000  0.506600  1.0  -0.367
  O  O181  1  0.118000  0.973700  0.488800  1.0  -0.5674
  O  O182  1  0.228000  0.092100  0.522000  1.0  -0.595
  O  O183  1  0.451330  0.515100  0.026300  1.0  -0.5668
  O  O184  1  0.561330  0.429900  0.907900  1.0  -0.5951
  O  O185  1  0.784670  0.511200  0.484900  1.0  -0.5675
  O  O186  1  0.894670  0.478000  0.570100  1.0  -0.5948
  O  O187  1  0.618000  0.026300  0.511200  1.0  -0.5677
  O  O188  1  0.728000  0.907900  0.478000  1.0  -0.5952
  O  O189  1  0.951330  0.484900  0.973700  1.0  -0.568
  O  O190  1  0.061330  0.570100  0.092100  1.0  -0.5952
  O  O191  1  0.284670  0.488800  0.515100  1.0  -0.5667
  O  O192  1  0.394670  0.522000  0.429900  1.0  -0.5955
