# generated using pymatgen
data_ZnH15C11N2ClO2
_symmetry_space_group_name_H-M   'P 1'
_cell_length_a   10.56170000
_cell_length_b   17.69100000
_cell_length_c   17.69100000
_cell_angle_alpha   120.00000000
_cell_angle_beta   90.00000000
_cell_angle_gamma   90.00000000
_symmetry_Int_Tables_number   1
_chemical_formula_structural   ZnH15C11N2ClO2
_chemical_formula_sum   'Zn6 H90 C66 N12 Cl6 O12'
_cell_volume   2862.65640399
_cell_formula_units_Z   6
loop_
 _symmetry_equiv_pos_site_id
 _symmetry_equiv_pos_as_xyz
  1  'x, y, z'
loop_
 _atom_site_type_symbol
 _atom_site_label
 _atom_site_symmetry_multiplicity
 _atom_site_fract_x
 _atom_site_fract_y
 _atom_site_fract_z
 _atom_site_occupancy
 _atom_site_charge
  Zn  Zn1  1  0.882360  0.540390  0.071000  1.0  0.7788
  Zn  Zn2  1  0.549030  0.530610  0.459610  1.0  0.7731
  Zn  Zn3  1  0.215690  0.929000  0.469390  1.0  0.7789
  Zn  Zn4  1  0.382360  0.459610  0.929000  1.0  0.7777
  Zn  Zn5  1  0.049030  0.469390  0.540390  1.0  0.775
  Zn  Zn6  1  0.715690  0.071000  0.530610  1.0  0.7795
  H  H7  1  0.974000  0.468900  0.918800  1.0  0.2706
  H  H8  1  0.167400  0.467900  0.692200  1.0  0.0895
  H  H9  1  0.849700  0.572500  0.677300  1.0  0.0751
  H  H10  1  0.799500  0.614500  0.818600  1.0  0.1364
  H  H11  1  0.126100  0.507200  0.834500  1.0  0.1205
  H  H12  1  0.990800  0.617100  0.973500  1.0  0.1095
  H  H13  1  0.846600  0.618400  0.953500  1.0  0.0877
  H  H14  1  0.773100  0.470600  0.845600  1.0  0.0861
  H  H15  1  0.739800  0.324400  0.805400  1.0  0.0628
  H  H16  1  0.884500  0.254200  0.851100  1.0  0.1135
  H  H17  1  0.792400  0.317600  0.925400  1.0  0.1117
  H  H18  1  0.932300  0.346200  0.923400  1.0  0.0939
  H  H19  1  0.997200  0.352400  0.783400  1.0  0.0894
  H  H20  1  0.887900  0.353900  0.724100  1.0  0.1093
  H  H21  1  0.921000  0.267000  0.723100  1.0  0.1172
  H  H22  1  0.640670  0.449900  0.531100  1.0  0.2698
  H  H23  1  0.834070  0.224300  0.532100  1.0  0.0888
  H  H24  1  0.516370  0.104800  0.427500  1.0  0.0739
  H  H25  1  0.466170  0.204100  0.385500  1.0  0.1402
  H  H26  1  0.792770  0.327300  0.492800  1.0  0.1226
  H  H27  1  0.657470  0.356400  0.382900  1.0  0.1106
  H  H28  1  0.513270  0.335100  0.381600  1.0  0.0868
  H  H29  1  0.439770  0.375000  0.529400  1.0  0.085
  H  H30  1  0.406470  0.481000  0.675600  1.0  0.0637
  H  H31  1  0.551170  0.596900  0.745800  1.0  0.1116
  H  H32  1  0.459070  0.607800  0.682400  1.0  0.1087
  H  H33  1  0.598970  0.577200  0.653800  1.0  0.0938
  H  H34  1  0.663870  0.431000  0.647600  1.0  0.0899
  H  H35  1  0.554570  0.370200  0.646100  1.0  0.1085
  H  H36  1  0.587670  0.456100  0.733000  1.0  0.1178
  H  H37  1  0.307330  0.081200  0.550100  1.0  0.2703
  H  H38  1  0.500730  0.307800  0.775700  1.0  0.0888
  H  H39  1  0.183030  0.322700  0.895200  1.0  0.0744
  H  H40  1  0.132830  0.181400  0.795900  1.0  0.1386
  H  H41  1  0.459430  0.165500  0.672700  1.0  0.1226
  H  H42  1  0.324130  0.026500  0.643600  1.0  0.1102
  H  H43  1  0.179930  0.046500  0.664900  1.0  0.087
  H  H44  1  0.106430  0.154400  0.625000  1.0  0.0848
  H  H45  1  0.073130  0.194600  0.519000  1.0  0.0626
  H  H46  1  0.217830  0.148900  0.403100  1.0  0.1119
  H  H47  1  0.125730  0.074600  0.392200  1.0  0.1088
  H  H48  1  0.265630  0.076600  0.422800  1.0  0.0933
  H  H49  1  0.330530  0.216600  0.569000  1.0  0.089
  H  H50  1  0.221230  0.275900  0.629800  1.0  0.1088
  H  H51  1  0.254330  0.276900  0.543900  1.0  0.1188
  H  H52  1  0.474000  0.531100  0.081200  1.0  0.2707
  H  H53  1  0.667400  0.532100  0.307800  1.0  0.0892
  H  H54  1  0.349700  0.427500  0.322700  1.0  0.0746
  H  H55  1  0.299500  0.385500  0.181400  1.0  0.1358
  H  H56  1  0.626100  0.492800  0.165500  1.0  0.1217
  H  H57  1  0.490800  0.382900  0.026500  1.0  0.1087
  H  H58  1  0.346600  0.381600  0.046500  1.0  0.0879
  H  H59  1  0.273100  0.529400  0.154400  1.0  0.0855
  H  H60  1  0.239800  0.675600  0.194600  1.0  0.0636
  H  H61  1  0.384500  0.745800  0.148900  1.0  0.1133
  H  H62  1  0.292400  0.682400  0.074600  1.0  0.1117
  H  H63  1  0.432300  0.653800  0.076600  1.0  0.093
  H  H64  1  0.497200  0.647600  0.216600  1.0  0.089
  H  H65  1  0.387900  0.646100  0.275900  1.0  0.1089
  H  H66  1  0.421000  0.733000  0.276900  1.0  0.1178
  H  H67  1  0.140670  0.550100  0.468900  1.0  0.27
  H  H68  1  0.334070  0.775700  0.467900  1.0  0.0886
  H  H69  1  0.016370  0.895200  0.572500  1.0  0.0746
  H  H70  1  0.966170  0.795900  0.614500  1.0  0.1406
  H  H71  1  0.292770  0.672700  0.507200  1.0  0.1223
  H  H72  1  0.157470  0.643600  0.617100  1.0  0.1105
  H  H73  1  0.013270  0.664900  0.618400  1.0  0.0873
  H  H74  1  0.939770  0.625000  0.470600  1.0  0.0845
  H  H75  1  0.906470  0.519000  0.324400  1.0  0.0636
  H  H76  1  0.051170  0.403100  0.254200  1.0  0.1113
  H  H77  1  0.959070  0.392200  0.317600  1.0  0.1125
  H  H78  1  0.098970  0.422800  0.346200  1.0  0.0943
  H  H79  1  0.163870  0.569000  0.352400  1.0  0.0895
  H  H80  1  0.054570  0.629800  0.353900  1.0  0.1087
  H  H81  1  0.087670  0.543900  0.267000  1.0  0.1177
  H  H82  1  0.807330  0.918800  0.449900  1.0  0.2695
  H  H83  1  0.000730  0.692200  0.224300  1.0  0.0889
  H  H84  1  0.683030  0.677300  0.104800  1.0  0.0746
  H  H85  1  0.632830  0.818600  0.204100  1.0  0.1385
  H  H86  1  0.959430  0.834500  0.327300  1.0  0.1224
  H  H87  1  0.824130  0.973500  0.356400  1.0  0.1102
  H  H88  1  0.679930  0.953500  0.335100  1.0  0.0873
  H  H89  1  0.606430  0.845600  0.375000  1.0  0.0851
  H  H90  1  0.573130  0.805400  0.481000  1.0  0.0639
  H  H91  1  0.717830  0.851100  0.596900  1.0  0.1118
  H  H92  1  0.625730  0.925400  0.607800  1.0  0.1091
  H  H93  1  0.765630  0.923400  0.577200  1.0  0.0934
  H  H94  1  0.830530  0.783400  0.431000  1.0  0.0889
  H  H95  1  0.721230  0.724100  0.370200  1.0  0.1088
  H  H96  1  0.754330  0.723100  0.456100  1.0  0.1181
  C  C97  1  0.092500  0.497100  0.717800  1.0  0.1762
  C  C98  1  0.905400  0.558700  0.709300  1.0  0.1715
  C  C99  1  0.874300  0.584200  0.794300  1.0  -0.2238
  C  C100  1  0.955400  0.564400  0.843500  1.0  0.1105
  C  C101  1  0.068000  0.520500  0.803400  1.0  -0.1858
  C  C102  1  0.923000  0.583300  0.934200  1.0  -0.0294
  C  C103  1  0.676900  0.468100  0.945900  1.0  0.6458
  C  C104  1  0.793800  0.450510  0.886610  1.0  -0.0884
  C  C105  1  0.820000  0.352600  0.833000  1.0  0.0896
  C  C106  1  0.861000  0.314200  0.888300  1.0  -0.355
  C  C107  1  0.915500  0.329300  0.759000  1.0  -0.3573
  C  C108  1  0.759170  0.220700  0.502900  1.0  0.1771
  C  C109  1  0.572070  0.150600  0.441300  1.0  0.1688
  C  C110  1  0.540970  0.210100  0.415800  1.0  -0.2244
  C  C111  1  0.622070  0.279100  0.435600  1.0  0.1089
  C  C112  1  0.734670  0.282900  0.479500  1.0  -0.1841
  C  C113  1  0.589670  0.350900  0.416700  1.0  -0.0288
  C  C114  1  0.343570  0.477800  0.531900  1.0  0.6456
  C  C115  1  0.460470  0.436100  0.549490  1.0  -0.0882
  C  C116  1  0.486670  0.480400  0.647400  1.0  0.0905
  C  C117  1  0.527670  0.574100  0.685800  1.0  -0.3561
  C  C118  1  0.582170  0.429700  0.670700  1.0  -0.3566
  C  C119  1  0.425830  0.282200  0.779300  1.0  0.177
  C  C120  1  0.238730  0.290700  0.849400  1.0  0.17
  C  C121  1  0.207630  0.205700  0.789900  1.0  -0.2248
  C  C122  1  0.288730  0.156500  0.720900  1.0  0.1121
  C  C123  1  0.401330  0.196600  0.717100  1.0  -0.1868
  C  C124  1  0.256330  0.065800  0.649100  1.0  -0.0297
  C  C125  1  0.010230  0.054100  0.522200  1.0  0.6455
  C  C126  1  0.127130  0.113390  0.563900  1.0  -0.0857
  C  C127  1  0.153330  0.167000  0.519600  1.0  0.0903
  C  C128  1  0.194330  0.111700  0.425900  1.0  -0.3563
  C  C129  1  0.248830  0.241000  0.570300  1.0  -0.3547
  C  C130  1  0.592500  0.502900  0.282200  1.0  0.1762
  C  C131  1  0.405400  0.441300  0.290700  1.0  0.1707
  C  C132  1  0.374300  0.415800  0.205700  1.0  -0.2246
  C  C133  1  0.455400  0.435600  0.156500  1.0  0.1118
  C  C134  1  0.568000  0.479500  0.196600  1.0  -0.1848
  C  C135  1  0.423000  0.416700  0.065800  1.0  -0.0281
  C  C136  1  0.176900  0.531900  0.054100  1.0  0.6453
  C  C137  1  0.293800  0.549490  0.113390  1.0  -0.0902
  C  C138  1  0.320000  0.647400  0.167000  1.0  0.0891
  C  C139  1  0.361000  0.685800  0.111700  1.0  -0.3572
  C  C140  1  0.415500  0.670700  0.241000  1.0  -0.3577
  C  C141  1  0.259170  0.779300  0.497100  1.0  0.1776
  C  C142  1  0.072070  0.849400  0.558700  1.0  0.1684
  C  C143  1  0.040970  0.789900  0.584200  1.0  -0.2253
  C  C144  1  0.122070  0.720900  0.564400  1.0  0.1109
  C  C145  1  0.234670  0.717100  0.520500  1.0  -0.1853
  C  C146  1  0.089670  0.649100  0.583300  1.0  -0.0279
  C  C147  1  0.843570  0.522200  0.468100  1.0  0.6459
  C  C148  1  0.960470  0.563900  0.450510  1.0  -0.0864
  C  C149  1  0.986670  0.519600  0.352600  1.0  0.0902
  C  C150  1  0.027670  0.425900  0.314200  1.0  -0.3559
  C  C151  1  0.082170  0.570300  0.329300  1.0  -0.3555
  C  C152  1  0.925830  0.717800  0.220700  1.0  0.1762
  C  C153  1  0.738730  0.709300  0.150600  1.0  0.1702
  C  C154  1  0.707630  0.794300  0.210100  1.0  -0.2246
  C  C155  1  0.788730  0.843500  0.279100  1.0  0.1113
  C  C156  1  0.901330  0.803400  0.282900  1.0  -0.1863
  C  C157  1  0.756330  0.934200  0.350900  1.0  -0.0293
  C  C158  1  0.510230  0.945900  0.477800  1.0  0.6457
  C  C159  1  0.627130  0.886610  0.436100  1.0  -0.0857
  C  C160  1  0.653330  0.833000  0.480400  1.0  0.0906
  C  C161  1  0.694330  0.888300  0.574100  1.0  -0.3551
  C  C162  1  0.748830  0.759000  0.429700  1.0  -0.3554
  N  N163  1  0.010900  0.515200  0.670100  1.0  -0.3193
  N  N164  1  0.903200  0.502470  0.939330  1.0  -0.3717
  N  N165  1  0.677570  0.154900  0.484800  1.0  -0.3194
  N  N166  1  0.569870  0.436860  0.497530  1.0  -0.3716
  N  N167  1  0.344230  0.329900  0.845100  1.0  -0.3176
  N  N168  1  0.236530  0.060670  0.563140  1.0  -0.3705
  N  N169  1  0.510900  0.484800  0.329900  1.0  -0.3186
  N  N170  1  0.403200  0.497530  0.060670  1.0  -0.372
  N  N171  1  0.177570  0.845100  0.515200  1.0  -0.3193
  N  N172  1  0.069870  0.563140  0.502470  1.0  -0.3723
  N  N173  1  0.844230  0.670100  0.154900  1.0  -0.3183
  N  N174  1  0.736530  0.939330  0.436860  1.0  -0.3684
  Cl  Cl175  1  0.881180  0.455090  0.131070  1.0  -0.5543
  Cl  Cl176  1  0.547850  0.675980  0.544910  1.0  -0.5556
  Cl  Cl177  1  0.214510  0.868930  0.324020  1.0  -0.5529
  Cl  Cl178  1  0.381180  0.544910  0.868930  1.0  -0.555
  Cl  Cl179  1  0.047850  0.324020  0.455090  1.0  -0.5547
  Cl  Cl180  1  0.714510  0.131070  0.675980  1.0  -0.5519
  O  O181  1  0.688000  0.514910  0.026420  1.0  -0.5709
  O  O182  1  0.576500  0.433610  0.906080  1.0  -0.589
  O  O183  1  0.354670  0.511510  0.485090  1.0  -0.5706
  O  O184  1  0.243170  0.472470  0.566390  1.0  -0.5891
  O  O185  1  0.021330  0.973580  0.488490  1.0  -0.5717
  O  O186  1  0.909830  0.093920  0.527530  1.0  -0.589
  O  O187  1  0.188000  0.485090  0.973580  1.0  -0.5716
  O  O188  1  0.076500  0.566390  0.093920  1.0  -0.5892
  O  O189  1  0.854670  0.488490  0.514910  1.0  -0.5707
  O  O190  1  0.743170  0.527530  0.433610  1.0  -0.5894
  O  O191  1  0.521330  0.026420  0.511510  1.0  -0.571
  O  O192  1  0.409830  0.906080  0.472470  1.0  -0.5891
