# generated using pymatgen
data_ZnH15C11Br(NO)2
_symmetry_space_group_name_H-M   'P 1'
_cell_length_a   10.47960000
_cell_length_b   17.76800000
_cell_length_c   17.76800000
_cell_angle_alpha   120.00000000
_cell_angle_beta   90.00000000
_cell_angle_gamma   90.00000000
_symmetry_Int_Tables_number   1
_chemical_formula_structural   ZnH15C11Br(NO)2
_chemical_formula_sum   'Zn6 H90 C66 Br6 N12 O12'
_cell_volume   2865.18341754
_cell_formula_units_Z   6
loop_
 _symmetry_equiv_pos_site_id
 _symmetry_equiv_pos_as_xyz
  1  'x, y, z'
loop_
 _atom_site_type_symbol
 _atom_site_label
 _atom_site_symmetry_multiplicity
 _atom_site_fract_x
 _atom_site_fract_y
 _atom_site_fract_z
 _atom_site_occupancy
 _atom_site_charge
  Zn  Zn1  1  0.737150  0.472210  0.542930  1.0  0.7294
  Zn  Zn2  1  0.403820  0.070720  0.527790  1.0  0.7336
  Zn  Zn3  1  0.070480  0.457070  0.929280  1.0  0.738
  Zn  Zn4  1  0.237150  0.527790  0.457070  1.0  0.7278
  Zn  Zn5  1  0.903820  0.929280  0.472210  1.0  0.7348
  Zn  Zn6  1  0.570480  0.542930  0.070720  1.0  0.738
  H  H7  1  0.829200  0.554900  0.475300  1.0  0.2624
  H  H8  1  0.623300  0.624800  0.470900  1.0  0.0878
  H  H9  1  0.598200  0.520800  0.325000  1.0  0.061
  H  H10  1  0.757200  0.408500  0.260500  1.0  0.1114
  H  H11  1  0.647600  0.393300  0.311600  1.0  0.1126
  H  H12  1  0.782100  0.425000  0.354600  1.0  0.0893
  H  H13  1  0.857900  0.568200  0.351500  1.0  0.0944
  H  H14  1  0.750500  0.635700  0.366400  1.0  0.1072
  H  H15  1  0.773000  0.555600  0.273400  1.0  0.1135
  H  H16  1  0.701800  0.897300  0.573200  1.0  0.0794
  H  H17  1  0.021700  0.776800  0.472400  1.0  0.0864
  H  H18  1  0.645800  0.793800  0.612100  1.0  0.1312
  H  H19  1  0.981100  0.677800  0.516300  1.0  0.1181
  H  H20  1  0.694900  0.669400  0.620200  1.0  0.0881
  H  H21  1  0.840100  0.649700  0.622400  1.0  0.1091
  H  H22  1  0.495870  0.920400  0.445100  1.0  0.2617
  H  H23  1  0.289970  0.846100  0.375200  1.0  0.0873
  H  H24  1  0.264870  0.804200  0.479200  1.0  0.0614
  H  H25  1  0.423870  0.852000  0.591500  1.0  0.111
  H  H26  1  0.314270  0.918300  0.606700  1.0  0.1111
  H  H27  1  0.448770  0.929600  0.575000  1.0  0.087
  H  H28  1  0.524570  0.783300  0.431800  1.0  0.0944
  H  H29  1  0.417170  0.730700  0.364300  1.0  0.1056
  H  H30  1  0.439670  0.717800  0.444400  1.0  0.1139
  H  H31  1  0.368470  0.675900  0.102700  1.0  0.0786
  H  H32  1  0.688370  0.695600  0.223200  1.0  0.0867
  H  H33  1  0.312470  0.818300  0.206200  1.0  0.132
  H  H34  1  0.647770  0.838500  0.322200  1.0  0.1181
  H  H35  1  0.361570  0.950800  0.330600  1.0  0.0884
  H  H36  1  0.506770  0.972700  0.350300  1.0  0.1095
  H  H37  1  0.162530  0.524700  0.079600  1.0  0.2619
  H  H38  1  0.956630  0.529100  0.153900  1.0  0.0876
  H  H39  1  0.931530  0.675000  0.195800  1.0  0.0606
  H  H40  1  0.090530  0.739500  0.148000  1.0  0.1114
  H  H41  1  0.980930  0.688400  0.081700  1.0  0.1126
  H  H42  1  0.115430  0.645400  0.070400  1.0  0.0889
  H  H43  1  0.191230  0.648500  0.216700  1.0  0.0946
  H  H44  1  0.083830  0.633600  0.269300  1.0  0.1043
  H  H45  1  0.106330  0.726600  0.282200  1.0  0.1135
  H  H46  1  0.035130  0.426800  0.324100  1.0  0.0801
  H  H47  1  0.355030  0.527600  0.304400  1.0  0.0869
  H  H48  1  0.979130  0.387900  0.181700  1.0  0.1294
  H  H49  1  0.314430  0.483700  0.161500  1.0  0.1172
  H  H50  1  0.028230  0.379800  0.049200  1.0  0.0883
  H  H51  1  0.173430  0.377600  0.027300  1.0  0.1085
  H  H52  1  0.329200  0.445100  0.524700  1.0  0.2617
  H  H53  1  0.123300  0.375200  0.529100  1.0  0.0877
  H  H54  1  0.098200  0.479200  0.675000  1.0  0.0607
  H  H55  1  0.257200  0.591500  0.739500  1.0  0.1112
  H  H56  1  0.147600  0.606700  0.688400  1.0  0.1126
  H  H57  1  0.282100  0.575000  0.645400  1.0  0.0889
  H  H58  1  0.357900  0.431800  0.648500  1.0  0.0949
  H  H59  1  0.250500  0.364300  0.633600  1.0  0.1057
  H  H60  1  0.273000  0.444400  0.726600  1.0  0.1135
  H  H61  1  0.201800  0.102700  0.426800  1.0  0.0788
  H  H62  1  0.521700  0.223200  0.527600  1.0  0.0864
  H  H63  1  0.145800  0.206200  0.387900  1.0  0.1313
  H  H64  1  0.481100  0.322200  0.483700  1.0  0.118
  H  H65  1  0.194900  0.330600  0.379800  1.0  0.0876
  H  H66  1  0.340100  0.350300  0.377600  1.0  0.1095
  H  H67  1  0.995870  0.079600  0.554900  1.0  0.262
  H  H68  1  0.789970  0.153900  0.624800  1.0  0.0868
  H  H69  1  0.764870  0.195800  0.520800  1.0  0.0598
  H  H70  1  0.923870  0.148000  0.408500  1.0  0.1104
  H  H71  1  0.814270  0.081700  0.393300  1.0  0.111
  H  H72  1  0.948770  0.070400  0.425000  1.0  0.0878
  H  H73  1  0.024570  0.216700  0.568200  1.0  0.0944
  H  H74  1  0.917170  0.269300  0.635700  1.0  0.1054
  H  H75  1  0.939670  0.282200  0.555600  1.0  0.1136
  H  H76  1  0.868470  0.324100  0.897300  1.0  0.0791
  H  H77  1  0.188370  0.304400  0.776800  1.0  0.0869
  H  H78  1  0.812470  0.181700  0.793800  1.0  0.132
  H  H79  1  0.147770  0.161500  0.677800  1.0  0.1184
  H  H80  1  0.861570  0.049200  0.669400  1.0  0.0881
  H  H81  1  0.006770  0.027300  0.649700  1.0  0.1093
  H  H82  1  0.662530  0.475300  0.920400  1.0  0.2621
  H  H83  1  0.456630  0.470900  0.846100  1.0  0.088
  H  H84  1  0.431530  0.325000  0.804200  1.0  0.0605
  H  H85  1  0.590530  0.260500  0.852000  1.0  0.1109
  H  H86  1  0.480930  0.311600  0.918300  1.0  0.1134
  H  H87  1  0.615430  0.354600  0.929600  1.0  0.0884
  H  H88  1  0.691230  0.351500  0.783300  1.0  0.0944
  H  H89  1  0.583830  0.366400  0.730700  1.0  0.1049
  H  H90  1  0.606330  0.273400  0.717800  1.0  0.1137
  H  H91  1  0.535130  0.573200  0.675900  1.0  0.0801
  H  H92  1  0.855030  0.472400  0.695600  1.0  0.0872
  H  H93  1  0.479130  0.612100  0.818300  1.0  0.1304
  H  H94  1  0.814430  0.516300  0.838500  1.0  0.1169
  H  H95  1  0.528230  0.620200  0.950800  1.0  0.0887
  H  H96  1  0.673430  0.622400  0.972700  1.0  0.1091
  C  C97  1  0.531000  0.521000  0.467800  1.0  0.6388
  C  C98  1  0.647100  0.564400  0.451100  1.0  -0.083
  C  C99  1  0.678000  0.522000  0.354400  1.0  0.0907
  C  C100  1  0.720000  0.428700  0.316800  1.0  -0.3536
  C  C101  1  0.773900  0.575400  0.334600  1.0  -0.3508
  C  C102  1  0.756800  0.851200  0.559900  1.0  0.1586
  C  C103  1  0.946200  0.780800  0.501700  1.0  0.1713
  C  C104  1  0.723300  0.789700  0.584700  1.0  -0.2199
  C  C105  1  0.806800  0.723800  0.567700  1.0  0.1137
  C  C106  1  0.921400  0.720700  0.526700  1.0  -0.1822
  C  C107  1  0.773400  0.653800  0.586800  1.0  -0.0201
  C  C108  1  0.197670  0.946800  0.479000  1.0  0.6379
  C  C109  1  0.313770  0.886700  0.435600  1.0  -0.0811
  C  C110  1  0.344670  0.832400  0.478000  1.0  0.0913
  C  C111  1  0.386670  0.888100  0.571300  1.0  -0.3524
  C  C112  1  0.440570  0.759200  0.424600  1.0  -0.3509
  C  C113  1  0.423470  0.708700  0.148800  1.0  0.1613
  C  C114  1  0.612870  0.720900  0.219200  1.0  0.1702
  C  C115  1  0.389970  0.795000  0.210300  1.0  -0.2165
  C  C116  1  0.473470  0.843900  0.276200  1.0  0.1132
  C  C117  1  0.588070  0.806000  0.279300  1.0  -0.1838
  C  C118  1  0.440070  0.933000  0.346200  1.0  -0.0196
  C  C119  1  0.864330  0.532200  0.053200  1.0  0.6375
  C  C120  1  0.980430  0.548900  0.113300  1.0  -0.0873
  C  C121  1  0.011330  0.645600  0.167600  1.0  0.089
  C  C122  1  0.053330  0.683200  0.111900  1.0  -0.3527
  C  C123  1  0.107230  0.665400  0.240800  1.0  -0.3519
  C  C124  1  0.090130  0.440100  0.291300  1.0  0.1609
  C  C125  1  0.279530  0.498300  0.279100  1.0  0.1707
  C  C126  1  0.056630  0.415300  0.205000  1.0  -0.219
  C  C127  1  0.140130  0.432300  0.156100  1.0  0.1148
  C  C128  1  0.254730  0.473300  0.194000  1.0  -0.1838
  C  C129  1  0.106730  0.413200  0.067000  1.0  -0.0181
  C  C130  1  0.031000  0.479000  0.532200  1.0  0.6381
  C  C131  1  0.147100  0.435600  0.548900  1.0  -0.0832
  C  C132  1  0.178000  0.478000  0.645600  1.0  0.0916
  C  C133  1  0.220000  0.571300  0.683200  1.0  -0.3528
  C  C134  1  0.273900  0.424600  0.665400  1.0  -0.3517
  C  C135  1  0.256800  0.148800  0.440100  1.0  0.1596
  C  C136  1  0.446200  0.219200  0.498300  1.0  0.1717
  C  C137  1  0.223300  0.210300  0.415300  1.0  -0.2187
  C  C138  1  0.306800  0.276200  0.432300  1.0  0.1123
  C  C139  1  0.421400  0.279300  0.473300  1.0  -0.1824
  C  C140  1  0.273400  0.346200  0.413200  1.0  -0.0197
  C  C141  1  0.697670  0.053200  0.521000  1.0  0.6374
  C  C142  1  0.813770  0.113300  0.564400  1.0  -0.0825
  C  C143  1  0.844670  0.167600  0.522000  1.0  0.0911
  C  C144  1  0.886670  0.111900  0.428700  1.0  -0.3525
  C  C145  1  0.940570  0.240800  0.575400  1.0  -0.3504
  C  C146  1  0.923470  0.291300  0.851200  1.0  0.1611
  C  C147  1  0.112870  0.279100  0.780800  1.0  0.1715
  C  C148  1  0.889970  0.205000  0.789700  1.0  -0.217
  C  C149  1  0.973470  0.156100  0.723800  1.0  0.1149
  C  C150  1  0.088070  0.194000  0.720700  1.0  -0.183
  C  C151  1  0.940070  0.067000  0.653800  1.0  -0.0209
  C  C152  1  0.364330  0.467800  0.946800  1.0  0.6376
  C  C153  1  0.480430  0.451100  0.886700  1.0  -0.0843
  C  C154  1  0.511330  0.354400  0.832400  1.0  0.0898
  C  C155  1  0.553330  0.316800  0.888100  1.0  -0.353
  C  C156  1  0.607230  0.334600  0.759200  1.0  -0.3526
  C  C157  1  0.590130  0.559900  0.708700  1.0  0.1619
  C  C158  1  0.779530  0.501700  0.720900  1.0  0.1715
  C  C159  1  0.556630  0.584700  0.795000  1.0  -0.2194
  C  C160  1  0.640130  0.567700  0.843900  1.0  0.1155
  C  C161  1  0.754730  0.526700  0.806000  1.0  -0.183
  C  C162  1  0.606730  0.586800  0.933000  1.0  -0.0185
  Br  Br163  1  0.748390  0.320320  0.451830  1.0  -0.5166
  Br  Br164  1  0.415060  0.131510  0.679680  1.0  -0.5143
  Br  Br165  1  0.081720  0.548170  0.868490  1.0  -0.5134
  Br  Br166  1  0.248390  0.679680  0.548170  1.0  -0.5151
  Br  Br167  1  0.915060  0.868490  0.320320  1.0  -0.5147
  Br  Br168  1  0.581720  0.451830  0.131510  1.0  -0.5133
  N  N169  1  0.756500  0.566900  0.507400  1.0  -0.3716
  N  N170  1  0.863900  0.845200  0.518500  1.0  -0.3066
  N  N171  1  0.423170  0.940500  0.433100  1.0  -0.3682
  N  N172  1  0.530570  0.673300  0.154800  1.0  -0.305
  N  N173  1  0.089830  0.492600  0.059500  1.0  -0.3717
  N  N174  1  0.197230  0.481500  0.326700  1.0  -0.3073
  N  N175  1  0.256500  0.433100  0.492600  1.0  -0.371
  N  N176  1  0.363900  0.154800  0.481500  1.0  -0.3071
  N  N177  1  0.923170  0.059500  0.566900  1.0  -0.369
  N  N178  1  0.030570  0.326700  0.845200  1.0  -0.3054
  N  N179  1  0.589830  0.507400  0.940500  1.0  -0.3717
  N  N180  1  0.697230  0.518500  0.673300  1.0  -0.3073
  O  O181  1  0.541100  0.488300  0.515600  1.0  -0.5676
  O  O182  1  0.432300  0.520700  0.428000  1.0  -0.5875
  O  O183  1  0.207770  0.027300  0.511700  1.0  -0.5679
  O  O184  1  0.098970  0.907300  0.479300  1.0  -0.5874
  O  O185  1  0.874430  0.484400  0.972700  1.0  -0.568
  O  O186  1  0.765630  0.572000  0.092700  1.0  -0.5877
  O  O187  1  0.041100  0.511700  0.484400  1.0  -0.5678
  O  O188  1  0.932300  0.479300  0.572000  1.0  -0.5871
  O  O189  1  0.707770  0.972700  0.488300  1.0  -0.5686
  O  O190  1  0.598970  0.092700  0.520700  1.0  -0.5873
  O  O191  1  0.374430  0.515600  0.027300  1.0  -0.5674
  O  O192  1  0.265630  0.428000  0.907300  1.0  -0.5871
