# generated using pymatgen
data_Cu3H20WC25S3BrN5
_symmetry_space_group_name_H-M   'P 1'
_cell_length_a   21.31110000
_cell_length_b   20.98580000
_cell_length_c   17.93190000
_cell_angle_alpha   90.00000000
_cell_angle_beta   96.38700000
_cell_angle_gamma   90.00000000
_symmetry_Int_Tables_number   1
_chemical_formula_structural   Cu3H20WC25S3BrN5
_chemical_formula_sum   'Cu24 H160 W8 C200 S24 Br8 N40'
_cell_volume   7969.91554124
_cell_formula_units_Z   8
loop_
 _symmetry_equiv_pos_site_id
 _symmetry_equiv_pos_as_xyz
  1  'x, y, z'
loop_
 _atom_site_type_symbol
 _atom_site_label
 _atom_site_symmetry_multiplicity
 _atom_site_fract_x
 _atom_site_fract_y
 _atom_site_fract_z
 _atom_site_occupancy
 _atom_site_charge
  Cu  Cu1  1  0.818690  0.089780  0.973620  1.0  0.3331
  Cu  Cu2  1  0.736810  0.047400  0.143480  1.0  0.364
  Cu  Cu3  1  0.785450  0.911660  0.016490  1.0  0.3189
  Cu  Cu4  1  0.318690  0.589780  0.973620  1.0  0.3331
  Cu  Cu5  1  0.236810  0.547400  0.143480  1.0  0.364
  Cu  Cu6  1  0.285450  0.411660  0.016490  1.0  0.3189
  Cu  Cu7  1  0.181310  0.089780  0.526380  1.0  0.3324
  Cu  Cu8  1  0.263190  0.047400  0.356520  1.0  0.3659
  Cu  Cu9  1  0.214550  0.911660  0.483510  1.0  0.3179
  Cu  Cu10  1  0.681310  0.589780  0.526380  1.0  0.3324
  Cu  Cu11  1  0.763190  0.547400  0.356520  1.0  0.3659
  Cu  Cu12  1  0.714550  0.411660  0.483510  1.0  0.3179
  Cu  Cu13  1  0.181310  0.910220  0.026380  1.0  0.333
  Cu  Cu14  1  0.263190  0.952600  0.856520  1.0  0.3656
  Cu  Cu15  1  0.214550  0.088340  0.983510  1.0  0.3175
  Cu  Cu16  1  0.681310  0.410220  0.026380  1.0  0.333
  Cu  Cu17  1  0.763190  0.452600  0.856520  1.0  0.3656
  Cu  Cu18  1  0.714550  0.588340  0.983510  1.0  0.3175
  Cu  Cu19  1  0.818690  0.910220  0.473620  1.0  0.3336
  Cu  Cu20  1  0.736810  0.952600  0.643480  1.0  0.3642
  Cu  Cu21  1  0.785450  0.088340  0.516490  1.0  0.3184
  Cu  Cu22  1  0.318690  0.410220  0.473620  1.0  0.3336
  Cu  Cu23  1  0.236810  0.452600  0.643480  1.0  0.3642
  Cu  Cu24  1  0.285450  0.588340  0.516490  1.0  0.3184
  H  H25  1  0.844100  0.229500  0.928200  1.0  0.0867
  H  H26  1  0.829400  0.292100  0.822300  1.0  0.1078
  H  H27  1  0.778700  0.136300  0.701100  1.0  0.1116
  H  H28  1  0.791700  0.076800  0.810600  1.0  0.0779
  H  H29  1  0.862700  0.321400  0.696800  1.0  0.1328
  H  H30  1  0.831900  0.383800  0.593100  1.0  0.0749
  H  H31  1  0.684600  0.277400  0.537400  1.0  0.0847
  H  H32  1  0.710400  0.210500  0.636500  1.0  0.1259
  H  H33  1  0.213100  0.133700  0.228700  1.0  0.0761
  H  H34  1  0.123300  0.147400  0.146900  1.0  0.1226
  H  H35  1  0.054900  0.985900  0.227300  1.0  0.1184
  H  H36  1  0.143800  0.977700  0.309800  1.0  0.0819
  H  H37  1  0.018400  0.171200  0.117300  1.0  0.118
  H  H38  1  0.924400  0.179300  0.041600  1.0  0.0869
  H  H39  1  0.907400  0.994500  0.032100  1.0  0.0745
  H  H40  1  0.002200  0.981000  0.110600  1.0  0.1262
  H  H41  1  0.678600  0.023000  0.291700  1.0  0.0849
  H  H42  1  0.579000  0.023100  0.334000  1.0  0.1219
  H  H43  1  0.507400  0.092100  0.132200  1.0  0.1299
  H  H44  1  0.609500  0.098300  0.100100  1.0  0.0793
  H  H45  1  0.344100  0.729500  0.928200  1.0  0.0867
  H  H46  1  0.329400  0.792100  0.822300  1.0  0.1078
  H  H47  1  0.278700  0.636300  0.701100  1.0  0.1116
  H  H48  1  0.291700  0.576800  0.810600  1.0  0.0779
  H  H49  1  0.362700  0.821400  0.696800  1.0  0.1328
  H  H50  1  0.331900  0.883800  0.593100  1.0  0.0749
  H  H51  1  0.184600  0.777400  0.537400  1.0  0.0847
  H  H52  1  0.210400  0.710500  0.636500  1.0  0.1259
  H  H53  1  0.713100  0.633700  0.228700  1.0  0.0761
  H  H54  1  0.623300  0.647400  0.146900  1.0  0.1226
  H  H55  1  0.554900  0.485900  0.227300  1.0  0.1184
  H  H56  1  0.643800  0.477700  0.309800  1.0  0.0819
  H  H57  1  0.518400  0.671200  0.117300  1.0  0.118
  H  H58  1  0.424400  0.679300  0.041600  1.0  0.0869
  H  H59  1  0.407400  0.494500  0.032100  1.0  0.0745
  H  H60  1  0.502200  0.481000  0.110600  1.0  0.1262
  H  H61  1  0.178600  0.523000  0.291700  1.0  0.0849
  H  H62  1  0.079000  0.523100  0.334000  1.0  0.1219
  H  H63  1  0.007400  0.592100  0.132200  1.0  0.1299
  H  H64  1  0.109500  0.598300  0.100100  1.0  0.0793
  H  H65  1  0.155900  0.229500  0.571800  1.0  0.0867
  H  H66  1  0.170600  0.292100  0.677700  1.0  0.1085
  H  H67  1  0.221300  0.136300  0.798900  1.0  0.1127
  H  H68  1  0.208300  0.076800  0.689400  1.0  0.078
  H  H69  1  0.137300  0.321400  0.803200  1.0  0.1316
  H  H70  1  0.168100  0.383800  0.906900  1.0  0.0753
  H  H71  1  0.315400  0.277400  0.962600  1.0  0.0852
  H  H72  1  0.289600  0.210500  0.863500  1.0  0.1265
  H  H73  1  0.786900  0.133700  0.271300  1.0  0.0765
  H  H74  1  0.876700  0.147400  0.353100  1.0  0.1225
  H  H75  1  0.945100  0.985900  0.272700  1.0  0.1188
  H  H76  1  0.856200  0.977700  0.190200  1.0  0.0817
  H  H77  1  0.981600  0.171200  0.382700  1.0  0.118
  H  H78  1  0.075600  0.179300  0.458400  1.0  0.0865
  H  H79  1  0.092600  0.994500  0.467900  1.0  0.0748
  H  H80  1  0.997800  0.981000  0.389400  1.0  0.1263
  H  H81  1  0.321400  0.023000  0.208300  1.0  0.0844
  H  H82  1  0.421000  0.023100  0.166000  1.0  0.1213
  H  H83  1  0.492600  0.092100  0.367800  1.0  0.1298
  H  H84  1  0.390500  0.098300  0.399900  1.0  0.078
  H  H85  1  0.655900  0.729500  0.571800  1.0  0.0867
  H  H86  1  0.670600  0.792100  0.677700  1.0  0.1085
  H  H87  1  0.721300  0.636300  0.798900  1.0  0.1127
  H  H88  1  0.708300  0.576800  0.689400  1.0  0.078
  H  H89  1  0.637300  0.821400  0.803200  1.0  0.1316
  H  H90  1  0.668100  0.883800  0.906900  1.0  0.0753
  H  H91  1  0.815400  0.777400  0.962600  1.0  0.0852
  H  H92  1  0.789600  0.710500  0.863500  1.0  0.1265
  H  H93  1  0.286900  0.633700  0.271300  1.0  0.0765
  H  H94  1  0.376700  0.647400  0.353100  1.0  0.1225
  H  H95  1  0.445100  0.485900  0.272700  1.0  0.1188
  H  H96  1  0.356200  0.477700  0.190200  1.0  0.0817
  H  H97  1  0.481600  0.671200  0.382700  1.0  0.118
  H  H98  1  0.575600  0.679300  0.458400  1.0  0.0865
  H  H99  1  0.592600  0.494500  0.467900  1.0  0.0748
  H  H100  1  0.497800  0.481000  0.389400  1.0  0.1263
  H  H101  1  0.821400  0.523000  0.208300  1.0  0.0844
  H  H102  1  0.921000  0.523100  0.166000  1.0  0.1213
  H  H103  1  0.992600  0.592100  0.367800  1.0  0.1298
  H  H104  1  0.890500  0.598300  0.399900  1.0  0.078
  H  H105  1  0.155900  0.770500  0.071800  1.0  0.0868
  H  H106  1  0.170600  0.707900  0.177700  1.0  0.1083
  H  H107  1  0.221300  0.863700  0.298900  1.0  0.112
  H  H108  1  0.208300  0.923200  0.189400  1.0  0.0758
  H  H109  1  0.137300  0.678600  0.303200  1.0  0.133
  H  H110  1  0.168100  0.616200  0.406900  1.0  0.075
  H  H111  1  0.315400  0.722600  0.462600  1.0  0.0851
  H  H112  1  0.289600  0.789500  0.363500  1.0  0.1268
  H  H113  1  0.786900  0.866300  0.771300  1.0  0.0761
  H  H114  1  0.876700  0.852600  0.853100  1.0  0.1224
  H  H115  1  0.945100  0.014100  0.772700  1.0  0.119
  H  H116  1  0.856200  0.022300  0.690200  1.0  0.0815
  H  H117  1  0.981600  0.828800  0.882700  1.0  0.1176
  H  H118  1  0.075600  0.820700  0.958400  1.0  0.0868
  H  H119  1  0.092600  0.005500  0.967900  1.0  0.0743
  H  H120  1  0.997800  0.019000  0.889400  1.0  0.1266
  H  H121  1  0.321400  0.977000  0.708300  1.0  0.0844
  H  H122  1  0.421000  0.976900  0.666000  1.0  0.1216
  H  H123  1  0.492600  0.907900  0.867800  1.0  0.1299
  H  H124  1  0.390500  0.901700  0.899900  1.0  0.078
  H  H125  1  0.655900  0.270500  0.071800  1.0  0.0868
  H  H126  1  0.670600  0.207900  0.177700  1.0  0.1083
  H  H127  1  0.721300  0.363700  0.298900  1.0  0.112
  H  H128  1  0.708300  0.423200  0.189400  1.0  0.0758
  H  H129  1  0.637300  0.178600  0.303200  1.0  0.133
  H  H130  1  0.668100  0.116200  0.406900  1.0  0.075
  H  H131  1  0.815400  0.222600  0.462600  1.0  0.0851
  H  H132  1  0.789600  0.289500  0.363500  1.0  0.1268
  H  H133  1  0.286900  0.366300  0.771300  1.0  0.0761
  H  H134  1  0.376700  0.352600  0.853100  1.0  0.1224
  H  H135  1  0.445100  0.514100  0.772700  1.0  0.119
  H  H136  1  0.356200  0.522300  0.690200  1.0  0.0815
  H  H137  1  0.481600  0.328800  0.882700  1.0  0.1176
  H  H138  1  0.575600  0.320700  0.958400  1.0  0.0868
  H  H139  1  0.592600  0.505500  0.967900  1.0  0.0743
  H  H140  1  0.497800  0.519000  0.889400  1.0  0.1266
  H  H141  1  0.821400  0.477000  0.708300  1.0  0.0844
  H  H142  1  0.921000  0.476900  0.666000  1.0  0.1216
  H  H143  1  0.992600  0.407900  0.867800  1.0  0.1299
  H  H144  1  0.890500  0.401700  0.899900  1.0  0.078
  H  H145  1  0.844100  0.770500  0.428200  1.0  0.0869
  H  H146  1  0.829400  0.707900  0.322300  1.0  0.1082
  H  H147  1  0.778700  0.863700  0.201100  1.0  0.1116
  H  H148  1  0.791700  0.923200  0.310600  1.0  0.0764
  H  H149  1  0.862700  0.678600  0.196800  1.0  0.1343
  H  H150  1  0.831900  0.616200  0.093100  1.0  0.0745
  H  H151  1  0.684600  0.722600  0.037400  1.0  0.085
  H  H152  1  0.710400  0.789500  0.136500  1.0  0.1264
  H  H153  1  0.213100  0.866300  0.728700  1.0  0.0762
  H  H154  1  0.123300  0.852600  0.646900  1.0  0.1221
  H  H155  1  0.054900  0.014100  0.727300  1.0  0.1186
  H  H156  1  0.143800  0.022300  0.809800  1.0  0.0813
  H  H157  1  0.018400  0.828800  0.617300  1.0  0.1182
  H  H158  1  0.924400  0.820700  0.541600  1.0  0.0868
  H  H159  1  0.907400  0.005500  0.532100  1.0  0.0744
  H  H160  1  0.002200  0.019000  0.610600  1.0  0.1263
  H  H161  1  0.678600  0.977000  0.791700  1.0  0.0842
  H  H162  1  0.579000  0.976900  0.834000  1.0  0.1218
  H  H163  1  0.507400  0.907900  0.632200  1.0  0.1298
  H  H164  1  0.609500  0.901700  0.600100  1.0  0.0794
  H  H165  1  0.344100  0.270500  0.428200  1.0  0.0869
  H  H166  1  0.329400  0.207900  0.322300  1.0  0.1082
  H  H167  1  0.278700  0.363700  0.201100  1.0  0.1116
  H  H168  1  0.291700  0.423200  0.310600  1.0  0.0764
  H  H169  1  0.362700  0.178600  0.196800  1.0  0.1343
  H  H170  1  0.331900  0.116200  0.093100  1.0  0.0745
  H  H171  1  0.184600  0.222600  0.037400  1.0  0.085
  H  H172  1  0.210400  0.289500  0.136500  1.0  0.1264
  H  H173  1  0.713100  0.366300  0.728700  1.0  0.0762
  H  H174  1  0.623300  0.352600  0.646900  1.0  0.1221
  H  H175  1  0.554900  0.514100  0.727300  1.0  0.1186
  H  H176  1  0.643800  0.522300  0.809800  1.0  0.0813
  H  H177  1  0.518400  0.328800  0.617300  1.0  0.1182
  H  H178  1  0.424400  0.320700  0.541600  1.0  0.0868
  H  H179  1  0.407400  0.505500  0.532100  1.0  0.0744
  H  H180  1  0.502200  0.519000  0.610600  1.0  0.1263
  H  H181  1  0.178600  0.477000  0.791700  1.0  0.0842
  H  H182  1  0.079000  0.476900  0.834000  1.0  0.1218
  H  H183  1  0.007400  0.407900  0.632200  1.0  0.1298
  H  H184  1  0.109500  0.401700  0.600100  1.0  0.0794
  W  W185  1  0.715080  0.019810  0.996740  1.0  0.404
  W  W186  1  0.215080  0.519810  0.996740  1.0  0.404
  W  W187  1  0.284920  0.019810  0.503260  1.0  0.4051
  W  W188  1  0.784920  0.519810  0.503260  1.0  0.4051
  W  W189  1  0.284920  0.980190  0.003260  1.0  0.4053
  W  W190  1  0.784920  0.480190  0.003260  1.0  0.4053
  W  W191  1  0.715080  0.980190  0.496740  1.0  0.4035
  W  W192  1  0.215080  0.480190  0.496740  1.0  0.4035
  C  C193  1  0.829900  0.210200  0.881500  1.0  0.1366
  C  C194  1  0.821600  0.247600  0.818500  1.0  -0.1967
  C  C195  1  0.801900  0.220900  0.749600  1.0  0.0823
  C  C196  1  0.791500  0.156700  0.747600  1.0  -0.2052
  C  C197  1  0.799800  0.121400  0.813200  1.0  0.1618
  C  C198  1  0.788600  0.259600  0.680800  1.0  0.11
  C  C199  1  0.825200  0.311400  0.665200  1.0  -0.2316
  C  C200  1  0.806200  0.348500  0.602800  1.0  0.1753
  C  C201  1  0.721300  0.286700  0.570700  1.0  0.1654
  C  C202  1  0.735900  0.246800  0.629900  1.0  -0.217
  C  C203  1  0.180200  0.103300  0.229100  1.0  0.1726
  C  C204  1  0.126800  0.111800  0.179700  1.0  -0.1994
  C  C205  1  0.078000  0.067900  0.178200  1.0  0.0993
  C  C206  1  0.086700  0.017600  0.227200  1.0  -0.2129
  C  C207  1  0.140400  0.012500  0.275700  1.0  0.1613
  C  C208  1  0.020100  0.075500  0.125000  1.0  0.0938
  C  C209  1  0.996000  0.133500  0.101500  1.0  -0.21
  C  C210  1  0.939900  0.138100  0.055600  1.0  0.1266
  C  C211  1  0.930100  0.031300  0.050400  1.0  0.1649
  C  C212  1  0.987100  0.022600  0.097800  1.0  -0.2059
  C  C213  1  0.643600  0.038900  0.259800  1.0  0.1435
  C  C214  1  0.583900  0.037600  0.284800  1.0  -0.198
  C  C215  1  0.532000  0.057500  0.237600  1.0  0.0884
  C  C216  1  0.541900  0.079100  0.167000  1.0  -0.2244
  C  C217  1  0.603000  0.081600  0.147900  1.0  0.1511
  C  C218  1  0.329900  0.710200  0.881500  1.0  0.1366
  C  C219  1  0.321600  0.747600  0.818500  1.0  -0.1967
  C  C220  1  0.301900  0.720900  0.749600  1.0  0.0823
  C  C221  1  0.291500  0.656700  0.747600  1.0  -0.2052
  C  C222  1  0.299800  0.621400  0.813200  1.0  0.1618
  C  C223  1  0.288600  0.759600  0.680800  1.0  0.11
  C  C224  1  0.325200  0.811400  0.665200  1.0  -0.2316
  C  C225  1  0.306200  0.848500  0.602800  1.0  0.1753
  C  C226  1  0.221300  0.786700  0.570700  1.0  0.1654
  C  C227  1  0.235900  0.746800  0.629900  1.0  -0.217
  C  C228  1  0.680200  0.603300  0.229100  1.0  0.1726
  C  C229  1  0.626800  0.611800  0.179700  1.0  -0.1994
  C  C230  1  0.578000  0.567900  0.178200  1.0  0.0993
  C  C231  1  0.586700  0.517600  0.227200  1.0  -0.2129
  C  C232  1  0.640400  0.512500  0.275700  1.0  0.1613
  C  C233  1  0.520100  0.575500  0.125000  1.0  0.0938
  C  C234  1  0.496000  0.633500  0.101500  1.0  -0.21
  C  C235  1  0.439900  0.638100  0.055600  1.0  0.1266
  C  C236  1  0.430100  0.531300  0.050400  1.0  0.1649
  C  C237  1  0.487100  0.522600  0.097800  1.0  -0.2059
  C  C238  1  0.143600  0.538900  0.259800  1.0  0.1435
  C  C239  1  0.083900  0.537600  0.284800  1.0  -0.198
  C  C240  1  0.032000  0.557500  0.237600  1.0  0.0884
  C  C241  1  0.041900  0.579100  0.167000  1.0  -0.2244
  C  C242  1  0.103000  0.581600  0.147900  1.0  0.1511
  C  C243  1  0.170100  0.210200  0.618500  1.0  0.1372
  C  C244  1  0.178400  0.247600  0.681500  1.0  -0.1974
  C  C245  1  0.198100  0.220900  0.750400  1.0  0.0822
  C  C246  1  0.208500  0.156700  0.752400  1.0  -0.2052
  C  C247  1  0.200200  0.121400  0.686800  1.0  0.1603
  C  C248  1  0.211400  0.259600  0.819200  1.0  0.1102
  C  C249  1  0.174800  0.311400  0.834800  1.0  -0.2319
  C  C250  1  0.193800  0.348500  0.897200  1.0  0.1766
  C  C251  1  0.278700  0.286700  0.929300  1.0  0.1662
  C  C252  1  0.264100  0.246800  0.870100  1.0  -0.2178
  C  C253  1  0.819800  0.103300  0.270900  1.0  0.172
  C  C254  1  0.873200  0.111800  0.320300  1.0  -0.1995
  C  C255  1  0.922000  0.067900  0.321800  1.0  0.0991
  C  C256  1  0.913300  0.017600  0.272800  1.0  -0.2137
  C  C257  1  0.859600  0.012500  0.224300  1.0  0.1614
  C  C258  1  0.979900  0.075500  0.375000  1.0  0.0947
  C  C259  1  0.004000  0.133500  0.398500  1.0  -0.2101
  C  C260  1  0.060100  0.138100  0.444400  1.0  0.1271
  C  C261  1  0.069900  0.031300  0.449600  1.0  0.1658
  C  C262  1  0.012900  0.022600  0.402200  1.0  -0.2077
  C  C263  1  0.356400  0.038900  0.240200  1.0  0.144
  C  C264  1  0.416100  0.037600  0.215200  1.0  -0.1979
  C  C265  1  0.468000  0.057500  0.262400  1.0  0.0895
  C  C266  1  0.458100  0.079100  0.333000  1.0  -0.2252
  C  C267  1  0.397000  0.081600  0.352100  1.0  0.1481
  C  C268  1  0.670100  0.710200  0.618500  1.0  0.1372
  C  C269  1  0.678400  0.747600  0.681500  1.0  -0.1974
  C  C270  1  0.698100  0.720900  0.750400  1.0  0.0822
  C  C271  1  0.708500  0.656700  0.752400  1.0  -0.2052
  C  C272  1  0.700200  0.621400  0.686800  1.0  0.1603
  C  C273  1  0.711400  0.759600  0.819200  1.0  0.1102
  C  C274  1  0.674800  0.811400  0.834800  1.0  -0.2319
  C  C275  1  0.693800  0.848500  0.897200  1.0  0.1766
  C  C276  1  0.778700  0.786700  0.929300  1.0  0.1662
  C  C277  1  0.764100  0.746800  0.870100  1.0  -0.2178
  C  C278  1  0.319800  0.603300  0.270900  1.0  0.172
  C  C279  1  0.373200  0.611800  0.320300  1.0  -0.1995
  C  C280  1  0.422000  0.567900  0.321800  1.0  0.0991
  C  C281  1  0.413300  0.517600  0.272800  1.0  -0.2137
  C  C282  1  0.359600  0.512500  0.224300  1.0  0.1614
  C  C283  1  0.479900  0.575500  0.375000  1.0  0.0947
  C  C284  1  0.504000  0.633500  0.398500  1.0  -0.2101
  C  C285  1  0.560100  0.638100  0.444400  1.0  0.1271
  C  C286  1  0.569900  0.531300  0.449600  1.0  0.1658
  C  C287  1  0.512900  0.522600  0.402200  1.0  -0.2077
  C  C288  1  0.856400  0.538900  0.240200  1.0  0.144
  C  C289  1  0.916100  0.537600  0.215200  1.0  -0.1979
  C  C290  1  0.968000  0.557500  0.262400  1.0  0.0895
  C  C291  1  0.958100  0.579100  0.333000  1.0  -0.2252
  C  C292  1  0.897000  0.581600  0.352100  1.0  0.1481
  C  C293  1  0.170100  0.789800  0.118500  1.0  0.1371
  C  C294  1  0.178400  0.752400  0.181500  1.0  -0.1966
  C  C295  1  0.198100  0.779100  0.250400  1.0  0.0822
  C  C296  1  0.208500  0.843300  0.252400  1.0  -0.2055
  C  C297  1  0.200200  0.878600  0.186800  1.0  0.1609
  C  C298  1  0.211400  0.740400  0.319200  1.0  0.1103
  C  C299  1  0.174800  0.688600  0.334800  1.0  -0.2318
  C  C300  1  0.193800  0.651500  0.397200  1.0  0.1771
  C  C301  1  0.278700  0.713300  0.429300  1.0  0.165
  C  C302  1  0.264100  0.753200  0.370100  1.0  -0.2181
  C  C303  1  0.819800  0.896700  0.770900  1.0  0.1717
  C  C304  1  0.873200  0.888200  0.820300  1.0  -0.2
  C  C305  1  0.922000  0.932100  0.821800  1.0  0.0992
  C  C306  1  0.913300  0.982400  0.772800  1.0  -0.2141
  C  C307  1  0.859600  0.987500  0.724300  1.0  0.1611
  C  C308  1  0.979900  0.924500  0.875000  1.0  0.0942
  C  C309  1  0.004000  0.866500  0.898500  1.0  -0.2078
  C  C310  1  0.060100  0.861900  0.944400  1.0  0.1278
  C  C311  1  0.069900  0.968700  0.949600  1.0  0.1648
  C  C312  1  0.012900  0.977400  0.902200  1.0  -0.2087
  C  C313  1  0.356400  0.961100  0.740200  1.0  0.1442
  C  C314  1  0.416100  0.962400  0.715200  1.0  -0.1975
  C  C315  1  0.468000  0.942500  0.762400  1.0  0.0898
  C  C316  1  0.458100  0.920900  0.833000  1.0  -0.2256
  C  C317  1  0.397000  0.918400  0.852100  1.0  0.1482
  C  C318  1  0.670100  0.289800  0.118500  1.0  0.1371
  C  C319  1  0.678400  0.252400  0.181500  1.0  -0.1966
  C  C320  1  0.698100  0.279100  0.250400  1.0  0.0822
  C  C321  1  0.708500  0.343300  0.252400  1.0  -0.2055
  C  C322  1  0.700200  0.378600  0.186800  1.0  0.1609
  C  C323  1  0.711400  0.240400  0.319200  1.0  0.1103
  C  C324  1  0.674800  0.188600  0.334800  1.0  -0.2318
  C  C325  1  0.693800  0.151500  0.397200  1.0  0.1771
  C  C326  1  0.778700  0.213300  0.429300  1.0  0.165
  C  C327  1  0.764100  0.253200  0.370100  1.0  -0.2181
  C  C328  1  0.319800  0.396700  0.770900  1.0  0.1717
  C  C329  1  0.373200  0.388200  0.820300  1.0  -0.2
  C  C330  1  0.422000  0.432100  0.821800  1.0  0.0992
  C  C331  1  0.413300  0.482400  0.772800  1.0  -0.2141
  C  C332  1  0.359600  0.487500  0.724300  1.0  0.1611
  C  C333  1  0.479900  0.424500  0.875000  1.0  0.0942
  C  C334  1  0.504000  0.366500  0.898500  1.0  -0.2078
  C  C335  1  0.560100  0.361900  0.944400  1.0  0.1278
  C  C336  1  0.569900  0.468700  0.949600  1.0  0.1648
  C  C337  1  0.512900  0.477400  0.902200  1.0  -0.2087
  C  C338  1  0.856400  0.461100  0.740200  1.0  0.1442
  C  C339  1  0.916100  0.462400  0.715200  1.0  -0.1975
  C  C340  1  0.968000  0.442500  0.762400  1.0  0.0898
  C  C341  1  0.958100  0.420900  0.833000  1.0  -0.2256
  C  C342  1  0.897000  0.418400  0.852100  1.0  0.1482
  C  C343  1  0.829900  0.789800  0.381500  1.0  0.1374
  C  C344  1  0.821600  0.752400  0.318500  1.0  -0.1958
  C  C345  1  0.801900  0.779100  0.249600  1.0  0.0824
  C  C346  1  0.791500  0.843300  0.247600  1.0  -0.2051
  C  C347  1  0.799800  0.878600  0.313200  1.0  0.1631
  C  C348  1  0.788600  0.740400  0.180800  1.0  0.1099
  C  C349  1  0.825200  0.688600  0.165200  1.0  -0.2315
  C  C350  1  0.806200  0.651500  0.102800  1.0  0.1761
  C  C351  1  0.721300  0.713300  0.070700  1.0  0.1652
  C  C352  1  0.735900  0.753200  0.129900  1.0  -0.2178
  C  C353  1  0.180200  0.896700  0.729100  1.0  0.1731
  C  C354  1  0.126800  0.888200  0.679700  1.0  -0.1997
  C  C355  1  0.078000  0.932100  0.678200  1.0  0.0993
  C  C356  1  0.086700  0.982400  0.727200  1.0  -0.2139
  C  C357  1  0.140400  0.987500  0.775700  1.0  0.1607
  C  C358  1  0.020100  0.924500  0.625000  1.0  0.0935
  C  C359  1  0.996000  0.866500  0.601500  1.0  -0.2081
  C  C360  1  0.939900  0.861900  0.555600  1.0  0.1277
  C  C361  1  0.930100  0.968700  0.550400  1.0  0.1643
  C  C362  1  0.987100  0.977400  0.597800  1.0  -0.2073
  C  C363  1  0.643600  0.961100  0.759800  1.0  0.1444
  C  C364  1  0.583900  0.962400  0.784800  1.0  -0.1978
  C  C365  1  0.532000  0.942500  0.737600  1.0  0.089
  C  C366  1  0.541900  0.920900  0.667000  1.0  -0.224
  C  C367  1  0.603000  0.918400  0.647900  1.0  0.1512
  C  C368  1  0.329900  0.289800  0.381500  1.0  0.1374
  C  C369  1  0.321600  0.252400  0.318500  1.0  -0.1958
  C  C370  1  0.301900  0.279100  0.249600  1.0  0.0824
  C  C371  1  0.291500  0.343300  0.247600  1.0  -0.2051
  C  C372  1  0.299800  0.378600  0.313200  1.0  0.1631
  C  C373  1  0.288600  0.240400  0.180800  1.0  0.1099
  C  C374  1  0.325200  0.188600  0.165200  1.0  -0.2315
  C  C375  1  0.306200  0.151500  0.102800  1.0  0.1761
  C  C376  1  0.221300  0.213300  0.070700  1.0  0.1652
  C  C377  1  0.235900  0.253200  0.129900  1.0  -0.2178
  C  C378  1  0.680200  0.396700  0.729100  1.0  0.1731
  C  C379  1  0.626800  0.388200  0.679700  1.0  -0.1997
  C  C380  1  0.578000  0.432100  0.678200  1.0  0.0993
  C  C381  1  0.586700  0.482400  0.727200  1.0  -0.2139
  C  C382  1  0.640400  0.487500  0.775700  1.0  0.1607
  C  C383  1  0.520100  0.424500  0.625000  1.0  0.0935
  C  C384  1  0.496000  0.366500  0.601500  1.0  -0.2081
  C  C385  1  0.439900  0.361900  0.555600  1.0  0.1277
  C  C386  1  0.430100  0.468700  0.550400  1.0  0.1643
  C  C387  1  0.487100  0.477400  0.597800  1.0  -0.2073
  C  C388  1  0.143600  0.461100  0.759800  1.0  0.1444
  C  C389  1  0.083900  0.462400  0.784800  1.0  -0.1978
  C  C390  1  0.032000  0.442500  0.737600  1.0  0.089
  C  C391  1  0.041900  0.420900  0.667000  1.0  -0.224
  C  C392  1  0.103000  0.418400  0.647900  1.0  0.1512
  S  S393  1  0.740130  0.117350  0.045700  1.0  -0.4912
  S  S394  1  0.713530  0.948780  0.091070  1.0  -0.4369
  S  S395  1  0.790840  0.989820  0.926390  1.0  -0.3968
  S  S396  1  0.240130  0.617350  0.045700  1.0  -0.4912
  S  S397  1  0.213530  0.448780  0.091070  1.0  -0.4369
  S  S398  1  0.290840  0.489820  0.926390  1.0  -0.3968
  S  S399  1  0.259870  0.117350  0.454300  1.0  -0.4909
  S  S400  1  0.286470  0.948780  0.408930  1.0  -0.4356
  S  S401  1  0.209160  0.989820  0.573610  1.0  -0.3938
  S  S402  1  0.759870  0.617350  0.454300  1.0  -0.4909
  S  S403  1  0.786470  0.448780  0.408930  1.0  -0.4356
  S  S404  1  0.709160  0.489820  0.573610  1.0  -0.3938
  S  S405  1  0.259870  0.882650  0.954300  1.0  -0.4903
  S  S406  1  0.286470  0.051220  0.908930  1.0  -0.4357
  S  S407  1  0.209160  0.010180  0.073610  1.0  -0.3933
  S  S408  1  0.759870  0.382650  0.954300  1.0  -0.4903
  S  S409  1  0.786470  0.551220  0.908930  1.0  -0.4357
  S  S410  1  0.709160  0.510180  0.073610  1.0  -0.3933
  S  S411  1  0.740130  0.882650  0.545700  1.0  -0.4902
  S  S412  1  0.713530  0.051220  0.591070  1.0  -0.4371
  S  S413  1  0.790840  0.010180  0.426390  1.0  -0.3967
  S  S414  1  0.240130  0.382650  0.545700  1.0  -0.4902
  S  S415  1  0.213530  0.551220  0.591070  1.0  -0.4371
  S  S416  1  0.290840  0.510180  0.426390  1.0  -0.3967
  Br  Br417  1  0.883030  0.863980  0.076070  1.0  -0.4783
  Br  Br418  1  0.383030  0.363980  0.076070  1.0  -0.4783
  Br  Br419  1  0.116970  0.863980  0.423930  1.0  -0.4774
  Br  Br420  1  0.616970  0.363980  0.423930  1.0  -0.4774
  Br  Br421  1  0.116970  0.136020  0.923930  1.0  -0.4771
  Br  Br422  1  0.616970  0.636020  0.923930  1.0  -0.4771
  Br  Br423  1  0.883030  0.136020  0.576070  1.0  -0.4779
  Br  Br424  1  0.383030  0.636020  0.576070  1.0  -0.4779
  N  N425  1  0.818600  0.147200  0.879700  1.0  -0.3048
  N  N426  1  0.755300  0.338300  0.556300  1.0  -0.3373
  N  N427  1  0.189000  0.054000  0.278300  1.0  -0.3136
  N  N428  1  0.906800  0.087800  0.030000  1.0  -0.2863
  N  N429  1  0.653100  0.061800  0.192700  1.0  -0.3311
  N  N430  1  0.318600  0.647200  0.879700  1.0  -0.3048
  N  N431  1  0.255300  0.838300  0.556300  1.0  -0.3373
  N  N432  1  0.689000  0.554000  0.278300  1.0  -0.3136
  N  N433  1  0.406800  0.587800  0.030000  1.0  -0.2863
  N  N434  1  0.153100  0.561800  0.192700  1.0  -0.3311
  N  N435  1  0.181400  0.147200  0.620300  1.0  -0.3055
  N  N436  1  0.244700  0.338300  0.943700  1.0  -0.3371
  N  N437  1  0.811000  0.054000  0.221700  1.0  -0.3153
  N  N438  1  0.093200  0.087800  0.470000  1.0  -0.2859
  N  N439  1  0.346900  0.061800  0.307300  1.0  -0.3303
  N  N440  1  0.681400  0.647200  0.620300  1.0  -0.3055
  N  N441  1  0.744700  0.838300  0.943700  1.0  -0.3371
  N  N442  1  0.311000  0.554000  0.221700  1.0  -0.3153
  N  N443  1  0.593200  0.587800  0.470000  1.0  -0.2859
  N  N444  1  0.846900  0.561800  0.307300  1.0  -0.3303
  N  N445  1  0.181400  0.852800  0.120300  1.0  -0.3048
  N  N446  1  0.244700  0.661700  0.443700  1.0  -0.337
  N  N447  1  0.811000  0.946000  0.721700  1.0  -0.315
  N  N448  1  0.093200  0.912200  0.970000  1.0  -0.2862
  N  N449  1  0.346900  0.938200  0.807300  1.0  -0.3297
  N  N450  1  0.681400  0.352800  0.120300  1.0  -0.3048
  N  N451  1  0.744700  0.161700  0.443700  1.0  -0.337
  N  N452  1  0.311000  0.446000  0.721700  1.0  -0.315
  N  N453  1  0.593200  0.412200  0.970000  1.0  -0.2862
  N  N454  1  0.846900  0.438200  0.807300  1.0  -0.3297
  N  N455  1  0.818600  0.852800  0.379700  1.0  -0.3053
  N  N456  1  0.755300  0.661700  0.056300  1.0  -0.3388
  N  N457  1  0.189000  0.946000  0.778300  1.0  -0.3136
  N  N458  1  0.906800  0.912200  0.530000  1.0  -0.2879
  N  N459  1  0.653100  0.938200  0.692700  1.0  -0.3314
  N  N460  1  0.318600  0.352800  0.379700  1.0  -0.3053
  N  N461  1  0.255300  0.161700  0.056300  1.0  -0.3388
  N  N462  1  0.689000  0.446000  0.778300  1.0  -0.3136
  N  N463  1  0.406800  0.412200  0.530000  1.0  -0.2879
  N  N464  1  0.153100  0.438200  0.692700  1.0  -0.3314
