# generated using pymatgen
data_MnH30C42(NF)12
_symmetry_space_group_name_H-M   'P 1'
_cell_length_a   26.12200000
_cell_length_b   12.74360000
_cell_length_c   20.78900000
_cell_angle_alpha   90.00000000
_cell_angle_beta   122.12500000
_cell_angle_gamma   90.00000000
_symmetry_Int_Tables_number   1
_chemical_formula_structural   MnH30C42(NF)12
_chemical_formula_sum   'Mn4 H120 C168 N48 F48'
_cell_volume   5860.83030887
_cell_formula_units_Z   4
loop_
 _symmetry_equiv_pos_site_id
 _symmetry_equiv_pos_as_xyz
  1  'x, y, z'
loop_
 _atom_site_type_symbol
 _atom_site_label
 _atom_site_symmetry_multiplicity
 _atom_site_fract_x
 _atom_site_fract_y
 _atom_site_fract_z
 _atom_site_occupancy
 _atom_site_charge
  Mn  Mn1  1  0.000000  0.000000  0.000000  1.0  0.7608
  Mn  Mn2  1  0.500000  0.500000  0.000000  1.0  0.7608
  Mn  Mn3  1  0.000000  0.000000  0.500000  1.0  0.7608
  Mn  Mn4  1  0.500000  0.500000  0.500000  1.0  0.7608
  H  H5  1  0.149300  0.939000  0.081100  1.0  0.0604
  H  H6  1  0.085300  0.118500  0.173400  1.0  0.075
  H  H7  1  0.195500  0.129200  0.251900  1.0  0.0932
  H  H8  1  0.276300  0.071100  0.198700  1.0  0.0814
  H  H9  1  0.261300  0.953900  0.171500  1.0  0.0955
  H  H10  1  0.405300  0.930500  0.552500  1.0  0.0864
  H  H11  1  0.361000  0.835100  0.529800  1.0  0.1021
  H  H12  1  0.516700  0.879100  0.609800  1.0  0.0959
  H  H13  1  0.569200  0.720000  0.615800  1.0  0.0734
  H  H14  1  0.398900  0.669300  0.478400  1.0  0.0476
  H  H15  1  0.967000  0.970900  0.137800  1.0  0.0673
  H  H16  1  0.914000  0.097600  0.173100  1.0  0.1008
  H  H17  1  0.935700  0.221200  0.016000  1.0  0.0653
  H  H18  1  0.890500  0.344100  0.067300  1.0  0.0882
  H  H19  1  0.893200  0.307800  0.141100  1.0  0.0819
  H  H20  1  0.649300  0.439000  0.081100  1.0  0.0604
  H  H21  1  0.585300  0.618500  0.173400  1.0  0.075
  H  H22  1  0.695500  0.629200  0.251900  1.0  0.0933
  H  H23  1  0.776300  0.571100  0.198700  1.0  0.0814
  H  H24  1  0.761300  0.453900  0.171500  1.0  0.0955
  H  H25  1  0.905300  0.430500  0.552500  1.0  0.0864
  H  H26  1  0.861000  0.335100  0.529800  1.0  0.1021
  H  H27  1  0.016700  0.379100  0.609800  1.0  0.0959
  H  H28  1  0.069200  0.220000  0.615800  1.0  0.0734
  H  H29  1  0.898900  0.169300  0.478400  1.0  0.0476
  H  H30  1  0.467000  0.470900  0.137800  1.0  0.0673
  H  H31  1  0.414000  0.597600  0.173100  1.0  0.1008
  H  H32  1  0.435700  0.721200  0.016000  1.0  0.0653
  H  H33  1  0.390500  0.844100  0.067300  1.0  0.0882
  H  H34  1  0.393200  0.807800  0.141100  1.0  0.0819
  H  H35  1  0.850700  0.939000  0.418900  1.0  0.0606
  H  H36  1  0.914700  0.118500  0.326600  1.0  0.0748
  H  H37  1  0.804500  0.129200  0.248100  1.0  0.0935
  H  H38  1  0.723700  0.071100  0.301300  1.0  0.0823
  H  H39  1  0.738700  0.953900  0.328500  1.0  0.0962
  H  H40  1  0.594700  0.930500  0.947500  1.0  0.0857
  H  H41  1  0.639000  0.835100  0.970200  1.0  0.1011
  H  H42  1  0.483300  0.879100  0.890200  1.0  0.0968
  H  H43  1  0.430800  0.720000  0.884200  1.0  0.076
  H  H44  1  0.601100  0.669300  0.021600  1.0  0.0488
  H  H45  1  0.033000  0.970900  0.362200  1.0  0.0669
  H  H46  1  0.086000  0.097600  0.326900  1.0  0.1005
  H  H47  1  0.064300  0.221200  0.484000  1.0  0.0655
  H  H48  1  0.109500  0.344100  0.432700  1.0  0.0886
  H  H49  1  0.106800  0.307800  0.358900  1.0  0.0818
  H  H50  1  0.350700  0.439000  0.418900  1.0  0.0606
  H  H51  1  0.414700  0.618500  0.326600  1.0  0.0748
  H  H52  1  0.304500  0.629200  0.248100  1.0  0.0937
  H  H53  1  0.223700  0.571100  0.301300  1.0  0.0823
  H  H54  1  0.238700  0.453900  0.328500  1.0  0.0962
  H  H55  1  0.094700  0.430500  0.947500  1.0  0.0857
  H  H56  1  0.139000  0.335100  0.970200  1.0  0.1011
  H  H57  1  0.983300  0.379100  0.890200  1.0  0.0968
  H  H58  1  0.930800  0.220000  0.884200  1.0  0.076
  H  H59  1  0.101100  0.169300  0.021600  1.0  0.0488
  H  H60  1  0.533000  0.470900  0.362200  1.0  0.0669
  H  H61  1  0.586000  0.597600  0.326900  1.0  0.1005
  H  H62  1  0.564300  0.721200  0.484000  1.0  0.0655
  H  H63  1  0.609500  0.844100  0.432700  1.0  0.0886
  H  H64  1  0.606800  0.807800  0.358900  1.0  0.0818
  H  H65  1  0.850700  0.061000  0.918900  1.0  0.0605
  H  H66  1  0.914700  0.881500  0.826600  1.0  0.0748
  H  H67  1  0.804500  0.870800  0.748100  1.0  0.0933
  H  H68  1  0.723700  0.928900  0.801300  1.0  0.0826
  H  H69  1  0.738700  0.046100  0.828500  1.0  0.0956
  H  H70  1  0.594700  0.069500  0.447500  1.0  0.0856
  H  H71  1  0.639000  0.164900  0.470200  1.0  0.1014
  H  H72  1  0.483300  0.120900  0.390200  1.0  0.0969
  H  H73  1  0.430800  0.280000  0.384200  1.0  0.0758
  H  H74  1  0.601100  0.330700  0.521600  1.0  0.0479
  H  H75  1  0.033000  0.029100  0.862200  1.0  0.0677
  H  H76  1  0.086000  0.902400  0.826900  1.0  0.1006
  H  H77  1  0.064300  0.778800  0.984000  1.0  0.0656
  H  H78  1  0.109500  0.655900  0.932700  1.0  0.0893
  H  H79  1  0.106800  0.692200  0.858900  1.0  0.0815
  H  H80  1  0.350700  0.561000  0.918900  1.0  0.0605
  H  H81  1  0.414700  0.381500  0.826600  1.0  0.0748
  H  H82  1  0.304500  0.370800  0.748100  1.0  0.0935
  H  H83  1  0.223700  0.428900  0.801300  1.0  0.0826
  H  H84  1  0.238700  0.546100  0.828500  1.0  0.0956
  H  H85  1  0.094700  0.569500  0.447500  1.0  0.0856
  H  H86  1  0.139000  0.664900  0.470200  1.0  0.1014
  H  H87  1  0.983300  0.620900  0.390200  1.0  0.0969
  H  H88  1  0.930800  0.780000  0.384200  1.0  0.0758
  H  H89  1  0.101100  0.830700  0.521600  1.0  0.0479
  H  H90  1  0.533000  0.529100  0.862200  1.0  0.0677
  H  H91  1  0.586000  0.402400  0.826900  1.0  0.1006
  H  H92  1  0.564300  0.278800  0.984000  1.0  0.0656
  H  H93  1  0.609500  0.155900  0.932700  1.0  0.0893
  H  H94  1  0.606800  0.192200  0.858900  1.0  0.0815
  H  H95  1  0.149300  0.061000  0.581100  1.0  0.0603
  H  H96  1  0.085300  0.881500  0.673400  1.0  0.0751
  H  H97  1  0.195500  0.870800  0.751900  1.0  0.0935
  H  H98  1  0.276300  0.928900  0.698700  1.0  0.0813
  H  H99  1  0.261300  0.046100  0.671500  1.0  0.0954
  H  H100  1  0.405300  0.069500  0.052500  1.0  0.0872
  H  H101  1  0.361000  0.164900  0.029800  1.0  0.1023
  H  H102  1  0.516700  0.120900  0.109800  1.0  0.0962
  H  H103  1  0.569200  0.280000  0.115800  1.0  0.0731
  H  H104  1  0.398900  0.330700  0.978400  1.0  0.049
  H  H105  1  0.967000  0.029100  0.637800  1.0  0.068
  H  H106  1  0.914000  0.902400  0.673100  1.0  0.1006
  H  H107  1  0.935700  0.778800  0.516000  1.0  0.0653
  H  H108  1  0.890500  0.655900  0.567300  1.0  0.089
  H  H109  1  0.893200  0.692200  0.641100  1.0  0.0815
  H  H110  1  0.649300  0.561000  0.581100  1.0  0.0603
  H  H111  1  0.585300  0.381500  0.673400  1.0  0.0751
  H  H112  1  0.695500  0.370800  0.751900  1.0  0.0937
  H  H113  1  0.776300  0.428900  0.698700  1.0  0.0813
  H  H114  1  0.761300  0.546100  0.671500  1.0  0.0954
  H  H115  1  0.905300  0.569500  0.052500  1.0  0.0872
  H  H116  1  0.861000  0.664900  0.029800  1.0  0.1023
  H  H117  1  0.016700  0.620900  0.109800  1.0  0.0962
  H  H118  1  0.069200  0.780000  0.115800  1.0  0.0731
  H  H119  1  0.898900  0.830700  0.978400  1.0  0.049
  H  H120  1  0.467000  0.529100  0.637800  1.0  0.068
  H  H121  1  0.414000  0.402400  0.673100  1.0  0.1006
  H  H122  1  0.435700  0.278800  0.516000  1.0  0.0653
  H  H123  1  0.390500  0.155900  0.567300  1.0  0.089
  H  H124  1  0.393200  0.192200  0.641100  1.0  0.0815
  C  C125  1  0.146700  0.984700  0.114100  1.0  0.1065
  C  C126  1  0.111900  0.082800  0.164200  1.0  -0.0018
  C  C127  1  0.172900  0.089000  0.208300  1.0  -0.1967
  C  C128  1  0.258400  0.006800  0.203000  1.0  -0.0578
  C  C129  1  0.292660  0.970500  0.285000  1.0  0.0259
  C  C130  1  0.280500  0.876900  0.305400  1.0  0.1856
  C  C131  1  0.310400  0.842400  0.378800  1.0  0.1748
  C  C132  1  0.356400  0.903900  0.438200  1.0  0.0234
  C  C133  1  0.368600  0.996300  0.416900  1.0  0.2447
  C  C134  1  0.337400  0.030600  0.342700  1.0  0.1744
  C  C135  1  0.389400  0.869300  0.520000  1.0  -0.129
  C  C136  1  0.498900  0.816700  0.584600  1.0  -0.1598
  C  C137  1  0.527500  0.729300  0.586400  1.0  -0.0432
  C  C138  1  0.435400  0.701600  0.512900  1.0  0.1359
  C  C139  1  0.954300  0.037700  0.117300  1.0  -0.0173
  C  C140  1  0.924700  0.107300  0.137400  1.0  -0.1664
  C  C141  1  0.937200  0.174000  0.051000  1.0  0.1143
  C  C142  1  0.880900  0.287000  0.090000  1.0  -0.1082
  C  C143  1  0.812800  0.267600  0.043700  1.0  0.0217
  C  C144  1  0.780800  0.251600  0.077000  1.0  0.2055
  C  C145  1  0.781200  0.266400  0.966300  1.0  0.1748
  C  C146  1  0.646700  0.484700  0.114100  1.0  0.1065
  C  C147  1  0.611900  0.582800  0.164200  1.0  -0.0018
  C  C148  1  0.672900  0.589000  0.208300  1.0  -0.1967
  C  C149  1  0.758400  0.506800  0.203000  1.0  -0.0578
  C  C150  1  0.792660  0.470500  0.285000  1.0  0.0259
  C  C151  1  0.780500  0.376900  0.305400  1.0  0.1856
  C  C152  1  0.810400  0.342400  0.378800  1.0  0.1748
  C  C153  1  0.856400  0.403900  0.438200  1.0  0.0234
  C  C154  1  0.868600  0.496300  0.416900  1.0  0.2447
  C  C155  1  0.837400  0.530600  0.342700  1.0  0.1744
  C  C156  1  0.889400  0.369300  0.520000  1.0  -0.129
  C  C157  1  0.998900  0.316700  0.584600  1.0  -0.1598
  C  C158  1  0.027500  0.229300  0.586400  1.0  -0.0432
  C  C159  1  0.935400  0.201600  0.512900  1.0  0.1359
  C  C160  1  0.454300  0.537700  0.117300  1.0  -0.0173
  C  C161  1  0.424700  0.607300  0.137400  1.0  -0.1664
  C  C162  1  0.437200  0.674000  0.051000  1.0  0.1143
  C  C163  1  0.380900  0.787000  0.090000  1.0  -0.1082
  C  C164  1  0.312800  0.767600  0.043700  1.0  0.0217
  C  C165  1  0.280800  0.751600  0.077000  1.0  0.2055
  C  C166  1  0.281200  0.766400  0.966300  1.0  0.1748
  C  C167  1  0.853300  0.984700  0.385900  1.0  0.1062
  C  C168  1  0.888100  0.082800  0.335800  1.0  -0.0013
  C  C169  1  0.827100  0.089000  0.291700  1.0  -0.2001
  C  C170  1  0.741600  0.006800  0.297000  1.0  -0.0574
  C  C171  1  0.707340  0.970500  0.215000  1.0  0.0264
  C  C172  1  0.719500  0.876900  0.194600  1.0  0.1867
  C  C173  1  0.689600  0.842400  0.121200  1.0  0.1746
  C  C174  1  0.643600  0.903900  0.061800  1.0  0.0236
  C  C175  1  0.631400  0.996300  0.083100  1.0  0.2448
  C  C176  1  0.662600  0.030600  0.157300  1.0  0.1756
  C  C177  1  0.610600  0.869300  0.980000  1.0  -0.1278
  C  C178  1  0.501100  0.816700  0.915400  1.0  -0.1597
  C  C179  1  0.472500  0.729300  0.913600  1.0  -0.0423
  C  C180  1  0.564600  0.701600  0.987100  1.0  0.1382
  C  C181  1  0.045700  0.037700  0.382700  1.0  -0.0182
  C  C182  1  0.075300  0.107300  0.362600  1.0  -0.1645
  C  C183  1  0.062800  0.174000  0.449000  1.0  0.1156
  C  C184  1  0.119100  0.287000  0.410000  1.0  -0.1068
  C  C185  1  0.187200  0.267600  0.456300  1.0  0.0199
  C  C186  1  0.219200  0.251600  0.423000  1.0  0.2086
  C  C187  1  0.218800  0.266400  0.533700  1.0  0.1731
  C  C188  1  0.353300  0.484700  0.385900  1.0  0.1062
  C  C189  1  0.388100  0.582800  0.335800  1.0  -0.0013
  C  C190  1  0.327100  0.589000  0.291700  1.0  -0.2001
  C  C191  1  0.241600  0.506800  0.297000  1.0  -0.0574
  C  C192  1  0.207340  0.470500  0.215000  1.0  0.0264
  C  C193  1  0.219500  0.376900  0.194600  1.0  0.1867
  C  C194  1  0.189600  0.342400  0.121200  1.0  0.1746
  C  C195  1  0.143600  0.403900  0.061800  1.0  0.0236
  C  C196  1  0.131400  0.496300  0.083100  1.0  0.2448
  C  C197  1  0.162600  0.530600  0.157300  1.0  0.1756
  C  C198  1  0.110600  0.369300  0.980000  1.0  -0.1278
  C  C199  1  0.001100  0.316700  0.915400  1.0  -0.1597
  C  C200  1  0.972500  0.229300  0.913600  1.0  -0.0423
  C  C201  1  0.064600  0.201600  0.987100  1.0  0.1382
  C  C202  1  0.545700  0.537700  0.382700  1.0  -0.0182
  C  C203  1  0.575300  0.607300  0.362600  1.0  -0.1645
  C  C204  1  0.562800  0.674000  0.449000  1.0  0.1156
  C  C205  1  0.619100  0.787000  0.410000  1.0  -0.1068
  C  C206  1  0.687200  0.767600  0.456300  1.0  0.0199
  C  C207  1  0.719200  0.751600  0.423000  1.0  0.2086
  C  C208  1  0.718800  0.766400  0.533700  1.0  0.1731
  C  C209  1  0.853300  0.015300  0.885900  1.0  0.106
  C  C210  1  0.888100  0.917200  0.835800  1.0  -0.0018
  C  C211  1  0.827100  0.911000  0.791700  1.0  -0.1998
  C  C212  1  0.741600  0.993200  0.797000  1.0  -0.0572
  C  C213  1  0.707340  0.029500  0.715000  1.0  0.0264
  C  C214  1  0.719500  0.123100  0.694600  1.0  0.1871
  C  C215  1  0.689600  0.157600  0.621200  1.0  0.1743
  C  C216  1  0.643600  0.096100  0.561800  1.0  0.0234
  C  C217  1  0.631400  0.003700  0.583100  1.0  0.2446
  C  C218  1  0.662600  0.969400  0.657300  1.0  0.1748
  C  C219  1  0.610600  0.130700  0.480000  1.0  -0.127
  C  C220  1  0.501100  0.183300  0.415400  1.0  -0.162
  C  C221  1  0.472500  0.270700  0.413600  1.0  -0.042
  C  C222  1  0.564600  0.298400  0.487100  1.0  0.138
  C  C223  1  0.045700  0.962300  0.882700  1.0  -0.0173
  C  C224  1  0.075300  0.892700  0.862600  1.0  -0.1648
  C  C225  1  0.062800  0.826000  0.949000  1.0  0.1163
  C  C226  1  0.119100  0.713000  0.910000  1.0  -0.1087
  C  C227  1  0.187200  0.732400  0.956300  1.0  0.0202
  C  C228  1  0.219200  0.748400  0.923000  1.0  0.2017
  C  C229  1  0.218800  0.733600  0.033700  1.0  0.173
  C  C230  1  0.353300  0.515300  0.885900  1.0  0.106
  C  C231  1  0.388100  0.417200  0.835800  1.0  -0.0018
  C  C232  1  0.327100  0.411000  0.791700  1.0  -0.1998
  C  C233  1  0.241600  0.493200  0.797000  1.0  -0.0572
  C  C234  1  0.207340  0.529500  0.715000  1.0  0.0264
  C  C235  1  0.219500  0.623100  0.694600  1.0  0.1871
  C  C236  1  0.189600  0.657600  0.621200  1.0  0.1743
  C  C237  1  0.143600  0.596100  0.561800  1.0  0.0234
  C  C238  1  0.131400  0.503700  0.583100  1.0  0.2446
  C  C239  1  0.162600  0.469400  0.657300  1.0  0.1748
  C  C240  1  0.110600  0.630700  0.480000  1.0  -0.127
  C  C241  1  0.001100  0.683300  0.415400  1.0  -0.162
  C  C242  1  0.972500  0.770700  0.413600  1.0  -0.042
  C  C243  1  0.064600  0.798400  0.487100  1.0  0.138
  C  C244  1  0.545700  0.462300  0.882700  1.0  -0.0173
  C  C245  1  0.575300  0.392700  0.862600  1.0  -0.1648
  C  C246  1  0.562800  0.326000  0.949000  1.0  0.1163
  C  C247  1  0.619100  0.213000  0.910000  1.0  -0.1087
  C  C248  1  0.687200  0.232400  0.956300  1.0  0.0202
  C  C249  1  0.719200  0.248400  0.923000  1.0  0.2017
  C  C250  1  0.718800  0.233600  0.033700  1.0  0.173
  C  C251  1  0.146700  0.015300  0.614100  1.0  0.1067
  C  C252  1  0.111900  0.917200  0.664200  1.0  -0.0021
  C  C253  1  0.172900  0.911000  0.708300  1.0  -0.1969
  C  C254  1  0.258400  0.993200  0.703000  1.0  -0.0565
  C  C255  1  0.292660  0.029500  0.785000  1.0  0.0261
  C  C256  1  0.280500  0.123100  0.805400  1.0  0.1865
  C  C257  1  0.310400  0.157600  0.878800  1.0  0.1749
  C  C258  1  0.356400  0.096100  0.938200  1.0  0.0233
  C  C259  1  0.368600  0.003700  0.916900  1.0  0.2448
  C  C260  1  0.337400  0.969400  0.842700  1.0  0.1741
  C  C261  1  0.389400  0.130700  0.020000  1.0  -0.1288
  C  C262  1  0.498900  0.183300  0.084600  1.0  -0.1602
  C  C263  1  0.527500  0.270700  0.086400  1.0  -0.0427
  C  C264  1  0.435400  0.298400  0.012900  1.0  0.1357
  C  C265  1  0.954300  0.962300  0.617300  1.0  -0.0168
  C  C266  1  0.924700  0.892700  0.637400  1.0  -0.1669
  C  C267  1  0.937200  0.826000  0.551000  1.0  0.1147
  C  C268  1  0.880900  0.713000  0.590000  1.0  -0.1079
  C  C269  1  0.812800  0.732400  0.543700  1.0  0.022
  C  C270  1  0.780800  0.748400  0.577000  1.0  0.1983
  C  C271  1  0.781200  0.733600  0.466300  1.0  0.1746
  C  C272  1  0.646700  0.515300  0.614100  1.0  0.1067
  C  C273  1  0.611900  0.417200  0.664200  1.0  -0.0021
  C  C274  1  0.672900  0.411000  0.708300  1.0  -0.1969
  C  C275  1  0.758400  0.493200  0.703000  1.0  -0.0565
  C  C276  1  0.792660  0.529500  0.785000  1.0  0.0261
  C  C277  1  0.780500  0.623100  0.805400  1.0  0.1865
  C  C278  1  0.810400  0.657600  0.878800  1.0  0.1749
  C  C279  1  0.856400  0.596100  0.938200  1.0  0.0233
  C  C280  1  0.868600  0.503700  0.916900  1.0  0.2448
  C  C281  1  0.837400  0.469400  0.842700  1.0  0.1741
  C  C282  1  0.889400  0.630700  0.020000  1.0  -0.1288
  C  C283  1  0.998900  0.683300  0.084600  1.0  -0.1602
  C  C284  1  0.027500  0.770700  0.086400  1.0  -0.0427
  C  C285  1  0.935400  0.798400  0.012900  1.0  0.1357
  C  C286  1  0.454300  0.462300  0.617300  1.0  -0.0168
  C  C287  1  0.424700  0.392700  0.637400  1.0  -0.1669
  C  C288  1  0.437200  0.326000  0.551000  1.0  0.1147
  C  C289  1  0.380900  0.213000  0.590000  1.0  -0.1079
  C  C290  1  0.312800  0.232400  0.543700  1.0  0.022
  C  C291  1  0.280800  0.248400  0.577000  1.0  0.1983
  C  C292  1  0.281200  0.233600  0.466300  1.0  0.1746
  N  N293  1  0.095050  0.017000  0.105100  1.0  -0.4193
  N  N294  1  0.194420  0.025400  0.176300  1.0  0.019
  N  N295  1  0.439000  0.797300  0.539100  1.0  0.0056
  N  N296  1  0.487990  0.656300  0.539900  1.0  -0.4245
  N  N297  1  0.962250  0.079900  0.064100  1.0  -0.4129
  N  N298  1  0.914460  0.193200  0.093200  1.0  0.014
  N  N299  1  0.595050  0.517000  0.105100  1.0  -0.4193
  N  N300  1  0.694420  0.525400  0.176300  1.0  0.019
  N  N301  1  0.939000  0.297300  0.539100  1.0  0.0056
  N  N302  1  0.987990  0.156300  0.539900  1.0  -0.4245
  N  N303  1  0.462250  0.579900  0.064100  1.0  -0.4129
  N  N304  1  0.414460  0.693200  0.093200  1.0  0.014
  N  N305  1  0.904950  0.017000  0.394900  1.0  -0.4211
  N  N306  1  0.805580  0.025400  0.323700  1.0  0.0192
  N  N307  1  0.561000  0.797300  0.960900  1.0  0.0073
  N  N308  1  0.512010  0.656300  0.960100  1.0  -0.4237
  N  N309  1  0.037750  0.079900  0.435900  1.0  -0.4154
  N  N310  1  0.085540  0.193200  0.406800  1.0  0.0146
  N  N311  1  0.404950  0.517000  0.394900  1.0  -0.4211
  N  N312  1  0.305580  0.525400  0.323700  1.0  0.0192
  N  N313  1  0.061000  0.297300  0.960900  1.0  0.0073
  N  N314  1  0.012010  0.156300  0.960100  1.0  -0.4237
  N  N315  1  0.537750  0.579900  0.435900  1.0  -0.4154
  N  N316  1  0.585540  0.693200  0.406800  1.0  0.0146
  N  N317  1  0.904950  0.983000  0.894900  1.0  -0.4211
  N  N318  1  0.805580  0.974600  0.823700  1.0  0.0192
  N  N319  1  0.561000  0.202700  0.460900  1.0  0.0072
  N  N320  1  0.512010  0.343700  0.460100  1.0  -0.4221
  N  N321  1  0.037750  0.920100  0.935900  1.0  -0.4156
  N  N322  1  0.085540  0.806800  0.906800  1.0  0.014
  N  N323  1  0.404950  0.483000  0.894900  1.0  -0.4211
  N  N324  1  0.305580  0.474600  0.823700  1.0  0.0192
  N  N325  1  0.061000  0.702700  0.460900  1.0  0.0072
  N  N326  1  0.012010  0.843700  0.460100  1.0  -0.4221
  N  N327  1  0.537750  0.420100  0.935900  1.0  -0.4156
  N  N328  1  0.585540  0.306800  0.906800  1.0  0.014
  N  N329  1  0.095050  0.983000  0.605100  1.0  -0.4189
  N  N330  1  0.194420  0.974600  0.676300  1.0  0.019
  N  N331  1  0.439000  0.202700  0.039100  1.0  0.0065
  N  N332  1  0.487990  0.343700  0.039900  1.0  -0.422
  N  N333  1  0.962250  0.920100  0.564100  1.0  -0.4128
  N  N334  1  0.914460  0.806800  0.593200  1.0  0.0146
  N  N335  1  0.595050  0.483000  0.605100  1.0  -0.4189
  N  N336  1  0.694420  0.474600  0.676300  1.0  0.019
  N  N337  1  0.939000  0.702700  0.039100  1.0  0.0065
  N  N338  1  0.987990  0.843700  0.039900  1.0  -0.422
  N  N339  1  0.462250  0.420100  0.564100  1.0  -0.4128
  N  N340  1  0.414460  0.306800  0.593200  1.0  0.0146
  F  F341  1  0.808610  0.251800  0.152820  1.0  -0.1762
  F  F342  1  0.810410  0.281000  0.928740  1.0  -0.1792
  F  F343  1  0.350630  0.124600  0.327080  1.0  -0.1937
  F  F344  1  0.411460  0.058100  0.470420  1.0  -0.1825
  F  F345  1  0.296730  0.750500  0.396400  1.0  -0.1697
  F  F346  1  0.238070  0.813100  0.251700  1.0  -0.186
  F  F347  1  0.308610  0.751800  0.152820  1.0  -0.1762
  F  F348  1  0.310410  0.781000  0.928740  1.0  -0.1792
  F  F349  1  0.850630  0.624600  0.327080  1.0  -0.1937
  F  F350  1  0.911460  0.558100  0.470420  1.0  -0.1825
  F  F351  1  0.796730  0.250500  0.396400  1.0  -0.1697
  F  F352  1  0.738070  0.313100  0.251700  1.0  -0.186
  F  F353  1  0.191390  0.251800  0.347180  1.0  -0.175
  F  F354  1  0.189590  0.281000  0.571260  1.0  -0.1791
  F  F355  1  0.649370  0.124600  0.172920  1.0  -0.1957
  F  F356  1  0.588540  0.058100  0.029580  1.0  -0.182
  F  F357  1  0.703270  0.750500  0.103600  1.0  -0.1712
  F  F358  1  0.761930  0.813100  0.248300  1.0  -0.1872
  F  F359  1  0.691390  0.751800  0.347180  1.0  -0.175
  F  F360  1  0.689590  0.781000  0.571260  1.0  -0.1791
  F  F361  1  0.149370  0.624600  0.172920  1.0  -0.1957
  F  F362  1  0.088540  0.558100  0.029580  1.0  -0.182
  F  F363  1  0.203270  0.250500  0.103600  1.0  -0.1712
  F  F364  1  0.261930  0.313100  0.248300  1.0  -0.1872
  F  F365  1  0.191390  0.748200  0.847180  1.0  -0.1751
  F  F366  1  0.189590  0.719000  0.071260  1.0  -0.179
  F  F367  1  0.649370  0.875400  0.672920  1.0  -0.195
  F  F368  1  0.588540  0.941900  0.529580  1.0  -0.1826
  F  F369  1  0.703270  0.249500  0.603600  1.0  -0.1701
  F  F370  1  0.761930  0.186900  0.748300  1.0  -0.1874
  F  F371  1  0.691390  0.248200  0.847180  1.0  -0.1751
  F  F372  1  0.689590  0.219000  0.071260  1.0  -0.179
  F  F373  1  0.149370  0.375400  0.672920  1.0  -0.195
  F  F374  1  0.088540  0.441900  0.529580  1.0  -0.1826
  F  F375  1  0.203270  0.749500  0.603600  1.0  -0.1701
  F  F376  1  0.261930  0.686900  0.748300  1.0  -0.1874
  F  F377  1  0.808610  0.748200  0.652820  1.0  -0.1762
  F  F378  1  0.810410  0.719000  0.428740  1.0  -0.1793
  F  F379  1  0.350630  0.875400  0.827080  1.0  -0.1941
  F  F380  1  0.411460  0.941900  0.970420  1.0  -0.1822
  F  F381  1  0.296730  0.249500  0.896400  1.0  -0.1693
  F  F382  1  0.238070  0.186900  0.751700  1.0  -0.1862
  F  F383  1  0.308610  0.248200  0.652820  1.0  -0.1762
  F  F384  1  0.310410  0.219000  0.428740  1.0  -0.1793
  F  F385  1  0.850630  0.375400  0.827080  1.0  -0.1941
  F  F386  1  0.911460  0.441900  0.970420  1.0  -0.1822
  F  F387  1  0.796730  0.749500  0.896400  1.0  -0.1693
  F  F388  1  0.738070  0.686900  0.751700  1.0  -0.1862
