# generated using pymatgen
data_Cu3H50C56(NO)18
_symmetry_space_group_name_H-M   'P 1'
_cell_length_a   12.10800000
_cell_length_b   13.11500000
_cell_length_c   14.53000000
_cell_angle_alpha   73.38000000
_cell_angle_beta   68.48000000
_cell_angle_gamma   79.95000000
_symmetry_Int_Tables_number   1
_chemical_formula_structural   Cu3H50C56(NO)18
_chemical_formula_sum   'Cu3 H50 C56 N18 O18'
_cell_volume   2050.51845098
_cell_formula_units_Z   1
loop_
 _symmetry_equiv_pos_site_id
 _symmetry_equiv_pos_as_xyz
  1  'x, y, z'
loop_
 _atom_site_type_symbol
 _atom_site_label
 _atom_site_symmetry_multiplicity
 _atom_site_fract_x
 _atom_site_fract_y
 _atom_site_fract_z
 _atom_site_occupancy
 _atom_site_charge
  Cu  Cu1  1  0.211270  0.270210  0.289570  1.0  0.8949
  Cu  Cu2  1  0.788730  0.729790  0.710430  1.0  0.8945
  Cu  Cu3  1  0.500000  0.000000  0.000000  1.0  0.9369
  H  H4  1  0.486600  0.073700  0.833800  1.0  0.3865
  H  H5  1  0.666667  0.099900  0.069500  1.0  0.1055
  H  H6  1  0.892800  0.393400  0.262400  1.0  0.4062
  H  H7  1  0.392500  0.113700  0.602100  1.0  0.1192
  H  H8  1  0.139000  0.378600  0.924600  1.0  0.1194
  H  H9  1  0.950300  0.260700  0.297000  1.0  0.0749
  H  H10  1  0.165400  0.021700  0.373500  1.0  0.094
  H  H11  1  0.251800  0.511800  0.246400  1.0  0.1033
  H  H12  1  0.492800  0.274800  0.225500  1.0  0.1062
  H  H13  1  0.808200  0.019900  0.339500  1.0  0.1212
  H  H14  1  0.751900  0.106600  0.402700  1.0  0.109
  H  H15  1  0.955300  0.147800  0.961200  1.0  0.0953
  H  H16  1  0.906800  0.261100  0.911800  1.0  0.1065
  H  H17  1  0.661300  0.496200  0.114000  1.0  0.1085
  H  H18  1  0.644200  0.470400  0.230600  1.0  0.1174
  H  H19  1  0.689700  0.342900  0.958200  1.0  0.1253
  H  H20  1  0.668500  0.441700  0.004800  1.0  0.1196
  H  H21  1  0.795500  0.411900  0.932600  1.0  0.1291
  H  H22  1  0.722200  0.077200  0.796100  1.0  0.089
  H  H23  1  0.653900  0.368900  0.351700  1.0  0.1252
  H  H24  1  0.587000  0.264400  0.392000  1.0  0.1408
  H  H25  1  0.711800  0.261600  0.402600  1.0  0.1231
  H  H26  1  0.916400  0.998500  0.208400  1.0  0.1301
  H  H27  1  0.900000  0.008500  0.103900  1.0  0.1207
  H  H28  1  0.005700  0.060300  0.106700  1.0  0.1306
  H  H29  1  0.513400  0.926300  0.166200  1.0  0.38
  H  H30  1  0.333333  0.900100  0.930500  1.0  0.1053
  H  H31  1  0.107200  0.606600  0.737600  1.0  0.4077
  H  H32  1  0.607500  0.886300  0.397900  1.0  0.119
  H  H33  1  0.861000  0.621400  0.075400  1.0  0.1189
  H  H34  1  0.049700  0.739300  0.703000  1.0  0.0758
  H  H35  1  0.834600  0.978300  0.626500  1.0  0.0935
  H  H36  1  0.748200  0.488200  0.753600  1.0  0.103
  H  H37  1  0.507200  0.725200  0.774500  1.0  0.1063
  H  H38  1  0.191800  0.980100  0.660500  1.0  0.1208
  H  H39  1  0.248100  0.893400  0.597300  1.0  0.1089
  H  H40  1  0.044700  0.852200  0.038800  1.0  0.0947
  H  H41  1  0.093200  0.738900  0.088200  1.0  0.1066
  H  H42  1  0.338700  0.503800  0.886000  1.0  0.1091
  H  H43  1  0.355800  0.529600  0.769400  1.0  0.1189
  H  H44  1  0.310300  0.657100  0.041800  1.0  0.1233
  H  H45  1  0.331500  0.558300  0.995200  1.0  0.1202
  H  H46  1  0.204500  0.588100  0.067400  1.0  0.13
  H  H47  1  0.277800  0.922800  0.203900  1.0  0.0897
  H  H48  1  0.346100  0.631100  0.648300  1.0  0.1246
  H  H49  1  0.413000  0.735600  0.608000  1.0  0.1388
  H  H50  1  0.288200  0.738400  0.597400  1.0  0.1229
  H  H51  1  0.083600  0.001500  0.791600  1.0  0.1293
  H  H52  1  0.100000  0.991500  0.896100  1.0  0.1197
  H  H53  1  0.994300  0.939700  0.893300  1.0  0.1314
  C  C54  1  0.699840  0.104130  0.999860  1.0  0.1685
  C  C55  1  0.484660  0.024360  0.298820  1.0  0.6565
  C  C56  1  0.982100  0.501690  0.100790  1.0  -0.1118
  C  C57  1  0.421030  0.082270  0.467210  1.0  -0.1313
  C  C58  1  0.487680  0.013460  0.405080  1.0  -0.0584
  C  C59  1  0.435620  0.067580  0.560830  1.0  -0.053
  C  C60  1  0.082730  0.427750  0.955070  1.0  -0.043
  C  C61  1  0.066890  0.427440  0.055920  1.0  -0.0967
  C  C62  1  0.956820  0.511580  0.208810  1.0  0.6599
  C  C63  1  0.983400  0.192310  0.317690  1.0  0.1664
  C  C64  1  0.099050  0.060880  0.359610  1.0  0.284
  C  C65  1  0.325260  0.472610  0.235920  1.0  0.285
  C  C66  1  0.454680  0.342830  0.225030  1.0  0.171
  C  C67  1  0.142610  0.350200  0.111320  1.0  0.6349
  C  C68  1  0.333150  0.168690  0.437020  1.0  0.6525
  C  C69  1  0.813010  0.092290  0.341380  1.0  -0.066
  C  C70  1  0.827980  0.218990  0.066700  1.0  -0.1041
  C  C71  1  0.706810  0.339040  0.171080  1.0  -0.1204
  C  C72  1  0.754790  0.312690  0.076070  1.0  0.1045
  C  C73  1  0.792370  0.170520  0.247720  1.0  -0.1273
  C  C74  1  0.845970  0.146690  0.152560  1.0  0.1047
  C  C75  1  0.883870  0.195330  0.963070  1.0  -0.0379
  C  C76  1  0.722960  0.267550  0.258520  1.0  0.0889
  C  C77  1  0.633940  0.444060  0.178470  1.0  -0.0583
  C  C78  1  0.724330  0.383860  0.984490  1.0  -0.3665
  C  C79  1  0.732300  0.092830  0.850950  1.0  0.2762
  C  C80  1  0.663610  0.292870  0.360280  1.0  -0.3521
  C  C81  1  0.924180  0.044070  0.141920  1.0  -0.3546
  C  C82  1  0.300160  0.895870  0.000140  1.0  0.1678
  C  C83  1  0.515340  0.975640  0.701180  1.0  0.6608
  C  C84  1  0.017900  0.498310  0.899210  1.0  -0.1108
  C  C85  1  0.578970  0.917730  0.532790  1.0  -0.1315
  C  C86  1  0.512320  0.986540  0.594920  1.0  -0.0571
  C  C87  1  0.564380  0.932420  0.439170  1.0  -0.0527
  C  C88  1  0.917270  0.572250  0.044930  1.0  -0.0428
  C  C89  1  0.933110  0.572560  0.944080  1.0  -0.0974
  C  C90  1  0.043180  0.488420  0.791190  1.0  0.6658
  C  C91  1  0.016600  0.807690  0.682310  1.0  0.1647
  C  C92  1  0.900950  0.939120  0.640390  1.0  0.2836
  C  C93  1  0.674740  0.527390  0.764080  1.0  0.2824
  C  C94  1  0.545320  0.657170  0.774970  1.0  0.1725
  C  C95  1  0.857390  0.649800  0.888680  1.0  0.6358
  C  C96  1  0.666850  0.831310  0.562980  1.0  0.6517
  C  C97  1  0.186990  0.907710  0.658620  1.0  -0.066
  C  C98  1  0.172020  0.781010  0.933300  1.0  -0.1032
  C  C99  1  0.293190  0.660960  0.828920  1.0  -0.1163
  C  C100  1  0.245210  0.687310  0.923930  1.0  0.1064
  C  C101  1  0.207630  0.829480  0.752280  1.0  -0.1274
  C  C102  1  0.154030  0.853310  0.847440  1.0  0.1042
  C  C103  1  0.116130  0.804670  0.036930  1.0  -0.038
  C  C104  1  0.277040  0.732450  0.741480  1.0  0.0897
  C  C105  1  0.366060  0.555940  0.821530  1.0  -0.058
  C  C106  1  0.275670  0.616140  0.015510  1.0  -0.3684
  C  C107  1  0.267700  0.907170  0.149050  1.0  0.2751
  C  C108  1  0.336390  0.707130  0.639720  1.0  -0.3539
  C  C109  1  0.075820  0.955930  0.858080  1.0  -0.357
  N  N110  1  0.338650  0.366420  0.245470  1.0  -0.4048
  N  N111  1  0.090750  0.168880  0.326400  1.0  -0.4282
  N  N112  1  0.652770  0.069650  0.947060  1.0  -0.3881
  N  N113  1  0.930980  0.103380  0.343030  1.0  0.1648
  N  N114  1  0.801330  0.145760  0.939290  1.0  0.1561
  N  N115  1  0.508060  0.430330  0.203880  1.0  0.1749
  N  N116  1  0.425560  0.515450  0.210430  1.0  -0.3722
  N  N117  1  0.005090  0.017790  0.370040  1.0  -0.3574
  N  N118  1  0.824160  0.138950  0.842080  1.0  -0.3591
  N  N119  1  0.661350  0.633580  0.754530  1.0  -0.4033
  N  N120  1  0.909250  0.831120  0.673600  1.0  -0.4302
  N  N121  1  0.347230  0.930350  0.052940  1.0  -0.3882
  N  N122  1  0.069020  0.896620  0.656970  1.0  0.161
  N  N123  1  0.198670  0.854240  0.060710  1.0  0.1569
  N  N124  1  0.491940  0.569670  0.796120  1.0  0.1741
  N  N125  1  0.574440  0.484550  0.789570  1.0  -0.3728
  N  N126  1  0.994910  0.982210  0.629960  1.0  -0.3579
  N  N127  1  0.175840  0.861050  0.157920  1.0  -0.3547
  O  O128  1  0.141700  0.368060  0.192150  1.0  -0.5774
  O  O129  1  0.452060  0.095490  0.885580  1.0  -0.744
  O  O130  1  0.296600  0.158650  0.368300  1.0  -0.5867
  O  O131  1  0.529980  0.100490  0.229510  1.0  -0.5565
  O  O132  1  0.894780  0.446000  0.281460  1.0  -0.4762
  O  O133  1  0.299860  0.242420  0.480620  1.0  -0.5605
  O  O134  1  0.439680  0.950420  0.289360  1.0  -0.5288
  O  O135  1  0.994670  0.590890  0.216340  1.0  -0.521
  O  O136  1  0.200290  0.273100  0.076360  1.0  -0.5779
  O  O137  1  0.858300  0.631940  0.807850  1.0  -0.5781
  O  O138  1  0.547940  0.904510  0.114420  1.0  -0.7423
  O  O139  1  0.703400  0.841350  0.631700  1.0  -0.5867
  O  O140  1  0.470020  0.899510  0.770490  1.0  -0.5557
  O  O141  1  0.105220  0.554000  0.718540  1.0  -0.4738
  O  O142  1  0.700140  0.757580  0.519380  1.0  -0.5624
  O  O143  1  0.560320  0.049580  0.710640  1.0  -0.5285
  O  O144  1  0.005330  0.409110  0.783660  1.0  -0.5197
  O  O145  1  0.799710  0.726900  0.923640  1.0  -0.5782
