# generated using pymatgen
data_Cu4H24WC30S4(IN3)2
_symmetry_space_group_name_H-M   'P 1'
_cell_length_a   22.49400000
_cell_length_b   22.49400000
_cell_length_c   22.49400000
_cell_angle_alpha   113.08420000
_cell_angle_beta   113.08420000
_cell_angle_gamma   102.46440000
_symmetry_Int_Tables_number   1
_chemical_formula_structural   Cu4H24WC30S4(IN3)2
_chemical_formula_sum   'Cu32 H192 W8 C240 S32 I16 N48'
_cell_volume   8664.89547931
_cell_formula_units_Z   8
loop_
 _symmetry_equiv_pos_site_id
 _symmetry_equiv_pos_as_xyz
  1  'x, y, z'
loop_
 _atom_site_type_symbol
 _atom_site_label
 _atom_site_symmetry_multiplicity
 _atom_site_fract_x
 _atom_site_fract_y
 _atom_site_fract_z
 _atom_site_occupancy
 _atom_site_charge
  Cu  Cu1  1  0.324170  0.544750  0.606570  1.0  0.2983
  Cu  Cu2  1  0.438010  0.717490  0.892980  1.0  0.3155
  Cu  Cu3  1  0.551500  0.447590  0.227670  1.0  0.3164
  Cu  Cu4  1  0.719380  0.323650  0.271690  1.0  0.3141
  Cu  Cu5  1  0.064570  0.955380  0.279670  1.0  0.3236
  Cu  Cu6  1  0.175930  0.785240  0.220560  1.0  0.3246
  Cu  Cu7  1  0.785380  0.064700  0.609510  1.0  0.3283
  Cu  Cu8  1  0.955570  0.176900  0.891220  1.0  0.3281
  Cu  Cu9  1  0.675060  0.456700  0.390350  1.0  0.3296
  Cu  Cu10  1  0.565870  0.284630  0.108950  1.0  0.3264
  Cu  Cu11  1  0.458110  0.563980  0.780310  1.0  0.2783
  Cu  Cu12  1  0.283180  0.677320  0.719380  1.0  0.2822
  Cu  Cu13  1  0.950450  0.054170  0.730660  1.0  0.3188
  Cu  Cu14  1  0.823400  0.220310  0.769970  1.0  0.3078
  Cu  Cu15  1  0.219620  0.949130  0.396510  1.0  0.3165
  Cu  Cu16  1  0.052450  0.823100  0.103760  1.0  0.3216
  Cu  Cu17  1  0.946990  0.698910  0.400030  1.0  0.3961
  Cu  Cu18  1  0.798960  0.546820  0.100090  1.0  0.3973
  Cu  Cu19  1  0.698900  0.798780  0.752630  1.0  0.405
  Cu  Cu20  1  0.546370  0.946170  0.747410  1.0  0.4091
  Cu  Cu21  1  0.044130  0.296480  0.599630  1.0  0.3991
  Cu  Cu22  1  0.196940  0.444350  0.900220  1.0  0.3978
  Cu  Cu23  1  0.296420  0.196370  0.251880  1.0  0.3956
  Cu  Cu24  1  0.444450  0.044430  0.248000  1.0  0.3956
  Cu  Cu25  1  0.792610  0.693200  0.243800  1.0  0.3966
  Cu  Cu26  1  0.949580  0.548810  0.256340  1.0  0.4039
  Cu  Cu27  1  0.692500  0.949400  0.900630  1.0  0.4123
  Cu  Cu28  1  0.548960  0.791910  0.599550  1.0  0.4103
  Cu  Cu29  1  0.191410  0.290410  0.743650  1.0  0.3946
  Cu  Cu30  1  0.046810  0.447580  0.756220  1.0  0.3952
  Cu  Cu31  1  0.290300  0.046430  0.098990  1.0  0.3949
  Cu  Cu32  1  0.447430  0.191270  0.400800  1.0  0.3954
  H  H33  1  0.060080  0.739800  0.551160  1.0  0.0921
  H  H34  1  0.192270  0.796640  0.629140  1.0  0.097
  H  H35  1  0.198040  0.818660  0.449850  1.0  0.0903
  H  H36  1  0.065000  0.764310  0.375920  1.0  0.0901
  H  H37  1  0.889020  0.811440  0.242510  1.0  0.076
  H  H38  1  0.870200  0.872290  0.171860  1.0  0.0772
  H  H39  1  0.643120  0.730960  0.038530  1.0  0.0921
  H  H40  1  0.666800  0.678620  0.117740  1.0  0.0972
  H  H41  1  0.688700  0.508430  0.948790  1.0  0.0934
  H  H42  1  0.667400  0.562440  0.870600  1.0  0.0958
  H  H43  1  0.868420  0.747870  0.049860  1.0  0.089
  H  H44  1  0.888160  0.688970  0.124030  1.0  0.0879
  H  H45  1  0.069120  0.646530  0.257680  1.0  0.0757
  H  H46  1  0.200630  0.698430  0.328410  1.0  0.0805
  H  H47  1  0.192580  0.604750  0.461780  1.0  0.0928
  H  H48  1  0.061050  0.549130  0.382480  1.0  0.0968
  H  H49  1  0.737630  0.687080  0.678200  1.0  0.0902
  H  H50  1  0.795230  0.665940  0.603960  1.0  0.0931
  H  H51  1  0.819210  0.868820  0.622140  1.0  0.0957
  H  H52  1  0.765400  0.888350  0.700840  1.0  0.0902
  H  H53  1  0.810800  0.068680  0.922560  1.0  0.0771
  H  H54  1  0.871760  0.200220  0.002090  1.0  0.0821
  H  H55  1  0.730380  0.192780  0.087800  1.0  0.0933
  H  H56  1  0.677320  0.061120  0.011270  1.0  0.0955
  H  H57  1  0.508320  0.059320  0.820350  1.0  0.0909
  H  H58  1  0.561520  0.191170  0.894770  1.0  0.09
  H  H59  1  0.747540  0.196920  0.879330  1.0  0.0942
  H  H60  1  0.688360  0.064420  0.800550  1.0  0.0912
  H  H61  1  0.647410  0.888410  0.578600  1.0  0.0751
  H  H62  1  0.699410  0.869780  0.499090  1.0  0.0824
  H  H63  1  0.604140  0.642380  0.411440  1.0  0.093
  H  H64  1  0.549000  0.665960  0.487970  1.0  0.0946
  H  H65  1  0.822660  0.770120  0.832090  1.0  0.0839
  H  H66  1  0.850140  0.716830  0.911260  1.0  0.0877
  H  H67  1  0.646300  0.683450  0.892240  1.0  0.0856
  H  H68  1  0.622540  0.737600  0.813590  1.0  0.089
  H  H69  1  0.428350  0.659820  0.548330  1.0  0.0833
  H  H70  1  0.296820  0.604370  0.471420  1.0  0.0926
  H  H71  1  0.309270  0.782760  0.438720  1.0  0.0917
  H  H72  1  0.441140  0.832370  0.513680  1.0  0.0895
  H  H73  1  0.438510  0.988990  0.665020  1.0  0.0853
  H  H74  1  0.306050  0.937210  0.585440  1.0  0.086
  H  H75  1  0.291360  0.755150  0.609800  1.0  0.0881
  H  H76  1  0.424120  0.810080  0.688710  1.0  0.0875
  H  H77  1  0.611680  0.880330  0.952180  1.0  0.0833
  H  H78  1  0.633210  0.825790  0.029190  1.0  0.0884
  H  H79  1  0.844110  0.870530  0.061440  1.0  0.091
  H  H80  1  0.818720  0.927380  0.986430  1.0  0.0873
  H  H81  1  0.971880  0.832310  0.532190  1.0  0.0763
  H  H82  1  0.920320  0.860530  0.613060  1.0  0.0901
  H  H83  1  0.774360  0.636500  0.482510  1.0  0.0874
  H  H84  1  0.828790  0.612630  0.404790  1.0  0.0936
  H  H85  1  0.882040  0.428400  0.269450  1.0  0.0824
  H  H86  1  0.827310  0.296730  0.193400  1.0  0.0921
  H  H87  1  0.868750  0.308670  0.025290  1.0  0.0913
  H  H88  1  0.925840  0.440590  0.107330  1.0  0.0871
  H  H89  1  0.801930  0.439640  0.969440  1.0  0.0767
  H  H90  1  0.749360  0.307210  0.888560  1.0  0.0916
  H  H91  1  0.652760  0.291660  0.016500  1.0  0.086
  H  H92  1  0.706520  0.423800  0.094200  1.0  0.0938
  H  H93  1  0.658630  0.612920  0.230210  1.0  0.0832
  H  H94  1  0.603040  0.634240  0.306290  1.0  0.0921
  H  H95  1  0.784100  0.842990  0.475390  1.0  0.0908
  H  H96  1  0.833930  0.818070  0.393320  1.0  0.0881
  H  H97  1  0.937310  0.309150  0.477870  1.0  0.082
  H  H98  1  0.804930  0.256710  0.397040  1.0  0.0842
  H  H99  1  0.789280  0.143400  0.510240  1.0  0.0848
  H  H100  1  0.921260  0.196590  0.587290  1.0  0.0911
  H  H101  1  0.108090  0.161560  0.735210  1.0  0.0817
  H  H102  1  0.129610  0.105200  0.810570  1.0  0.0908
  H  H103  1  0.345350  0.276060  0.969620  1.0  0.0917
  H  H104  1  0.319870  0.326700  0.888120  1.0  0.093
  H  H105  1  0.331490  0.458190  0.020750  1.0  0.0833
  H  H106  1  0.360010  0.406750  0.101710  1.0  0.0879
  H  H107  1  0.133430  0.280150  0.990950  1.0  0.0851
  H  H108  1  0.109460  0.334920  0.913770  1.0  0.0879
  H  H109  1  0.926310  0.373840  0.765300  1.0  0.0823
  H  H110  1  0.794620  0.320110  0.689930  1.0  0.0935
  H  H111  1  0.806590  0.374740  0.529640  1.0  0.0935
  H  H112  1  0.938680  0.430730  0.611180  1.0  0.0937
  H  H113  1  0.304600  0.330400  0.367660  1.0  0.0816
  H  H114  1  0.250520  0.357870  0.446000  1.0  0.0878
  H  H115  1  0.143420  0.131700  0.353520  1.0  0.0817
  H  H116  1  0.198380  0.108510  0.276250  1.0  0.0927
  H  H117  1  0.159760  0.926150  0.051130  1.0  0.0814
  H  H118  1  0.103750  0.794390  0.973810  1.0  0.0905
  H  H119  1  0.277760  0.806090  0.933990  1.0  0.087
  H  H120  1  0.328390  0.938240  0.009950  1.0  0.0913
  H  H121  1  0.463320  0.936830  0.132920  1.0  0.081
  H  H122  1  0.412520  0.804430  0.054660  1.0  0.0875
  H  H123  1  0.277810  0.789760  0.146000  1.0  0.0841
  H  H124  1  0.331830  0.922000  0.223220  1.0  0.0938
  H  H125  1  0.374620  0.108430  0.448200  1.0  0.0809
  H  H126  1  0.320310  0.129710  0.525650  1.0  0.0915
  H  H127  1  0.372700  0.343920  0.566500  1.0  0.0884
  H  H128  1  0.428780  0.318620  0.490400  1.0  0.0891
  H  H129  1  0.191520  0.247160  0.189380  1.0  0.0914
  H  H130  1  0.170340  0.303760  0.114060  1.0  0.0916
  H  H131  1  0.361440  0.305340  0.111350  1.0  0.0918
  H  H132  1  0.380490  0.251430  0.189890  1.0  0.0879
  H  H133  1  0.566060  0.316700  0.431530  1.0  0.0802
  H  H134  1  0.697870  0.377460  0.510560  1.0  0.098
  H  H135  1  0.691470  0.224010  0.580910  1.0  0.0912
  H  H136  1  0.559870  0.170610  0.504800  1.0  0.0926
  H  H137  1  0.557560  0.002720  0.312510  1.0  0.0887
  H  H138  1  0.689460  0.056720  0.387870  1.0  0.0937
  H  H139  1  0.694100  0.249240  0.387170  1.0  0.0933
  H  H140  1  0.561670  0.189790  0.308500  1.0  0.0858
  H  H141  1  0.384330  0.132080  0.066150  1.0  0.081
  H  H142  1  0.366160  0.185100  0.987290  1.0  0.0945
  H  H143  1  0.143370  0.112260  0.920600  1.0  0.0908
  H  H144  1  0.165900  0.056650  0.996600  1.0  0.0927
  H  H145  1  0.000350  0.189010  0.443620  1.0  0.0916
  H  H146  1  0.053400  0.166780  0.364460  1.0  0.0876
  H  H147  1  0.246450  0.358260  0.550620  1.0  0.0869
  H  H148  1  0.188790  0.379290  0.625650  1.0  0.0902
  H  H149  1  0.133320  0.566330  0.749050  1.0  0.0794
  H  H150  1  0.185430  0.698300  0.820140  1.0  0.0949
  H  H151  1  0.111270  0.691290  0.968770  1.0  0.092
  H  H152  1  0.055700  0.559560  0.890150  1.0  0.0927
  H  H153  1  0.244630  0.556470  0.055870  1.0  0.0918
  H  H154  1  0.301590  0.688670  0.135150  1.0  0.0905
  H  H155  1  0.308690  0.695810  0.949820  1.0  0.0866
  H  H156  1  0.254640  0.563120  0.874670  1.0  0.0893
  H  H157  1  0.317900  0.383920  0.751480  1.0  0.0817
  H  H158  1  0.378750  0.365050  0.680350  1.0  0.0941
  H  H159  1  0.222320  0.142570  0.530740  1.0  0.0913
  H  H160  1  0.169130  0.165500  0.609280  1.0  0.0922
  H  H161  1  0.482010  0.613600  0.672550  1.0  0.084
  H  H162  1  0.560460  0.586980  0.624590  1.0  0.0884
  H  H163  1  0.372420  0.446090  0.397390  1.0  0.0996
  H  H164  1  0.297770  0.469700  0.451360  1.0  0.0859
  H  H165  1  0.440690  0.809260  0.826780  1.0  0.0832
  H  H166  1  0.461860  0.935600  0.874570  1.0  0.0865
  H  H167  1  0.547870  0.974920  0.101820  1.0  0.1001
  H  H168  1  0.517730  0.846370  0.048010  1.0  0.0872
  H  H169  1  0.611630  0.440040  0.133060  1.0  0.0838
  H  H170  1  0.587710  0.460110  0.027430  1.0  0.0857
  H  H171  1  0.445550  0.547800  0.069380  1.0  0.0952
  H  H172  1  0.467040  0.519210  0.168980  1.0  0.0935
  H  H173  1  0.806580  0.478430  0.366530  1.0  0.0825
  H  H174  1  0.932240  0.560000  0.472300  1.0  0.0864
  H  H175  1  0.977740  0.375740  0.430150  1.0  0.096
  H  H176  1  0.849590  0.297770  0.330430  1.0  0.0961
  H  H177  1  0.011560  0.856320  0.331190  1.0  0.0993
  H  H178  1  0.986180  0.879750  0.434120  1.0  0.0909
  H  H179  1  0.046930  0.100580  0.495620  1.0  0.0867
  H  H180  1  0.069270  0.072200  0.392080  1.0  0.0831
  H  H181  1  0.025550  0.680710  0.169390  1.0  0.0992
  H  H182  1  0.945980  0.552400  0.066390  1.0  0.0908
  H  H183  1  0.104930  0.551840  0.004320  1.0  0.0866
  H  H184  1  0.180200  0.677650  0.107990  1.0  0.0835
  H  H185  1  0.681570  0.011170  0.656050  1.0  0.0977
  H  H186  1  0.553000  0.984390  0.607050  1.0  0.0954
  H  H187  1  0.551370  0.047040  0.447980  1.0  0.086
  H  H188  1  0.677160  0.069780  0.498160  1.0  0.0821
  H  H189  1  0.856130  0.026760  0.844530  1.0  0.0995
  H  H190  1  0.877000  0.946320  0.892100  1.0  0.0947
  H  H191  1  0.100900  0.107290  0.054980  1.0  0.0865
  H  H192  1  0.072050  0.181680  0.003110  1.0  0.0843
  H  H193  1  0.526270  0.357020  0.347990  1.0  0.0993
  H  H194  1  0.447390  0.381350  0.397490  1.0  0.0935
  H  H195  1  0.602410  0.604360  0.548460  1.0  0.0844
  H  H196  1  0.677110  0.575010  0.497430  1.0  0.0837
  H  H197  1  0.508590  0.178220  0.151310  1.0  0.0997
  H  H198  1  0.483320  0.049820  0.101770  1.0  0.0925
  H  H199  1  0.555050  0.053710  0.950530  1.0  0.0874
  H  H200  1  0.576780  0.179450  0.001570  1.0  0.0811
  H  H201  1  0.363450  0.507350  0.827800  1.0  0.0953
  H  H202  1  0.384300  0.481420  0.929780  1.0  0.093
  H  H203  1  0.609460  0.557600  0.006160  1.0  0.0855
  H  H204  1  0.583320  0.581600  0.903380  1.0  0.0842
  H  H205  1  0.179070  0.534890  0.671580  1.0  0.0922
  H  H206  1  0.051120  0.453850  0.569600  1.0  0.0943
  H  H207  1  0.050940  0.603100  0.493840  1.0  0.0885
  H  H208  1  0.177680  0.679660  0.596650  1.0  0.087
  H  H209  1  0.939060  0.109300  0.630950  1.0  0.0863
  H  H210  1  0.956330  0.081420  0.523200  1.0  0.0845
  H  H211  1  0.050690  0.945960  0.572820  1.0  0.1026
  H  H212  1  0.024820  0.971330  0.674720  1.0  0.0915
  H  H213  1  0.978180  0.308550  0.869040  1.0  0.0899
  H  H214  1  0.058210  0.433590  0.976670  1.0  0.0857
  H  H215  1  0.873280  0.478530  0.927560  1.0  0.1056
  H  H216  1  0.796550  0.350710  0.825830  1.0  0.0897
  H  H217  1  0.309260  0.941500  0.331080  1.0  0.085
  H  H218  1  0.434120  0.958620  0.376240  1.0  0.0895
  H  H219  1  0.475710  0.042170  0.604390  1.0  0.0945
  H  H220  1  0.348420  0.017620  0.552910  1.0  0.0866
  H  H221  1  0.110790  0.978110  0.168690  1.0  0.0863
  H  H222  1  0.082650  0.057690  0.123400  1.0  0.0911
  H  H223  1  0.935620  0.870800  0.895940  1.0  0.0886
  H  H224  1  0.963090  0.795140  0.947490  1.0  0.0873
  W  W225  1  0.844810  0.594720  0.250080  1.0  0.4899
  W  W226  1  0.594250  0.844110  0.750080  1.0  0.5123
  W  W227  1  0.093050  0.342950  0.749930  1.0  0.4948
  W  W228  1  0.342690  0.092670  0.249920  1.0  0.4891
  W  W229  1  0.348540  0.598460  0.749800  1.0  0.5039
  W  W230  1  0.657860  0.408030  0.249680  1.0  0.5217
  W  W231  1  0.158220  0.908340  0.250100  1.0  0.5221
  W  W232  1  0.908630  0.158970  0.750240  1.0  0.5097
  C  C233  1  0.090570  0.757490  0.529300  1.0  0.0938
  C  C234  1  0.165950  0.788920  0.573280  1.0  -0.1555
  C  C235  1  0.206600  0.810830  0.545400  1.0  0.018
  C  C236  1  0.169000  0.802540  0.473690  1.0  -0.1495
  C  C237  1  0.093180  0.771520  0.431550  1.0  0.1568
  C  C238  1  0.835440  0.794910  0.198550  1.0  0.118
  C  C239  1  0.824300  0.829030  0.157170  1.0  -0.1494
  C  C240  1  0.754550  0.807420  0.098310  1.0  0.0188
  C  C241  1  0.697750  0.751390  0.083980  1.0  -0.1343
  C  C242  1  0.711180  0.720280  0.128210  1.0  0.1461
  C  C243  1  0.458750  0.576420  0.612540  1.0  0.1101
  C  C244  1  0.502980  0.561770  0.584880  1.0  -0.1531
  C  C245  1  0.472500  0.512750  0.507040  1.0  0.0251
  C  C246  1  0.397800  0.481650  0.458260  1.0  -0.1799
  C  C247  1  0.355470  0.496010  0.488700  1.0  0.0862
  C  C248  1  0.728150  0.560810  0.970600  1.0  0.095
  C  C249  1  0.715520  0.592090  0.926490  1.0  -0.1573
  C  C250  1  0.765190  0.660640  0.954300  1.0  0.0156
  C  C251  1  0.828560  0.694940  0.026090  1.0  -0.1493
  C  C252  1  0.839770  0.661390  0.068350  1.0  0.1592
  C  C253  1  0.096550  0.636930  0.301650  1.0  0.1143
  C  C254  1  0.172050  0.667220  0.343090  1.0  -0.1425
  C  C255  1  0.209300  0.656390  0.402010  1.0  0.018
  C  C256  1  0.167580  0.613900  0.416310  1.0  -0.1325
  C  C257  1  0.092240  0.583040  0.372020  1.0  0.1442
  C  C258  1  0.463430  0.846030  0.886760  1.0  0.1047
  C  C259  1  0.476330  0.917890  0.914330  1.0  -0.1544
  C  C260  1  0.505040  0.965290  0.992140  1.0  0.0256
  C  C261  1  0.522660  0.939410  0.040970  1.0  -0.1924
  C  C262  1  0.506690  0.866670  0.010620  1.0  0.0864
  C  C263  1  0.756380  0.727140  0.666430  1.0  0.0863
  C  C264  1  0.788310  0.714680  0.622950  1.0  -0.1601
  C  C265  1  0.811510  0.765050  0.605130  1.0  0.0138
  C  C266  1  0.803210  0.828560  0.634730  1.0  -0.1615
  C  C267  1  0.772180  0.839700  0.679500  1.0  0.1594
  C  C268  1  0.794180  0.096230  0.959450  1.0  0.1166
  C  C269  1  0.828380  0.171730  0.004640  1.0  -0.145
  C  C270  1  0.806740  0.209100  0.052670  1.0  0.0136
  C  C271  1  0.750620  0.167570  0.053450  1.0  -0.1368
  C  C272  1  0.719240  0.092200  0.008770  1.0  0.1489
  C  C273  1  0.574700  0.462850  0.117730  1.0  0.095
  C  C274  1  0.561660  0.475080  0.058640  1.0  -0.1772
  C  C275  1  0.513680  0.504590  0.039140  1.0  0.0351
  C  C276  1  0.480670  0.522260  0.080770  1.0  -0.1772
  C  C277  1  0.493300  0.506740  0.137670  1.0  0.0821
  C  C278  1  0.560470  0.089840  0.832780  1.0  0.0795
  C  C279  1  0.591540  0.165250  0.876340  1.0  -0.1556
  C  C280  1  0.660130  0.206260  0.895000  1.0  0.0144
  C  C281  1  0.694410  0.168340  0.866120  1.0  -0.1591
  C  C282  1  0.660760  0.092560  0.821290  1.0  0.1624
  C  C283  1  0.637560  0.834810  0.541260  1.0  0.1175
  C  C284  1  0.667880  0.823780  0.496100  1.0  -0.1483
  C  C285  1  0.656640  0.754030  0.447530  1.0  0.0122
  C  C286  1  0.613740  0.697060  0.446210  1.0  -0.1352
  C  C287  1  0.583040  0.710410  0.490880  1.0  0.1486
  C  C288  1  0.844640  0.456760  0.381860  1.0  0.0936
  C  C289  1  0.915950  0.502730  0.441030  1.0  -0.1782
  C  C290  1  0.964900  0.474180  0.460520  1.0  0.0342
  C  C291  1  0.940880  0.399530  0.418810  1.0  -0.1789
  C  C292  1  0.868460  0.355340  0.361820  1.0  0.0808
  C  C293  1  0.784570  0.751670  0.846100  1.0  0.1217
  C  C294  1  0.800340  0.721570  0.891410  1.0  -0.1547
  C  C295  1  0.750590  0.695520  0.908480  1.0  0.0101
  C  C296  1  0.685910  0.701870  0.879780  1.0  -0.1611
  C  C297  1  0.672450  0.733000  0.835310  1.0  0.1197
  C  C298  1  0.401700  0.686060  0.523700  1.0  0.1264
  C  C299  1  0.326360  0.654900  0.480100  1.0  -0.1306
  C  C300  1  0.290420  0.688480  0.447720  1.0  0.0132
  C  C301  1  0.333380  0.753320  0.460350  1.0  -0.1453
  C  C302  1  0.408810  0.782230  0.503720  1.0  0.1383
  C  C303  1  0.017050  0.908900  0.366480  1.0  0.105
  C  C304  1  0.003640  0.922590  0.425320  1.0  -0.182
  C  C305  1  0.014410  0.992240  0.473290  1.0  0.0264
  C  C306  1  0.037250  0.046090  0.459910  1.0  -0.1541
  C  C307  1  0.050040  0.030220  0.401170  1.0  0.1655
  C  C308  1  0.405940  0.937480  0.652110  1.0  0.1214
  C  C309  1  0.330550  0.907900  0.606640  1.0  -0.1544
  C  C310  1  0.287320  0.841930  0.591100  1.0  0.0131
  C  C311  1  0.322290  0.806680  0.621230  1.0  -0.1619
  C  C312  1  0.397870  0.837700  0.665840  1.0  0.1239
  C  C313  1  0.662530  0.878250  0.976740  1.0  0.143
  C  C314  1  0.675000  0.846550  0.020390  1.0  -0.1251
  C  C315  1  0.740930  0.842890  0.052660  1.0  0.013
  C  C316  1  0.793080  0.873100  0.039910  1.0  -0.1418
  C  C317  1  0.778600  0.905120  0.996500  1.0  0.1306
  C  C318  1  0.042760  0.650930  0.133990  1.0  0.1063
  C  C319  1  0.997560  0.578700  0.075100  1.0  -0.187
  C  C320  1  0.019090  0.541580  0.026920  1.0  0.0254
  C  C321  1  0.086260  0.577820  0.040180  1.0  -0.1541
  C  C322  1  0.129190  0.649310  0.099000  1.0  0.1621
  C  C323  1  0.928460  0.789880  0.521740  1.0  0.1622
  C  C324  1  0.898920  0.805740  0.567720  1.0  -0.137
  C  C325  1  0.843160  0.750560  0.555630  1.0  0.0262
  C  C326  1  0.818120  0.680510  0.495440  1.0  -0.1536
  C  C327  1  0.848900  0.666900  0.450770  1.0  0.103
  C  C328  1  0.879030  0.401640  0.215980  1.0  0.1283
  C  C329  1  0.847220  0.326260  0.171880  1.0  -0.1428
  C  C330  1  0.842320  0.290200  0.101630  1.0  0.0218
  C  C331  1  0.871860  0.332970  0.079180  1.0  -0.1404
  C  C332  1  0.904060  0.408400  0.125600  1.0  0.1413
  C  C333  1  0.651480  0.016710  0.609090  1.0  0.1021
  C  C334  1  0.579050  0.002520  0.581890  1.0  -0.184
  C  C335  1  0.541340  0.013160  0.523050  1.0  0.0165
  C  C336  1  0.577490  0.037000  0.492450  1.0  -0.1567
  C  C337  1  0.649120  0.050230  0.520970  1.0  0.1644
  C  C338  1  0.769220  0.406630  0.979260  1.0  0.1654
  C  C339  1  0.739140  0.331120  0.933280  1.0  -0.1442
  C  C340  1  0.695170  0.287400  0.944590  1.0  0.0202
  C  C341  1  0.684460  0.322510  0.004090  1.0  -0.153
  C  C342  1  0.715480  0.397960  0.048760  1.0  0.0996
  C  C343  1  0.685570  0.663200  0.283910  1.0  0.1281
  C  C344  1  0.654310  0.675500  0.328030  1.0  -0.1401
  C  C345  1  0.688780  0.740620  0.398560  1.0  0.0197
  C  C346  1  0.754290  0.792410  0.421290  1.0  -0.1473
  C  C347  1  0.783270  0.778190  0.374850  1.0  0.1394
  C  C348  1  0.908450  0.043530  0.891690  1.0  0.1044
  C  C349  1  0.920620  0.997640  0.918180  1.0  -0.1491
  C  C350  1  0.989340  0.018010  0.977310  1.0  -0.0311
  C  C351  1  0.046490  0.088580  0.010140  1.0  -0.1285
  C  C352  1  0.030260  0.130560  0.980600  1.0  0.1556
  C  C353  1  0.904250  0.272420  0.484120  1.0  0.1719
  C  C354  1  0.828770  0.242490  0.438250  1.0  -0.1571
  C  C355  1  0.785070  0.193800  0.445290  1.0  0.0071
  C  C356  1  0.820110  0.178490  0.500710  1.0  -0.153
  C  C357  1  0.895480  0.209250  0.545150  1.0  0.104
  C  C358  1  0.159930  0.186040  0.786460  1.0  0.1179
  C  C359  1  0.172360  0.154430  0.830190  1.0  -0.1459
  C  C360  1  0.239450  0.185920  0.897710  1.0  0.0239
  C  C361  1  0.293060  0.248690  0.917790  1.0  -0.1373
  C  C362  1  0.278570  0.278100  0.871740  1.0  0.1412
  C  C363  1  0.542710  0.410420  0.393160  1.0  0.109
  C  C364  1  0.497850  0.424600  0.420550  1.0  -0.1666
  C  C365  1  0.518680  0.495090  0.477270  1.0  0.045
  C  C366  1  0.584490  0.549320  0.505510  1.0  -0.1608
  C  C367  1  0.627080  0.532880  0.476710  1.0  0.1514
  C  C368  1  0.288540  0.419430  0.015110  1.0  0.1712
  C  C369  1  0.304550  0.389890  0.061040  1.0  -0.1496
  C  C370  1  0.248850  0.339850  0.054760  1.0  0.0076
  C  C371  1  0.178050  0.320020  0.999950  1.0  -0.1559
  C  C372  1  0.164310  0.350850  0.955420  1.0  0.1049
  C  C373  1  0.899570  0.373980  0.713760  1.0  0.1257
  C  C374  1  0.824230  0.342730  0.670010  1.0  -0.1462
  C  C375  1  0.788220  0.341720  0.602110  1.0  0.0185
  C  C376  1  0.830970  0.374700  0.581710  1.0  -0.1453
  C  C377  1  0.906430  0.406230  0.627800  1.0  0.1351
  C  C378  1  0.516770  0.149460  0.106110  1.0  0.1107
  C  C379  1  0.503480  0.077190  0.078670  1.0  -0.1639
  C  C380  1  0.517130  0.041250  0.021870  1.0  0.0438
  C  C381  1  0.543040  0.078770  0.993550  1.0  -0.162
  C  C382  1  0.555460  0.150190  0.022370  1.0  0.1524
  C  C383  1  0.268970  0.287230  0.364790  1.0  0.1819
  C  C384  1  0.238040  0.302630  0.409380  1.0  -0.1417
  C  C385  1  0.190600  0.246630  0.405290  1.0  0.0272
  C  C386  1  0.177440  0.176270  0.356800  1.0  -0.1479
  C  C387  1  0.209230  0.163080  0.313160  1.0  0.1035
  C  C388  1  0.185090  0.899370  0.025110  1.0  0.1211
  C  C389  1  0.153630  0.824030  0.981380  1.0  -0.1438
  C  C390  1  0.186100  0.788020  0.947340  1.0  0.0194
  C  C391  1  0.249780  0.830610  0.957860  1.0  -0.1413
  C  C392  1  0.279090  0.906050  0.001540  1.0  0.1252
  C  C393  1  0.416600  0.516210  0.866330  1.0  0.0898
  C  C394  1  0.428760  0.502640  0.924630  1.0  -0.1797
  C  C395  1  0.498730  0.517240  0.976090  1.0  0.0493
  C  C396  1  0.554740  0.544860  0.967310  1.0  -0.1644
  C  C397  1  0.540210  0.558040  0.908860  1.0  0.1576
  C  C398  1  0.422770  0.904060  0.135530  1.0  0.1974
  C  C399  1  0.393640  0.828560  0.091000  1.0  -0.1452
  C  C400  1  0.341450  0.785180  0.094770  1.0  0.0368
  C  C401  1  0.319280  0.820500  0.142940  1.0  -0.1484
  C  C402  1  0.349700  0.895940  0.186540  1.0  0.1032
  C  C403  1  0.374090  0.159860  0.474490  1.0  0.1187
  C  C404  1  0.342560  0.172110  0.518290  1.0  -0.1421
  C  C405  1  0.340860  0.238710  0.552640  1.0  0.0195
  C  C406  1  0.373150  0.291990  0.542380  1.0  -0.1444
  C  C407  1  0.404840  0.277640  0.498620  1.0  0.1302
  C  C408  1  0.149370  0.549640  0.633200  1.0  0.0921
  C  C409  1  0.077500  0.503560  0.574900  1.0  -0.178
  C  C410  1  0.040620  0.522220  0.523610  1.0  0.0482
  C  C411  1  0.077030  0.587100  0.532560  1.0  -0.1681
  C  C412  1  0.148660  0.630970  0.591020  1.0  0.162
  C  C413  1  0.228910  0.260700  0.172600  1.0  0.1027
  C  C414  1  0.216480  0.292160  0.128680  1.0  -0.1559
  C  C415  1  0.263500  0.308720  0.104680  1.0  0.015
  C  C416  1  0.323740  0.294300  0.128500  1.0  -0.1596
  C  C417  1  0.334660  0.263330  0.173240  1.0  0.1231
  C  C418  1  0.593990  0.297050  0.464490  1.0  0.1436
  C  C419  1  0.669520  0.331320  0.509600  1.0  -0.1482
  C  C420  1  0.707170  0.306280  0.553290  1.0  0.0188
  C  C421  1  0.665960  0.246780  0.549950  1.0  -0.1332
  C  C422  1  0.590600  0.215230  0.505380  1.0  0.1415
  C  C423  1  0.962590  0.072840  0.616770  1.0  0.1002
  C  C424  1  0.973130  0.057360  0.556250  1.0  -0.1547
  C  C425  1  0.003250  0.009580  0.537790  1.0  0.0393
  C  C426  1  0.023880  0.980030  0.582650  1.0  -0.1823
  C  C427  1  0.010100  0.995110  0.641080  1.0  0.0857
  C  C428  1  0.587960  0.056550  0.328540  1.0  0.0954
  C  C429  1  0.663340  0.087990  0.372490  1.0  -0.1614
  C  C430  1  0.703990  0.158590  0.395490  1.0  0.0164
  C  C431  1  0.665840  0.194670  0.370730  1.0  -0.1563
  C  C432  1  0.590130  0.160880  0.325920  1.0  0.1259
  C  C433  1  0.332000  0.128080  0.034140  1.0  0.1438
  C  C434  1  0.321210  0.158570  0.989100  1.0  -0.1469
  C  C435  1  0.252780  0.153640  0.946470  1.0  0.0184
  C  C436  1  0.196850  0.116840  0.950770  1.0  -0.1371
  C  C437  1  0.209790  0.086000  0.995290  1.0  0.1423
  C  C438  1  0.955970  0.346310  0.883300  1.0  0.0977
  C  C439  1  0.001100  0.417390  0.943740  1.0  -0.1522
  C  C440  1  0.971860  0.465980  0.962350  1.0  0.0396
  C  C441  1  0.897450  0.441840  0.917640  1.0  -0.1809
  C  C442  1  0.854000  0.369610  0.859300  1.0  0.0828
  C  C443  1  0.054140  0.226530  0.466530  1.0  0.1122
  C  C444  1  0.084890  0.213520  0.421800  1.0  -0.1594
  C  C445  1  0.155350  0.260860  0.451120  1.0  0.0159
  C  C446  1  0.191980  0.321370  0.525330  1.0  -0.1501
  C  C447  1  0.159150  0.333010  0.568140  1.0  0.1152
  C  C448  1  0.128920  0.594180  0.797140  1.0  0.1341
  C  C449  1  0.159070  0.669670  0.838440  1.0  -0.142
  C  C450  1  0.153780  0.707080  0.901690  1.0  0.0167
  C  C451  1  0.116430  0.665800  0.920260  1.0  -0.1319
  C  C452  1  0.085660  0.590440  0.876260  1.0  0.1397
  C  C453  1  0.346360  0.963020  0.390750  1.0  0.0973
  C  C454  1  0.417430  0.973520  0.416860  1.0  -0.1535
  C  C455  1  0.465300  0.000980  0.494280  1.0  0.0511
  C  C456  1  0.440010  0.018160  0.543840  1.0  -0.1855
  C  C457  1  0.367920  0.004880  0.514850  1.0  0.1071
  C  C458  1  0.259600  0.587400  0.033150  1.0  0.1107
  C  C459  1  0.291330  0.662880  0.077950  1.0  -0.1577
  C  C460  1  0.309840  0.704100  0.048890  1.0  0.0197
  C  C461  1  0.296650  0.666580  0.974900  1.0  -0.1433
  C  C462  1  0.265460  0.590930  0.932020  1.0  0.1207
  C  C463  1  0.297450  0.331530  0.703140  1.0  0.1363
  C  C464  1  0.331670  0.320450  0.661850  1.0  -0.1463
  C  C465  1  0.305600  0.252010  0.598320  1.0  0.0193
  C  C466  1  0.245510  0.196140  0.579470  1.0  -0.1342
  C  C467  1  0.214120  0.209320  0.623430  1.0  0.1399
  C  C468  1  0.072190  0.955430  0.109120  1.0  0.0976
  C  C469  1  0.056490  0.000340  0.082950  1.0  -0.1646
  C  C470  1  0.005760  0.970620  0.005770  1.0  0.0448
  C  C471  1  0.972790  0.895760  0.956380  1.0  -0.1841
  C  C472  1  0.988770  0.852730  0.985390  1.0  0.1279
  S  S473  1  0.911020  0.729570  0.313470  1.0  -0.2825
  S  S474  1  0.355540  0.489160  0.668100  1.0  -0.3342
  S  S475  1  0.916220  0.597500  0.186630  1.0  -0.2831
  S  S476  1  0.320790  0.686880  0.831570  1.0  -0.337
  S  S477  1  0.728950  0.915990  0.818710  1.0  -0.2802
  S  S478  1  0.523600  0.330400  0.180770  1.0  -0.3324
  S  S479  1  0.597630  0.910250  0.681530  1.0  -0.2805
  S  S480  1  0.649040  0.342610  0.318510  1.0  -0.3351
  S  S481  1  0.586580  0.732220  0.653720  1.0  -0.2776
  S  S482  1  0.181720  0.020130  0.360450  1.0  -0.3017
  S  S483  1  0.578630  0.932790  0.846340  1.0  -0.2836
  S  S484  1  0.159620  0.821530  0.139690  1.0  -0.3035
  S  S485  1  0.933380  0.586440  0.353780  1.0  -0.268
  S  S486  1  0.821510  0.181600  0.661020  1.0  -0.3032
  S  S487  1  0.732800  0.579540  0.146380  1.0  -0.2674
  S  S488  1  0.020740  0.161430  0.839440  1.0  -0.3098
  S  S489  1  0.077440  0.230620  0.646240  1.0  -0.2611
  S  S490  1  0.657850  0.519770  0.336410  1.0  -0.2972
  S  S491  1  0.084440  0.431000  0.853620  1.0  -0.2623
  S  S492  1  0.682890  0.321330  0.162960  1.0  -0.3016
  S  S493  1  0.230480  0.083990  0.152940  1.0  -0.2555
  S  S494  1  0.482880  0.678450  0.821710  1.0  -0.2944
  S  S495  1  0.431050  0.077510  0.346960  1.0  -0.255
  S  S496  1  0.356150  0.660870  0.677770  1.0  -0.2986
  S  S497  1  0.413910  0.227670  0.318740  1.0  -0.2874
  S  S498  1  0.832860  0.024560  0.683140  1.0  -0.3296
  S  S499  1  0.408820  0.095010  0.181040  1.0  -0.2847
  S  S500  1  0.841690  0.150460  0.817720  1.0  -0.3299
  S  S501  1  0.095460  0.414190  0.686110  1.0  -0.3121
  S  S502  1  0.149230  0.831790  0.307880  1.0  -0.3516
  S  S503  1  0.228110  0.409180  0.813680  1.0  -0.3113
  S  S504  1  0.023960  0.841340  0.192530  1.0  -0.3533
  I  I505  1  0.187700  0.471880  0.495830  1.0  -0.4262
  I  I506  1  0.476450  0.692010  0.003900  1.0  -0.4375
  I  I507  1  0.466890  0.470300  0.279390  1.0  -0.4114
  I  I508  1  0.690330  0.187290  0.219770  1.0  -0.4146
  I  I509  1  0.000380  0.015450  0.211860  1.0  -0.4242
  I  I510  1  0.303760  0.788630  0.288070  1.0  -0.4263
  I  I511  1  0.787900  0.000020  0.484560  1.0  -0.4213
  I  I512  1  0.015720  0.304570  0.015990  1.0  -0.4216
  I  I513  1  0.803370  0.519880  0.514810  1.0  -0.4113
  I  I514  1  0.504560  0.288600  0.984560  1.0  -0.4052
  I  I515  1  0.540420  0.526950  0.730540  1.0  -0.4022
  I  I516  1  0.295600  0.809330  0.769660  1.0  -0.4056
  I  I517  1  0.977020  0.972880  0.786100  1.0  -0.3862
  I  I518  1  0.686670  0.191210  0.714940  1.0  -0.3852
  I  I519  1  0.190400  0.976310  0.504100  1.0  -0.4407
  I  I520  1  0.972180  0.686270  0.996240  1.0  -0.4449
  N  N521  1  0.055180  0.748760  0.459370  1.0  -0.3223
  N  N522  1  0.779320  0.741490  0.183890  1.0  -0.3281
  N  N523  1  0.386380  0.540790  0.565100  1.0  -0.268
  N  N524  1  0.789330  0.595530  0.040590  1.0  -0.3164
  N  N525  1  0.057780  0.595460  0.316290  1.0  -0.3287
  N  N526  1  0.475220  0.821160  0.934260  1.0  -0.2603
  N  N527  1  0.748690  0.788870  0.694090  1.0  -0.3278
  N  N528  1  0.740560  0.057600  0.962000  1.0  -0.3341
  N  N529  1  0.538410  0.475970  0.153580  1.0  -0.267
  N  N530  1  0.594940  0.054490  0.805910  1.0  -0.3257
  N  N531  1  0.595760  0.778580  0.538150  1.0  -0.3357
  N  N532  1  0.821840  0.384600  0.345900  1.0  -0.2675
  N  N533  1  0.721410  0.757060  0.818860  1.0  -0.3338
  N  N534  1  0.441650  0.748700  0.534970  1.0  -0.2974
  N  N535  1  0.040170  0.962890  0.356040  1.0  -0.2837
  N  N536  1  0.438470  0.902380  0.680970  1.0  -0.3323
  N  N537  1  0.713840  0.906770  0.965320  1.0  -0.2821
  N  N538  1  0.107090  0.684510  0.144280  1.0  -0.2786
  N  N539  1  0.903520  0.721240  0.464510  1.0  -0.3336
  N  N540  1  0.906590  0.441430  0.192490  1.0  -0.2919
  N  N541  1  0.684740  0.040270  0.578240  1.0  -0.277
  N  N542  1  0.756890  0.438880  0.035730  1.0  -0.3318
  N  N543  1  0.749120  0.714050  0.307670  1.0  -0.284
  N  N544  1  0.962860  0.107860  0.922930  1.0  -0.2563
  N  N545  1  0.936390  0.255120  0.536110  1.0  -0.3393
  N  N546  1  0.212510  0.246960  0.807580  1.0  -0.2938
  N  N547  1  0.605980  0.464690  0.421740  1.0  -0.2851
  N  N548  1  0.219210  0.400170  0.963770  1.0  -0.3359
  N  N549  1  0.939410  0.404850  0.692300  1.0  -0.2896
  N  N550  1  0.542390  0.184130  0.077460  1.0  -0.2812
  N  N551  1  0.253890  0.218190  0.317210  1.0  -0.3342
  N  N552  1  0.246870  0.939100  0.034750  1.0  -0.294
  N  N553  1  0.472110  0.542760  0.859400  1.0  -0.2987
  N  N554  1  0.400990  0.936570  0.182760  1.0  -0.3314
  N  N555  1  0.404410  0.212110  0.465110  1.0  -0.2947
  N  N556  1  0.182860  0.612180  0.640320  1.0  -0.2949
  N  N557  1  0.287060  0.246420  0.193930  1.0  -0.3144
  N  N558  1  0.555670  0.239740  0.462600  1.0  -0.3291
  N  N559  1  0.978240  0.039450  0.655560  1.0  -0.2835
  N  N560  1  0.552450  0.092990  0.306140  1.0  -0.3245
  N  N561  1  0.276850  0.092800  0.037100  1.0  -0.3116
  N  N562  1  0.883780  0.323210  0.844760  1.0  -0.2728
  N  N563  1  0.091260  0.285480  0.538610  1.0  -0.3226
  N  N564  1  0.093180  0.555720  0.816480  1.0  -0.3239
  N  N565  1  0.322450  0.976220  0.439140  1.0  -0.2493
  N  N566  1  0.246940  0.552510  0.961270  1.0  -0.3207
  N  N567  1  0.239370  0.276530  0.683460  1.0  -0.3259
  N  N568  1  0.036530  0.883100  0.060960  1.0  -0.2477
