# generated using pymatgen
data_LaH32C40(NO)8
_symmetry_space_group_name_H-M   'P 1'
_cell_length_a   13.22420000
_cell_length_b   38.36600000
_cell_length_c   13.25150000
_cell_angle_alpha   90.00000000
_cell_angle_beta   99.75200000
_cell_angle_gamma   90.00000000
_symmetry_Int_Tables_number   1
_chemical_formula_structural   LaH32C40(NO)8
_chemical_formula_sum   'La4 H128 C160 N32 O32'
_cell_volume   6626.12614062
_cell_formula_units_Z   4
loop_
 _symmetry_equiv_pos_site_id
 _symmetry_equiv_pos_as_xyz
  1  'x, y, z'
loop_
 _atom_site_type_symbol
 _atom_site_label
 _atom_site_symmetry_multiplicity
 _atom_site_fract_x
 _atom_site_fract_y
 _atom_site_fract_z
 _atom_site_occupancy
 _atom_site_charge
  La  La1  1  0.240870  0.374950  0.728590  1.0  2.1123
  La  La2  1  0.259130  0.874950  0.771410  1.0  2.1134
  La  La3  1  0.759130  0.625050  0.271410  1.0  2.1135
  La  La4  1  0.740870  0.125050  0.228590  1.0  2.1123
  H  H5  1  0.199700  0.472600  0.853300  1.0  0.1058
  H  H6  1  0.094500  0.517300  0.783800  1.0  0.1036
  H  H7  1  0.213600  0.509700  0.525600  1.0  0.0943
  H  H8  1  0.322400  0.465600  0.601200  1.0  0.1058
  H  H9  1  0.144400  0.271400  0.787500  1.0  0.0996
  H  H10  1  0.220500  0.228900  0.900900  1.0  0.1036
  H  H11  1  0.494100  0.253300  0.823200  1.0  0.0989
  H  H12  1  0.415200  0.296300  0.715700  1.0  0.103
  H  H13  1  0.947400  0.566400  0.363300  1.0  0.0785
  H  H14  1  0.084500  0.534600  0.445000  1.0  0.0902
  H  H15  1  0.000800  0.557700  0.715800  1.0  0.106
  H  H16  1  0.863700  0.589000  0.628900  1.0  0.0933
  H  H17  1  0.612900  0.157200  0.992400  1.0  0.0979
  H  H18  1  0.535000  0.196800  0.872500  1.0  0.101
  H  H19  1  0.320100  0.214000  0.050300  1.0  0.1033
  H  H20  1  0.405000  0.175200  0.168800  1.0  0.0918
  H  H21  1  0.318900  0.315200  0.521000  1.0  0.0967
  H  H22  1  0.285700  0.309300  0.343700  1.0  0.0977
  H  H23  1  0.376700  0.408300  0.317900  1.0  0.1024
  H  H24  1  0.408100  0.412800  0.494600  1.0  0.1003
  H  H25  1  0.552900  0.327000  0.909900  1.0  0.0978
  H  H26  1  0.726600  0.337500  0.911700  1.0  0.0977
  H  H27  1  0.652200  0.427900  0.763200  1.0  0.0996
  H  H28  1  0.481100  0.416100  0.762200  1.0  0.0976
  H  H29  1  0.312400  0.394900  0.983100  1.0  0.0998
  H  H30  1  0.356800  0.401500  0.158100  1.0  0.1005
  H  H31  1  0.231700  0.307500  0.195000  1.0  0.1047
  H  H32  1  0.188200  0.302500  0.019800  1.0  0.0889
  H  H33  1  0.045900  0.355100  0.871700  1.0  0.0939
  H  H34  1  0.873600  0.343300  0.881200  1.0  0.1099
  H  H35  1  0.804400  0.442000  0.795000  1.0  0.0924
  H  H36  1  0.973200  0.451800  0.781900  1.0  0.0909
  H  H37  1  0.300300  0.972600  0.646700  1.0  0.1061
  H  H38  1  0.405500  0.017300  0.716200  1.0  0.1034
  H  H39  1  0.286400  0.009700  0.974400  1.0  0.0937
  H  H40  1  0.177600  0.965600  0.898800  1.0  0.106
  H  H41  1  0.355600  0.771400  0.712500  1.0  0.1
  H  H42  1  0.279500  0.728900  0.599100  1.0  0.104
  H  H43  1  0.005900  0.753300  0.676800  1.0  0.0983
  H  H44  1  0.084800  0.796300  0.784300  1.0  0.1033
  H  H45  1  0.552600  0.066400  0.136700  1.0  0.0794
  H  H46  1  0.415500  0.034600  0.055000  1.0  0.0892
  H  H47  1  0.499200  0.057700  0.784200  1.0  0.1054
  H  H48  1  0.636300  0.089000  0.871100  1.0  0.0942
  H  H49  1  0.887100  0.657200  0.507600  1.0  0.0981
  H  H50  1  0.965000  0.696800  0.627500  1.0  0.1003
  H  H51  1  0.179900  0.714000  0.449700  1.0  0.1035
  H  H52  1  0.095000  0.675200  0.331200  1.0  0.0922
  H  H53  1  0.181100  0.815200  0.979000  1.0  0.097
  H  H54  1  0.214300  0.809300  0.156300  1.0  0.0978
  H  H55  1  0.123300  0.908300  0.182100  1.0  0.1031
  H  H56  1  0.091900  0.912800  0.005400  1.0  0.1011
  H  H57  1  0.947100  0.827000  0.590100  1.0  0.0981
  H  H58  1  0.773400  0.837500  0.588300  1.0  0.0981
  H  H59  1  0.847800  0.927900  0.736800  1.0  0.0997
  H  H60  1  0.018900  0.916100  0.737800  1.0  0.0974
  H  H61  1  0.187600  0.894900  0.516900  1.0  0.0997
  H  H62  1  0.143200  0.901500  0.341900  1.0  0.1004
  H  H63  1  0.268300  0.807500  0.305000  1.0  0.1038
  H  H64  1  0.311800  0.802500  0.480200  1.0  0.0889
  H  H65  1  0.454100  0.855100  0.628300  1.0  0.0932
  H  H66  1  0.626400  0.843300  0.618800  1.0  0.1092
  H  H67  1  0.695600  0.942000  0.705000  1.0  0.092
  H  H68  1  0.526800  0.951800  0.718100  1.0  0.0907
  H  H69  1  0.800300  0.527400  0.146700  1.0  0.1066
  H  H70  1  0.905500  0.482700  0.216200  1.0  0.1032
  H  H71  1  0.786400  0.490300  0.474400  1.0  0.0939
  H  H72  1  0.677600  0.534400  0.398800  1.0  0.1067
  H  H73  1  0.855600  0.728600  0.212500  1.0  0.0997
  H  H74  1  0.779500  0.771100  0.099100  1.0  0.1042
  H  H75  1  0.505900  0.746700  0.176800  1.0  0.0981
  H  H76  1  0.584800  0.703700  0.284300  1.0  0.1038
  H  H77  1  0.052600  0.433600  0.636700  1.0  0.0795
  H  H78  1  0.915500  0.465400  0.555000  1.0  0.0891
  H  H79  1  0.999200  0.442300  0.284200  1.0  0.1053
  H  H80  1  0.136300  0.411000  0.371100  1.0  0.0944
  H  H81  1  0.387100  0.842800  0.007600  1.0  0.098
  H  H82  1  0.465000  0.803200  0.127500  1.0  0.1004
  H  H83  1  0.679900  0.786000  0.949700  1.0  0.1035
  H  H84  1  0.595000  0.824800  0.831200  1.0  0.0923
  H  H85  1  0.681100  0.684800  0.479000  1.0  0.0978
  H  H86  1  0.714300  0.690700  0.656300  1.0  0.0984
  H  H87  1  0.623300  0.591700  0.682100  1.0  0.1026
  H  H88  1  0.591900  0.587200  0.505400  1.0  0.1
  H  H89  1  0.447100  0.673000  0.090100  1.0  0.0985
  H  H90  1  0.273400  0.662500  0.088300  1.0  0.0975
  H  H91  1  0.347800  0.572100  0.236800  1.0  0.1
  H  H92  1  0.518900  0.583900  0.237800  1.0  0.0972
  H  H93  1  0.687600  0.605100  0.016900  1.0  0.0994
  H  H94  1  0.643200  0.598500  0.841900  1.0  0.1002
  H  H95  1  0.768300  0.692500  0.805000  1.0  0.1033
  H  H96  1  0.811800  0.697500  0.980200  1.0  0.0891
  H  H97  1  0.954100  0.644900  0.128300  1.0  0.0936
  H  H98  1  0.126400  0.656700  0.118800  1.0  0.1098
  H  H99  1  0.195600  0.558000  0.205000  1.0  0.0923
  H  H100  1  0.026800  0.548200  0.218100  1.0  0.0905
  H  H101  1  0.699700  0.027400  0.353300  1.0  0.106
  H  H102  1  0.594500  0.982700  0.283800  1.0  0.1033
  H  H103  1  0.713600  0.990300  0.025600  1.0  0.0939
  H  H104  1  0.822400  0.034400  0.101200  1.0  0.1067
  H  H105  1  0.644400  0.228600  0.287500  1.0  0.0996
  H  H106  1  0.720500  0.271100  0.400900  1.0  0.1034
  H  H107  1  0.994100  0.246700  0.323200  1.0  0.099
  H  H108  1  0.915200  0.203700  0.215700  1.0  0.1034
  H  H109  1  0.447400  0.933600  0.863300  1.0  0.0785
  H  H110  1  0.584500  0.965400  0.945000  1.0  0.0898
  H  H111  1  0.500800  0.942300  0.215800  1.0  0.1066
  H  H112  1  0.363700  0.911000  0.128900  1.0  0.0935
  H  H113  1  0.112900  0.342800  0.492400  1.0  0.0974
  H  H114  1  0.035000  0.303200  0.372500  1.0  0.1006
  H  H115  1  0.820100  0.286000  0.550300  1.0  0.1033
  H  H116  1  0.905000  0.324800  0.668800  1.0  0.092
  H  H117  1  0.818900  0.184800  0.021000  1.0  0.0969
  H  H118  1  0.785700  0.190700  0.843700  1.0  0.0984
  H  H119  1  0.876700  0.091700  0.817900  1.0  0.1022
  H  H120  1  0.908100  0.087200  0.994600  1.0  0.0999
  H  H121  1  0.052900  0.173000  0.409900  1.0  0.098
  H  H122  1  0.226600  0.162500  0.411700  1.0  0.0978
  H  H123  1  0.152200  0.072100  0.263200  1.0  0.0995
  H  H124  1  0.981100  0.083900  0.262200  1.0  0.0968
  H  H125  1  0.812400  0.105100  0.483100  1.0  0.0995
  H  H126  1  0.856800  0.098500  0.658100  1.0  0.1008
  H  H127  1  0.731700  0.192500  0.695000  1.0  0.104
  H  H128  1  0.688200  0.197500  0.519800  1.0  0.0894
  H  H129  1  0.545900  0.144900  0.371700  1.0  0.0932
  H  H130  1  0.373600  0.156700  0.381200  1.0  0.1101
  H  H131  1  0.304400  0.058000  0.295000  1.0  0.0921
  H  H132  1  0.473200  0.048200  0.281900  1.0  0.0909
  C  C133  1  0.200700  0.479700  0.784800  1.0  -0.0141
  C  C134  1  0.138000  0.506220  0.743400  1.0  -0.1963
  C  C135  1  0.136700  0.517040  0.644000  1.0  0.0792
  C  C136  1  0.208400  0.501840  0.592500  1.0  -0.1792
  C  C137  1  0.272500  0.475390  0.636600  1.0  -0.006
  C  C138  1  0.216400  0.267740  0.796400  1.0  -0.0076
  C  C139  1  0.261200  0.242360  0.862800  1.0  -0.1966
  C  C140  1  0.367200  0.236530  0.873800  1.0  0.0668
  C  C141  1  0.422300  0.256860  0.817600  1.0  -0.1486
  C  C142  1  0.375700  0.282290  0.753400  1.0  0.0076
  C  C143  1  0.957800  0.564070  0.435700  1.0  0.0175
  C  C144  1  0.039000  0.545070  0.484300  1.0  -0.1645
  C  C145  1  0.056600  0.540750  0.589900  1.0  0.0758
  C  C146  1  0.990000  0.558590  0.643100  1.0  -0.2018
  C  C147  1  0.908900  0.577360  0.591500  1.0  0.0028
  C  C148  1  0.552900  0.169180  0.003700  1.0  -0.0254
  C  C149  1  0.506900  0.192650  0.932800  1.0  -0.1736
  C  C150  1  0.419500  0.210420  0.948400  1.0  0.073
  C  C151  1  0.380900  0.202900  0.037700  1.0  -0.1801
  C  C152  1  0.430400  0.179560  0.107100  1.0  0.0093
  C  C153  1  0.329900  0.334430  0.478900  1.0  -0.0272
  C  C154  1  0.310000  0.330950  0.373300  1.0  -0.186
  C  C155  1  0.325100  0.358580  0.310400  1.0  0.038
  C  C156  1  0.363300  0.388930  0.358100  1.0  -0.1886
  C  C157  1  0.382200  0.391580  0.463400  1.0  0.0029
  C  C158  1  0.573900  0.347790  0.880300  1.0  -0.0004
  C  C159  1  0.677200  0.354020  0.881200  1.0  -0.1823
  C  C160  1  0.709100  0.383920  0.838500  1.0  0.0767
  C  C161  1  0.633200  0.407040  0.793900  1.0  -0.1795
  C  C162  1  0.531800  0.400170  0.793600  1.0  0.0076
  C  C163  1  0.296000  0.377030  0.027400  1.0  0.0187
  C  C164  1  0.322400  0.380920  0.131000  1.0  -0.1661
  C  C165  1  0.299500  0.355130  0.197300  1.0  0.0667
  C  C166  1  0.248800  0.325750  0.152600  1.0  -0.1695
  C  C167  1  0.223200  0.322760  0.048600  1.0  0.0115
  C  C168  1  0.995300  0.372660  0.854100  1.0  0.0015
  C  C169  1  0.892500  0.365750  0.860300  1.0  -0.1698
  C  C170  1  0.818400  0.391170  0.836300  1.0  0.0293
  C  C171  1  0.852400  0.423430  0.809100  1.0  -0.1979
  C  C172  1  0.952600  0.429430  0.802000  1.0  -0.028
  C  C173  1  0.299300  0.979700  0.715200  1.0  -0.0112
  C  C174  1  0.362000  0.006220  0.756600  1.0  -0.1963
  C  C175  1  0.363300  0.017040  0.856000  1.0  0.0808
  C  C176  1  0.291600  0.001840  0.907500  1.0  -0.1798
  C  C177  1  0.227500  0.975390  0.863400  1.0  -0.0059
  C  C178  1  0.283600  0.767740  0.703600  1.0  -0.0089
  C  C179  1  0.238800  0.742360  0.637200  1.0  -0.1952
  C  C180  1  0.132800  0.736530  0.626200  1.0  0.0661
  C  C181  1  0.077700  0.756860  0.682400  1.0  -0.151
  C  C182  1  0.124300  0.782290  0.746600  1.0  0.0089
  C  C183  1  0.542200  0.064070  0.064300  1.0  0.0164
  C  C184  1  0.461000  0.045070  0.015700  1.0  -0.1651
  C  C185  1  0.443400  0.040750  0.910100  1.0  0.0765
  C  C186  1  0.510000  0.058590  0.856900  1.0  -0.2
  C  C187  1  0.591100  0.077360  0.908500  1.0  0.0048
  C  C188  1  0.947100  0.669180  0.496300  1.0  -0.0255
  C  C189  1  0.993100  0.692650  0.567200  1.0  -0.1731
  C  C190  1  0.080500  0.710420  0.551600  1.0  0.0722
  C  C191  1  0.119100  0.702900  0.462300  1.0  -0.1783
  C  C192  1  0.069600  0.679560  0.392900  1.0  0.0088
  C  C193  1  0.170100  0.834430  0.021100  1.0  -0.0271
  C  C194  1  0.190000  0.830950  0.126700  1.0  -0.187
  C  C195  1  0.174900  0.858580  0.189600  1.0  0.0398
  C  C196  1  0.136700  0.888930  0.141900  1.0  -0.1907
  C  C197  1  0.117800  0.891580  0.036600  1.0  0.0045
  C  C198  1  0.926100  0.847790  0.619700  1.0  -0.0004
  C  C199  1  0.822800  0.854020  0.618800  1.0  -0.1786
  C  C200  1  0.790900  0.883920  0.661500  1.0  0.0766
  C  C201  1  0.866800  0.907040  0.706100  1.0  -0.1805
  C  C202  1  0.968200  0.900170  0.706400  1.0  0.0082
  C  C203  1  0.204000  0.877030  0.472600  1.0  0.0184
  C  C204  1  0.177600  0.880920  0.369000  1.0  -0.1654
  C  C205  1  0.200500  0.855130  0.302700  1.0  0.0669
  C  C206  1  0.251200  0.825750  0.347400  1.0  -0.1696
  C  C207  1  0.276800  0.822760  0.451400  1.0  0.0109
  C  C208  1  0.504700  0.872660  0.645900  1.0  0.0035
  C  C209  1  0.607500  0.865750  0.639700  1.0  -0.1689
  C  C210  1  0.681600  0.891170  0.663700  1.0  0.029
  C  C211  1  0.647600  0.923430  0.690900  1.0  -0.1977
  C  C212  1  0.547400  0.929430  0.698000  1.0  -0.0274
  C  C213  1  0.799300  0.520300  0.215200  1.0  -0.0119
  C  C214  1  0.862000  0.493780  0.256600  1.0  -0.1983
  C  C215  1  0.863300  0.482960  0.356000  1.0  0.0805
  C  C216  1  0.791600  0.498160  0.407500  1.0  -0.1797
  C  C217  1  0.727500  0.524610  0.363400  1.0  -0.006
  C  C218  1  0.783600  0.732260  0.203600  1.0  -0.0078
  C  C219  1  0.738800  0.757640  0.137200  1.0  -0.1954
  C  C220  1  0.632800  0.763470  0.126200  1.0  0.0667
  C  C221  1  0.577700  0.743140  0.182400  1.0  -0.1515
  C  C222  1  0.624300  0.717710  0.246600  1.0  0.0089
  C  C223  1  0.042200  0.435930  0.564300  1.0  0.0161
  C  C224  1  0.961000  0.454930  0.515700  1.0  -0.1645
  C  C225  1  0.943400  0.459250  0.410100  1.0  0.0758
  C  C226  1  0.010000  0.441410  0.356900  1.0  -0.2004
  C  C227  1  0.091100  0.422640  0.408500  1.0  0.0047
  C  C228  1  0.447100  0.830820  0.996300  1.0  -0.0241
  C  C229  1  0.493100  0.807350  0.067200  1.0  -0.1731
  C  C230  1  0.580500  0.789580  0.051600  1.0  0.072
  C  C231  1  0.619100  0.797100  0.962300  1.0  -0.178
  C  C232  1  0.569600  0.820440  0.892900  1.0  0.0092
  C  C233  1  0.670100  0.665570  0.521100  1.0  -0.0235
  C  C234  1  0.690000  0.669050  0.626700  1.0  -0.1856
  C  C235  1  0.674900  0.641420  0.689600  1.0  0.0401
  C  C236  1  0.636700  0.611070  0.641900  1.0  -0.1891
  C  C237  1  0.617800  0.608420  0.536600  1.0  0.0023
  C  C238  1  0.426100  0.652210  0.119700  1.0  -0.0003
  C  C239  1  0.322800  0.645980  0.118800  1.0  -0.1794
  C  C240  1  0.290900  0.616080  0.161500  1.0  0.0764
  C  C241  1  0.366800  0.592960  0.206100  1.0  -0.1807
  C  C242  1  0.468200  0.599830  0.206400  1.0  0.0077
  C  C243  1  0.704000  0.622970  0.972600  1.0  0.0193
  C  C244  1  0.677600  0.619080  0.869000  1.0  -0.1654
  C  C245  1  0.700500  0.644870  0.802700  1.0  0.0669
  C  C246  1  0.751200  0.674250  0.847400  1.0  -0.1694
  C  C247  1  0.776800  0.677240  0.951400  1.0  0.0122
  C  C248  1  0.004700  0.627340  0.145900  1.0  0.003
  C  C249  1  0.107500  0.634250  0.139700  1.0  -0.1688
  C  C250  1  0.181600  0.608830  0.163700  1.0  0.0288
  C  C251  1  0.147600  0.576570  0.190900  1.0  -0.198
  C  C252  1  0.047400  0.570570  0.198000  1.0  -0.0293
  C  C253  1  0.700700  0.020300  0.284800  1.0  -0.0143
  C  C254  1  0.638000  0.993780  0.243400  1.0  -0.1977
  C  C255  1  0.636700  0.982960  0.144000  1.0  0.0803
  C  C256  1  0.708400  0.998160  0.092500  1.0  -0.1804
  C  C257  1  0.772500  0.024610  0.136600  1.0  -0.0057
  C  C258  1  0.716400  0.232260  0.296400  1.0  -0.007
  C  C259  1  0.761200  0.257640  0.362800  1.0  -0.1972
  C  C260  1  0.867200  0.263470  0.373800  1.0  0.0675
  C  C261  1  0.922300  0.243140  0.317600  1.0  -0.1484
  C  C262  1  0.875700  0.217710  0.253400  1.0  0.0073
  C  C263  1  0.457800  0.935930  0.935700  1.0  0.0173
  C  C264  1  0.539000  0.954930  0.984300  1.0  -0.1644
  C  C265  1  0.556600  0.959250  0.089900  1.0  0.0751
  C  C266  1  0.490000  0.941410  0.143100  1.0  -0.2033
  C  C267  1  0.408900  0.922640  0.091500  1.0  0.0028
  C  C268  1  0.052900  0.330820  0.503700  1.0  -0.0241
  C  C269  1  0.006900  0.307350  0.432800  1.0  -0.174
  C  C270  1  0.919500  0.289580  0.448400  1.0  0.0727
  C  C271  1  0.880900  0.297100  0.537700  1.0  -0.1802
  C  C272  1  0.930400  0.320440  0.607100  1.0  0.0097
  C  C273  1  0.829900  0.165570  0.978900  1.0  -0.0252
  C  C274  1  0.810000  0.169050  0.873300  1.0  -0.186
  C  C275  1  0.825100  0.141420  0.810400  1.0  0.0378
  C  C276  1  0.863300  0.111070  0.858100  1.0  -0.1893
  C  C277  1  0.882200  0.108420  0.963400  1.0  0.0005
  C  C278  1  0.073900  0.152210  0.380300  1.0  -0.0012
  C  C279  1  0.177200  0.145980  0.381200  1.0  -0.1829
  C  C280  1  0.209100  0.116080  0.338500  1.0  0.0765
  C  C281  1  0.133200  0.092960  0.293900  1.0  -0.1802
  C  C282  1  0.031800  0.099830  0.293600  1.0  0.0074
  C  C283  1  0.796000  0.122970  0.527400  1.0  0.0187
  C  C284  1  0.822400  0.119080  0.631000  1.0  -0.1677
  C  C285  1  0.799500  0.144870  0.697300  1.0  0.0667
  C  C286  1  0.748800  0.174250  0.652600  1.0  -0.1708
  C  C287  1  0.723200  0.177240  0.548600  1.0  0.013
  C  C288  1  0.495300  0.127340  0.354100  1.0  0.0011
  C  C289  1  0.392500  0.134250  0.360300  1.0  -0.1702
  C  C290  1  0.318400  0.108830  0.336300  1.0  0.0286
  C  C291  1  0.352400  0.076570  0.309100  1.0  -0.1983
  C  C292  1  0.452600  0.070570  0.302000  1.0  -0.0289
  N  N293  1  0.263000  0.463770  0.731000  1.0  0.3036
  N  N294  1  0.274100  0.287290  0.743900  1.0  0.3168
  N  N295  1  0.892400  0.579530  0.488800  1.0  0.2887
  N  N296  1  0.514000  0.162900  0.088800  1.0  0.3138
  N  N297  1  0.364500  0.364700  0.521700  1.0  0.2943
  N  N298  1  0.503200  0.370980  0.837500  1.0  0.2744
  N  N299  1  0.246500  0.347820  0.987100  1.0  0.2499
  N  N300  1  0.022000  0.404010  0.823300  1.0  0.2376
  N  N301  1  0.237000  0.963770  0.769000  1.0  0.302
  N  N302  1  0.225900  0.787290  0.756100  1.0  0.3157
  N  N303  1  0.607600  0.079530  0.011200  1.0  0.2878
  N  N304  1  0.986000  0.662900  0.411200  1.0  0.3146
  N  N305  1  0.135500  0.864700  0.978300  1.0  0.2979
  N  N306  1  0.996800  0.870980  0.662500  1.0  0.2753
  N  N307  1  0.253500  0.847820  0.512900  1.0  0.2512
  N  N308  1  0.478000  0.904010  0.676700  1.0  0.2396
  N  N309  1  0.737000  0.536230  0.269000  1.0  0.3014
  N  N310  1  0.725900  0.712710  0.256100  1.0  0.3147
  N  N311  1  0.107600  0.420470  0.511200  1.0  0.2874
  N  N312  1  0.486000  0.837100  0.911200  1.0  0.3134
  N  N313  1  0.635500  0.635300  0.478300  1.0  0.2979
  N  N314  1  0.496800  0.629020  0.162500  1.0  0.2755
  N  N315  1  0.753500  0.652180  0.012900  1.0  0.2514
  N  N316  1  0.978000  0.595990  0.176700  1.0  0.2399
  N  N317  1  0.763000  0.036230  0.231000  1.0  0.3038
  N  N318  1  0.774100  0.212710  0.243900  1.0  0.3154
  N  N319  1  0.392400  0.920470  0.988800  1.0  0.2884
  N  N320  1  0.014000  0.337100  0.588800  1.0  0.3129
  N  N321  1  0.864500  0.135300  0.021700  1.0  0.2939
  N  N322  1  0.003200  0.129020  0.337500  1.0  0.2744
  N  N323  1  0.746500  0.152180  0.487100  1.0  0.25
  N  N324  1  0.522000  0.095990  0.323300  1.0  0.2391
  O  O325  1  0.314900  0.435330  0.767700  1.0  -0.6615
  O  O326  1  0.228200  0.312300  0.681900  1.0  -0.653
  O  O327  1  0.809400  0.595570  0.440900  1.0  -0.6466
  O  O328  1  0.557800  0.139420  0.156500  1.0  -0.6343
  O  O329  1  0.379200  0.367820  0.622900  1.0  -0.6492
  O  O330  1  0.404600  0.364640  0.840200  1.0  -0.687
  O  O331  1  0.219300  0.343390  0.886300  1.0  -0.6032
  O  O332  1  0.118800  0.410620  0.810800  1.0  -0.6083
  O  O333  1  0.185100  0.935330  0.732300  1.0  -0.6607
  O  O334  1  0.271800  0.812300  0.818100  1.0  -0.652
  O  O335  1  0.690600  0.095570  0.059100  1.0  -0.6483
  O  O336  1  0.942200  0.639420  0.343500  1.0  -0.6343
  O  O337  1  0.120800  0.867820  0.877100  1.0  -0.6486
  O  O338  1  0.095400  0.864640  0.659800  1.0  -0.6883
  O  O339  1  0.280700  0.843390  0.613700  1.0  -0.6006
  O  O340  1  0.381200  0.910620  0.689200  1.0  -0.6074
  O  O341  1  0.685100  0.564670  0.232300  1.0  -0.659
  O  O342  1  0.771800  0.687700  0.318100  1.0  -0.6532
  O  O343  1  0.190600  0.404430  0.559100  1.0  -0.6482
  O  O344  1  0.442200  0.860580  0.843500  1.0  -0.6339
  O  O345  1  0.620800  0.632180  0.377100  1.0  -0.6485
  O  O346  1  0.595400  0.635360  0.159800  1.0  -0.6884
  O  O347  1  0.780700  0.656610  0.113700  1.0  -0.6009
  O  O348  1  0.881200  0.589380  0.189200  1.0  -0.6084
  O  O349  1  0.814900  0.064670  0.267700  1.0  -0.6593
  O  O350  1  0.728200  0.187700  0.181900  1.0  -0.6535
  O  O351  1  0.309400  0.904430  0.940900  1.0  -0.6469
  O  O352  1  0.057800  0.360580  0.656500  1.0  -0.6332
  O  O353  1  0.879200  0.132180  0.122900  1.0  -0.6491
  O  O354  1  0.904600  0.135360  0.340200  1.0  -0.6872
  O  O355  1  0.719300  0.156610  0.386300  1.0  -0.6035
  O  O356  1  0.618800  0.089380  0.310800  1.0  -0.6087
