# generated using pymatgen
data_LaH32C40(NO)8
_symmetry_space_group_name_H-M   'P 1'
_cell_length_a   17.57050000
_cell_length_b   18.57100000
_cell_length_c   13.33550000
_cell_angle_alpha   90.00000000
_cell_angle_beta   90.00000000
_cell_angle_gamma   90.00000000
_symmetry_Int_Tables_number   1
_chemical_formula_structural   LaH32C40(NO)8
_chemical_formula_sum   'La2 H64 C80 N16 O16'
_cell_volume   4351.39706047
_cell_formula_units_Z   2
loop_
 _symmetry_equiv_pos_site_id
 _symmetry_equiv_pos_as_xyz
  1  'x, y, z'
loop_
 _atom_site_type_symbol
 _atom_site_label
 _atom_site_symmetry_multiplicity
 _atom_site_fract_x
 _atom_site_fract_y
 _atom_site_fract_z
 _atom_site_occupancy
 _atom_site_charge
  La  La1  1  0.000000  0.000000  0.046480  1.0  2.0668
  La  La2  1  0.500000  0.500000  0.953520  1.0  2.0665
  H  H3  1  0.268800  0.013400  0.074500  1.0  0.1068
  H  H4  1  0.363900  0.928900  0.053500  1.0  0.0924
  H  H5  1  0.206700  0.771500  0.078600  1.0  0.1067
  H  H6  1  0.116000  0.858700  0.108000  1.0  0.0812
  H  H7  1  0.031300  0.755800  0.912300  1.0  0.0966
  H  H8  1  0.944400  0.664400  0.888600  1.0  0.0972
  H  H9  1  0.286100  0.714800  0.973500  1.0  0.096
  H  H10  1  0.875200  0.875400  0.048500  1.0  0.0841
  H  H11  1  0.002600  0.899700  0.816800  1.0  0.0872
  H  H12  1  0.011600  0.873500  0.648300  1.0  0.0968
  H  H13  1  0.821800  0.991200  0.598400  1.0  0.0977
  H  H14  1  0.815500  0.015800  0.768700  1.0  0.1023
  H  H15  1  0.972900  0.170100  0.327800  1.0  0.1067
  H  H16  1  0.999400  0.164500  0.497600  1.0  0.0942
  H  H17  1  0.863000  0.005500  0.446700  1.0  0.093
  H  H18  1  0.109500  0.003200  0.277000  1.0  0.0891
  H  H19  1  0.731200  0.986600  0.074500  1.0  0.1066
  H  H20  1  0.636100  0.071100  0.053500  1.0  0.0923
  H  H21  1  0.793300  0.228500  0.078600  1.0  0.1061
  H  H22  1  0.884000  0.141300  0.108000  1.0  0.0811
  H  H23  1  0.968700  0.244200  0.912300  1.0  0.0972
  H  H24  1  0.055600  0.335600  0.888600  1.0  0.0976
  H  H25  1  0.713900  0.285200  0.973500  1.0  0.0964
  H  H26  1  0.124800  0.124600  0.048500  1.0  0.083
  H  H27  1  0.997400  0.100300  0.816800  1.0  0.0866
  H  H28  1  0.988400  0.126500  0.648300  1.0  0.0971
  H  H29  1  0.178200  0.008800  0.598400  1.0  0.0971
  H  H30  1  0.184500  0.984200  0.768700  1.0  0.1026
  H  H31  1  0.027100  0.829900  0.327800  1.0  0.1054
  H  H32  1  0.000600  0.835500  0.497600  1.0  0.094
  H  H33  1  0.137000  0.994500  0.446700  1.0  0.0923
  H  H34  1  0.890500  0.996800  0.277000  1.0  0.0888
  H  H35  1  0.231200  0.513400  0.925500  1.0  0.1071
  H  H36  1  0.136100  0.428900  0.946500  1.0  0.092
  H  H37  1  0.293300  0.271500  0.921400  1.0  0.1069
  H  H38  1  0.384000  0.358700  0.892000  1.0  0.0812
  H  H39  1  0.468700  0.255800  0.087700  1.0  0.098
  H  H40  1  0.555600  0.164400  0.111400  1.0  0.097
  H  H41  1  0.213900  0.214800  0.026500  1.0  0.0964
  H  H42  1  0.624800  0.375400  0.951500  1.0  0.0819
  H  H43  1  0.497400  0.399700  0.183200  1.0  0.0862
  H  H44  1  0.488400  0.373500  0.351700  1.0  0.0963
  H  H45  1  0.678200  0.491200  0.401600  1.0  0.0971
  H  H46  1  0.684500  0.515800  0.231300  1.0  0.103
  H  H47  1  0.527100  0.670100  0.672200  1.0  0.106
  H  H48  1  0.500600  0.664500  0.502400  1.0  0.0948
  H  H49  1  0.637000  0.505500  0.553300  1.0  0.0926
  H  H50  1  0.390500  0.503200  0.723000  1.0  0.0888
  H  H51  1  0.768800  0.486600  0.925500  1.0  0.1066
  H  H52  1  0.863900  0.571100  0.946500  1.0  0.0922
  H  H53  1  0.706700  0.728500  0.921400  1.0  0.1064
  H  H54  1  0.616000  0.641300  0.892000  1.0  0.0806
  H  H55  1  0.531300  0.744200  0.087700  1.0  0.0969
  H  H56  1  0.444400  0.835600  0.111400  1.0  0.0972
  H  H57  1  0.786100  0.785200  0.026500  1.0  0.0963
  H  H58  1  0.375200  0.624600  0.951500  1.0  0.0824
  H  H59  1  0.502600  0.600300  0.183200  1.0  0.0869
  H  H60  1  0.511600  0.626500  0.351700  1.0  0.0967
  H  H61  1  0.321800  0.508800  0.401600  1.0  0.0974
  H  H62  1  0.315500  0.484200  0.231300  1.0  0.1024
  H  H63  1  0.472900  0.329900  0.672200  1.0  0.1052
  H  H64  1  0.499400  0.335500  0.502400  1.0  0.0933
  H  H65  1  0.363000  0.494500  0.553300  1.0  0.0928
  H  H66  1  0.609500  0.496800  0.723000  1.0  0.0897
  C  C67  1  0.256800  0.963600  0.076200  1.0  -0.013
  C  C68  1  0.312800  0.913400  0.062600  1.0  -0.1754
  C  C69  1  0.296600  0.841000  0.061900  1.0  0.0943
  C  C70  1  0.220700  0.821000  0.078600  1.0  -0.21
  C  C71  1  0.167000  0.872700  0.094700  1.0  -0.0024
  C  C72  1  0.980600  0.761700  0.935500  1.0  0.0073
  C  C73  1  0.929000  0.707700  0.920800  1.0  -0.1979
  C  C74  1  0.354200  0.784400  0.047300  1.0  0.0973
  C  C75  1  0.336300  0.721400  0.998400  1.0  -0.1692
  C  C76  1  0.889100  0.832000  0.015400  1.0  0.016
  C  C77  1  0.966700  0.919700  0.771400  1.0  0.0089
  C  C78  1  0.972100  0.904200  0.671300  1.0  -0.1632
  C  C79  1  0.920500  0.932700  0.602600  1.0  0.0622
  C  C80  1  0.860400  0.973400  0.641900  1.0  -0.2013
  C  C81  1  0.856500  0.988000  0.743100  1.0  -0.0149
  C  C82  1  0.005600  0.133430  0.352700  1.0  0.0063
  C  C83  1  0.021200  0.129900  0.453700  1.0  -0.1944
  C  C84  1  0.931100  0.923800  0.493000  1.0  0.0869
  C  C85  1  0.897800  0.969800  0.424100  1.0  -0.1652
  C  C86  1  0.085900  0.035200  0.323100  1.0  0.0116
  C  C87  1  0.743200  0.036400  0.076200  1.0  -0.0151
  C  C88  1  0.687200  0.086600  0.062600  1.0  -0.1775
  C  C89  1  0.703400  0.159000  0.061900  1.0  0.0941
  C  C90  1  0.779300  0.179000  0.078600  1.0  -0.2095
  C  C91  1  0.833000  0.127300  0.094700  1.0  -0.0021
  C  C92  1  0.019400  0.238300  0.935500  1.0  0.0109
  C  C93  1  0.071000  0.292300  0.920800  1.0  -0.1981
  C  C94  1  0.645800  0.215600  0.047300  1.0  0.0968
  C  C95  1  0.663700  0.278600  0.998400  1.0  -0.1691
  C  C96  1  0.110900  0.168000  0.015400  1.0  0.0175
  C  C97  1  0.033300  0.080300  0.771400  1.0  0.0088
  C  C98  1  0.027900  0.095800  0.671300  1.0  -0.1639
  C  C99  1  0.079500  0.067300  0.602600  1.0  0.0625
  C  C100  1  0.139600  0.026600  0.641900  1.0  -0.202
  C  C101  1  0.143500  0.012000  0.743100  1.0  -0.0185
  C  C102  1  0.994400  0.866570  0.352700  1.0  0.0035
  C  C103  1  0.978800  0.870100  0.453700  1.0  -0.1983
  C  C104  1  0.068900  0.076200  0.493000  1.0  0.0853
  C  C105  1  0.102200  0.030200  0.424100  1.0  -0.1637
  C  C106  1  0.914100  0.964800  0.323100  1.0  0.0101
  C  C107  1  0.243200  0.463600  0.923800  1.0  -0.014
  C  C108  1  0.187200  0.413400  0.937400  1.0  -0.1777
  C  C109  1  0.203400  0.341000  0.938100  1.0  0.094
  C  C110  1  0.279300  0.321000  0.921400  1.0  -0.2096
  C  C111  1  0.333000  0.372700  0.905300  1.0  -0.0026
  C  C112  1  0.519400  0.261700  0.064500  1.0  0.0094
  C  C113  1  0.571000  0.207700  0.079200  1.0  -0.197
  C  C114  1  0.145800  0.284400  0.952700  1.0  0.0973
  C  C115  1  0.163700  0.221400  0.001600  1.0  -0.1687
  C  C116  1  0.610900  0.332000  0.984600  1.0  0.017
  C  C117  1  0.533300  0.419700  0.228600  1.0  0.0089
  C  C118  1  0.527900  0.404200  0.328700  1.0  -0.1626
  C  C119  1  0.579500  0.432700  0.397400  1.0  0.0615
  C  C120  1  0.639600  0.473400  0.358100  1.0  -0.2019
  C  C121  1  0.643500  0.488000  0.256900  1.0  -0.0193
  C  C122  1  0.494400  0.633430  0.647300  1.0  0.0077
  C  C123  1  0.478800  0.629900  0.546300  1.0  -0.1938
  C  C124  1  0.568900  0.423800  0.507000  1.0  0.0872
  C  C125  1  0.602200  0.469800  0.575900  1.0  -0.1622
  C  C126  1  0.414100  0.535200  0.676900  1.0  0.0112
  C  C127  1  0.756800  0.536400  0.923800  1.0  -0.0146
  C  C128  1  0.812800  0.586600  0.937400  1.0  -0.1759
  C  C129  1  0.796600  0.659000  0.938100  1.0  0.0946
  C  C130  1  0.720700  0.679000  0.921400  1.0  -0.2102
  C  C131  1  0.667000  0.627300  0.905300  1.0  -0.0021
  C  C132  1  0.480600  0.738300  0.064500  1.0  0.0078
  C  C133  1  0.429000  0.792300  0.079200  1.0  -0.198
  C  C134  1  0.854200  0.715600  0.952700  1.0  0.0968
  C  C135  1  0.836300  0.778600  0.001600  1.0  -0.1701
  C  C136  1  0.389100  0.668000  0.984600  1.0  0.0174
  C  C137  1  0.466700  0.580300  0.228600  1.0  0.0083
  C  C138  1  0.472100  0.595800  0.328700  1.0  -0.1639
  C  C139  1  0.420500  0.567300  0.397400  1.0  0.0626
  C  C140  1  0.360400  0.526600  0.358100  1.0  -0.2016
  C  C141  1  0.356500  0.512000  0.256900  1.0  -0.0152
  C  C142  1  0.505600  0.366570  0.647300  1.0  0.0045
  C  C143  1  0.521200  0.370100  0.546300  1.0  -0.1972
  C  C144  1  0.431100  0.576200  0.507000  1.0  0.0866
  C  C145  1  0.397800  0.530200  0.575900  1.0  -0.1653
  C  C146  1  0.585900  0.464800  0.676900  1.0  0.0114
  N  N147  1  0.184540  0.942260  0.092200  1.0  0.2823
  N  N148  1  0.960810  0.822920  0.981900  1.0  0.2299
  N  N149  1  0.910700  0.963090  0.806500  1.0  0.328
  N  N150  1  0.036020  0.085580  0.289300  1.0  0.3123
  N  N151  1  0.815460  0.057740  0.092200  1.0  0.2836
  N  N152  1  0.039190  0.177080  0.981900  1.0  0.2301
  N  N153  1  0.089300  0.036910  0.806500  1.0  0.3273
  N  N154  1  0.963980  0.914420  0.289300  1.0  0.3125
  N  N155  1  0.315460  0.442260  0.907800  1.0  0.283
  N  N156  1  0.539190  0.322920  0.018100  1.0  0.2299
  N  N157  1  0.589300  0.463090  0.193500  1.0  0.3266
  N  N158  1  0.463980  0.585580  0.710700  1.0  0.3118
  N  N159  1  0.684540  0.557740  0.907800  1.0  0.2826
  N  N160  1  0.460810  0.677080  0.018100  1.0  0.2279
  N  N161  1  0.410700  0.536910  0.193500  1.0  0.3276
  N  N162  1  0.536020  0.414420  0.710700  1.0  0.3107
  O  O163  1  0.131340  0.992280  0.108830  1.0  -0.6206
  O  O164  1  0.012380  0.874610  0.992660  1.0  -0.6219
  O  O165  1  0.908490  0.983400  0.901300  1.0  -0.6691
  O  O166  1  0.015950  0.086920  0.193800  1.0  -0.6755
  O  O167  1  0.868660  0.007720  0.108830  1.0  -0.6238
  O  O168  1  0.987620  0.125390  0.992660  1.0  -0.6214
  O  O169  1  0.091510  0.016600  0.901300  1.0  -0.6707
  O  O170  1  0.984050  0.913080  0.193800  1.0  -0.6758
  O  O171  1  0.368660  0.492280  0.891170  1.0  -0.6247
  O  O172  1  0.487620  0.374610  0.007340  1.0  -0.621
  O  O173  1  0.591510  0.483400  0.098700  1.0  -0.6683
  O  O174  1  0.484050  0.586920  0.806200  1.0  -0.6754
  O  O175  1  0.631340  0.507720  0.891170  1.0  -0.6206
  O  O176  1  0.512380  0.625390  0.007340  1.0  -0.6224
  O  O177  1  0.408490  0.516600  0.098700  1.0  -0.668
  O  O178  1  0.515950  0.413080  0.806200  1.0  -0.6768
