# generated using pymatgen
data_Zn7(PO4)6
_symmetry_space_group_name_H-M   'P 1'
_cell_length_a   13.60860000
_cell_length_b   13.60860000
_cell_length_c   15.27770000
_cell_angle_alpha   90.00000000
_cell_angle_beta   90.00000000
_cell_angle_gamma   120.00000000
_symmetry_Int_Tables_number   1
_chemical_formula_structural   Zn7(PO4)6
_chemical_formula_sum   'Zn21 P18 O72'
_cell_volume   2450.27882770
_cell_formula_units_Z   3
loop_
 _symmetry_equiv_pos_site_id
 _symmetry_equiv_pos_as_xyz
  1  'x, y, z'
loop_
 _atom_site_type_symbol
 _atom_site_label
 _atom_site_symmetry_multiplicity
 _atom_site_fract_x
 _atom_site_fract_y
 _atom_site_fract_z
 _atom_site_occupancy
 _atom_site_charge
  Zn  Zn1  1  0.971960  0.215470  0.089910  1.0  1.2205
  Zn  Zn2  1  0.638630  0.548800  0.423240  1.0  1.221
  Zn  Zn3  1  0.305290  0.882140  0.756580  1.0  1.2205
  Zn  Zn4  1  0.784530  0.756490  0.089910  1.0  1.2196
  Zn  Zn5  1  0.451200  0.089820  0.423240  1.0  1.2197
  Zn  Zn6  1  0.117860  0.423160  0.756580  1.0  1.2196
  Zn  Zn7  1  0.243510  0.028040  0.089910  1.0  1.2191
  Zn  Zn8  1  0.910180  0.361370  0.423240  1.0  1.2193
  Zn  Zn9  1  0.576840  0.694710  0.756580  1.0  1.2191
  Zn  Zn10  1  0.028040  0.784530  0.910090  1.0  1.2193
  Zn  Zn11  1  0.694710  0.117860  0.243420  1.0  1.2193
  Zn  Zn12  1  0.361370  0.451200  0.576760  1.0  1.2198
  Zn  Zn13  1  0.215470  0.243510  0.910090  1.0  1.22
  Zn  Zn14  1  0.882140  0.576840  0.243420  1.0  1.22
  Zn  Zn15  1  0.548800  0.910180  0.576760  1.0  1.2201
  Zn  Zn16  1  0.756490  0.971960  0.910090  1.0  1.2192
  Zn  Zn17  1  0.423160  0.305290  0.243420  1.0  1.2192
  Zn  Zn18  1  0.089820  0.638630  0.576760  1.0  1.2194
  Zn  Zn19  1  0.000000  0.000000  0.000000  1.0  0.9303
  Zn  Zn20  1  0.666667  0.333333  0.333333  1.0  0.9111
  Zn  Zn21  1  0.333333  0.666667  0.666667  1.0  0.9097
  P  P22  1  0.773250  0.979870  0.106480  1.0  1.766
  P  P23  1  0.439920  0.313200  0.439810  1.0  1.766
  P  P24  1  0.106580  0.646540  0.773150  1.0  1.766
  P  P25  1  0.020130  0.793380  0.106480  1.0  1.7779
  P  P26  1  0.686800  0.126710  0.439810  1.0  1.7778
  P  P27  1  0.353460  0.460050  0.773150  1.0  1.7779
  P  P28  1  0.206620  0.226750  0.106480  1.0  1.7774
  P  P29  1  0.873290  0.560080  0.439810  1.0  1.7774
  P  P30  1  0.539950  0.893420  0.773150  1.0  1.7774
  P  P31  1  0.226750  0.020130  0.893520  1.0  1.7787
  P  P32  1  0.893420  0.353460  0.226850  1.0  1.7787
  P  P33  1  0.560080  0.686800  0.560190  1.0  1.7787
  P  P34  1  0.979870  0.206620  0.893520  1.0  1.7679
  P  P35  1  0.646540  0.539950  0.226850  1.0  1.7679
  P  P36  1  0.313200  0.873290  0.560190  1.0  1.7679
  P  P37  1  0.793380  0.773250  0.893520  1.0  1.7773
  P  P38  1  0.460050  0.106580  0.226850  1.0  1.7773
  P  P39  1  0.126710  0.439920  0.560190  1.0  1.7773
  O  O40  1  0.705300  0.615600  0.149000  1.0  -0.7952
  O  O41  1  0.117800  0.256700  0.136400  1.0  -0.7122
  O  O42  1  0.975700  0.273300  0.971900  1.0  -0.7202
  O  O43  1  0.900200  0.047200  0.079000  1.0  -0.9353
  O  O44  1  0.371970  0.948930  0.482330  1.0  -0.7919
  O  O45  1  0.784470  0.590030  0.469730  1.0  -0.7122
  O  O46  1  0.642370  0.606630  0.305230  1.0  -0.7203
  O  O47  1  0.566870  0.380530  0.412330  1.0  -0.9231
  O  O48  1  0.038630  0.282270  0.815670  1.0  -0.7952
  O  O49  1  0.451130  0.923370  0.803070  1.0  -0.7122
  O  O50  1  0.309030  0.939970  0.638570  1.0  -0.7202
  O  O51  1  0.233530  0.713870  0.745670  1.0  -0.9353
  O  O52  1  0.384400  0.089700  0.149000  1.0  -0.7973
  O  O53  1  0.743300  0.861100  0.136400  1.0  -0.6871
  O  O54  1  0.726700  0.702400  0.971900  1.0  -0.7189
  O  O55  1  0.952800  0.853000  0.079000  1.0  -0.9297
  O  O56  1  0.051070  0.423030  0.482330  1.0  -0.7926
  O  O57  1  0.409970  0.194430  0.469730  1.0  -0.713
  O  O58  1  0.393370  0.035730  0.305230  1.0  -0.7189
  O  O59  1  0.619470  0.186330  0.412330  1.0  -0.9343
  O  O60  1  0.717730  0.756370  0.815670  1.0  -0.7973
  O  O61  1  0.076630  0.527770  0.803070  1.0  -0.6871
  O  O62  1  0.060030  0.369070  0.638570  1.0  -0.7189
  O  O63  1  0.286130  0.519670  0.745670  1.0  -0.9297
  O  O64  1  0.910300  0.294700  0.149000  1.0  -0.7928
  O  O65  1  0.138900  0.882200  0.136400  1.0  -0.7139
  O  O66  1  0.297600  0.024300  0.971900  1.0  -0.7173
  O  O67  1  0.147000  0.099800  0.079000  1.0  -0.919
  O  O68  1  0.576970  0.628030  0.482330  1.0  -0.7934
  O  O69  1  0.805570  0.215530  0.469730  1.0  -0.6949
  O  O70  1  0.964270  0.357630  0.305230  1.0  -0.7173
  O  O71  1  0.813670  0.433130  0.412330  1.0  -0.9368
  O  O72  1  0.243630  0.961370  0.815670  1.0  -0.7928
  O  O73  1  0.472230  0.548870  0.803070  1.0  -0.714
  O  O74  1  0.630930  0.690970  0.638570  1.0  -0.7173
  O  O75  1  0.480330  0.766470  0.745670  1.0  -0.919
  O  O76  1  0.294700  0.384400  0.851000  1.0  -0.7945
  O  O77  1  0.882200  0.743300  0.863600  1.0  -0.7136
  O  O78  1  0.024300  0.726700  0.028100  1.0  -0.7194
  O  O79  1  0.099800  0.952800  0.921000  1.0  -0.9336
  O  O80  1  0.961370  0.717730  0.184330  1.0  -0.7945
  O  O81  1  0.548870  0.076630  0.196930  1.0  -0.7139
  O  O82  1  0.690970  0.060030  0.361430  1.0  -0.7194
  O  O83  1  0.766470  0.286130  0.254330  1.0  -0.9336
  O  O84  1  0.628030  0.051070  0.517670  1.0  -0.7917
  O  O85  1  0.215530  0.409970  0.530270  1.0  -0.7139
  O  O86  1  0.357630  0.393370  0.694770  1.0  -0.7194
  O  O87  1  0.433130  0.619470  0.587670  1.0  -0.9219
  O  O88  1  0.615600  0.910300  0.851000  1.0  -0.7973
  O  O89  1  0.256700  0.138900  0.863600  1.0  -0.6881
  O  O90  1  0.273300  0.297600  0.028100  1.0  -0.7178
  O  O91  1  0.047200  0.147000  0.921000  1.0  -0.9309
  O  O92  1  0.282270  0.243630  0.184330  1.0  -0.7973
  O  O93  1  0.923370  0.472230  0.196930  1.0  -0.688
  O  O94  1  0.939970  0.630930  0.361430  1.0  -0.7178
  O  O95  1  0.713870  0.480330  0.254330  1.0  -0.9309
  O  O96  1  0.948930  0.576970  0.517670  1.0  -0.7931
  O  O97  1  0.590030  0.805570  0.530270  1.0  -0.7128
  O  O98  1  0.606630  0.964270  0.694770  1.0  -0.7178
  O  O99  1  0.380530  0.813670  0.587670  1.0  -0.9357
  O  O100  1  0.089700  0.705300  0.851000  1.0  -0.7924
  O  O101  1  0.861100  0.117800  0.863600  1.0  -0.7133
  O  O102  1  0.702400  0.975700  0.028100  1.0  -0.7146
  O  O103  1  0.853000  0.900200  0.921000  1.0  -0.9189
  O  O104  1  0.756370  0.038630  0.184330  1.0  -0.7924
  O  O105  1  0.527770  0.451130  0.196930  1.0  -0.7133
  O  O106  1  0.369070  0.309030  0.361430  1.0  -0.7146
  O  O107  1  0.519670  0.233530  0.254330  1.0  -0.9189
  O  O108  1  0.423030  0.371970  0.517670  1.0  -0.7926
  O  O109  1  0.194430  0.784470  0.530270  1.0  -0.6965
  O  O110  1  0.035730  0.642370  0.694770  1.0  -0.7146
  O  O111  1  0.186330  0.566870  0.587670  1.0  -0.9364
