# generated using pymatgen
data_ZnH39C36Br2(N2O)3
_symmetry_space_group_name_H-M   'P 1'
_cell_length_a   13.37140000
_cell_length_b   13.37140000
_cell_length_c   41.42270000
_cell_angle_alpha   90.00000000
_cell_angle_beta   90.00000000
_cell_angle_gamma   120.00000000
_symmetry_Int_Tables_number   1
_chemical_formula_structural   ZnH39C36Br2(N2O)3
_chemical_formula_sum   'Zn6 H234 C216 Br12 N36 O18'
_cell_volume   6413.90904122
_cell_formula_units_Z   6
loop_
 _symmetry_equiv_pos_site_id
 _symmetry_equiv_pos_as_xyz
  1  'x, y, z'
loop_
 _atom_site_type_symbol
 _atom_site_label
 _atom_site_symmetry_multiplicity
 _atom_site_fract_x
 _atom_site_fract_y
 _atom_site_fract_z
 _atom_site_occupancy
 _atom_site_charge
  Zn  Zn1  1  0.358360  0.665740  0.250500  1.0  0.9053
  Zn  Zn2  1  0.307380  0.641640  0.917170  1.0  0.9049
  Zn  Zn3  1  0.334260  0.692620  0.583830  1.0  0.9052
  Zn  Zn4  1  0.692620  0.334260  0.749500  1.0  0.9047
  Zn  Zn5  1  0.665740  0.358360  0.082830  1.0  0.9049
  Zn  Zn6  1  0.641640  0.307380  0.416170  1.0  0.9067
  H  H7  1  0.224400  0.475400  0.225000  1.0  0.2945
  H  H8  1  0.339000  0.480300  0.227400  1.0  0.3281
  H  H9  1  0.355900  0.491900  0.178000  1.0  0.0933
  H  H10  1  0.462000  0.646000  0.138900  1.0  0.2213
  H  H11  1  0.580100  0.737900  0.101000  1.0  0.1204
  H  H12  1  0.706400  0.912900  0.075900  1.0  0.1128
  H  H13  1  0.680600  0.085800  0.152100  1.0  0.1038
  H  H14  1  0.556600  0.911100  0.177700  1.0  0.1055
  H  H15  1  0.844200  0.117400  0.087200  1.0  0.1319
  H  H16  1  0.912900  0.300700  0.062500  1.0  0.0764
  H  H17  1  0.869000  0.459000  0.059300  1.0  0.2485
  H  H18  1  0.794000  0.357000  0.041100  1.0  0.2222
  H  H19  1  0.199700  0.581800  0.176800  1.0  0.1027
  H  H20  1  0.246400  0.549300  0.145200  1.0  0.0888
  H  H21  1  0.020400  0.439700  0.198000  1.0  0.1077
  H  H22  1  0.867700  0.249900  0.200000  1.0  0.0907
  H  H23  1  0.881800  0.103700  0.174800  1.0  0.1046
  H  H24  1  0.047700  0.145000  0.146000  1.0  0.112
  H  H25  1  0.200900  0.334100  0.143400  1.0  0.1036
  H  H26  1  0.899400  0.409900  0.121400  1.0  0.0846
  H  H27  1  0.973800  0.347000  0.117700  1.0  0.0895
  H  H28  1  0.153600  0.439600  0.086200  1.0  0.1092
  H  H29  1  0.313300  0.612800  0.069800  1.0  0.1025
  H  H30  1  0.301600  0.781200  0.067300  1.0  0.1023
  H  H31  1  0.130100  0.775900  0.080500  1.0  0.1098
  H  H32  1  0.972400  0.603700  0.099700  1.0  0.1066
  H  H33  1  0.531000  0.708000  0.286800  1.0  0.3084
  H  H34  1  0.527000  0.627100  0.262600  1.0  0.3233
  H  H35  1  0.428400  0.477400  0.290600  1.0  0.0923
  H  H36  1  0.275000  0.385200  0.331400  1.0  0.2322
  H  H37  1  0.099900  0.209900  0.329700  1.0  0.117
  H  H38  1  0.099800  0.509900  0.329500  1.0  0.098
  H  H39  1  0.511700  0.649800  0.340500  1.0  0.1009
  H  H40  1  0.456100  0.514900  0.348100  1.0  0.0996
  H  H41  1  0.713400  0.749000  0.344300  1.0  0.1115
  H  H42  1  0.893500  0.759500  0.339700  1.0  0.1056
  H  H43  1  0.905100  0.603700  0.319900  1.0  0.0993
  H  H44  1  0.738300  0.435400  0.304200  1.0  0.0961
  H  H45  1  0.558500  0.424300  0.307800  1.0  0.1069
  H  H46  1  0.251000  0.775600  0.891670  1.0  0.2938
  H  H47  1  0.141300  0.661000  0.894070  1.0  0.3281
  H  H48  1  0.136000  0.644100  0.844670  1.0  0.0932
  H  H49  1  0.184000  0.538000  0.805570  1.0  0.2197
  H  H50  1  0.157800  0.419900  0.767670  1.0  0.1198
  H  H51  1  0.206500  0.293600  0.742570  1.0  0.1122
  H  H52  1  0.405200  0.319400  0.818770  1.0  0.1049
  H  H53  1  0.354500  0.443400  0.844370  1.0  0.1053
  H  H54  1  0.273200  0.155800  0.753870  1.0  0.1328
  H  H55  1  0.387800  0.087100  0.729170  1.0  0.0756
  H  H56  1  0.590000  0.131000  0.725970  1.0  0.2506
  H  H57  1  0.563000  0.206000  0.707770  1.0  0.223
  H  H58  1  0.382100  0.800300  0.843470  1.0  0.0994
  H  H59  1  0.302900  0.753600  0.811870  1.0  0.0882
  H  H60  1  0.419300  0.979600  0.864670  1.0  0.1082
  H  H61  1  0.382200  0.132300  0.866670  1.0  0.0914
  H  H62  1  0.221900  0.118200  0.841470  1.0  0.105
  H  H63  1  0.097300  0.952300  0.812670  1.0  0.1119
  H  H64  1  0.133200  0.799100  0.810070  1.0  0.1034
  H  H65  1  0.510500  0.100600  0.788070  1.0  0.0837
  H  H66  1  0.373200  0.026200  0.784370  1.0  0.0899
  H  H67  1  0.286000  0.846400  0.752870  1.0  0.1082
  H  H68  1  0.299500  0.686700  0.736470  1.0  0.1026
  H  H69  1  0.479600  0.698400  0.733970  1.0  0.1018
  H  H70  1  0.645800  0.869900  0.747170  1.0  0.1088
  H  H71  1  0.631300  0.027600  0.766370  1.0  0.1032
  H  H72  1  0.177000  0.469000  0.953470  1.0  0.307
  H  H73  1  0.100100  0.473000  0.929270  1.0  0.3236
  H  H74  1  0.049000  0.571600  0.957270  1.0  0.0907
  H  H75  1  0.110200  0.725000  0.998070  1.0  0.2313
  H  H76  1  0.110000  0.900100  0.996370  1.0  0.1163
  H  H77  1  0.410100  0.900200  0.996170  1.0  0.0985
  H  H78  1  0.138100  0.488300  0.007170  1.0  0.1002
  H  H79  1  0.058800  0.543900  0.014770  1.0  0.0988
  H  H80  1  0.035600  0.286600  0.010970  1.0  0.1117
  H  H81  1  0.866000  0.106500  0.006370  1.0  0.1049
  H  H82  1  0.698600  0.094900  0.986570  1.0  0.0985
  H  H83  1  0.697100  0.261700  0.970870  1.0  0.0958
  H  H84  1  0.865800  0.441500  0.974470  1.0  0.1065
  H  H85  1  0.524600  0.749000  0.558330  1.0  0.2941
  H  H86  1  0.519700  0.858700  0.560730  1.0  0.3232
  H  H87  1  0.508100  0.864000  0.511330  1.0  0.0895
  H  H88  1  0.354000  0.816000  0.472230  1.0  0.2213
  H  H89  1  0.262100  0.842200  0.434330  1.0  0.1204
  H  H90  1  0.087100  0.793500  0.409230  1.0  0.1128
  H  H91  1  0.914200  0.594800  0.485430  1.0  0.1049
  H  H92  1  0.088900  0.645500  0.511030  1.0  0.1036
  H  H93  1  0.882600  0.726800  0.420530  1.0  0.1318
  H  H94  1  0.699300  0.612200  0.395830  1.0  0.0757
  H  H95  1  0.541000  0.410000  0.392630  1.0  0.2497
  H  H96  1  0.643000  0.437000  0.374430  1.0  0.2229
  H  H97  1  0.418200  0.617900  0.510130  1.0  0.1024
  H  H98  1  0.450700  0.697100  0.478530  1.0  0.0893
  H  H99  1  0.560300  0.580700  0.531330  1.0  0.1076
  H  H100  1  0.750100  0.617800  0.533330  1.0  0.0918
  H  H101  1  0.896300  0.778100  0.508130  1.0  0.1048
  H  H102  1  0.855000  0.902700  0.479330  1.0  0.1119
  H  H103  1  0.665900  0.866800  0.476730  1.0  0.1043
  H  H104  1  0.590100  0.489500  0.454730  1.0  0.0842
  H  H105  1  0.653000  0.626800  0.451030  1.0  0.0881
  H  H106  1  0.560400  0.714000  0.419530  1.0  0.1101
  H  H107  1  0.387200  0.700500  0.403130  1.0  0.1028
  H  H108  1  0.218800  0.520400  0.400630  1.0  0.1012
  H  H109  1  0.224100  0.354200  0.413830  1.0  0.1109
  H  H110  1  0.396300  0.368700  0.433030  1.0  0.103
  H  H111  1  0.292000  0.823000  0.620130  1.0  0.3102
  H  H112  1  0.372900  0.899900  0.595930  1.0  0.3251
  H  H113  1  0.522600  0.951000  0.623930  1.0  0.0931
  H  H114  1  0.614800  0.889800  0.664730  1.0  0.2317
  H  H115  1  0.790100  0.890000  0.663030  1.0  0.1159
  H  H116  1  0.490100  0.589900  0.662830  1.0  0.0975
  H  H117  1  0.350200  0.861900  0.673830  1.0  0.1026
  H  H118  1  0.485100  0.941200  0.681430  1.0  0.0997
  H  H119  1  0.251000  0.964400  0.677630  1.0  0.1118
  H  H120  1  0.240500  0.134000  0.673030  1.0  0.1025
  H  H121  1  0.396300  0.301400  0.653230  1.0  0.0996
  H  H122  1  0.564600  0.302900  0.637530  1.0  0.0962
  H  H123  1  0.575700  0.134200  0.641130  1.0  0.1083
  H  H124  1  0.749000  0.524600  0.775000  1.0  0.2955
  H  H125  1  0.858700  0.519700  0.772600  1.0  0.3285
  H  H126  1  0.864000  0.508100  0.822000  1.0  0.093
  H  H127  1  0.816000  0.354000  0.861100  1.0  0.2216
  H  H128  1  0.842200  0.262100  0.899000  1.0  0.1203
  H  H129  1  0.793500  0.087100  0.924100  1.0  0.1123
  H  H130  1  0.594800  0.914200  0.847900  1.0  0.1041
  H  H131  1  0.645500  0.088900  0.822300  1.0  0.1054
  H  H132  1  0.726800  0.882600  0.912800  1.0  0.1311
  H  H133  1  0.612200  0.699300  0.937500  1.0  0.0759
  H  H134  1  0.410000  0.541000  0.940700  1.0  0.2456
  H  H135  1  0.437000  0.643000  0.958900  1.0  0.2215
  H  H136  1  0.617900  0.418200  0.823200  1.0  0.1031
  H  H137  1  0.697100  0.450700  0.854800  1.0  0.0879
  H  H138  1  0.580700  0.560300  0.802000  1.0  0.1083
  H  H139  1  0.617800  0.750100  0.800000  1.0  0.0906
  H  H140  1  0.778100  0.896300  0.825200  1.0  0.1056
  H  H141  1  0.902700  0.855000  0.854000  1.0  0.1121
  H  H142  1  0.866800  0.665900  0.856600  1.0  0.1035
  H  H143  1  0.489500  0.590100  0.878600  1.0  0.0853
  H  H144  1  0.626800  0.653000  0.882300  1.0  0.0897
  H  H145  1  0.714000  0.560400  0.913800  1.0  0.1096
  H  H146  1  0.700500  0.387200  0.930200  1.0  0.1022
  H  H147  1  0.520400  0.218800  0.932700  1.0  0.1027
  H  H148  1  0.354200  0.224100  0.919500  1.0  0.1104
  H  H149  1  0.368700  0.396300  0.900300  1.0  0.1063
  H  H150  1  0.823000  0.292000  0.713200  1.0  0.3087
  H  H151  1  0.899900  0.372900  0.737400  1.0  0.323
  H  H152  1  0.951000  0.522600  0.709400  1.0  0.0918
  H  H153  1  0.889800  0.614800  0.668600  1.0  0.2318
  H  H154  1  0.890000  0.790100  0.670300  1.0  0.1173
  H  H155  1  0.589900  0.490100  0.670500  1.0  0.0978
  H  H156  1  0.861900  0.350200  0.659500  1.0  0.1014
  H  H157  1  0.941200  0.485100  0.651900  1.0  0.0997
  H  H158  1  0.964400  0.251000  0.655700  1.0  0.1132
  H  H159  1  0.134000  0.240500  0.660300  1.0  0.1041
  H  H160  1  0.301400  0.396300  0.680100  1.0  0.1022
  H  H161  1  0.302900  0.564600  0.695800  1.0  0.0958
  H  H162  1  0.134200  0.575700  0.692200  1.0  0.107
  H  H163  1  0.475400  0.224400  0.108330  1.0  0.2917
  H  H164  1  0.480300  0.339000  0.105930  1.0  0.3283
  H  H165  1  0.491900  0.355900  0.155330  1.0  0.0924
  H  H166  1  0.646000  0.462000  0.194430  1.0  0.2204
  H  H167  1  0.737900  0.580100  0.232330  1.0  0.1193
  H  H168  1  0.912900  0.706400  0.257430  1.0  0.1122
  H  H169  1  0.085800  0.680600  0.181230  1.0  0.1045
  H  H170  1  0.911100  0.556600  0.155630  1.0  0.1047
  H  H171  1  0.117400  0.844200  0.246130  1.0  0.1329
  H  H172  1  0.300700  0.912900  0.270830  1.0  0.0755
  H  H173  1  0.459000  0.869000  0.274030  1.0  0.2503
  H  H174  1  0.357000  0.794000  0.292230  1.0  0.2216
  H  H175  1  0.581800  0.199700  0.156530  1.0  0.1
  H  H176  1  0.549300  0.246400  0.188130  1.0  0.0874
  H  H177  1  0.439700  0.020400  0.135330  1.0  0.1082
  H  H178  1  0.249900  0.867700  0.133330  1.0  0.0909
  H  H179  1  0.103700  0.881800  0.158530  1.0  0.1047
  H  H180  1  0.145000  0.047700  0.187330  1.0  0.1121
  H  H181  1  0.334100  0.200900  0.189930  1.0  0.1038
  H  H182  1  0.409900  0.899400  0.211930  1.0  0.0843
  H  H183  1  0.347000  0.973800  0.215630  1.0  0.0898
  H  H184  1  0.439600  0.153600  0.247130  1.0  0.1086
  H  H185  1  0.612800  0.313300  0.263530  1.0  0.1025
  H  H186  1  0.781200  0.301600  0.266030  1.0  0.1019
  H  H187  1  0.775900  0.130100  0.252830  1.0  0.1096
  H  H188  1  0.603700  0.972400  0.233630  1.0  0.1036
  H  H189  1  0.708000  0.531000  0.046530  1.0  0.3079
  H  H190  1  0.627100  0.527000  0.070730  1.0  0.3235
  H  H191  1  0.477400  0.428400  0.042730  1.0  0.0897
  H  H192  1  0.385200  0.275000  0.001930  1.0  0.2318
  H  H193  1  0.209900  0.099900  0.003630  1.0  0.1161
  H  H194  1  0.509900  0.099800  0.003830  1.0  0.0982
  H  H195  1  0.649800  0.511700  0.992830  1.0  0.1005
  H  H196  1  0.514900  0.456100  0.985230  1.0  0.1001
  H  H197  1  0.749000  0.713400  0.989030  1.0  0.1124
  H  H198  1  0.759500  0.893500  0.993630  1.0  0.1054
  H  H199  1  0.603700  0.905100  0.013430  1.0  0.0998
  H  H200  1  0.435400  0.738300  0.029130  1.0  0.0959
  H  H201  1  0.424300  0.558500  0.025530  1.0  0.1064
  H  H202  1  0.775600  0.251000  0.441670  1.0  0.2946
  H  H203  1  0.661000  0.141300  0.439270  1.0  0.3236
  H  H204  1  0.644100  0.136000  0.488670  1.0  0.0844
  H  H205  1  0.538000  0.184000  0.527770  1.0  0.2209
  H  H206  1  0.419900  0.157800  0.565670  1.0  0.1203
  H  H207  1  0.293600  0.206500  0.590770  1.0  0.1119
  H  H208  1  0.319400  0.405200  0.514570  1.0  0.1046
  H  H209  1  0.443400  0.354500  0.488970  1.0  0.1041
  H  H210  1  0.155800  0.273200  0.579470  1.0  0.1331
  H  H211  1  0.087100  0.387800  0.604170  1.0  0.0767
  H  H212  1  0.131000  0.590000  0.607370  1.0  0.2509
  H  H213  1  0.206000  0.563000  0.625570  1.0  0.222
  H  H214  1  0.800300  0.382100  0.489870  1.0  0.1018
  H  H215  1  0.753600  0.302900  0.521470  1.0  0.0886
  H  H216  1  0.979600  0.419300  0.468670  1.0  0.1082
  H  H217  1  0.132300  0.382200  0.466670  1.0  0.0909
  H  H218  1  0.118200  0.221900  0.491870  1.0  0.105
  H  H219  1  0.952300  0.097300  0.520670  1.0  0.1119
  H  H220  1  0.799100  0.133200  0.523270  1.0  0.1033
  H  H221  1  0.100600  0.510500  0.545270  1.0  0.0848
  H  H222  1  0.026200  0.373200  0.548970  1.0  0.0889
  H  H223  1  0.846400  0.286000  0.580470  1.0  0.1099
  H  H224  1  0.686700  0.299500  0.596870  1.0  0.1025
  H  H225  1  0.698400  0.479600  0.599370  1.0  0.1012
  H  H226  1  0.869900  0.645800  0.586170  1.0  0.1112
  H  H227  1  0.027600  0.631300  0.566970  1.0  0.1033
  H  H228  1  0.469000  0.177000  0.379870  1.0  0.3113
  H  H229  1  0.473000  0.100100  0.404070  1.0  0.3237
  H  H230  1  0.571600  0.049000  0.376070  1.0  0.092
  H  H231  1  0.725000  0.110200  0.335270  1.0  0.2303
  H  H232  1  0.900100  0.110000  0.336970  1.0  0.1164
  H  H233  1  0.900200  0.410100  0.337170  1.0  0.0969
  H  H234  1  0.488300  0.138100  0.326170  1.0  0.1015
  H  H235  1  0.543900  0.058800  0.318570  1.0  0.1003
  H  H236  1  0.286600  0.035600  0.322370  1.0  0.1114
  H  H237  1  0.106500  0.866000  0.326970  1.0  0.1051
  H  H238  1  0.094900  0.698600  0.346770  1.0  0.0988
  H  H239  1  0.261700  0.697100  0.362470  1.0  0.0962
  H  H240  1  0.441500  0.865800  0.358870  1.0  0.1084
  C  C241  1  0.330000  0.544600  0.187080  1.0  0.0136
  C  C242  1  0.428200  0.670100  0.183860  1.0  0.5301
  C  C243  1  0.556100  0.807300  0.141780  1.0  0.2052
  C  C244  1  0.600800  0.808700  0.111600  1.0  -0.1594
  C  C245  1  0.675700  0.912700  0.096630  1.0  -0.1332
  C  C246  1  0.705600  0.015700  0.111820  1.0  0.2289
  C  C247  1  0.660800  0.015000  0.141730  1.0  -0.1256
  C  C248  1  0.586500  0.910900  0.156870  1.0  -0.1305
  C  C249  1  0.766800  0.210300  0.092140  1.0  0.5382
  C  C250  1  0.868100  0.320700  0.078000  1.0  0.0602
  C  C251  1  0.224700  0.528800  0.168140  1.0  -0.2266
  C  C252  1  0.125800  0.406300  0.170190  1.0  0.0639
  C  C253  1  0.026500  0.380300  0.187260  1.0  -0.1537
  C  C254  1  0.936100  0.267300  0.188520  1.0  -0.103
  C  C255  1  0.944100  0.180900  0.173570  1.0  -0.1022
  C  C256  1  0.042400  0.205200  0.156590  1.0  -0.1315
  C  C257  1  0.133000  0.317500  0.154990  1.0  -0.1148
  C  C258  1  0.945700  0.392800  0.106080  1.0  -0.2556
  C  C259  1  0.047400  0.504300  0.095010  1.0  0.0981
  C  C260  1  0.148900  0.508200  0.085660  1.0  -0.1328
  C  C261  1  0.243700  0.611000  0.075590  1.0  -0.1001
  C  C262  1  0.236600  0.710800  0.074040  1.0  -0.0871
  C  C263  1  0.135800  0.708100  0.082290  1.0  -0.1083
  C  C264  1  0.041200  0.604800  0.093340  1.0  -0.1313
  C  C265  1  0.429750  0.546550  0.300290  1.0  0.0383
  C  C266  1  0.304100  0.516000  0.305590  1.0  0.544
  C  C267  1  0.118900  0.370000  0.328960  1.0  0.1995
  C  C268  1  0.059400  0.251300  0.331150  1.0  -0.1461
  C  C269  1  0.059500  0.428000  0.331100  1.0  -0.1416
  C  C270  1  0.500300  0.575700  0.331900  1.0  -0.2299
  C  C271  1  0.617100  0.585300  0.326990  1.0  0.0948
  C  C272  1  0.717600  0.684800  0.336160  1.0  -0.1341
  C  C273  1  0.825200  0.691100  0.333400  1.0  -0.0941
  C  C274  1  0.832000  0.599100  0.321640  1.0  -0.1042
  C  C275  1  0.733100  0.499200  0.312220  1.0  -0.0888
  C  C276  1  0.626100  0.492400  0.314620  1.0  -0.1371
  C  C277  1  0.214600  0.670000  0.853750  1.0  0.0166
  C  C278  1  0.241900  0.571800  0.850530  1.0  0.5254
  C  C279  1  0.251200  0.443900  0.808450  1.0  0.2042
  C  C280  1  0.207900  0.399200  0.778270  1.0  -0.1647
  C  C281  1  0.237000  0.324300  0.763300  1.0  -0.1361
  C  C282  1  0.310100  0.294400  0.778490  1.0  0.2296
  C  C283  1  0.354200  0.339200  0.808400  1.0  -0.1256
  C  C284  1  0.324400  0.413500  0.823540  1.0  -0.1339
  C  C285  1  0.443500  0.233200  0.758810  1.0  0.5418
  C  C286  1  0.452600  0.131900  0.744670  1.0  0.0582
  C  C287  1  0.304100  0.775300  0.834810  1.0  -0.227
  C  C288  1  0.280500  0.874200  0.836860  1.0  0.0653
  C  C289  1  0.353800  0.973500  0.853930  1.0  -0.1556
  C  C290  1  0.331200  0.063900  0.855190  1.0  -0.1004
  C  C291  1  0.236800  0.055900  0.840240  1.0  -0.1045
  C  C292  1  0.162800  0.957600  0.823260  1.0  -0.1309
  C  C293  1  0.184500  0.867000  0.821660  1.0  -0.1079
  C  C294  1  0.447100  0.054300  0.772750  1.0  -0.2563
  C  C295  1  0.456900  0.952600  0.761680  1.0  0.0989
  C  C296  1  0.359300  0.851100  0.752330  1.0  -0.1332
  C  C297  1  0.367300  0.756300  0.742260  1.0  -0.0951
  C  C298  1  0.474200  0.763400  0.740710  1.0  -0.0888
  C  C299  1  0.572300  0.864200  0.748960  1.0  -0.1077
  C  C300  1  0.563600  0.958800  0.760010  1.0  -0.1241
  C  C301  1  0.116800  0.570250  0.966960  1.0  0.0377
  C  C302  1  0.211900  0.695900  0.972260  1.0  0.5484
  C  C303  1  0.251100  0.881100  0.995630  1.0  0.1988
  C  C304  1  0.191900  0.940600  0.997820  1.0  -0.1498
  C  C305  1  0.368500  0.940500  0.997770  1.0  -0.1415
  C  C306  1  0.075400  0.499700  0.998570  1.0  -0.2299
  C  C307  1  0.968200  0.382900  0.993660  1.0  0.0951
  C  C308  1  0.967200  0.282400  0.002830  1.0  -0.1361
  C  C309  1  0.865900  0.174800  0.000070  1.0  -0.1043
  C  C310  1  0.767100  0.168000  0.988310  1.0  -0.1002
  C  C311  1  0.766100  0.266900  0.978890  1.0  -0.0887
  C  C312  1  0.866300  0.373900  0.981290  1.0  -0.135
  C  C313  1  0.455400  0.785400  0.520410  1.0  0.0169
  C  C314  1  0.329900  0.758100  0.517190  1.0  0.5226
  C  C315  1  0.192700  0.748800  0.475110  1.0  0.2043
  C  C316  1  0.191300  0.792100  0.444930  1.0  -0.1624
  C  C317  1  0.087300  0.763000  0.429960  1.0  -0.1363
  C  C318  1  0.984300  0.689900  0.445150  1.0  0.2296
  C  C319  1  0.985000  0.645800  0.475060  1.0  -0.1243
  C  C320  1  0.089100  0.675600  0.490200  1.0  -0.1344
  C  C321  1  0.789700  0.556500  0.425470  1.0  0.54
  C  C322  1  0.679300  0.547400  0.411330  1.0  0.0606
  C  C323  1  0.471200  0.695900  0.501470  1.0  -0.2265
  C  C324  1  0.593700  0.719500  0.503520  1.0  0.0643
  C  C325  1  0.619700  0.646200  0.520590  1.0  -0.155
  C  C326  1  0.732700  0.668800  0.521850  1.0  -0.1019
  C  C327  1  0.819100  0.763200  0.506900  1.0  -0.1045
  C  C328  1  0.794800  0.837200  0.489920  1.0  -0.1286
  C  C329  1  0.682500  0.815500  0.488320  1.0  -0.1139
  C  C330  1  0.607200  0.552900  0.439410  1.0  -0.2539
  C  C331  1  0.495700  0.543100  0.428340  1.0  0.0988
  C  C332  1  0.491800  0.640700  0.418990  1.0  -0.1345
  C  C333  1  0.389000  0.632700  0.408920  1.0  -0.0945
  C  C334  1  0.289200  0.525800  0.407370  1.0  -0.0875
  C  C335  1  0.291900  0.427700  0.415620  1.0  -0.1085
  C  C336  1  0.395200  0.436400  0.426670  1.0  -0.1308
  C  C337  1  0.453450  0.883200  0.633620  1.0  0.0366
  C  C338  1  0.484000  0.788100  0.638920  1.0  0.5466
  C  C339  1  0.630000  0.748900  0.662290  1.0  0.2
  C  C340  1  0.748700  0.808100  0.664480  1.0  -0.1473
  C  C341  1  0.572000  0.631500  0.664430  1.0  -0.1415
  C  C342  1  0.424300  0.924600  0.665230  1.0  -0.2316
  C  C343  1  0.414700  0.031800  0.660320  1.0  0.0943
  C  C344  1  0.315200  0.032800  0.669490  1.0  -0.145
  C  C345  1  0.308900  0.134100  0.666667  1.0  -0.1071
  C  C346  1  0.400900  0.232900  0.654970  1.0  -0.1034
  C  C347  1  0.500800  0.233900  0.645550  1.0  -0.0859
  C  C348  1  0.507600  0.133700  0.647950  1.0  -0.1374
  C  C349  1  0.785400  0.455400  0.812920  1.0  0.0145
  C  C350  1  0.758100  0.329900  0.816140  1.0  0.5323
  C  C351  1  0.748800  0.192700  0.858220  1.0  0.2059
  C  C352  1  0.792100  0.191300  0.888400  1.0  -0.1607
  C  C353  1  0.763000  0.087300  0.903370  1.0  -0.1338
  C  C354  1  0.689900  0.984300  0.888180  1.0  0.229
  C  C355  1  0.645800  0.985000  0.858270  1.0  -0.1249
  C  C356  1  0.675600  0.089100  0.843130  1.0  -0.131
  C  C357  1  0.556500  0.789700  0.907860  1.0  0.5382
  C  C358  1  0.547400  0.679300  0.922000  1.0  0.0607
  C  C359  1  0.695900  0.471200  0.831860  1.0  -0.2294
  C  C360  1  0.719500  0.593700  0.829810  1.0  0.0636
  C  C361  1  0.646200  0.619700  0.812740  1.0  -0.1522
  C  C362  1  0.668800  0.732700  0.811480  1.0  -0.1033
  C  C363  1  0.763200  0.819100  0.826430  1.0  -0.1016
  C  C364  1  0.837200  0.794800  0.843410  1.0  -0.1282
  C  C365  1  0.815500  0.682500  0.845010  1.0  -0.1155
  C  C366  1  0.552900  0.607200  0.893920  1.0  -0.2539
  C  C367  1  0.543100  0.495700  0.904990  1.0  0.0985
  C  C368  1  0.640700  0.491800  0.914340  1.0  -0.1322
  C  C369  1  0.632700  0.389000  0.924410  1.0  -0.1
  C  C370  1  0.525800  0.289200  0.925960  1.0  -0.0892
  C  C371  1  0.427700  0.291900  0.917710  1.0  -0.1082
  C  C372  1  0.436400  0.395200  0.906660  1.0  -0.1304
  C  C373  1  0.883200  0.453450  0.699710  1.0  0.041
  C  C374  1  0.788100  0.484000  0.694410  1.0  0.5439
  C  C375  1  0.748900  0.630000  0.671040  1.0  0.2
  C  C376  1  0.808100  0.748700  0.668850  1.0  -0.1459
  C  C377  1  0.631500  0.572000  0.668900  1.0  -0.1414
  C  C378  1  0.924600  0.424300  0.668100  1.0  -0.2287
  C  C379  1  0.031800  0.414700  0.673010  1.0  0.0954
  C  C380  1  0.032800  0.315200  0.663840  1.0  -0.1457
  C  C381  1  0.134100  0.308900  0.666667  1.0  -0.1069
  C  C382  1  0.232900  0.400900  0.678360  1.0  -0.1095
  C  C383  1  0.233900  0.500800  0.687780  1.0  -0.088
  C  C384  1  0.133700  0.507600  0.685380  1.0  -0.1362
  C  C385  1  0.544600  0.330000  0.146250  1.0  0.0173
  C  C386  1  0.670100  0.428200  0.149470  1.0  0.5273
  C  C387  1  0.807300  0.556100  0.191550  1.0  0.2053
  C  C388  1  0.808700  0.600800  0.221730  1.0  -0.1653
  C  C389  1  0.912700  0.675700  0.236700  1.0  -0.1369
  C  C390  1  0.015700  0.705600  0.221510  1.0  0.2297
  C  C391  1  0.015000  0.660800  0.191600  1.0  -0.125
  C  C392  1  0.910900  0.586500  0.176460  1.0  -0.1343
  C  C393  1  0.210300  0.766800  0.241190  1.0  0.5411
  C  C394  1  0.320700  0.868100  0.255330  1.0  0.0579
  C  C395  1  0.528800  0.224700  0.165190  1.0  -0.2288
  C  C396  1  0.406300  0.125800  0.163140  1.0  0.0642
  C  C397  1  0.380300  0.026500  0.146070  1.0  -0.155
  C  C398  1  0.267300  0.936100  0.144810  1.0  -0.1017
  C  C399  1  0.180900  0.944100  0.159760  1.0  -0.1056
  C  C400  1  0.205200  0.042400  0.176740  1.0  -0.1312
  C  C401  1  0.317500  0.133000  0.178340  1.0  -0.1083
  C  C402  1  0.392800  0.945700  0.227250  1.0  -0.2539
  C  C403  1  0.504300  0.047400  0.238320  1.0  0.0988
  C  C404  1  0.508200  0.148900  0.247670  1.0  -0.1336
  C  C405  1  0.611000  0.243700  0.257740  1.0  -0.0946
  C  C406  1  0.710800  0.236600  0.259290  1.0  -0.0877
  C  C407  1  0.708100  0.135800  0.251040  1.0  -0.1078
  C  C408  1  0.604800  0.041200  0.239990  1.0  -0.1245
  C  C409  1  0.546550  0.429750  0.033040  1.0  0.0402
  C  C410  1  0.516000  0.304100  0.027740  1.0  0.5466
  C  C411  1  0.370000  0.118900  0.004370  1.0  0.1981
  C  C412  1  0.251300  0.059400  0.002180  1.0  -0.1503
  C  C413  1  0.428000  0.059500  0.002230  1.0  -0.1414
  C  C414  1  0.575700  0.500300  0.001430  1.0  -0.2288
  C  C415  1  0.585300  0.617100  0.006340  1.0  0.0952
  C  C416  1  0.684800  0.717600  0.997170  1.0  -0.1354
  C  C417  1  0.691100  0.825200  0.999930  1.0  -0.1005
  C  C418  1  0.599100  0.832000  0.011690  1.0  -0.0978
  C  C419  1  0.499200  0.733100  0.021110  1.0  -0.0887
  C  C420  1  0.492400  0.626100  0.018710  1.0  -0.1359
  C  C421  1  0.670000  0.214600  0.479590  1.0  0.0161
  C  C422  1  0.571800  0.241900  0.482810  1.0  0.525
  C  C423  1  0.443900  0.251200  0.524890  1.0  0.2036
  C  C424  1  0.399200  0.207900  0.555070  1.0  -0.1645
  C  C425  1  0.324300  0.237000  0.570040  1.0  -0.1372
  C  C426  1  0.294400  0.310100  0.554850  1.0  0.2302
  C  C427  1  0.339200  0.354200  0.524940  1.0  -0.1239
  C  C428  1  0.413500  0.324400  0.509800  1.0  -0.1341
  C  C429  1  0.233200  0.443500  0.574530  1.0  0.5388
  C  C430  1  0.131900  0.452600  0.588670  1.0  0.0608
  C  C431  1  0.775300  0.304100  0.498530  1.0  -0.2269
  C  C432  1  0.874200  0.280500  0.496480  1.0  0.0641
  C  C433  1  0.973500  0.353800  0.479410  1.0  -0.1545
  C  C434  1  0.063900  0.331200  0.478150  1.0  -0.1037
  C  C435  1  0.055900  0.236800  0.493100  1.0  -0.1055
  C  C436  1  0.957600  0.162800  0.510080  1.0  -0.1316
  C  C437  1  0.867000  0.184500  0.511680  1.0  -0.1133
  C  C438  1  0.054300  0.447100  0.560590  1.0  -0.2524
  C  C439  1  0.952600  0.456900  0.571660  1.0  0.0991
  C  C440  1  0.851100  0.359300  0.581010  1.0  -0.1342
  C  C441  1  0.756300  0.367300  0.591080  1.0  -0.0961
  C  C442  1  0.763400  0.474200  0.592630  1.0  -0.0871
  C  C443  1  0.864200  0.572300  0.584380  1.0  -0.1079
  C  C444  1  0.958800  0.563600  0.573330  1.0  -0.1309
  C  C445  1  0.570250  0.116800  0.366380  1.0  0.0396
  C  C446  1  0.695900  0.211900  0.361080  1.0  0.5478
  C  C447  1  0.881100  0.251100  0.337710  1.0  0.1994
  C  C448  1  0.940600  0.191900  0.335520  1.0  -0.1479
  C  C449  1  0.940500  0.368500  0.335570  1.0  -0.1417
  C  C450  1  0.499700  0.075400  0.334770  1.0  -0.2311
  C  C451  1  0.382900  0.968200  0.339680  1.0  0.0954
  C  C452  1  0.282400  0.967200  0.330510  1.0  -0.1353
  C  C453  1  0.174800  0.865900  0.333270  1.0  -0.0998
  C  C454  1  0.168000  0.767100  0.345030  1.0  -0.0991
  C  C455  1  0.266900  0.766100  0.354450  1.0  -0.087
  C  C456  1  0.373900  0.866300  0.352050  1.0  -0.1367
  Br  Br457  1  0.346610  0.257820  0.352440  1.0  -0.3564
  Br  Br458  1  0.481560  0.417940  0.229530  1.0  -0.4604
  Br  Br459  1  0.911210  0.653390  0.019100  1.0  -0.3556
  Br  Br460  1  0.936380  0.518440  0.896200  1.0  -0.4606
  Br  Br461  1  0.742180  0.088790  0.685770  1.0  -0.3564
  Br  Br462  1  0.582060  0.063620  0.562870  1.0  -0.4602
  Br  Br463  1  0.088790  0.742180  0.647560  1.0  -0.3571
  Br  Br464  1  0.063620  0.582060  0.770470  1.0  -0.46
  Br  Br465  1  0.257820  0.346610  0.980900  1.0  -0.3572
  Br  Br466  1  0.417940  0.481560  0.103800  1.0  -0.4611
  Br  Br467  1  0.653390  0.911210  0.314230  1.0  -0.3558
  Br  Br468  1  0.518440  0.936380  0.437130  1.0  -0.4603
  N  N469  1  0.301060  0.517320  0.221640  1.0  -0.6486
  N  N470  1  0.476500  0.697600  0.154770  1.0  -0.3163
  N  N471  1  0.785000  0.121550  0.096100  1.0  -0.3705
  N  N472  1  0.819030  0.383230  0.061200  1.0  -0.662
  N  N473  1  0.484190  0.641770  0.276490  1.0  -0.6747
  N  N474  1  0.241070  0.425040  0.324640  1.0  -0.4071
  N  N475  1  0.216260  0.698940  0.888310  1.0  -0.6496
  N  N476  1  0.221100  0.523500  0.821440  1.0  -0.318
  N  N477  1  0.336550  0.215000  0.762770  1.0  -0.3669
  N  N478  1  0.564200  0.180970  0.727870  1.0  -0.6598
  N  N479  1  0.157580  0.515810  0.943160  1.0  -0.6704
  N  N480  1  0.183970  0.758930  0.991310  1.0  -0.4063
  N  N481  1  0.482680  0.783740  0.554970  1.0  -0.6494
  N  N482  1  0.302400  0.778900  0.488100  1.0  -0.3172
  N  N483  1  0.878450  0.663450  0.429430  1.0  -0.3697
  N  N484  1  0.616770  0.435800  0.394530  1.0  -0.6597
  N  N485  1  0.358230  0.842420  0.609820  1.0  -0.6747
  N  N486  1  0.574960  0.816030  0.657970  1.0  -0.4037
  N  N487  1  0.783740  0.482680  0.778360  1.0  -0.6495
  N  N488  1  0.778900  0.302400  0.845230  1.0  -0.3162
  N  N489  1  0.663450  0.878450  0.903900  1.0  -0.3708
  N  N490  1  0.435800  0.616770  0.938800  1.0  -0.661
  N  N491  1  0.842420  0.358230  0.723510  1.0  -0.672
  N  N492  1  0.816030  0.574960  0.675360  1.0  -0.4069
  N  N493  1  0.517320  0.301060  0.111690  1.0  -0.6491
  N  N494  1  0.697600  0.476500  0.178560  1.0  -0.3193
  N  N495  1  0.121550  0.785000  0.237230  1.0  -0.3666
  N  N496  1  0.383230  0.819030  0.272130  1.0  -0.6605
  N  N497  1  0.641770  0.484190  0.056840  1.0  -0.6699
  N  N498  1  0.425040  0.241070  0.008690  1.0  -0.406
  N  N499  1  0.698940  0.216260  0.445030  1.0  -0.6495
  N  N500  1  0.523500  0.221100  0.511900  1.0  -0.3176
  N  N501  1  0.215000  0.336550  0.570570  1.0  -0.3711
  N  N502  1  0.180970  0.564200  0.605470  1.0  -0.6583
  N  N503  1  0.515810  0.157580  0.390180  1.0  -0.6716
  N  N504  1  0.758930  0.183970  0.342030  1.0  -0.4043
  O  O505  1  0.455840  0.739750  0.206840  1.0  -0.5696
  O  O506  1  0.676980  0.208800  0.100210  1.0  -0.5765
  O  O507  1  0.262790  0.568470  0.291550  1.0  -0.5593
  O  O508  1  0.283910  0.544160  0.873510  1.0  -0.5696
  O  O509  1  0.531820  0.323020  0.766880  1.0  -0.5762
  O  O510  1  0.305680  0.737210  0.958220  1.0  -0.561
  O  O511  1  0.260250  0.716090  0.540170  1.0  -0.5696
  O  O512  1  0.791200  0.468180  0.433540  1.0  -0.5763
  O  O513  1  0.431530  0.694320  0.624880  1.0  -0.5615
  O  O514  1  0.716090  0.260250  0.793160  1.0  -0.5708
  O  O515  1  0.468180  0.791200  0.899790  1.0  -0.5752
  O  O516  1  0.694320  0.431530  0.708450  1.0  -0.559
  O  O517  1  0.739750  0.455840  0.126490  1.0  -0.5702
  O  O518  1  0.208800  0.676980  0.233120  1.0  -0.5765
  O  O519  1  0.568470  0.262790  0.041780  1.0  -0.5603
  O  O520  1  0.544160  0.283910  0.459830  1.0  -0.5694
  O  O521  1  0.323020  0.531820  0.566460  1.0  -0.5768
  O  O522  1  0.737210  0.305680  0.375120  1.0  -0.5596
