# generated using pymatgen
data_Cu4H32C29(N2O5)2
_symmetry_space_group_name_H-M   'P 1'
_cell_length_a   10.01240000
_cell_length_b   14.19080000
_cell_length_c   21.64820000
_cell_angle_alpha   90.00000000
_cell_angle_beta   102.26500000
_cell_angle_gamma   90.00000000
_symmetry_Int_Tables_number   1
_chemical_formula_structural   Cu4H32C29(N2O5)2
_chemical_formula_sum   'Cu8 H64 C58 N8 O20'
_cell_volume   3005.65717314
_cell_formula_units_Z   2
loop_
 _symmetry_equiv_pos_site_id
 _symmetry_equiv_pos_as_xyz
  1  'x, y, z'
loop_
 _atom_site_type_symbol
 _atom_site_label
 _atom_site_symmetry_multiplicity
 _atom_site_fract_x
 _atom_site_fract_y
 _atom_site_fract_z
 _atom_site_occupancy
 _atom_site_charge
  Cu  Cu1  1  0.062520  0.666380  0.940150  1.0  0.4338
  Cu  Cu2  1  0.874680  0.494490  0.948070  1.0  0.643
  Cu  Cu3  1  0.937480  0.666380  0.559850  1.0  0.4325
  Cu  Cu4  1  0.125320  0.494490  0.551930  1.0  0.6414
  Cu  Cu5  1  0.937480  0.333620  0.059850  1.0  0.4326
  Cu  Cu6  1  0.125320  0.505510  0.051930  1.0  0.6399
  Cu  Cu7  1  0.062520  0.333620  0.440150  1.0  0.4339
  Cu  Cu8  1  0.874680  0.505510  0.448070  1.0  0.6417
  H  H9  1  0.936600  0.626000  0.025000  1.0  0.3675
  H  H10  1  0.908400  0.357400  0.845800  1.0  0.0707
  H  H11  1  0.434000  0.006300  0.833300  1.0  0.0609
  H  H12  1  0.544800  0.931900  0.824200  1.0  0.0713
  H  H13  1  0.410200  0.891100  0.899700  1.0  0.1335
  H  H14  1  0.649200  0.126900  0.745600  1.0  0.0595
  H  H15  1  0.699900  0.050800  0.798400  1.0  0.0737
  H  H16  1  0.806900  0.222600  0.800700  1.0  0.1306
  H  H17  1  0.068900  0.691700  0.806000  1.0  0.0789
  H  H18  1  0.174700  0.782100  0.742900  1.0  0.13
  H  H19  1  0.293300  0.801500  0.957800  1.0  0.0666
  H  H20  1  0.513300  0.261400  0.898800  1.0  0.1399
  H  H21  1  0.623700  0.395200  0.939800  1.0  0.0761
  H  H22  1  0.644300  0.758900  0.822900  1.0  0.124
  H  H23  1  0.573400  0.660100  0.811300  1.0  0.143
  H  H24  1  0.565900  0.717700  0.872200  1.0  0.1349
  H  H25  1  0.063400  0.626000  0.475000  1.0  0.3677
  H  H26  1  0.091600  0.357400  0.654200  1.0  0.0712
  H  H27  1  0.566000  0.006300  0.666667  1.0  0.0608
  H  H28  1  0.455200  0.931900  0.675800  1.0  0.0704
  H  H29  1  0.589800  0.891100  0.600300  1.0  0.133
  H  H30  1  0.350800  0.126900  0.754400  1.0  0.0576
  H  H31  1  0.300100  0.050800  0.701600  1.0  0.0756
  H  H32  1  0.193100  0.222600  0.699300  1.0  0.1308
  H  H33  1  0.931100  0.691700  0.694000  1.0  0.079
  H  H34  1  0.825300  0.782100  0.757100  1.0  0.13
  H  H35  1  0.706700  0.801500  0.542200  1.0  0.0664
  H  H36  1  0.486700  0.261400  0.601200  1.0  0.1391
  H  H37  1  0.376300  0.395200  0.560200  1.0  0.0757
  H  H38  1  0.355700  0.758900  0.677100  1.0  0.1234
  H  H39  1  0.426600  0.660100  0.688700  1.0  0.1433
  H  H40  1  0.434100  0.717700  0.627800  1.0  0.1347
  H  H41  1  0.063400  0.374000  0.975000  1.0  0.3673
  H  H42  1  0.091600  0.642600  0.154200  1.0  0.0715
  H  H43  1  0.566000  0.993700  0.166700  1.0  0.0617
  H  H44  1  0.455200  0.068100  0.175800  1.0  0.0712
  H  H45  1  0.589800  0.108900  0.100300  1.0  0.1323
  H  H46  1  0.350800  0.873100  0.254400  1.0  0.0584
  H  H47  1  0.300100  0.949200  0.201600  1.0  0.0759
  H  H48  1  0.193100  0.777400  0.199300  1.0  0.1305
  H  H49  1  0.931100  0.308300  0.194000  1.0  0.079
  H  H50  1  0.825300  0.217900  0.257100  1.0  0.1301
  H  H51  1  0.706700  0.198500  0.042200  1.0  0.0665
  H  H52  1  0.486700  0.738600  0.101200  1.0  0.1394
  H  H53  1  0.376300  0.604800  0.060200  1.0  0.0755
  H  H54  1  0.355700  0.241100  0.177100  1.0  0.1234
  H  H55  1  0.426600  0.339900  0.188700  1.0  0.1424
  H  H56  1  0.434100  0.282300  0.127800  1.0  0.1341
  H  H57  1  0.936600  0.374000  0.525000  1.0  0.3676
  H  H58  1  0.908400  0.642600  0.345800  1.0  0.0708
  H  H59  1  0.434000  0.993700  0.333333  1.0  0.0599
  H  H60  1  0.544800  0.068100  0.324200  1.0  0.0711
  H  H61  1  0.410200  0.108900  0.399700  1.0  0.1335
  H  H62  1  0.649200  0.873100  0.245600  1.0  0.0592
  H  H63  1  0.699900  0.949200  0.298400  1.0  0.0738
  H  H64  1  0.806900  0.777400  0.300700  1.0  0.1303
  H  H65  1  0.068900  0.308300  0.306000  1.0  0.0795
  H  H66  1  0.174700  0.217900  0.242900  1.0  0.13
  H  H67  1  0.293300  0.198500  0.457800  1.0  0.0666
  H  H68  1  0.513300  0.738600  0.398800  1.0  0.14
  H  H69  1  0.623700  0.604800  0.439800  1.0  0.0762
  H  H70  1  0.644300  0.241100  0.322900  1.0  0.1243
  H  H71  1  0.573400  0.339900  0.311300  1.0  0.1428
  H  H72  1  0.565900  0.282300  0.372200  1.0  0.1349
  C  C73  1  0.828600  0.336800  0.857100  1.0  0.1695
  C  C74  1  0.302700  0.849000  0.814730  1.0  0.324
  C  C75  1  0.464800  0.966500  0.802710  1.0  0.0701
  C  C76  1  0.339300  0.852300  0.879560  1.0  -0.338
  C  C77  1  0.622500  0.089100  0.778300  1.0  0.0685
  C  C78  1  0.768400  0.256100  0.829480  1.0  -0.3499
  C  C79  1  0.751100  0.656000  0.877350  1.0  0.7593
  C  C80  1  0.137000  0.733400  0.824920  1.0  0.1805
  C  C81  1  0.200100  0.787100  0.786710  1.0  -0.3002
  C  C82  1  0.649900  0.225700  0.845370  1.0  0.3348
  C  C83  1  0.269600  0.797500  0.913910  1.0  0.1608
  C  C84  1  0.594400  0.279300  0.887600  1.0  -0.2869
  C  C85  1  0.661800  0.358900  0.912300  1.0  0.1747
  C  C86  1  0.622100  0.702400  0.842800  1.0  -0.5154
  C  C87  1  0.171400  0.336800  0.642900  1.0  0.1713
  C  C88  1  0.697300  0.849000  0.685270  1.0  0.3234
  C  C89  1  0.535200  0.966500  0.697290  1.0  0.0706
  C  C90  1  0.660700  0.852300  0.620440  1.0  -0.3396
  C  C91  1  0.377500  0.089100  0.721700  1.0  0.0676
  C  C92  1  0.231600  0.256100  0.670520  1.0  -0.3511
  C  C93  1  0.248900  0.656000  0.622650  1.0  0.7562
  C  C94  1  0.863000  0.733400  0.675080  1.0  0.1797
  C  C95  1  0.799900  0.787100  0.713290  1.0  -0.2986
  C  C96  1  0.350100  0.225700  0.654630  1.0  0.3345
  C  C97  1  0.730400  0.797500  0.586090  1.0  0.1612
  C  C98  1  0.405600  0.279300  0.612400  1.0  -0.285
  C  C99  1  0.338200  0.358900  0.587700  1.0  0.1733
  C  C100  1  0.377900  0.702400  0.657200  1.0  -0.5154
  C  C101  1  0.171400  0.663200  0.142900  1.0  0.1726
  C  C102  1  0.697300  0.151000  0.185270  1.0  0.3235
  C  C103  1  0.535200  0.033500  0.197290  1.0  0.0706
  C  C104  1  0.660700  0.147700  0.120440  1.0  -0.3384
  C  C105  1  0.377500  0.910900  0.221700  1.0  0.0677
  C  C106  1  0.231600  0.743900  0.170520  1.0  -0.351
  C  C107  1  0.248900  0.344000  0.122650  1.0  0.7563
  C  C108  1  0.863000  0.266600  0.175080  1.0  0.1797
  C  C109  1  0.799900  0.212900  0.213290  1.0  -0.2981
  C  C110  1  0.350100  0.774300  0.154630  1.0  0.3347
  C  C111  1  0.730400  0.202500  0.086090  1.0  0.1616
  C  C112  1  0.405600  0.720700  0.112400  1.0  -0.2878
  C  C113  1  0.338200  0.641100  0.087700  1.0  0.1734
  C  C114  1  0.377900  0.297600  0.157200  1.0  -0.5153
  C  C115  1  0.828600  0.663200  0.357100  1.0  0.1703
  C  C116  1  0.302700  0.151000  0.314730  1.0  0.3238
  C  C117  1  0.464800  0.033500  0.302710  1.0  0.0691
  C  C118  1  0.339300  0.147700  0.379560  1.0  -0.3399
  C  C119  1  0.622500  0.910900  0.278300  1.0  0.0676
  C  C120  1  0.768400  0.743900  0.329480  1.0  -0.3498
  C  C121  1  0.751100  0.344000  0.377350  1.0  0.7588
  C  C122  1  0.137000  0.266600  0.324920  1.0  0.1805
  C  C123  1  0.200100  0.212900  0.286710  1.0  -0.2997
  C  C124  1  0.649900  0.774300  0.345370  1.0  0.335
  C  C125  1  0.269600  0.202500  0.413910  1.0  0.161
  C  C126  1  0.594400  0.720700  0.387600  1.0  -0.2874
  C  C127  1  0.661800  0.641100  0.412300  1.0  0.1765
  C  C128  1  0.622100  0.297600  0.342800  1.0  -0.5156
  C  C129  1  0.500000  0.026500  0.750000  1.0  -0.0616
  C  C130  1  0.500000  0.973500  0.250000  1.0  -0.0604
  N  N131  1  0.779600  0.387200  0.898870  1.0  -0.3544
  N  N132  1  0.168800  0.738200  0.887930  1.0  -0.3325
  N  N133  1  0.220400  0.387200  0.601130  1.0  -0.3536
  N  N134  1  0.831200  0.738200  0.612070  1.0  -0.335
  N  N135  1  0.220400  0.612800  0.101130  1.0  -0.3553
  N  N136  1  0.831200  0.261800  0.112070  1.0  -0.3341
  N  N137  1  0.779600  0.612800  0.398870  1.0  -0.3551
  N  N138  1  0.168800  0.261800  0.387930  1.0  -0.3333
  O  O139  1  0.987700  0.588800  0.999650  1.0  -0.8298
  O  O140  1  0.358400  0.902190  0.774670  1.0  -0.2746
  O  O141  1  0.578700  0.147940  0.823680  1.0  -0.2796
  O  O142  1  0.735000  0.579670  0.906470  1.0  -0.6632
  O  O143  1  0.861700  0.692900  0.875860  1.0  -0.6199
  O  O144  1  0.012300  0.588800  0.500350  1.0  -0.829
  O  O145  1  0.641600  0.902190  0.725330  1.0  -0.2737
  O  O146  1  0.421300  0.147940  0.676320  1.0  -0.2803
  O  O147  1  0.265000  0.579670  0.593530  1.0  -0.663
  O  O148  1  0.138300  0.692900  0.624140  1.0  -0.6188
  O  O149  1  0.012300  0.411200  0.000350  1.0  -0.829
  O  O150  1  0.641600  0.097810  0.225330  1.0  -0.2739
  O  O151  1  0.421300  0.852060  0.176320  1.0  -0.2806
  O  O152  1  0.265000  0.420330  0.093530  1.0  -0.6633
  O  O153  1  0.138300  0.307100  0.124140  1.0  -0.6179
  O  O154  1  0.987700  0.411200  0.499650  1.0  -0.8296
  O  O155  1  0.358400  0.097810  0.274670  1.0  -0.2742
  O  O156  1  0.578700  0.852060  0.323680  1.0  -0.2795
  O  O157  1  0.735000  0.420330  0.406470  1.0  -0.6637
  O  O158  1  0.861700  0.307100  0.375860  1.0  -0.6191
