# generated using pymatgen
data_Cd4H19C28(N3O4)3
_symmetry_space_group_name_H-M   'P 1'
_cell_length_a   37.94100000
_cell_length_b   19.90260000
_cell_length_c   14.35330000
_cell_angle_alpha   90.00000000
_cell_angle_beta   90.00000000
_cell_angle_gamma   90.00000000
_symmetry_Int_Tables_number   1
_chemical_formula_structural   Cd4H19C28(N3O4)3
_chemical_formula_sum   'Cd32 H152 C224 N72 O96'
_cell_volume   10838.52915471
_cell_formula_units_Z   8
loop_
 _symmetry_equiv_pos_site_id
 _symmetry_equiv_pos_as_xyz
  1  'x, y, z'
loop_
 _atom_site_type_symbol
 _atom_site_label
 _atom_site_symmetry_multiplicity
 _atom_site_fract_x
 _atom_site_fract_y
 _atom_site_fract_z
 _atom_site_occupancy
 _atom_site_charge
  Cd  Cd1  1  0.615760  0.239330  0.501530  1.0  0.932
  Cd  Cd2  1  0.247730  0.183040  0.751220  1.0  1.054
  Cd  Cd3  1  0.323940  0.290050  0.410370  1.0  1.0431
  Cd  Cd4  1  0.319850  0.170150  0.588170  1.0  1.1023
  Cd  Cd5  1  0.884240  0.260670  0.001530  1.0  0.932
  Cd  Cd6  1  0.252270  0.316960  0.251220  1.0  1.0549
  Cd  Cd7  1  0.176060  0.209950  0.910370  1.0  1.043
  Cd  Cd8  1  0.180150  0.329850  0.088170  1.0  1.1009
  Cd  Cd9  1  0.384240  0.239330  0.998470  1.0  0.932
  Cd  Cd10  1  0.752270  0.183040  0.748780  1.0  1.0542
  Cd  Cd11  1  0.676060  0.290050  0.089630  1.0  1.0433
  Cd  Cd12  1  0.680150  0.170150  0.911830  1.0  1.1018
  Cd  Cd13  1  0.115760  0.260670  0.498470  1.0  0.9321
  Cd  Cd14  1  0.747730  0.316960  0.248780  1.0  1.0545
  Cd  Cd15  1  0.823940  0.209950  0.589630  1.0  1.0438
  Cd  Cd16  1  0.819850  0.329850  0.411830  1.0  1.1013
  Cd  Cd17  1  0.384240  0.760670  0.498470  1.0  0.932
  Cd  Cd18  1  0.752270  0.816960  0.248780  1.0  1.0548
  Cd  Cd19  1  0.676060  0.709950  0.589630  1.0  1.0432
  Cd  Cd20  1  0.680150  0.829850  0.411830  1.0  1.1007
  Cd  Cd21  1  0.115760  0.739330  0.998470  1.0  0.9321
  Cd  Cd22  1  0.747730  0.683040  0.748780  1.0  1.0539
  Cd  Cd23  1  0.823940  0.790050  0.089630  1.0  1.0435
  Cd  Cd24  1  0.819850  0.670150  0.911830  1.0  1.1021
  Cd  Cd25  1  0.615760  0.760670  0.001530  1.0  0.932
  Cd  Cd26  1  0.247730  0.816960  0.251220  1.0  1.0545
  Cd  Cd27  1  0.323940  0.709950  0.910370  1.0  1.0436
  Cd  Cd28  1  0.319850  0.829850  0.088170  1.0  1.1016
  Cd  Cd29  1  0.884240  0.739330  0.501530  1.0  0.9319
  Cd  Cd30  1  0.252270  0.683040  0.751220  1.0  1.0544
  Cd  Cd31  1  0.176060  0.790050  0.410370  1.0  1.043
  Cd  Cd32  1  0.180150  0.670150  0.588170  1.0  1.1019
  H  H33  1  0.209600  0.141000  0.354000  1.0  0.1054
  H  H34  1  0.438400  0.294200  0.407000  1.0  0.1078
  H  H35  1  0.301200  0.050500  0.406700  1.0  0.1149
  H  H36  1  0.273800  0.947800  0.401300  1.0  0.0959
  H  H37  1  0.301300  0.201800  0.934700  1.0  0.087
  H  H38  1  0.439400  0.146100  0.593600  1.0  0.0984
  H  H39  1  0.500300  0.150600  0.597600  1.0  0.1036
  H  H40  1  0.284400  0.520200  0.635100  1.0  0.1105
  H  H41  1  0.181200  0.038300  0.363400  1.0  0.1082
  H  H42  1  0.218100  0.326500  0.626100  1.0  0.0891
  H  H43  1  0.311700  0.418600  0.616700  1.0  0.106
  H  H44  1  0.499100  0.294500  0.407500  1.0  0.1053
  H  H45  1  0.190200  0.428800  0.631100  1.0  0.1181
  H  H46  1  0.281000  0.342700  0.045600  1.0  0.3668
  H  H47  1  0.311100  0.322800  0.984800  1.0  0.3304
  H  H48  1  0.396900  0.182700  0.704600  1.0  0.3451
  H  H49  1  0.410000  0.197500  0.800200  1.0  0.3403
  H  H50  1  0.396000  0.270200  0.291800  1.0  0.336
  H  H51  1  0.408700  0.261200  0.194400  1.0  0.3427
  H  H52  1  0.290400  0.359000  0.854000  1.0  0.105
  H  H53  1  0.061600  0.205800  0.907000  1.0  0.1077
  H  H54  1  0.198800  0.449500  0.906700  1.0  0.1181
  H  H55  1  0.226200  0.552200  0.901300  1.0  0.096
  H  H56  1  0.198700  0.298200  0.434700  1.0  0.0878
  H  H57  1  0.060600  0.353900  0.093600  1.0  0.0988
  H  H58  1  0.999700  0.349400  0.097600  1.0  0.1036
  H  H59  1  0.215600  0.979800  0.135100  1.0  0.1102
  H  H60  1  0.318800  0.461700  0.863400  1.0  0.1074
  H  H61  1  0.281900  0.173500  0.126100  1.0  0.0897
  H  H62  1  0.188300  0.081400  0.116700  1.0  0.1063
  H  H63  1  0.000900  0.205500  0.907500  1.0  0.1044
  H  H64  1  0.309800  0.071200  0.131100  1.0  0.1179
  H  H65  1  0.219000  0.157300  0.545600  1.0  0.3684
  H  H66  1  0.188900  0.177200  0.484800  1.0  0.3301
  H  H67  1  0.103100  0.317300  0.204600  1.0  0.3453
  H  H68  1  0.090000  0.302500  0.300200  1.0  0.3403
  H  H69  1  0.104000  0.229800  0.791800  1.0  0.3356
  H  H70  1  0.091300  0.238800  0.694400  1.0  0.3401
  H  H71  1  0.790400  0.141000  0.146000  1.0  0.105
  H  H72  1  0.561600  0.294200  0.093000  1.0  0.1079
  H  H73  1  0.698800  0.050500  0.093300  1.0  0.1177
  H  H74  1  0.726200  0.947800  0.098700  1.0  0.0961
  H  H75  1  0.698700  0.201800  0.565300  1.0  0.0862
  H  H76  1  0.560600  0.146100  0.906400  1.0  0.0987
  H  H77  1  0.499700  0.150600  0.902400  1.0  0.1029
  H  H78  1  0.715600  0.520200  0.864900  1.0  0.1102
  H  H79  1  0.818800  0.038300  0.136600  1.0  0.1073
  H  H80  1  0.781900  0.326500  0.873900  1.0  0.0898
  H  H81  1  0.688300  0.418600  0.883300  1.0  0.1063
  H  H82  1  0.500900  0.294500  0.092500  1.0  0.1051
  H  H83  1  0.809800  0.428800  0.868900  1.0  0.118
  H  H84  1  0.719000  0.342700  0.454400  1.0  0.3682
  H  H85  1  0.688900  0.322800  0.515200  1.0  0.3304
  H  H86  1  0.603100  0.182700  0.795400  1.0  0.3438
  H  H87  1  0.590000  0.197500  0.699800  1.0  0.3386
  H  H88  1  0.604000  0.270200  0.208200  1.0  0.3352
  H  H89  1  0.591300  0.261200  0.305600  1.0  0.3419
  H  H90  1  0.709600  0.359000  0.646000  1.0  0.1043
  H  H91  1  0.938400  0.205800  0.593000  1.0  0.1076
  H  H92  1  0.801200  0.449500  0.593300  1.0  0.1152
  H  H93  1  0.773800  0.552200  0.598700  1.0  0.0959
  H  H94  1  0.801300  0.298200  0.065300  1.0  0.087
  H  H95  1  0.939400  0.353900  0.406400  1.0  0.0989
  H  H96  1  0.000300  0.349400  0.402400  1.0  0.1042
  H  H97  1  0.784400  0.979800  0.364900  1.0  0.1099
  H  H98  1  0.681200  0.461700  0.636600  1.0  0.1082
  H  H99  1  0.718100  0.173500  0.373900  1.0  0.0897
  H  H100  1  0.811700  0.081400  0.383300  1.0  0.1064
  H  H101  1  0.999100  0.205500  0.592500  1.0  0.1044
  H  H102  1  0.690200  0.071200  0.368900  1.0  0.1178
  H  H103  1  0.781000  0.157300  0.954400  1.0  0.3665
  H  H104  1  0.811100  0.177200  0.015200  1.0  0.3303
  H  H105  1  0.896900  0.317300  0.295400  1.0  0.344
  H  H106  1  0.910000  0.302500  0.199800  1.0  0.3397
  H  H107  1  0.896000  0.229800  0.708200  1.0  0.3347
  H  H108  1  0.908700  0.238800  0.805600  1.0  0.3435
  H  H109  1  0.790400  0.859000  0.646000  1.0  0.1047
  H  H110  1  0.561600  0.705800  0.593000  1.0  0.1081
  H  H111  1  0.698800  0.949500  0.593300  1.0  0.1178
  H  H112  1  0.726200  0.052200  0.598700  1.0  0.0959
  H  H113  1  0.698700  0.798200  0.065300  1.0  0.0864
  H  H114  1  0.560600  0.853900  0.406400  1.0  0.0987
  H  H115  1  0.499700  0.849400  0.402400  1.0  0.104
  H  H116  1  0.715600  0.479800  0.364900  1.0  0.1097
  H  H117  1  0.818800  0.961700  0.636600  1.0  0.1071
  H  H118  1  0.781900  0.673500  0.373900  1.0  0.0898
  H  H119  1  0.688300  0.581400  0.383300  1.0  0.1063
  H  H120  1  0.500900  0.705500  0.592500  1.0  0.105
  H  H121  1  0.809800  0.571200  0.368900  1.0  0.1179
  H  H122  1  0.719000  0.657300  0.954400  1.0  0.3683
  H  H123  1  0.688900  0.677200  0.015200  1.0  0.3308
  H  H124  1  0.603100  0.817300  0.295400  1.0  0.3434
  H  H125  1  0.590000  0.802500  0.199800  1.0  0.3385
  H  H126  1  0.604000  0.729800  0.708200  1.0  0.3349
  H  H127  1  0.591300  0.738800  0.805600  1.0  0.3416
  H  H128  1  0.709600  0.641000  0.146000  1.0  0.1052
  H  H129  1  0.938400  0.794200  0.093000  1.0  0.1079
  H  H130  1  0.801200  0.550500  0.093300  1.0  0.1151
  H  H131  1  0.773800  0.447800  0.098700  1.0  0.0959
  H  H132  1  0.801300  0.701800  0.565300  1.0  0.0866
  H  H133  1  0.939400  0.646100  0.906400  1.0  0.0982
  H  H134  1  0.000300  0.650600  0.902400  1.0  0.1033
  H  H135  1  0.784400  0.020200  0.864900  1.0  0.1105
  H  H136  1  0.681200  0.538300  0.136600  1.0  0.1083
  H  H137  1  0.718100  0.826500  0.873900  1.0  0.0891
  H  H138  1  0.811700  0.918600  0.883300  1.0  0.106
  H  H139  1  0.999100  0.794500  0.092500  1.0  0.1055
  H  H140  1  0.690200  0.928800  0.868900  1.0  0.118
  H  H141  1  0.781000  0.842700  0.454400  1.0  0.3669
  H  H142  1  0.811100  0.822800  0.515200  1.0  0.3296
  H  H143  1  0.896900  0.682700  0.795400  1.0  0.3444
  H  H144  1  0.910000  0.697500  0.699800  1.0  0.3399
  H  H145  1  0.896000  0.770200  0.208200  1.0  0.3349
  H  H146  1  0.908700  0.761200  0.305600  1.0  0.3437
  H  H147  1  0.209600  0.859000  0.854000  1.0  0.1043
  H  H148  1  0.438400  0.705800  0.907000  1.0  0.1072
  H  H149  1  0.301200  0.949500  0.906700  1.0  0.1151
  H  H150  1  0.273800  0.052200  0.901300  1.0  0.0961
  H  H151  1  0.301300  0.798200  0.434700  1.0  0.0867
  H  H152  1  0.439400  0.853900  0.093600  1.0  0.0989
  H  H153  1  0.500300  0.849400  0.097600  1.0  0.1037
  H  H154  1  0.284400  0.479800  0.135100  1.0  0.1104
  H  H155  1  0.181200  0.961700  0.863400  1.0  0.1083
  H  H156  1  0.218100  0.673500  0.126100  1.0  0.0897
  H  H157  1  0.311700  0.581400  0.116700  1.0  0.1065
  H  H158  1  0.499100  0.705500  0.907500  1.0  0.1045
  H  H159  1  0.190200  0.571200  0.131100  1.0  0.1178
  H  H160  1  0.281000  0.657300  0.545600  1.0  0.3665
  H  H161  1  0.311100  0.677200  0.484800  1.0  0.3309
  H  H162  1  0.396900  0.817300  0.204600  1.0  0.3448
  H  H163  1  0.410000  0.802500  0.300200  1.0  0.3402
  H  H164  1  0.396000  0.729800  0.791800  1.0  0.3359
  H  H165  1  0.408700  0.738800  0.694400  1.0  0.3429
  H  H166  1  0.290400  0.641000  0.354000  1.0  0.1054
  H  H167  1  0.061600  0.794200  0.407000  1.0  0.1079
  H  H168  1  0.198800  0.550500  0.406700  1.0  0.1179
  H  H169  1  0.226200  0.447800  0.401300  1.0  0.0959
  H  H170  1  0.198700  0.701800  0.934700  1.0  0.0882
  H  H171  1  0.060600  0.646100  0.593600  1.0  0.0989
  H  H172  1  0.999700  0.650600  0.597600  1.0  0.1034
  H  H173  1  0.215600  0.020200  0.635100  1.0  0.1104
  H  H174  1  0.318800  0.538300  0.363400  1.0  0.1074
  H  H175  1  0.281900  0.826500  0.626100  1.0  0.0897
  H  H176  1  0.188300  0.918600  0.616700  1.0  0.1063
  H  H177  1  0.000900  0.794500  0.407500  1.0  0.1044
  H  H178  1  0.309800  0.928800  0.631100  1.0  0.118
  H  H179  1  0.219000  0.842700  0.045600  1.0  0.3683
  H  H180  1  0.188900  0.822800  0.984800  1.0  0.3302
  H  H181  1  0.103100  0.682700  0.704600  1.0  0.3456
  H  H182  1  0.090000  0.697500  0.800200  1.0  0.3404
  H  H183  1  0.104000  0.770200  0.291800  1.0  0.3357
  H  H184  1  0.091300  0.761200  0.194400  1.0  0.34
  C  C185  1  0.360900  0.278900  0.203200  1.0  0.4342
  C  C186  1  0.222300  0.102300  0.367300  1.0  -0.1221
  C  C187  1  0.450600  0.264400  0.445000  1.0  -0.0477
  C  C188  1  0.277000  0.048300  0.396700  1.0  -0.0521
  C  C189  1  0.260500  0.986900  0.395800  1.0  -0.057
  C  C190  1  0.234300  0.484700  0.629700  1.0  -0.1374
  C  C191  1  0.216500  0.552300  0.625200  1.0  0.6908
  C  C192  1  0.315200  0.195400  0.882100  1.0  0.2959
  C  C193  1  0.285400  0.296100  0.604100  1.0  0.6832
  C  C194  1  0.359000  0.191700  0.794600  1.0  0.6014
  C  C195  1  0.224300  0.982900  0.386800  1.0  -0.1545
  C  C196  1  0.267700  0.361700  0.618500  1.0  -0.1502
  C  C197  1  0.545600  0.228100  0.507000  1.0  0.683
  C  C198  1  0.451300  0.176900  0.556400  1.0  -0.0493
  C  C199  1  0.206200  0.916600  0.393700  1.0  0.6702
  C  C200  1  0.487900  0.179800  0.559000  1.0  -0.0289
  C  C201  1  0.271100  0.481200  0.629500  1.0  -0.0838
  C  C202  1  0.505800  0.224500  0.506000  1.0  -0.1437
  C  C203  1  0.205500  0.040600  0.371300  1.0  -0.0317
  C  C204  1  0.231400  0.365800  0.624700  1.0  -0.0206
  C  C205  1  0.432500  0.219200  0.499200  1.0  -0.1343
  C  C206  1  0.393400  0.218000  0.497900  1.0  0.7377
  C  C207  1  0.287300  0.420600  0.621000  1.0  -0.036
  C  C208  1  0.319200  0.307200  0.111100  1.0  0.5265
  C  C209  1  0.258200  0.106200  0.383000  1.0  -0.1123
  C  C210  1  0.275200  0.173300  0.384900  1.0  0.7095
  C  C211  1  0.487100  0.265500  0.447000  1.0  -0.0369
  C  C212  1  0.214700  0.426700  0.628900  1.0  -0.0575
  C  C213  1  0.139100  0.221100  0.703200  1.0  0.4351
  C  C214  1  0.277700  0.397700  0.867300  1.0  -0.1197
  C  C215  1  0.049400  0.235600  0.945000  1.0  -0.048
  C  C216  1  0.223000  0.451700  0.896700  1.0  -0.0527
  C  C217  1  0.239500  0.513100  0.895800  1.0  -0.0547
  C  C218  1  0.265700  0.015300  0.129700  1.0  -0.1378
  C  C219  1  0.283500  0.947700  0.125200  1.0  0.6919
  C  C220  1  0.184800  0.304600  0.382100  1.0  0.2953
  C  C221  1  0.214600  0.203900  0.104100  1.0  0.683
  C  C222  1  0.141000  0.308300  0.294600  1.0  0.6008
  C  C223  1  0.275700  0.517100  0.886800  1.0  -0.1548
  C  C224  1  0.232300  0.138300  0.118500  1.0  -0.1501
  C  C225  1  0.954400  0.271900  0.007000  1.0  0.6824
  C  C226  1  0.048700  0.323100  0.056400  1.0  -0.0497
  C  C227  1  0.293800  0.583400  0.893700  1.0  0.6702
  C  C228  1  0.012100  0.320200  0.059000  1.0  -0.0291
  C  C229  1  0.228900  0.018800  0.129500  1.0  -0.0848
  C  C230  1  0.994200  0.275500  0.006000  1.0  -0.1465
  C  C231  1  0.294500  0.459400  0.871300  1.0  -0.032
  C  C232  1  0.268600  0.134200  0.124700  1.0  -0.0209
  C  C233  1  0.067500  0.280800  0.999200  1.0  -0.1352
  C  C234  1  0.106600  0.282000  0.997900  1.0  0.7382
  C  C235  1  0.212700  0.079400  0.121000  1.0  -0.0363
  C  C236  1  0.180800  0.192800  0.611100  1.0  0.5273
  C  C237  1  0.241800  0.393800  0.883000  1.0  -0.1122
  C  C238  1  0.224800  0.326700  0.884900  1.0  0.7098
  C  C239  1  0.012900  0.234500  0.947000  1.0  -0.0361
  C  C240  1  0.285300  0.073300  0.128900  1.0  -0.0581
  C  C241  1  0.639100  0.278900  0.296800  1.0  0.4355
  C  C242  1  0.777700  0.102300  0.132700  1.0  -0.1224
  C  C243  1  0.549400  0.264400  0.055000  1.0  -0.0487
  C  C244  1  0.723000  0.048300  0.103300  1.0  -0.0528
  C  C245  1  0.739500  0.986900  0.104200  1.0  -0.0561
  C  C246  1  0.765700  0.484700  0.870300  1.0  -0.1376
  C  C247  1  0.783500  0.552300  0.874800  1.0  0.6916
  C  C248  1  0.684800  0.195400  0.617900  1.0  0.2953
  C  C249  1  0.714600  0.296100  0.895900  1.0  0.6832
  C  C250  1  0.641000  0.191700  0.705400  1.0  0.6012
  C  C251  1  0.775700  0.982900  0.113200  1.0  -0.1543
  C  C252  1  0.732300  0.361700  0.881500  1.0  -0.1511
  C  C253  1  0.454400  0.228100  0.993000  1.0  0.6823
  C  C254  1  0.548700  0.176900  0.943600  1.0  -0.05
  C  C255  1  0.793800  0.916600  0.106300  1.0  0.6701
  C  C256  1  0.512100  0.179800  0.941000  1.0  -0.0285
  C  C257  1  0.728900  0.481200  0.870500  1.0  -0.0858
  C  C258  1  0.494200  0.224500  0.994000  1.0  -0.1463
  C  C259  1  0.794500  0.040600  0.128700  1.0  -0.0317
  C  C260  1  0.768600  0.365800  0.875300  1.0  -0.0219
  C  C261  1  0.567500  0.219200  0.000800  1.0  -0.1351
  C  C262  1  0.606600  0.218000  0.002100  1.0  0.7382
  C  C263  1  0.712700  0.420600  0.879000  1.0  -0.0357
  C  C264  1  0.680800  0.307200  0.388900  1.0  0.5265
  C  C265  1  0.741800  0.106200  0.117000  1.0  -0.1115
  C  C266  1  0.724800  0.173300  0.115100  1.0  0.7103
  C  C267  1  0.512900  0.265500  0.053000  1.0  -0.0379
  C  C268  1  0.785300  0.426700  0.871100  1.0  -0.0577
  C  C269  1  0.860900  0.221100  0.796800  1.0  0.4348
  C  C270  1  0.722300  0.397700  0.632700  1.0  -0.1195
  C  C271  1  0.950600  0.235600  0.555000  1.0  -0.047
  C  C272  1  0.777000  0.451700  0.603300  1.0  -0.0522
  C  C273  1  0.760500  0.513100  0.604200  1.0  -0.0552
  C  C274  1  0.734300  0.015300  0.370300  1.0  -0.1375
  C  C275  1  0.716500  0.947700  0.374800  1.0  0.6907
  C  C276  1  0.815200  0.304600  0.117900  1.0  0.295
  C  C277  1  0.785400  0.203900  0.395900  1.0  0.6831
  C  C278  1  0.859000  0.308300  0.205400  1.0  0.6013
  C  C279  1  0.724300  0.517100  0.613200  1.0  -0.1534
  C  C280  1  0.767700  0.138300  0.381500  1.0  -0.1503
  C  C281  1  0.045600  0.271900  0.493000  1.0  0.6828
  C  C282  1  0.951300  0.323100  0.443600  1.0  -0.0495
  C  C283  1  0.706200  0.583400  0.606300  1.0  0.6706
  C  C284  1  0.987900  0.320200  0.441000  1.0  -0.0282
  C  C285  1  0.771100  0.018800  0.370500  1.0  -0.0843
  C  C286  1  0.005800  0.275500  0.494000  1.0  -0.1439
  C  C287  1  0.705500  0.459400  0.628700  1.0  -0.031
  C  C288  1  0.731400  0.134200  0.375300  1.0  -0.0194
  C  C289  1  0.932500  0.280800  0.500800  1.0  -0.1344
  C  C290  1  0.893400  0.282000  0.502100  1.0  0.7379
  C  C291  1  0.787300  0.079400  0.379000  1.0  -0.0349
  C  C292  1  0.819200  0.192800  0.888900  1.0  0.5277
  C  C293  1  0.758200  0.393800  0.617000  1.0  -0.1123
  C  C294  1  0.775200  0.326700  0.615100  1.0  0.7103
  C  C295  1  0.987100  0.234500  0.553000  1.0  -0.0374
  C  C296  1  0.714700  0.073300  0.371100  1.0  -0.0573
  C  C297  1  0.639100  0.721100  0.796800  1.0  0.4359
  C  C298  1  0.777700  0.897700  0.632700  1.0  -0.1228
  C  C299  1  0.549400  0.735600  0.555000  1.0  -0.0472
  C  C300  1  0.723000  0.951700  0.603300  1.0  -0.0524
  C  C301  1  0.739500  0.013100  0.604200  1.0  -0.0542
  C  C302  1  0.765700  0.515300  0.370300  1.0  -0.137
  C  C303  1  0.783500  0.447700  0.374800  1.0  0.6918
  C  C304  1  0.684800  0.804600  0.117900  1.0  0.295
  C  C305  1  0.714600  0.703900  0.395900  1.0  0.6831
  C  C306  1  0.641000  0.808300  0.205400  1.0  0.6009
  C  C307  1  0.775700  0.017100  0.613200  1.0  -0.1547
  C  C308  1  0.732300  0.638300  0.381500  1.0  -0.1503
  C  C309  1  0.454400  0.771900  0.493000  1.0  0.6822
  C  C310  1  0.548700  0.823100  0.443600  1.0  -0.0498
  C  C311  1  0.793800  0.083400  0.606300  1.0  0.6702
  C  C312  1  0.512100  0.820200  0.441000  1.0  -0.0291
  C  C313  1  0.728900  0.518800  0.370500  1.0  -0.0856
  C  C314  1  0.494200  0.775500  0.494000  1.0  -0.1465
  C  C315  1  0.794500  0.959400  0.628700  1.0  -0.0317
  C  C316  1  0.768600  0.634200  0.375300  1.0  -0.0208
  C  C317  1  0.567500  0.780800  0.500800  1.0  -0.1351
  C  C318  1  0.606600  0.782000  0.502100  1.0  0.7382
  C  C319  1  0.712700  0.579400  0.379000  1.0  -0.036
  C  C320  1  0.680800  0.692800  0.888900  1.0  0.5276
  C  C321  1  0.741800  0.893800  0.617000  1.0  -0.112
  C  C322  1  0.724800  0.826700  0.615100  1.0  0.7105
  C  C323  1  0.512900  0.734500  0.553000  1.0  -0.0378
  C  C324  1  0.785300  0.573300  0.371100  1.0  -0.0579
  C  C325  1  0.860900  0.778900  0.296800  1.0  0.4346
  C  C326  1  0.722300  0.602300  0.132700  1.0  -0.1188
  C  C327  1  0.950600  0.764400  0.055000  1.0  -0.0481
  C  C328  1  0.777000  0.548300  0.103300  1.0  -0.0521
  C  C329  1  0.760500  0.486900  0.104200  1.0  -0.0569
  C  C330  1  0.734300  0.984700  0.870300  1.0  -0.1371
  C  C331  1  0.716500  0.052300  0.874800  1.0  0.6907
  C  C332  1  0.815200  0.695400  0.617900  1.0  0.2955
  C  C333  1  0.785400  0.796100  0.895900  1.0  0.6836
  C  C334  1  0.859000  0.691700  0.705400  1.0  0.6015
  C  C335  1  0.724300  0.482900  0.113200  1.0  -0.154
  C  C336  1  0.767700  0.861700  0.881500  1.0  -0.1504
  C  C337  1  0.045600  0.728100  0.993000  1.0  0.6828
  C  C338  1  0.951300  0.676900  0.943600  1.0  -0.0502
  C  C339  1  0.706200  0.416600  0.106300  1.0  0.6701
  C  C340  1  0.987900  0.679800  0.941000  1.0  -0.0294
  C  C341  1  0.771100  0.981200  0.870500  1.0  -0.0845
  C  C342  1  0.005800  0.724500  0.994000  1.0  -0.1438
  C  C343  1  0.705500  0.540600  0.128700  1.0  -0.0308
  C  C344  1  0.731400  0.865800  0.875300  1.0  -0.0203
  C  C345  1  0.932500  0.719200  0.000800  1.0  -0.1344
  C  C346  1  0.893400  0.718000  0.002100  1.0  0.7377
  C  C347  1  0.787300  0.920600  0.879000  1.0  -0.0355
  C  C348  1  0.819200  0.807200  0.388900  1.0  0.5269
  C  C349  1  0.758200  0.606200  0.117000  1.0  -0.1125
  C  C350  1  0.775200  0.673300  0.115100  1.0  0.7098
  C  C351  1  0.987100  0.765500  0.053000  1.0  -0.0351
  C  C352  1  0.714700  0.926700  0.871100  1.0  -0.0576
  C  C353  1  0.360900  0.721100  0.703200  1.0  0.4344
  C  C354  1  0.222300  0.897700  0.867300  1.0  -0.1223
  C  C355  1  0.450600  0.735600  0.945000  1.0  -0.0477
  C  C356  1  0.277000  0.951700  0.896700  1.0  -0.0525
  C  C357  1  0.260500  0.013100  0.895800  1.0  -0.0555
  C  C358  1  0.234300  0.515300  0.129700  1.0  -0.1374
  C  C359  1  0.216500  0.447700  0.125200  1.0  0.6906
  C  C360  1  0.315200  0.804600  0.382100  1.0  0.2952
  C  C361  1  0.285400  0.703900  0.104100  1.0  0.6828
  C  C362  1  0.359000  0.808300  0.294600  1.0  0.6013
  C  C363  1  0.224300  0.017100  0.886800  1.0  -0.1535
  C  C364  1  0.267700  0.638300  0.118500  1.0  -0.1501
  C  C365  1  0.545600  0.771900  0.007000  1.0  0.683
  C  C366  1  0.451300  0.823100  0.056400  1.0  -0.0492
  C  C367  1  0.206200  0.083400  0.893700  1.0  0.6706
  C  C368  1  0.487900  0.820200  0.059000  1.0  -0.0281
  C  C369  1  0.271100  0.518800  0.129500  1.0  -0.0836
  C  C370  1  0.505800  0.775500  0.006000  1.0  -0.1438
  C  C371  1  0.205500  0.959400  0.871300  1.0  -0.0316
  C  C372  1  0.231400  0.634200  0.124700  1.0  -0.0195
  C  C373  1  0.432500  0.780800  0.999200  1.0  -0.1344
  C  C374  1  0.393400  0.782000  0.997900  1.0  0.7379
  C  C375  1  0.287300  0.579400  0.121000  1.0  -0.0353
  C  C376  1  0.319200  0.692800  0.611100  1.0  0.5274
  C  C377  1  0.258200  0.893800  0.883000  1.0  -0.1121
  C  C378  1  0.275200  0.826700  0.884900  1.0  0.7098
  C  C379  1  0.487100  0.734500  0.947000  1.0  -0.0376
  C  C380  1  0.214700  0.573300  0.128900  1.0  -0.0571
  C  C381  1  0.139100  0.778900  0.203200  1.0  0.4346
  C  C382  1  0.277700  0.602300  0.367300  1.0  -0.1196
  C  C383  1  0.049400  0.764400  0.445000  1.0  -0.0482
  C  C384  1  0.223000  0.548300  0.396700  1.0  -0.053
  C  C385  1  0.239500  0.486900  0.395800  1.0  -0.0564
  C  C386  1  0.265700  0.984700  0.629700  1.0  -0.1386
  C  C387  1  0.283500  0.052300  0.625200  1.0  0.6916
  C  C388  1  0.184800  0.695400  0.882100  1.0  0.2956
  C  C389  1  0.214600  0.796100  0.604100  1.0  0.683
  C  C390  1  0.141000  0.691700  0.794600  1.0  0.6011
  C  C391  1  0.275700  0.482900  0.386800  1.0  -0.1547
  C  C392  1  0.232300  0.861700  0.618500  1.0  -0.151
  C  C393  1  0.954400  0.728100  0.507000  1.0  0.6825
  C  C394  1  0.048700  0.676900  0.556400  1.0  -0.0489
  C  C395  1  0.293800  0.416600  0.393700  1.0  0.6703
  C  C396  1  0.012100  0.679800  0.559000  1.0  -0.0282
  C  C397  1  0.228900  0.981200  0.629500  1.0  -0.085
  C  C398  1  0.994200  0.724500  0.506000  1.0  -0.1463
  C  C399  1  0.294500  0.540600  0.371300  1.0  -0.0322
  C  C400  1  0.268600  0.865800  0.624700  1.0  -0.0221
  C  C401  1  0.067500  0.719200  0.499200  1.0  -0.1351
  C  C402  1  0.106600  0.718000  0.497900  1.0  0.7381
  C  C403  1  0.212700  0.920600  0.621000  1.0  -0.0361
  C  C404  1  0.180800  0.807200  0.111100  1.0  0.5261
  C  C405  1  0.241800  0.606200  0.383000  1.0  -0.1116
  C  C406  1  0.224800  0.673300  0.384900  1.0  0.7098
  C  C407  1  0.012900  0.765500  0.447000  1.0  -0.0378
  C  C408  1  0.285300  0.926700  0.628900  1.0  -0.0578
  N  N409  1  0.334030  0.291000  0.257200  1.0  -0.3388
  N  N410  1  0.306990  0.310700  0.197500  1.0  -0.2554
  N  N411  1  0.353740  0.286800  0.112400  1.0  -0.5188
  N  N412  1  0.301900  0.326300  0.039300  1.0  -0.6485
  N  N413  1  0.392800  0.190500  0.762500  1.0  -0.7416
  N  N414  1  0.330660  0.181500  0.742600  1.0  -0.2821
  N  N415  1  0.301770  0.182300  0.802900  1.0  -0.2864
  N  N416  1  0.350600  0.199500  0.885700  1.0  -0.4429
  N  N417  1  0.391800  0.269100  0.232900  1.0  -0.6911
  N  N418  1  0.165970  0.209000  0.757200  1.0  -0.338
  N  N419  1  0.193010  0.189300  0.697500  1.0  -0.2544
  N  N420  1  0.146260  0.213200  0.612400  1.0  -0.5172
  N  N421  1  0.198100  0.173700  0.539300  1.0  -0.6491
  N  N422  1  0.107200  0.309500  0.262500  1.0  -0.7414
  N  N423  1  0.169340  0.318500  0.242600  1.0  -0.2807
  N  N424  1  0.198230  0.317700  0.302900  1.0  -0.2879
  N  N425  1  0.149400  0.300500  0.385700  1.0  -0.4428
  N  N426  1  0.108200  0.230900  0.732900  1.0  -0.6909
  N  N427  1  0.665970  0.291000  0.242800  1.0  -0.3359
  N  N428  1  0.693010  0.310700  0.302500  1.0  -0.2559
  N  N429  1  0.646260  0.286800  0.387600  1.0  -0.5171
  N  N430  1  0.698100  0.326300  0.460700  1.0  -0.6496
  N  N431  1  0.607200  0.190500  0.737500  1.0  -0.7407
  N  N432  1  0.669340  0.181500  0.757400  1.0  -0.2837
  N  N433  1  0.698230  0.182300  0.697100  1.0  -0.2863
  N  N434  1  0.649400  0.199500  0.614300  1.0  -0.4399
  N  N435  1  0.608200  0.269100  0.267100  1.0  -0.6911
  N  N436  1  0.834030  0.209000  0.742800  1.0  -0.3363
  N  N437  1  0.806990  0.189300  0.802500  1.0  -0.2559
  N  N438  1  0.853740  0.213200  0.887600  1.0  -0.5174
  N  N439  1  0.801900  0.173700  0.960700  1.0  -0.6495
  N  N440  1  0.892800  0.309500  0.237500  1.0  -0.7402
  N  N441  1  0.830660  0.318500  0.257400  1.0  -0.2845
  N  N442  1  0.801770  0.317700  0.197100  1.0  -0.2864
  N  N443  1  0.850600  0.300500  0.114300  1.0  -0.4409
  N  N444  1  0.891800  0.230900  0.767100  1.0  -0.6922
  N  N445  1  0.665970  0.709000  0.742800  1.0  -0.3361
  N  N446  1  0.693010  0.689300  0.802500  1.0  -0.2561
  N  N447  1  0.646260  0.713200  0.887600  1.0  -0.5172
  N  N448  1  0.698100  0.673700  0.960700  1.0  -0.649
  N  N449  1  0.607200  0.809500  0.237500  1.0  -0.7405
  N  N450  1  0.669340  0.818500  0.257400  1.0  -0.2841
  N  N451  1  0.698230  0.817700  0.197100  1.0  -0.2872
  N  N452  1  0.649400  0.800500  0.114300  1.0  -0.4395
  N  N453  1  0.608200  0.730900  0.767100  1.0  -0.6913
  N  N454  1  0.834030  0.791000  0.242800  1.0  -0.3361
  N  N455  1  0.806990  0.810700  0.302500  1.0  -0.256
  N  N456  1  0.853740  0.786800  0.387600  1.0  -0.5174
  N  N457  1  0.801900  0.826300  0.460700  1.0  -0.6496
  N  N458  1  0.892800  0.690500  0.737500  1.0  -0.7402
  N  N459  1  0.830660  0.681500  0.757400  1.0  -0.284
  N  N460  1  0.801770  0.682300  0.697100  1.0  -0.286
  N  N461  1  0.850600  0.699500  0.614300  1.0  -0.441
  N  N462  1  0.891800  0.769100  0.267100  1.0  -0.6919
  N  N463  1  0.334030  0.709000  0.757200  1.0  -0.339
  N  N464  1  0.306990  0.689300  0.697500  1.0  -0.2544
  N  N465  1  0.353740  0.713200  0.612400  1.0  -0.519
  N  N466  1  0.301900  0.673700  0.539300  1.0  -0.6481
  N  N467  1  0.392800  0.809500  0.262500  1.0  -0.7415
  N  N468  1  0.330660  0.818500  0.242600  1.0  -0.2819
  N  N469  1  0.301770  0.817700  0.302900  1.0  -0.2863
  N  N470  1  0.350600  0.800500  0.385700  1.0  -0.4429
  N  N471  1  0.391800  0.730900  0.732900  1.0  -0.6915
  N  N472  1  0.165970  0.791000  0.257200  1.0  -0.3379
  N  N473  1  0.193010  0.810700  0.197500  1.0  -0.2551
  N  N474  1  0.146260  0.786800  0.112400  1.0  -0.5171
  N  N475  1  0.198100  0.826300  0.039300  1.0  -0.6497
  N  N476  1  0.107200  0.690500  0.762500  1.0  -0.7417
  N  N477  1  0.169340  0.681500  0.742600  1.0  -0.2812
  N  N478  1  0.198230  0.682300  0.802900  1.0  -0.2874
  N  N479  1  0.149400  0.699500  0.885700  1.0  -0.443
  N  N480  1  0.108200  0.769100  0.232900  1.0  -0.6905
  O  O481  1  0.173600  0.914000  0.406100  1.0  -0.6235
  O  O482  1  0.262400  0.220600  0.341100  1.0  -0.7279
  O  O483  1  0.223990  0.863500  0.387200  1.0  -0.7021
  O  O484  1  0.303730  0.180500  0.432000  1.0  -0.6856
  O  O485  1  0.235300  0.604600  0.639600  1.0  -0.6654
  O  O486  1  0.560800  0.261300  0.444400  1.0  -0.608
  O  O487  1  0.185160  0.556300  0.599300  1.0  -0.5797
  O  O488  1  0.561200  0.196600  0.567300  1.0  -0.6416
  O  O489  1  0.377390  0.179900  0.553100  1.0  -0.6559
  O  O490  1  0.316300  0.294300  0.570900  1.0  -0.722
  O  O491  1  0.378870  0.257200  0.440700  1.0  -0.6179
  O  O492  1  0.268920  0.242900  0.620900  1.0  -0.6893
  O  O493  1  0.326400  0.586000  0.906100  1.0  -0.6194
  O  O494  1  0.237600  0.279400  0.841100  1.0  -0.7294
  O  O495  1  0.276010  0.636500  0.887200  1.0  -0.7018
  O  O496  1  0.196270  0.319500  0.932000  1.0  -0.6849
  O  O497  1  0.264700  0.895400  0.139600  1.0  -0.6654
  O  O498  1  0.939200  0.238700  0.944400  1.0  -0.6071
  O  O499  1  0.314840  0.943700  0.099300  1.0  -0.5777
  O  O500  1  0.938800  0.303400  0.067300  1.0  -0.6408
  O  O501  1  0.122610  0.320100  0.053100  1.0  -0.6563
  O  O502  1  0.183700  0.205700  0.070900  1.0  -0.721
  O  O503  1  0.121130  0.242800  0.940700  1.0  -0.6192
  O  O504  1  0.231080  0.257100  0.120900  1.0  -0.6891
  O  O505  1  0.826400  0.914000  0.093900  1.0  -0.619
  O  O506  1  0.737600  0.220600  0.158900  1.0  -0.7296
  O  O507  1  0.776010  0.863500  0.112800  1.0  -0.7014
  O  O508  1  0.696270  0.180500  0.068000  1.0  -0.6846
  O  O509  1  0.764700  0.604600  0.860400  1.0  -0.6655
  O  O510  1  0.439200  0.261300  0.055600  1.0  -0.607
  O  O511  1  0.814840  0.556300  0.900700  1.0  -0.578
  O  O512  1  0.438800  0.196600  0.932700  1.0  -0.6422
  O  O513  1  0.622610  0.179900  0.946900  1.0  -0.6564
  O  O514  1  0.683700  0.294300  0.929100  1.0  -0.7217
  O  O515  1  0.621130  0.257200  0.059300  1.0  -0.619
  O  O516  1  0.731080  0.242900  0.879100  1.0  -0.6894
  O  O517  1  0.673600  0.586000  0.593900  1.0  -0.6228
  O  O518  1  0.762400  0.279400  0.658900  1.0  -0.7275
  O  O519  1  0.723990  0.636500  0.612800  1.0  -0.7029
  O  O520  1  0.803730  0.319500  0.568000  1.0  -0.6857
  O  O521  1  0.735300  0.895400  0.360400  1.0  -0.6662
  O  O522  1  0.060800  0.238700  0.555600  1.0  -0.607
  O  O523  1  0.685160  0.943700  0.400700  1.0  -0.5803
  O  O524  1  0.061200  0.303400  0.432700  1.0  -0.642
  O  O525  1  0.877390  0.320100  0.446900  1.0  -0.6546
  O  O526  1  0.816300  0.205700  0.429100  1.0  -0.7214
  O  O527  1  0.878870  0.242800  0.559300  1.0  -0.6192
  O  O528  1  0.768920  0.257100  0.379100  1.0  -0.6884
  O  O529  1  0.826400  0.086000  0.593900  1.0  -0.6192
  O  O530  1  0.737600  0.779400  0.658900  1.0  -0.7284
  O  O531  1  0.776010  0.136500  0.612800  1.0  -0.7021
  O  O532  1  0.696270  0.819500  0.568000  1.0  -0.6848
  O  O533  1  0.764700  0.395400  0.360400  1.0  -0.6665
  O  O534  1  0.439200  0.738700  0.555600  1.0  -0.6072
  O  O535  1  0.814840  0.443700  0.400700  1.0  -0.5782
  O  O536  1  0.438800  0.803400  0.432700  1.0  -0.6414
  O  O537  1  0.622610  0.820100  0.446900  1.0  -0.6563
  O  O538  1  0.683700  0.705700  0.429100  1.0  -0.7209
  O  O539  1  0.621130  0.742800  0.559300  1.0  -0.6193
  O  O540  1  0.731080  0.757100  0.379100  1.0  -0.6893
  O  O541  1  0.673600  0.414000  0.093900  1.0  -0.6236
  O  O542  1  0.762400  0.720600  0.158900  1.0  -0.7285
  O  O543  1  0.723990  0.363500  0.112800  1.0  -0.7021
  O  O544  1  0.803730  0.680500  0.068000  1.0  -0.6855
  O  O545  1  0.735300  0.104600  0.860400  1.0  -0.6652
  O  O546  1  0.060800  0.761300  0.055600  1.0  -0.6078
  O  O547  1  0.685160  0.056300  0.900700  1.0  -0.5796
  O  O548  1  0.061200  0.696600  0.932700  1.0  -0.6426
  O  O549  1  0.877390  0.679900  0.946900  1.0  -0.6555
  O  O550  1  0.816300  0.794300  0.929100  1.0  -0.7216
  O  O551  1  0.878870  0.757200  0.059300  1.0  -0.6187
  O  O552  1  0.768920  0.742900  0.879100  1.0  -0.6892
  O  O553  1  0.173600  0.086000  0.906100  1.0  -0.6231
  O  O554  1  0.262400  0.779400  0.841100  1.0  -0.7285
  O  O555  1  0.223990  0.136500  0.887200  1.0  -0.7025
  O  O556  1  0.303730  0.819500  0.932000  1.0  -0.6861
  O  O557  1  0.235300  0.395400  0.139600  1.0  -0.6653
  O  O558  1  0.560800  0.738700  0.944400  1.0  -0.6074
  O  O559  1  0.185160  0.443700  0.099300  1.0  -0.5799
  O  O560  1  0.561200  0.803400  0.067300  1.0  -0.6409
  O  O561  1  0.377390  0.820100  0.053100  1.0  -0.6549
  O  O562  1  0.316300  0.705700  0.070900  1.0  -0.7216
  O  O563  1  0.378870  0.742800  0.940700  1.0  -0.6188
  O  O564  1  0.268920  0.757100  0.120900  1.0  -0.6893
  O  O565  1  0.326400  0.414000  0.406100  1.0  -0.6193
  O  O566  1  0.237600  0.720600  0.341100  1.0  -0.7289
  O  O567  1  0.276010  0.363500  0.387200  1.0  -0.7013
  O  O568  1  0.196270  0.680500  0.432000  1.0  -0.6844
  O  O569  1  0.264700  0.104600  0.639600  1.0  -0.6658
  O  O570  1  0.939200  0.761300  0.444400  1.0  -0.6067
  O  O571  1  0.314840  0.056300  0.599300  1.0  -0.578
  O  O572  1  0.938800  0.696600  0.567300  1.0  -0.6416
  O  O573  1  0.122610  0.679900  0.553100  1.0  -0.6564
  O  O574  1  0.183700  0.794300  0.570900  1.0  -0.7219
  O  O575  1  0.121130  0.757200  0.440700  1.0  -0.6186
  O  O576  1  0.231080  0.742900  0.620900  1.0  -0.6896
