# generated using pymatgen
data_Zn5H20C32(NO)12
_symmetry_space_group_name_H-M   'P 1'
_cell_length_a   9.47700000
_cell_length_b   34.80000000
_cell_length_c   25.01000000
_cell_angle_alpha   90.00000000
_cell_angle_beta   90.00000000
_cell_angle_gamma   90.00000000
_symmetry_Int_Tables_number   1
_chemical_formula_structural   Zn5H20C32(NO)12
_chemical_formula_sum   'Zn20 H80 C128 N48 O48'
_cell_volume   8248.28799600
_cell_formula_units_Z   4
loop_
 _symmetry_equiv_pos_site_id
 _symmetry_equiv_pos_as_xyz
  1  'x, y, z'
loop_
 _atom_site_type_symbol
 _atom_site_label
 _atom_site_symmetry_multiplicity
 _atom_site_fract_x
 _atom_site_fract_y
 _atom_site_fract_z
 _atom_site_occupancy
 _atom_site_charge
  Zn  Zn1  1  0.000000  0.905430  0.055240  1.0  0.8269
  Zn  Zn2  1  0.000000  0.091440  0.408380  1.0  0.9108
  Zn  Zn3  1  0.500000  0.405430  0.555240  1.0  0.8269
  Zn  Zn4  1  0.500000  0.591440  0.908380  1.0  0.9108
  Zn  Zn5  1  0.000000  0.594570  0.055240  1.0  0.8311
  Zn  Zn6  1  0.000000  0.408560  0.408380  1.0  0.91
  Zn  Zn7  1  0.500000  0.094570  0.555240  1.0  0.8311
  Zn  Zn8  1  0.500000  0.908560  0.908380  1.0  0.91
  Zn  Zn9  1  0.000000  0.405430  0.944760  1.0  0.8281
  Zn  Zn10  1  0.000000  0.591440  0.591620  1.0  0.9118
  Zn  Zn11  1  0.500000  0.905430  0.444760  1.0  0.8281
  Zn  Zn12  1  0.500000  0.091440  0.091620  1.0  0.9118
  Zn  Zn13  1  0.000000  0.094570  0.944760  1.0  0.8304
  Zn  Zn14  1  0.000000  0.908560  0.591620  1.0  0.9116
  Zn  Zn15  1  0.500000  0.594570  0.444760  1.0  0.8304
  Zn  Zn16  1  0.500000  0.408560  0.091620  1.0  0.9116
  Zn  Zn17  1  0.000000  0.000000  0.000000  1.0  0.6788
  Zn  Zn18  1  0.500000  0.500000  0.500000  1.0  0.6788
  Zn  Zn19  1  0.000000  0.500000  0.000000  1.0  0.6788
  Zn  Zn20  1  0.500000  0.000000  0.500000  1.0  0.6788
  H  H21  1  0.286500  0.878800  0.995400  1.0  0.0981
  H  H22  1  0.282900  0.978700  0.928600  1.0  0.0686
  H  H23  1  0.786500  0.378800  0.495400  1.0  0.0981
  H  H24  1  0.782900  0.478700  0.428600  1.0  0.0686
  H  H25  1  0.713500  0.621200  0.995400  1.0  0.0982
  H  H26  1  0.717100  0.521300  0.928600  1.0  0.0685
  H  H27  1  0.213500  0.121200  0.495400  1.0  0.0982
  H  H28  1  0.217100  0.021300  0.428600  1.0  0.0685
  H  H29  1  0.713500  0.378800  0.004600  1.0  0.0983
  H  H30  1  0.717100  0.478700  0.071400  1.0  0.0688
  H  H31  1  0.213500  0.878800  0.504600  1.0  0.0983
  H  H32  1  0.217100  0.978700  0.571400  1.0  0.0688
  H  H33  1  0.286500  0.121200  0.004600  1.0  0.0984
  H  H34  1  0.282900  0.021300  0.071400  1.0  0.0696
  H  H35  1  0.786500  0.621200  0.504600  1.0  0.0984
  H  H36  1  0.782900  0.521300  0.571400  1.0  0.0696
  H  H37  1  0.713500  0.121200  0.004600  1.0  0.0983
  H  H38  1  0.717100  0.021300  0.071400  1.0  0.0695
  H  H39  1  0.213500  0.621200  0.504600  1.0  0.0983
  H  H40  1  0.217100  0.521300  0.571400  1.0  0.0695
  H  H41  1  0.286500  0.378800  0.004600  1.0  0.0983
  H  H42  1  0.282900  0.478700  0.071400  1.0  0.0689
  H  H43  1  0.786500  0.878800  0.504600  1.0  0.0983
  H  H44  1  0.782900  0.978700  0.571400  1.0  0.0689
  H  H45  1  0.286500  0.621200  0.995400  1.0  0.098
  H  H46  1  0.282900  0.521300  0.928600  1.0  0.0688
  H  H47  1  0.786500  0.121200  0.495400  1.0  0.098
  H  H48  1  0.782900  0.021300  0.428600  1.0  0.0688
  H  H49  1  0.713500  0.878800  0.995400  1.0  0.0982
  H  H50  1  0.717100  0.978700  0.928600  1.0  0.0683
  H  H51  1  0.213500  0.378800  0.495400  1.0  0.0982
  H  H52  1  0.217100  0.478700  0.428600  1.0  0.0683
  H  H53  1  0.000000  0.939200  0.221100  1.0  0.0945
  H  H54  1  0.000000  0.039100  0.152400  1.0  0.086
  H  H55  1  0.000000  0.067600  0.233100  1.0  0.0909
  H  H56  1  0.000000  0.967800  0.302500  1.0  0.1085
  H  H57  1  0.000000  0.216600  0.504200  1.0  0.134
  H  H58  1  0.000000  0.215900  0.343400  1.0  0.1259
  H  H59  1  0.500000  0.439200  0.721100  1.0  0.0945
  H  H60  1  0.500000  0.539100  0.652400  1.0  0.086
  H  H61  1  0.500000  0.567600  0.733100  1.0  0.0909
  H  H62  1  0.500000  0.467800  0.802500  1.0  0.1085
  H  H63  1  0.500000  0.716600  0.004200  1.0  0.134
  H  H64  1  0.500000  0.715900  0.843400  1.0  0.1259
  H  H65  1  0.000000  0.560800  0.221100  1.0  0.0948
  H  H66  1  0.000000  0.460900  0.152400  1.0  0.0859
  H  H67  1  0.000000  0.432400  0.233100  1.0  0.0916
  H  H68  1  0.000000  0.532200  0.302500  1.0  0.1086
  H  H69  1  0.000000  0.283400  0.504200  1.0  0.1339
  H  H70  1  0.000000  0.284100  0.343400  1.0  0.1258
  H  H71  1  0.500000  0.060800  0.721100  1.0  0.0948
  H  H72  1  0.500000  0.960900  0.652400  1.0  0.0859
  H  H73  1  0.500000  0.932400  0.733100  1.0  0.0916
  H  H74  1  0.500000  0.032200  0.802500  1.0  0.1086
  H  H75  1  0.500000  0.783400  0.004200  1.0  0.1339
  H  H76  1  0.500000  0.784100  0.843400  1.0  0.1258
  H  H77  1  0.000000  0.439200  0.778900  1.0  0.0954
  H  H78  1  0.000000  0.539100  0.847600  1.0  0.0856
  H  H79  1  0.000000  0.567600  0.766900  1.0  0.0911
  H  H80  1  0.000000  0.467800  0.697500  1.0  0.1083
  H  H81  1  0.000000  0.716600  0.495800  1.0  0.1331
  H  H82  1  0.000000  0.715900  0.656600  1.0  0.1263
  H  H83  1  0.500000  0.939200  0.278900  1.0  0.0954
  H  H84  1  0.500000  0.039100  0.347600  1.0  0.0856
  H  H85  1  0.500000  0.067600  0.266900  1.0  0.0911
  H  H86  1  0.500000  0.967800  0.197500  1.0  0.1083
  H  H87  1  0.500000  0.216600  0.995800  1.0  0.1331
  H  H88  1  0.500000  0.215900  0.156600  1.0  0.1263
  H  H89  1  0.000000  0.060800  0.778900  1.0  0.0956
  H  H90  1  0.000000  0.960900  0.847600  1.0  0.0852
  H  H91  1  0.000000  0.932400  0.766900  1.0  0.0916
  H  H92  1  0.000000  0.032200  0.697500  1.0  0.1085
  H  H93  1  0.000000  0.783400  0.495800  1.0  0.1329
  H  H94  1  0.000000  0.784100  0.656600  1.0  0.1262
  H  H95  1  0.500000  0.560800  0.278900  1.0  0.0956
  H  H96  1  0.500000  0.460900  0.347600  1.0  0.0852
  H  H97  1  0.500000  0.432400  0.266900  1.0  0.0916
  H  H98  1  0.500000  0.532200  0.197500  1.0  0.1085
  H  H99  1  0.500000  0.283400  0.995800  1.0  0.1329
  H  H100  1  0.500000  0.284100  0.156600  1.0  0.1262
  C  C101  1  0.262600  0.903900  0.986300  1.0  0.2286
  C  C102  1  0.260900  0.957900  0.950400  1.0  0.243
  C  C103  1  0.762600  0.403900  0.486300  1.0  0.2286
  C  C104  1  0.760900  0.457900  0.450400  1.0  0.243
  C  C105  1  0.737400  0.596100  0.986300  1.0  0.2279
  C  C106  1  0.739100  0.542100  0.950400  1.0  0.2427
  C  C107  1  0.237400  0.096100  0.486300  1.0  0.2279
  C  C108  1  0.239100  0.042100  0.450400  1.0  0.2427
  C  C109  1  0.737400  0.403900  0.013700  1.0  0.2284
  C  C110  1  0.739100  0.457900  0.049600  1.0  0.2424
  C  C111  1  0.237400  0.903900  0.513700  1.0  0.2284
  C  C112  1  0.239100  0.957900  0.549600  1.0  0.2424
  C  C113  1  0.262600  0.096100  0.013700  1.0  0.2276
  C  C114  1  0.260900  0.042100  0.049600  1.0  0.2433
  C  C115  1  0.762600  0.596100  0.513700  1.0  0.2276
  C  C116  1  0.760900  0.542100  0.549600  1.0  0.2433
  C  C117  1  0.737400  0.096100  0.013700  1.0  0.2278
  C  C118  1  0.739100  0.042100  0.049600  1.0  0.2428
  C  C119  1  0.237400  0.596100  0.513700  1.0  0.2278
  C  C120  1  0.239100  0.542100  0.549600  1.0  0.2428
  C  C121  1  0.262600  0.403900  0.013700  1.0  0.2283
  C  C122  1  0.260900  0.457900  0.049600  1.0  0.2433
  C  C123  1  0.762600  0.903900  0.513700  1.0  0.2283
  C  C124  1  0.760900  0.957900  0.549600  1.0  0.2433
  C  C125  1  0.262600  0.596100  0.986300  1.0  0.2273
  C  C126  1  0.260900  0.542100  0.950400  1.0  0.243
  C  C127  1  0.762600  0.096100  0.486300  1.0  0.2273
  C  C128  1  0.760900  0.042100  0.450400  1.0  0.243
  C  C129  1  0.737400  0.903900  0.986300  1.0  0.2287
  C  C130  1  0.739100  0.957900  0.950400  1.0  0.2425
  C  C131  1  0.237400  0.403900  0.486300  1.0  0.2287
  C  C132  1  0.239100  0.457900  0.450400  1.0  0.2425
  C  C133  1  0.000000  0.021800  0.278400  1.0  -0.0254
  C  C134  1  0.000000  0.966200  0.124100  1.0  0.7532
  C  C135  1  0.000000  0.985200  0.175600  1.0  0.0264
  C  C136  1  0.000000  0.965900  0.222400  1.0  -0.0774
  C  C137  1  0.000000  0.038100  0.332300  1.0  0.6997
  C  C138  1  0.000000  0.023500  0.182600  1.0  -0.1064
  C  C139  1  0.000000  0.040900  0.231900  1.0  -0.078
  C  C140  1  0.000000  0.211000  0.423900  1.0  0.012
  C  C141  1  0.000000  0.983300  0.272200  1.0  -0.095
  C  C142  1  0.000000  0.230200  0.472200  1.0  -0.1448
  C  C143  1  0.000000  0.229600  0.375300  1.0  -0.0866
  C  C144  1  0.000000  0.168300  0.434500  1.0  0.4149
  C  C145  1  0.500000  0.521800  0.778400  1.0  -0.0254
  C  C146  1  0.500000  0.466200  0.624100  1.0  0.7532
  C  C147  1  0.500000  0.485200  0.675600  1.0  0.0264
  C  C148  1  0.500000  0.465900  0.722400  1.0  -0.0774
  C  C149  1  0.500000  0.538100  0.832300  1.0  0.6997
  C  C150  1  0.500000  0.523500  0.682600  1.0  -0.1064
  C  C151  1  0.500000  0.540900  0.731900  1.0  -0.078
  C  C152  1  0.500000  0.711000  0.923900  1.0  0.012
  C  C153  1  0.500000  0.483300  0.772200  1.0  -0.095
  C  C154  1  0.500000  0.730200  0.972200  1.0  -0.1448
  C  C155  1  0.500000  0.729600  0.875300  1.0  -0.0866
  C  C156  1  0.500000  0.668300  0.934500  1.0  0.4149
  C  C157  1  0.000000  0.478200  0.278400  1.0  -0.0247
  C  C158  1  0.000000  0.533800  0.124100  1.0  0.7541
  C  C159  1  0.000000  0.514800  0.175600  1.0  0.0263
  C  C160  1  0.000000  0.534100  0.222400  1.0  -0.079
  C  C161  1  0.000000  0.461900  0.332300  1.0  0.7002
  C  C162  1  0.000000  0.476500  0.182600  1.0  -0.106
  C  C163  1  0.000000  0.459100  0.231900  1.0  -0.0799
  C  C164  1  0.000000  0.289000  0.423900  1.0  0.0123
  C  C165  1  0.000000  0.516700  0.272200  1.0  -0.0963
  C  C166  1  0.000000  0.269800  0.472200  1.0  -0.1465
  C  C167  1  0.000000  0.270400  0.375300  1.0  -0.0917
  C  C168  1  0.000000  0.331700  0.434500  1.0  0.4153
  C  C169  1  0.500000  0.978200  0.778400  1.0  -0.0247
  C  C170  1  0.500000  0.033800  0.624100  1.0  0.7541
  C  C171  1  0.500000  0.014800  0.675600  1.0  0.0263
  C  C172  1  0.500000  0.034100  0.722400  1.0  -0.079
  C  C173  1  0.500000  0.961900  0.832300  1.0  0.7002
  C  C174  1  0.500000  0.976500  0.682600  1.0  -0.106
  C  C175  1  0.500000  0.959100  0.731900  1.0  -0.0799
  C  C176  1  0.500000  0.789000  0.923900  1.0  0.0123
  C  C177  1  0.500000  0.016700  0.772200  1.0  -0.0963
  C  C178  1  0.500000  0.769800  0.972200  1.0  -0.1465
  C  C179  1  0.500000  0.770400  0.875300  1.0  -0.0917
  C  C180  1  0.500000  0.831700  0.934500  1.0  0.4153
  C  C181  1  0.000000  0.521800  0.721600  1.0  -0.0247
  C  C182  1  0.000000  0.466200  0.875900  1.0  0.7545
  C  C183  1  0.000000  0.485200  0.824400  1.0  0.0261
  C  C184  1  0.000000  0.465900  0.777600  1.0  -0.0778
  C  C185  1  0.000000  0.538100  0.667700  1.0  0.6999
  C  C186  1  0.000000  0.523500  0.817400  1.0  -0.1061
  C  C187  1  0.000000  0.540900  0.768100  1.0  -0.0784
  C  C188  1  0.000000  0.711000  0.576100  1.0  0.0119
  C  C189  1  0.000000  0.483300  0.727800  1.0  -0.0949
  C  C190  1  0.000000  0.730200  0.527800  1.0  -0.1463
  C  C191  1  0.000000  0.729600  0.624700  1.0  -0.0885
  C  C192  1  0.000000  0.668300  0.565500  1.0  0.415
  C  C193  1  0.500000  0.021800  0.221600  1.0  -0.0247
  C  C194  1  0.500000  0.966200  0.375900  1.0  0.7545
  C  C195  1  0.500000  0.985200  0.324400  1.0  0.0261
  C  C196  1  0.500000  0.965900  0.277600  1.0  -0.0778
  C  C197  1  0.500000  0.038100  0.167700  1.0  0.6999
  C  C198  1  0.500000  0.023500  0.317400  1.0  -0.1061
  C  C199  1  0.500000  0.040900  0.268100  1.0  -0.0784
  C  C200  1  0.500000  0.211000  0.076100  1.0  0.0119
  C  C201  1  0.500000  0.983300  0.227800  1.0  -0.0949
  C  C202  1  0.500000  0.230200  0.027800  1.0  -0.1463
  C  C203  1  0.500000  0.229600  0.124700  1.0  -0.0885
  C  C204  1  0.500000  0.168300  0.065500  1.0  0.415
  C  C205  1  0.000000  0.978200  0.721600  1.0  -0.0244
  C  C206  1  0.000000  0.033800  0.875900  1.0  0.7542
  C  C207  1  0.000000  0.014800  0.824400  1.0  0.0254
  C  C208  1  0.000000  0.034100  0.777600  1.0  -0.0786
  C  C209  1  0.000000  0.961900  0.667700  1.0  0.7003
  C  C210  1  0.000000  0.976500  0.817400  1.0  -0.104
  C  C211  1  0.000000  0.959100  0.768100  1.0  -0.0799
  C  C212  1  0.000000  0.789000  0.576100  1.0  0.0122
  C  C213  1  0.000000  0.016700  0.727800  1.0  -0.096
  C  C214  1  0.000000  0.769800  0.527800  1.0  -0.1472
  C  C215  1  0.000000  0.770400  0.624700  1.0  -0.0926
  C  C216  1  0.000000  0.831700  0.565500  1.0  0.4159
  C  C217  1  0.500000  0.478200  0.221600  1.0  -0.0244
  C  C218  1  0.500000  0.533800  0.375900  1.0  0.7542
  C  C219  1  0.500000  0.514800  0.324400  1.0  0.0254
  C  C220  1  0.500000  0.534100  0.277600  1.0  -0.0786
  C  C221  1  0.500000  0.461900  0.167700  1.0  0.7003
  C  C222  1  0.500000  0.476500  0.317400  1.0  -0.104
  C  C223  1  0.500000  0.459100  0.268100  1.0  -0.0799
  C  C224  1  0.500000  0.289000  0.076100  1.0  0.0122
  C  C225  1  0.500000  0.516700  0.227800  1.0  -0.096
  C  C226  1  0.500000  0.269800  0.027800  1.0  -0.1472
  C  C227  1  0.500000  0.270400  0.124700  1.0  -0.0926
  C  C228  1  0.500000  0.331700  0.065500  1.0  0.4159
  N  N229  1  0.155400  0.922910  0.008100  1.0  -0.2965
  N  N230  1  0.333500  0.924870  0.949400  1.0  -0.4197
  N  N231  1  0.157100  0.958490  0.984500  1.0  -0.2031
  N  N232  1  0.655400  0.422910  0.508100  1.0  -0.2965
  N  N233  1  0.833500  0.424870  0.449400  1.0  -0.4197
  N  N234  1  0.657100  0.458490  0.484500  1.0  -0.2031
  N  N235  1  0.844600  0.577090  0.008100  1.0  -0.2966
  N  N236  1  0.666500  0.575130  0.949400  1.0  -0.4192
  N  N237  1  0.842900  0.541510  0.984500  1.0  -0.2011
  N  N238  1  0.344600  0.077090  0.508100  1.0  -0.2966
  N  N239  1  0.166500  0.075130  0.449400  1.0  -0.4192
  N  N240  1  0.342900  0.041510  0.484500  1.0  -0.2011
  N  N241  1  0.844600  0.422910  0.991900  1.0  -0.2954
  N  N242  1  0.666500  0.424870  0.050600  1.0  -0.42
  N  N243  1  0.842900  0.458490  0.015500  1.0  -0.2005
  N  N244  1  0.344600  0.922910  0.491900  1.0  -0.2954
  N  N245  1  0.166500  0.924870  0.550600  1.0  -0.42
  N  N246  1  0.342900  0.958490  0.515500  1.0  -0.2005
  N  N247  1  0.155400  0.077090  0.991900  1.0  -0.2956
  N  N248  1  0.333500  0.075130  0.050600  1.0  -0.4207
  N  N249  1  0.157100  0.041510  0.015500  1.0  -0.203
  N  N250  1  0.655400  0.577090  0.491900  1.0  -0.2956
  N  N251  1  0.833500  0.575130  0.550600  1.0  -0.4207
  N  N252  1  0.657100  0.541510  0.515500  1.0  -0.203
  N  N253  1  0.844600  0.077090  0.991900  1.0  -0.296
  N  N254  1  0.666500  0.075130  0.050600  1.0  -0.4199
  N  N255  1  0.842900  0.041510  0.015500  1.0  -0.2006
  N  N256  1  0.344600  0.577090  0.491900  1.0  -0.296
  N  N257  1  0.166500  0.575130  0.550600  1.0  -0.4199
  N  N258  1  0.342900  0.541510  0.515500  1.0  -0.2006
  N  N259  1  0.155400  0.422910  0.991900  1.0  -0.295
  N  N260  1  0.333500  0.424870  0.050600  1.0  -0.42
  N  N261  1  0.157100  0.458490  0.015500  1.0  -0.2029
  N  N262  1  0.655400  0.922910  0.491900  1.0  -0.295
  N  N263  1  0.833500  0.924870  0.550600  1.0  -0.42
  N  N264  1  0.657100  0.958490  0.515500  1.0  -0.2029
  N  N265  1  0.155400  0.577090  0.008100  1.0  -0.2974
  N  N266  1  0.333500  0.575130  0.949400  1.0  -0.4203
  N  N267  1  0.157100  0.541510  0.984500  1.0  -0.2035
  N  N268  1  0.655400  0.077090  0.508100  1.0  -0.2974
  N  N269  1  0.833500  0.075130  0.449400  1.0  -0.4203
  N  N270  1  0.657100  0.041510  0.484500  1.0  -0.2035
  N  N271  1  0.844600  0.922910  0.008100  1.0  -0.2959
  N  N272  1  0.666500  0.924870  0.949400  1.0  -0.4192
  N  N273  1  0.842900  0.958490  0.984500  1.0  -0.2007
  N  N274  1  0.344600  0.422910  0.508100  1.0  -0.2959
  N  N275  1  0.166500  0.424870  0.449400  1.0  -0.4192
  N  N276  1  0.342900  0.458490  0.484500  1.0  -0.2007
  O  O277  1  0.000000  0.017400  0.372100  1.0  -0.5724
  O  O278  1  0.000000  0.930200  0.124000  1.0  -0.5974
  O  O279  1  0.000000  0.985900  0.084400  1.0  -0.643
  O  O280  1  0.000000  0.074500  0.333500  1.0  -0.6062
  O  O281  1  0.000000  0.148300  0.399800  1.0  -0.5408
  O  O282  1  0.000000  0.156000  0.483300  1.0  -0.4895
  O  O283  1  0.500000  0.517400  0.872100  1.0  -0.5724
  O  O284  1  0.500000  0.430200  0.624000  1.0  -0.5974
  O  O285  1  0.500000  0.485900  0.584400  1.0  -0.643
  O  O286  1  0.500000  0.574500  0.833500  1.0  -0.6062
  O  O287  1  0.500000  0.648300  0.899800  1.0  -0.5408
  O  O288  1  0.500000  0.656000  0.983300  1.0  -0.4895
  O  O289  1  0.000000  0.482600  0.372100  1.0  -0.5729
  O  O290  1  0.000000  0.569800  0.124000  1.0  -0.5968
  O  O291  1  0.000000  0.514100  0.084400  1.0  -0.6428
  O  O292  1  0.000000  0.425500  0.333500  1.0  -0.6083
  O  O293  1  0.000000  0.351700  0.399800  1.0  -0.5416
  O  O294  1  0.000000  0.344000  0.483300  1.0  -0.4895
  O  O295  1  0.500000  0.982600  0.872100  1.0  -0.5729
  O  O296  1  0.500000  0.069800  0.624000  1.0  -0.5968
  O  O297  1  0.500000  0.014100  0.584400  1.0  -0.6428
  O  O298  1  0.500000  0.925500  0.833500  1.0  -0.6083
  O  O299  1  0.500000  0.851700  0.899800  1.0  -0.5416
  O  O300  1  0.500000  0.844000  0.983300  1.0  -0.4895
  O  O301  1  0.000000  0.517400  0.627900  1.0  -0.5722
  O  O302  1  0.000000  0.430200  0.876000  1.0  -0.5975
  O  O303  1  0.000000  0.485900  0.915600  1.0  -0.6424
  O  O304  1  0.000000  0.574500  0.666500  1.0  -0.6058
  O  O305  1  0.000000  0.648300  0.600200  1.0  -0.5377
  O  O306  1  0.000000  0.656000  0.516700  1.0  -0.4893
  O  O307  1  0.500000  0.017400  0.127900  1.0  -0.5722
  O  O308  1  0.500000  0.930200  0.376000  1.0  -0.5975
  O  O309  1  0.500000  0.985900  0.415600  1.0  -0.6424
  O  O310  1  0.500000  0.074500  0.166500  1.0  -0.6058
  O  O311  1  0.500000  0.148300  0.100200  1.0  -0.5377
  O  O312  1  0.500000  0.156000  0.016700  1.0  -0.4893
  O  O313  1  0.000000  0.982600  0.627900  1.0  -0.5717
  O  O314  1  0.000000  0.069800  0.876000  1.0  -0.5964
  O  O315  1  0.000000  0.014100  0.915600  1.0  -0.6424
  O  O316  1  0.000000  0.925500  0.666500  1.0  -0.6085
  O  O317  1  0.000000  0.851700  0.600200  1.0  -0.5378
  O  O318  1  0.000000  0.844000  0.516700  1.0  -0.4898
  O  O319  1  0.500000  0.482600  0.127900  1.0  -0.5717
  O  O320  1  0.500000  0.569800  0.376000  1.0  -0.5964
  O  O321  1  0.500000  0.514100  0.415600  1.0  -0.6424
  O  O322  1  0.500000  0.425500  0.166500  1.0  -0.6085
  O  O323  1  0.500000  0.351700  0.100200  1.0  -0.5378
  O  O324  1  0.500000  0.344000  0.016700  1.0  -0.4898
