# generated using pymatgen
data_CuH4C6N5
_symmetry_space_group_name_H-M   'P 1'
_cell_length_a   5.72660000
_cell_length_b   9.94120000
_cell_length_c   16.47400000
_cell_angle_alpha   90.00000000
_cell_angle_beta   90.00000000
_cell_angle_gamma   94.29400000
_symmetry_Int_Tables_number   1
_chemical_formula_structural   CuH4C6N5
_chemical_formula_sum   'Cu4 H16 C24 N20'
_cell_volume   935.22031951
_cell_formula_units_Z   4
loop_
 _symmetry_equiv_pos_site_id
 _symmetry_equiv_pos_as_xyz
  1  'x, y, z'
loop_
 _atom_site_type_symbol
 _atom_site_label
 _atom_site_symmetry_multiplicity
 _atom_site_fract_x
 _atom_site_fract_y
 _atom_site_fract_z
 _atom_site_occupancy
 _atom_site_charge
  Cu  Cu1  1  0.246410  0.511610  0.567300  1.0  0.2221
  Cu  Cu2  1  0.753590  0.988390  0.067300  1.0  0.222
  Cu  Cu3  1  0.753590  0.488390  0.432700  1.0  0.222
  Cu  Cu4  1  0.246410  0.011610  0.932700  1.0  0.2225
  H  H5  1  0.565000  0.303000  0.590000  1.0  0.0671
  H  H6  1  0.742000  0.185000  0.688000  1.0  0.1392
  H  H7  1  0.307000  0.324000  0.847000  1.0  0.1182
  H  H8  1  0.131000  0.437000  0.742000  1.0  0.0798
  H  H9  1  0.435000  0.197000  0.090000  1.0  0.0671
  H  H10  1  0.258000  0.315000  0.188000  1.0  0.1396
  H  H11  1  0.693000  0.176000  0.347000  1.0  0.1184
  H  H12  1  0.869000  0.063000  0.242000  1.0  0.0793
  H  H13  1  0.435000  0.697000  0.410000  1.0  0.0666
  H  H14  1  0.258000  0.815000  0.312000  1.0  0.1403
  H  H15  1  0.693000  0.676000  0.153000  1.0  0.1192
  H  H16  1  0.869000  0.563000  0.258000  1.0  0.0796
  H  H17  1  0.565000  0.803000  0.910000  1.0  0.0661
  H  H18  1  0.742000  0.685000  0.812000  1.0  0.1397
  H  H19  1  0.307000  0.824000  0.653000  1.0  0.1187
  H  H20  1  0.131000  0.937000  0.758000  1.0  0.08
  C  C21  1  0.515600  0.301900  0.642500  1.0  0.1452
  C  C22  1  0.625100  0.232200  0.702000  1.0  -0.1572
  C  C23  1  0.543500  0.237200  0.781000  1.0  0.0278
  C  C24  1  0.357400  0.312500  0.796200  1.0  -0.1537
  C  C25  1  0.258600  0.380300  0.733500  1.0  0.1335
  C  C26  1  0.665400  0.167400  0.845400  1.0  0.3114
  C  C27  1  0.484400  0.198100  0.142500  1.0  0.1444
  C  C28  1  0.374900  0.267800  0.202000  1.0  -0.1568
  C  C29  1  0.456500  0.262800  0.281000  1.0  0.0272
  C  C30  1  0.642600  0.187500  0.296200  1.0  -0.1536
  C  C31  1  0.741400  0.119700  0.233500  1.0  0.1342
  C  C32  1  0.334600  0.332600  0.345400  1.0  0.3111
  C  C33  1  0.484400  0.698100  0.357500  1.0  0.1428
  C  C34  1  0.374900  0.767800  0.298000  1.0  -0.1572
  C  C35  1  0.456500  0.762800  0.219000  1.0  0.0277
  C  C36  1  0.642600  0.687500  0.203800  1.0  -0.1533
  C  C37  1  0.741400  0.619700  0.266500  1.0  0.1335
  C  C38  1  0.334600  0.832600  0.154600  1.0  0.3108
  C  C39  1  0.515600  0.801900  0.857500  1.0  0.1433
  C  C40  1  0.625100  0.732200  0.798000  1.0  -0.1574
  C  C41  1  0.543500  0.737200  0.719000  1.0  0.0276
  C  C42  1  0.357400  0.812500  0.703800  1.0  -0.153
  C  C43  1  0.258600  0.880300  0.766500  1.0  0.1328
  C  C44  1  0.665400  0.667400  0.654600  1.0  0.3116
  N  N45  1  0.335200  0.376200  0.656500  1.0  -0.2946
  N  N46  1  0.573500  0.125100  0.916650  1.0  -0.2869
  N  N47  1  0.751700  0.071300  0.955810  1.0  -0.0346
  N  N48  1  0.939500  0.082900  0.908300  1.0  0.0126
  N  N49  1  0.888700  0.141100  0.838300  1.0  -0.3354
  N  N50  1  0.664800  0.123800  0.156500  1.0  -0.2942
  N  N51  1  0.426500  0.374900  0.416650  1.0  -0.2845
  N  N52  1  0.248300  0.428700  0.455810  1.0  -0.035
  N  N53  1  0.060500  0.417100  0.408300  1.0  0.0144
  N  N54  1  0.111300  0.358900  0.338300  1.0  -0.3356
  N  N55  1  0.664800  0.623800  0.343500  1.0  -0.2902
  N  N56  1  0.426500  0.874900  0.083350  1.0  -0.2841
  N  N57  1  0.248300  0.928700  0.044190  1.0  -0.0318
  N  N58  1  0.060500  0.917100  0.091700  1.0  0.0154
  N  N59  1  0.111300  0.858900  0.161700  1.0  -0.3356
  N  N60  1  0.335200  0.876200  0.843500  1.0  -0.2917
  N  N61  1  0.573500  0.625100  0.583350  1.0  -0.2847
  N  N62  1  0.751700  0.571300  0.544190  1.0  -0.0318
  N  N63  1  0.939500  0.582900  0.591700  1.0  0.0135
  N  N64  1  0.888700  0.641100  0.661700  1.0  -0.3353
