# generated using pymatgen
data_Zn2H23C37N7O8
_symmetry_space_group_name_H-M   'P 1'
_cell_length_a   7.73000000
_cell_length_b   17.79700000
_cell_length_c   26.67500000
_cell_angle_alpha   93.46600000
_cell_angle_beta   90.00000000
_cell_angle_gamma   90.00000000
_symmetry_Int_Tables_number   1
_chemical_formula_structural   Zn2H23C37N7O8
_chemical_formula_sum   'Zn8 H92 C148 N28 O32'
_cell_volume   3662.98892109
_cell_formula_units_Z   4
loop_
 _symmetry_equiv_pos_site_id
 _symmetry_equiv_pos_as_xyz
  1  'x, y, z'
loop_
 _atom_site_type_symbol
 _atom_site_label
 _atom_site_symmetry_multiplicity
 _atom_site_fract_x
 _atom_site_fract_y
 _atom_site_fract_z
 _atom_site_occupancy
 _atom_site_charge
  Zn  Zn1  1  0.432000  0.196570  0.024000  1.0  0.9878
  Zn  Zn2  1  0.976470  0.303410  0.963330  1.0  0.9154
  Zn  Zn3  1  0.932000  0.803430  0.476000  1.0  0.9877
  Zn  Zn4  1  0.476470  0.696590  0.536670  1.0  0.9164
  Zn  Zn5  1  0.568000  0.803430  0.976000  1.0  0.9877
  Zn  Zn6  1  0.023530  0.696590  0.036670  1.0  0.9164
  Zn  Zn7  1  0.068000  0.196570  0.524000  1.0  0.9879
  Zn  Zn8  1  0.523530  0.303410  0.463330  1.0  0.9153
  H  H9  1  0.277400  0.042600  0.989800  1.0  0.0934
  H  H10  1  0.644200  0.452800  0.066400  1.0  0.0933
  H  H11  1  0.328700  0.768000  0.093400  1.0  0.1001
  H  H12  1  0.145400  0.566400  0.111200  1.0  0.1055
  H  H13  1  0.399900  0.581800  0.163900  1.0  0.14
  H  H14  1  0.642000  0.776400  0.099700  1.0  0.1094
  H  H15  1  0.887300  0.830200  0.134700  1.0  0.1058
  H  H16  1  0.797200  0.726800  0.261100  1.0  0.1036
  H  H17  1  0.549900  0.673700  0.225700  1.0  0.1111
  H  H18  1  0.129500  0.684200  0.231200  1.0  0.1099
  H  H19  1  0.264400  0.630900  0.298000  1.0  0.1258
  H  H20  1  0.253200  0.830100  0.375300  1.0  0.1184
  H  H21  1  0.114200  0.882400  0.308900  1.0  0.1124
  H  H22  1  0.289300  0.763900  0.444400  1.0  0.0912
  H  H23  1  0.468700  0.595000  0.356300  1.0  0.1337
  H  H24  1  0.561000  0.577900  0.442000  1.0  0.1066
  H  H25  1  0.847300  0.945600  0.216200  1.0  0.1117
  H  H26  1  0.934000  0.055500  0.182300  1.0  0.1076
  H  H27  1  0.409200  0.972800  0.162700  1.0  0.1186
  H  H28  1  0.321100  0.860100  0.194300  1.0  0.1072
  H  H29  1  0.101500  0.176300  0.185100  1.0  0.1254
  H  H30  1  0.377700  0.053100  0.086600  1.0  0.1058
  H  H31  1  0.218200  0.258500  0.123400  1.0  0.1039
  H  H32  1  0.777400  0.957400  0.510200  1.0  0.0937
  H  H33  1  0.144200  0.547200  0.433600  1.0  0.0939
  H  H34  1  0.828700  0.232000  0.406600  1.0  0.0996
  H  H35  1  0.645400  0.433600  0.388800  1.0  0.1065
  H  H36  1  0.899900  0.418200  0.336100  1.0  0.1397
  H  H37  1  0.142000  0.223600  0.400300  1.0  0.1084
  H  H38  1  0.387300  0.169800  0.365300  1.0  0.106
  H  H39  1  0.297200  0.273200  0.238900  1.0  0.104
  H  H40  1  0.049900  0.326300  0.274300  1.0  0.1112
  H  H41  1  0.629500  0.315800  0.268800  1.0  0.1085
  H  H42  1  0.764400  0.369100  0.202000  1.0  0.1253
  H  H43  1  0.753200  0.169900  0.124700  1.0  0.1181
  H  H44  1  0.614200  0.117600  0.191100  1.0  0.1121
  H  H45  1  0.789300  0.236100  0.055600  1.0  0.0904
  H  H46  1  0.968700  0.405000  0.143700  1.0  0.1338
  H  H47  1  0.061000  0.422100  0.058000  1.0  0.1067
  H  H48  1  0.347300  0.054400  0.283800  1.0  0.1117
  H  H49  1  0.434000  0.944500  0.317700  1.0  0.1074
  H  H50  1  0.909200  0.027200  0.337300  1.0  0.1187
  H  H51  1  0.821100  0.139900  0.305700  1.0  0.1069
  H  H52  1  0.601500  0.823700  0.314900  1.0  0.1257
  H  H53  1  0.877700  0.946900  0.413400  1.0  0.1064
  H  H54  1  0.718200  0.741500  0.376600  1.0  0.1037
  H  H55  1  0.722600  0.957400  0.010200  1.0  0.094
  H  H56  1  0.355800  0.547200  0.933600  1.0  0.0937
  H  H57  1  0.671300  0.232000  0.906600  1.0  0.0995
  H  H58  1  0.854600  0.433600  0.888800  1.0  0.107
  H  H59  1  0.600100  0.418200  0.836100  1.0  0.1402
  H  H60  1  0.358000  0.223600  0.900300  1.0  0.1084
  H  H61  1  0.112700  0.169800  0.865300  1.0  0.1061
  H  H62  1  0.202800  0.273200  0.738900  1.0  0.1044
  H  H63  1  0.450100  0.326300  0.774300  1.0  0.1108
  H  H64  1  0.870500  0.315800  0.768800  1.0  0.1086
  H  H65  1  0.735600  0.369100  0.702000  1.0  0.1252
  H  H66  1  0.746800  0.169900  0.624700  1.0  0.118
  H  H67  1  0.885800  0.117600  0.691100  1.0  0.1121
  H  H68  1  0.710700  0.236100  0.555600  1.0  0.0905
  H  H69  1  0.531300  0.405000  0.643700  1.0  0.1342
  H  H70  1  0.439000  0.422100  0.558000  1.0  0.1067
  H  H71  1  0.152700  0.054400  0.783800  1.0  0.1121
  H  H72  1  0.066000  0.944500  0.817700  1.0  0.1077
  H  H73  1  0.590800  0.027200  0.837300  1.0  0.1192
  H  H74  1  0.678900  0.139900  0.805700  1.0  0.1068
  H  H75  1  0.898500  0.823700  0.814900  1.0  0.126
  H  H76  1  0.622300  0.946900  0.913400  1.0  0.1066
  H  H77  1  0.781800  0.741500  0.876600  1.0  0.1037
  H  H78  1  0.222600  0.042600  0.489800  1.0  0.0939
  H  H79  1  0.855800  0.452800  0.566400  1.0  0.0943
  H  H80  1  0.171300  0.768000  0.593400  1.0  0.1
  H  H81  1  0.354600  0.566400  0.611200  1.0  0.1057
  H  H82  1  0.100100  0.581800  0.663900  1.0  0.1401
  H  H83  1  0.858000  0.776400  0.599700  1.0  0.1091
  H  H84  1  0.612700  0.830200  0.634700  1.0  0.106
  H  H85  1  0.702800  0.726800  0.761100  1.0  0.1037
  H  H86  1  0.950100  0.673700  0.725700  1.0  0.1109
  H  H87  1  0.370500  0.684200  0.731200  1.0  0.1098
  H  H88  1  0.235600  0.630900  0.798000  1.0  0.1259
  H  H89  1  0.246800  0.830100  0.875300  1.0  0.1182
  H  H90  1  0.385800  0.882400  0.808900  1.0  0.1125
  H  H91  1  0.210700  0.763900  0.944400  1.0  0.0912
  H  H92  1  0.031300  0.595000  0.856300  1.0  0.1335
  H  H93  1  0.939000  0.577900  0.942000  1.0  0.1064
  H  H94  1  0.652700  0.945600  0.716200  1.0  0.1122
  H  H95  1  0.566000  0.055500  0.682300  1.0  0.1076
  H  H96  1  0.090800  0.972800  0.662700  1.0  0.1193
  H  H97  1  0.178900  0.860100  0.694300  1.0  0.1068
  H  H98  1  0.398500  0.176300  0.685100  1.0  0.1258
  H  H99  1  0.122300  0.053100  0.586600  1.0  0.1058
  H  H100  1  0.281800  0.258500  0.623400  1.0  0.1037
  C  C101  1  0.028800  0.074310  0.988080  1.0  -0.1399
  C  C102  1  0.165300  0.025150  0.994150  1.0  -0.0689
  C  C103  1  0.857600  0.048800  0.993640  1.0  -0.0547
  C  C104  1  0.070100  0.153390  0.976070  1.0  0.682
  C  C105  1  0.692400  0.094060  0.986860  1.0  0.6902
  C  C106  1  0.458500  0.344110  0.026380  1.0  0.6719
  C  C107  1  0.476300  0.424540  0.011380  1.0  -0.0712
  C  C108  1  0.251100  0.409340  0.942170  1.0  0.6929
  C  C109  1  0.388300  0.453670  0.971010  1.0  -0.1305
  C  C110  1  0.585700  0.471690  0.039460  1.0  -0.0541
  C  C111  1  0.314300  0.719800  0.104310  1.0  0.1731
  C  C112  1  0.214700  0.609200  0.114260  1.0  0.0392
  C  C113  1  0.354600  0.617300  0.143380  1.0  -0.1409
  C  C114  1  0.571100  0.720690  0.159510  1.0  0.0964
  C  C115  1  0.672700  0.766900  0.132410  1.0  -0.1174
  C  C116  1  0.819500  0.799000  0.153360  1.0  -0.1465
  C  C117  1  0.867600  0.785400  0.202230  1.0  0.158
  C  C118  1  0.765700  0.737500  0.228620  1.0  -0.1517
  C  C119  1  0.617700  0.705500  0.207470  1.0  -0.1313
  C  C120  1  0.106500  0.787400  0.263460  1.0  0.1383
  C  C121  1  0.152700  0.713700  0.260420  1.0  -0.126
  C  C122  1  0.234000  0.681500  0.300260  1.0  -0.1416
  C  C123  1  0.269000  0.725600  0.343230  1.0  0.121
  C  C124  1  0.226700  0.800400  0.346460  1.0  -0.1314
  C  C125  1  0.144300  0.831700  0.306710  1.0  -0.1174
  C  C126  1  0.344900  0.719600  0.433350  1.0  0.1633
  C  C127  1  0.443900  0.626800  0.384350  1.0  -0.1474
  C  C128  1  0.493600  0.617400  0.431730  1.0  0.0677
  C  C129  1  0.073000  0.890200  0.207140  1.0  0.1473
  C  C130  1  0.959900  0.950000  0.204480  1.0  -0.1413
  C  C131  1  0.011900  0.016100  0.184640  1.0  -0.1271
  C  C132  1  0.179300  0.023400  0.168370  1.0  0.1072
  C  C133  1  0.294900  0.966700  0.172590  1.0  -0.1264
  C  C134  1  0.242300  0.899200  0.191780  1.0  -0.1166
  C  C135  1  0.171400  0.161700  0.157860  1.0  -0.152
  C  C136  1  0.324000  0.094200  0.103270  1.0  0.1515
  C  C137  1  0.235900  0.206800  0.123620  1.0  0.0526
  C  C138  1  0.528800  0.925690  0.511920  1.0  -0.1396
  C  C139  1  0.665300  0.974850  0.505850  1.0  -0.0687
  C  C140  1  0.357600  0.951200  0.506360  1.0  -0.0551
  C  C141  1  0.570100  0.846610  0.523930  1.0  0.6825
  C  C142  1  0.192400  0.905940  0.513140  1.0  0.6907
  C  C143  1  0.958500  0.655890  0.473620  1.0  0.6717
  C  C144  1  0.976300  0.575460  0.488620  1.0  -0.0707
  C  C145  1  0.751100  0.590660  0.557830  1.0  0.6929
  C  C146  1  0.888300  0.546330  0.528990  1.0  -0.1302
  C  C147  1  0.085700  0.528310  0.460540  1.0  -0.0545
  C  C148  1  0.814300  0.280200  0.395690  1.0  0.1732
  C  C149  1  0.714700  0.390800  0.385740  1.0  0.0395
  C  C150  1  0.854600  0.382700  0.356620  1.0  -0.1417
  C  C151  1  0.071100  0.279310  0.340490  1.0  0.097
  C  C152  1  0.172700  0.233100  0.367590  1.0  -0.1162
  C  C153  1  0.319500  0.201000  0.346640  1.0  -0.1468
  C  C154  1  0.367600  0.214600  0.297770  1.0  0.1577
  C  C155  1  0.265700  0.262500  0.271380  1.0  -0.1503
  C  C156  1  0.117700  0.294500  0.292530  1.0  -0.1322
  C  C157  1  0.606500  0.212600  0.236540  1.0  0.1388
  C  C158  1  0.652700  0.286300  0.239580  1.0  -0.1235
  C  C159  1  0.734000  0.318500  0.199740  1.0  -0.1391
  C  C160  1  0.769000  0.274400  0.156770  1.0  0.1205
  C  C161  1  0.726700  0.199600  0.153540  1.0  -0.131
  C  C162  1  0.644300  0.168300  0.193290  1.0  -0.12
  C  C163  1  0.844900  0.280400  0.066650  1.0  0.1636
  C  C164  1  0.943900  0.373200  0.115650  1.0  -0.1472
  C  C165  1  0.993600  0.382600  0.068270  1.0  0.0684
  C  C166  1  0.573000  0.109800  0.292860  1.0  0.1473
  C  C167  1  0.459900  0.050000  0.295520  1.0  -0.1401
  C  C168  1  0.511900  0.983900  0.315360  1.0  -0.1264
  C  C169  1  0.679300  0.976600  0.331630  1.0  0.1074
  C  C170  1  0.794900  0.033300  0.327410  1.0  -0.1264
  C  C171  1  0.742300  0.100800  0.308220  1.0  -0.1156
  C  C172  1  0.671400  0.838300  0.342140  1.0  -0.1515
  C  C173  1  0.824000  0.905800  0.396730  1.0  0.1525
  C  C174  1  0.735900  0.793200  0.376380  1.0  0.052
  C  C175  1  0.971200  0.925690  0.011920  1.0  -0.1405
  C  C176  1  0.834700  0.974850  0.005850  1.0  -0.0675
  C  C177  1  0.142400  0.951200  0.006360  1.0  -0.0551
  C  C178  1  0.929900  0.846610  0.023930  1.0  0.6826
  C  C179  1  0.307600  0.905940  0.013140  1.0  0.6905
  C  C180  1  0.541500  0.655890  0.973620  1.0  0.6718
  C  C181  1  0.523700  0.575460  0.988620  1.0  -0.0707
  C  C182  1  0.748900  0.590660  0.057830  1.0  0.694
  C  C183  1  0.611700  0.546330  0.028990  1.0  -0.1313
  C  C184  1  0.414300  0.528310  0.960540  1.0  -0.0551
  C  C185  1  0.685700  0.280200  0.895690  1.0  0.173
  C  C186  1  0.785300  0.390800  0.885740  1.0  0.0399
  C  C187  1  0.645400  0.382700  0.856620  1.0  -0.1427
  C  C188  1  0.428900  0.279310  0.840490  1.0  0.0971
  C  C189  1  0.327300  0.233100  0.867590  1.0  -0.1161
  C  C190  1  0.180500  0.201000  0.846640  1.0  -0.1466
  C  C191  1  0.132400  0.214600  0.797770  1.0  0.1576
  C  C192  1  0.234300  0.262500  0.771380  1.0  -0.152
  C  C193  1  0.382300  0.294500  0.792530  1.0  -0.1331
  C  C194  1  0.893500  0.212600  0.736540  1.0  0.1389
  C  C195  1  0.847300  0.286300  0.739580  1.0  -0.1225
  C  C196  1  0.766000  0.318500  0.699740  1.0  -0.141
  C  C197  1  0.731000  0.274400  0.656770  1.0  0.1204
  C  C198  1  0.773300  0.199600  0.653540  1.0  -0.1314
  C  C199  1  0.855700  0.168300  0.693290  1.0  -0.1197
  C  C200  1  0.655100  0.280400  0.566650  1.0  0.1637
  C  C201  1  0.556100  0.373200  0.615650  1.0  -0.1477
  C  C202  1  0.506400  0.382600  0.568270  1.0  0.0687
  C  C203  1  0.927000  0.109800  0.792860  1.0  0.1474
  C  C204  1  0.040100  0.050000  0.795520  1.0  -0.1406
  C  C205  1  0.988100  0.983900  0.815360  1.0  -0.1287
  C  C206  1  0.820700  0.976600  0.831630  1.0  0.1071
  C  C207  1  0.705100  0.033300  0.827410  1.0  -0.1248
  C  C208  1  0.757700  0.100800  0.808220  1.0  -0.1165
  C  C209  1  0.828600  0.838300  0.842140  1.0  -0.1507
  C  C210  1  0.676000  0.905800  0.896730  1.0  0.1525
  C  C211  1  0.764100  0.793200  0.876380  1.0  0.0514
  C  C212  1  0.471200  0.074310  0.488080  1.0  -0.1409
  C  C213  1  0.334700  0.025150  0.494150  1.0  -0.0679
  C  C214  1  0.642400  0.048800  0.493640  1.0  -0.0548
  C  C215  1  0.429900  0.153390  0.476070  1.0  0.6823
  C  C216  1  0.807600  0.094060  0.486860  1.0  0.6902
  C  C217  1  0.041500  0.344110  0.526380  1.0  0.6721
  C  C218  1  0.023700  0.424540  0.511380  1.0  -0.0712
  C  C219  1  0.248900  0.409340  0.442170  1.0  0.6929
  C  C220  1  0.111700  0.453670  0.471010  1.0  -0.1315
  C  C221  1  0.914300  0.471690  0.539460  1.0  -0.055
  C  C222  1  0.185700  0.719800  0.604310  1.0  0.1725
  C  C223  1  0.285300  0.609200  0.614260  1.0  0.0393
  C  C224  1  0.145400  0.617300  0.643380  1.0  -0.1423
  C  C225  1  0.928900  0.720690  0.659510  1.0  0.0965
  C  C226  1  0.827300  0.766900  0.632410  1.0  -0.1171
  C  C227  1  0.680500  0.799000  0.653360  1.0  -0.1462
  C  C228  1  0.632400  0.785400  0.702230  1.0  0.1578
  C  C229  1  0.734300  0.737500  0.728620  1.0  -0.1536
  C  C230  1  0.882300  0.705500  0.707470  1.0  -0.1326
  C  C231  1  0.393500  0.787400  0.763460  1.0  0.1385
  C  C232  1  0.347300  0.713700  0.760420  1.0  -0.1254
  C  C233  1  0.266000  0.681500  0.800260  1.0  -0.1425
  C  C234  1  0.231000  0.725600  0.843230  1.0  0.121
  C  C235  1  0.273300  0.800400  0.846460  1.0  -0.1319
  C  C236  1  0.355700  0.831700  0.806710  1.0  -0.1169
  C  C237  1  0.155100  0.719600  0.933350  1.0  0.1634
  C  C238  1  0.056100  0.626800  0.884350  1.0  -0.147
  C  C239  1  0.006400  0.617400  0.931730  1.0  0.0686
  C  C240  1  0.427000  0.890200  0.707140  1.0  0.1473
  C  C241  1  0.540100  0.950000  0.704480  1.0  -0.1416
  C  C242  1  0.488100  0.016100  0.684640  1.0  -0.1294
  C  C243  1  0.320700  0.023400  0.668370  1.0  0.1069
  C  C244  1  0.205100  0.966700  0.672590  1.0  -0.1248
  C  C245  1  0.257700  0.899200  0.691780  1.0  -0.1174
  C  C246  1  0.328600  0.161700  0.657860  1.0  -0.151
  C  C247  1  0.176000  0.094200  0.603270  1.0  0.1519
  C  C248  1  0.264100  0.206800  0.623620  1.0  0.0521
  N  N249  1  0.015200  0.820640  0.223840  1.0  -0.1519
  N  N250  1  0.188800  0.673760  0.089540  1.0  -0.3917
  N  N251  1  0.419100  0.687870  0.137250  1.0  0.049
  N  N252  1  0.349900  0.692070  0.385080  1.0  0.0345
  N  N253  1  0.429400  0.675290  0.462630  1.0  -0.3833
  N  N254  1  0.227900  0.090780  0.144930  1.0  0.0515
  N  N255  1  0.332000  0.164480  0.089010  1.0  -0.4087
  N  N256  1  0.515200  0.179360  0.276160  1.0  -0.1518
  N  N257  1  0.688800  0.326240  0.410460  1.0  -0.3925
  N  N258  1  0.919100  0.312130  0.362750  1.0  0.0489
  N  N259  1  0.849900  0.307930  0.114920  1.0  0.0337
  N  N260  1  0.929400  0.324710  0.037370  1.0  -0.3832
  N  N261  1  0.727900  0.909220  0.355070  1.0  0.052
  N  N262  1  0.832000  0.835520  0.410990  1.0  -0.4088
  N  N263  1  0.984800  0.179360  0.776160  1.0  -0.1519
  N  N264  1  0.811200  0.326240  0.910460  1.0  -0.3904
  N  N265  1  0.580900  0.312130  0.862750  1.0  0.049
  N  N266  1  0.650100  0.307930  0.614920  1.0  0.0334
  N  N267  1  0.570600  0.324710  0.537370  1.0  -0.3835
  N  N268  1  0.772100  0.909220  0.855070  1.0  0.0519
  N  N269  1  0.668000  0.835520  0.910990  1.0  -0.4087
  N  N270  1  0.484800  0.820640  0.723840  1.0  -0.1522
  N  N271  1  0.311200  0.673760  0.589540  1.0  -0.3916
  N  N272  1  0.080900  0.687870  0.637250  1.0  0.049
  N  N273  1  0.150100  0.692070  0.885080  1.0  0.0347
  N  N274  1  0.070600  0.675290  0.962630  1.0  -0.3839
  N  N275  1  0.272100  0.090780  0.644930  1.0  0.0513
  N  N276  1  0.168000  0.164480  0.589010  1.0  -0.4082
  O  O277  1  0.220600  0.177660  0.980410  1.0  -0.6188
  O  O278  1  0.946100  0.192700  0.961020  1.0  -0.5775
  O  O279  1  0.611800  0.084650  0.947940  1.0  -0.5693
  O  O280  1  0.644000  0.134690  0.025090  1.0  -0.6278
  O  O281  1  0.501100  0.290900  0.995010  1.0  -0.6139
  O  O282  1  0.412700  0.332900  0.069240  1.0  -0.6213
  O  O283  1  0.187300  0.357190  0.965640  1.0  -0.6206
  O  O284  1  0.205800  0.426520  0.900540  1.0  -0.6153
  O  O285  1  0.720600  0.822340  0.519590  1.0  -0.6187
  O  O286  1  0.446100  0.807300  0.538980  1.0  -0.5781
  O  O287  1  0.111800  0.915350  0.552060  1.0  -0.5692
  O  O288  1  0.144000  0.865310  0.474910  1.0  -0.6287
  O  O289  1  0.001100  0.709100  0.504990  1.0  -0.6129
  O  O290  1  0.912700  0.667100  0.430760  1.0  -0.6206
  O  O291  1  0.687300  0.642810  0.534360  1.0  -0.6209
  O  O292  1  0.705800  0.573480  0.599460  1.0  -0.6152
  O  O293  1  0.779400  0.822340  0.019590  1.0  -0.6191
  O  O294  1  0.053900  0.807300  0.038980  1.0  -0.5786
  O  O295  1  0.388200  0.915350  0.052060  1.0  -0.5694
  O  O296  1  0.356000  0.865310  0.974910  1.0  -0.6286
  O  O297  1  0.498900  0.709100  0.004990  1.0  -0.6125
  O  O298  1  0.587300  0.667100  0.930760  1.0  -0.6204
  O  O299  1  0.812700  0.642810  0.034360  1.0  -0.6212
  O  O300  1  0.794200  0.573480  0.099460  1.0  -0.614
  O  O301  1  0.279400  0.177660  0.480410  1.0  -0.6193
  O  O302  1  0.553900  0.192700  0.461020  1.0  -0.578
  O  O303  1  0.888200  0.084650  0.447940  1.0  -0.5696
  O  O304  1  0.856000  0.134690  0.525090  1.0  -0.6279
  O  O305  1  0.998900  0.290900  0.495010  1.0  -0.6134
  O  O306  1  0.087300  0.332900  0.569240  1.0  -0.6205
  O  O307  1  0.312700  0.357190  0.465640  1.0  -0.621
  O  O308  1  0.294200  0.426520  0.400540  1.0  -0.614
