# generated using pymatgen
data_CuC4
_symmetry_space_group_name_H-M   'P 1'
_cell_length_a   8.44400000
_cell_length_b   13.50600000
_cell_length_c   13.58000000
_cell_angle_alpha   103.83000000
_cell_angle_beta   90.00000000
_cell_angle_gamma   90.00000000
_symmetry_Int_Tables_number   1
_chemical_formula_structural   CuC4
_chemical_formula_sum   'Cu8 C32'
_cell_volume   1503.82779476
_cell_formula_units_Z   8
loop_
 _symmetry_equiv_pos_site_id
 _symmetry_equiv_pos_as_xyz
  1  'x, y, z'
loop_
 _atom_site_type_symbol
 _atom_site_label
 _atom_site_symmetry_multiplicity
 _atom_site_fract_x
 _atom_site_fract_y
 _atom_site_fract_z
 _atom_site_occupancy
 _atom_site_charge
  Cu  Cu1  1  0.637290  0.781280  0.156520  1.0  0.3502
  Cu  Cu2  1  0.137290  0.718720  0.343480  1.0  0.3503
  Cu  Cu3  1  0.670590  0.649250  0.770410  1.0  0.4178
  Cu  Cu4  1  0.329410  0.350750  0.229590  1.0  0.4172
  Cu  Cu5  1  0.170590  0.850750  0.729590  1.0  0.4173
  Cu  Cu6  1  0.862710  0.281280  0.656520  1.0  0.3502
  Cu  Cu7  1  0.829410  0.149250  0.270410  1.0  0.4177
  Cu  Cu8  1  0.362710  0.218720  0.843480  1.0  0.3504
  C  C9  1  0.704900  0.933000  0.171400  1.0  -0.1999
  C  C10  1  0.149100  0.791300  0.486900  1.0  0.0171
  C  C11  1  0.534600  0.285900  0.247000  1.0  0.0338
  C  C12  1  0.564400  0.219200  0.767500  1.0  -0.1443
  C  C13  1  0.819000  0.728700  0.225800  1.0  -0.1623
  C  C14  1  0.649100  0.708700  0.013100  1.0  0.0171
  C  C15  1  0.034600  0.214100  0.253000  1.0  0.0337
  C  C16  1  0.965400  0.785900  0.747000  1.0  0.0321
  C  C17  1  0.648900  0.244000  0.254300  1.0  -0.118
  C  C18  1  0.755900  0.013400  0.205500  1.0  -0.0202
  C  C19  1  0.148900  0.256000  0.245700  1.0  -0.1185
  C  C20  1  0.295100  0.067000  0.828600  1.0  -0.1999
  C  C21  1  0.681000  0.228700  0.725800  1.0  -0.1626
  C  C22  1  0.350900  0.291300  0.986900  1.0  0.0171
  C  C23  1  0.435600  0.780800  0.232500  1.0  -0.1445
  C  C24  1  0.244100  0.986600  0.794500  1.0  -0.0182
  C  C25  1  0.851100  0.744000  0.754300  1.0  -0.1174
  C  C26  1  0.465400  0.714100  0.753000  1.0  0.0329
  C  C27  1  0.850900  0.208700  0.513100  1.0  0.0176
  C  C28  1  0.663400  0.671000  0.928600  1.0  -0.1747
  C  C29  1  0.795100  0.433000  0.671400  1.0  -0.1997
  C  C30  1  0.935600  0.719200  0.267500  1.0  -0.1452
  C  C31  1  0.181000  0.271300  0.774200  1.0  -0.1624
  C  C32  1  0.744100  0.513400  0.705500  1.0  -0.0193
  C  C33  1  0.836600  0.171000  0.428600  1.0  -0.1748
  C  C34  1  0.204900  0.567000  0.328600  1.0  -0.1998
  C  C35  1  0.163400  0.829000  0.571400  1.0  -0.1738
  C  C36  1  0.319000  0.771300  0.274200  1.0  -0.1626
  C  C37  1  0.351100  0.756000  0.745700  1.0  -0.1176
  C  C38  1  0.255900  0.486600  0.294500  1.0  -0.0189
  C  C39  1  0.336600  0.329000  0.071400  1.0  -0.1743
  C  C40  1  0.064400  0.280800  0.732500  1.0  -0.1436
