# generated using pymatgen
data_Cu5H48C64(NO2)8
_symmetry_space_group_name_H-M   'P 1'
_cell_length_a   13.42080000
_cell_length_b   13.42080000
_cell_length_c   22.80270000
_cell_angle_alpha   101.93900000
_cell_angle_beta   101.93900000
_cell_angle_gamma   107.28100000
_symmetry_Int_Tables_number   1
_chemical_formula_structural   Cu5H48C64(NO2)8
_chemical_formula_sum   'Cu10 H96 C128 N16 O32'
_cell_volume   3675.26764990
_cell_formula_units_Z   2
loop_
 _symmetry_equiv_pos_site_id
 _symmetry_equiv_pos_as_xyz
  1  'x, y, z'
loop_
 _atom_site_type_symbol
 _atom_site_label
 _atom_site_symmetry_multiplicity
 _atom_site_fract_x
 _atom_site_fract_y
 _atom_site_fract_z
 _atom_site_occupancy
 _atom_site_charge
  Cu  Cu1  1  0.532250  0.303950  0.903560  1.0  0.8314
  Cu  Cu2  1  0.371310  0.099610  0.903560  1.0  0.8309
  Cu  Cu3  1  0.628690  0.900390  0.096440  1.0  0.8321
  Cu  Cu4  1  0.900390  0.628690  0.596440  1.0  0.8318
  Cu  Cu5  1  0.467750  0.696050  0.096440  1.0  0.831
  Cu  Cu6  1  0.625000  0.375000  0.250000  1.0  0.4103
  Cu  Cu7  1  0.375000  0.625000  0.750000  1.0  0.4105
  Cu  Cu8  1  0.696050  0.467750  0.596440  1.0  0.832
  Cu  Cu9  1  0.099610  0.371310  0.403560  1.0  0.8319
  Cu  Cu10  1  0.303950  0.532250  0.403560  1.0  0.8317
  H  H11  1  0.192000  0.406800  0.916400  1.0  0.096
  H  H12  1  0.139700  0.052100  0.837000  1.0  0.073
  H  H13  1  0.437800  0.147600  0.688800  1.0  0.0887
  H  H14  1  0.435400  0.070000  0.338000  1.0  0.1241
  H  H15  1  0.068700  0.634300  0.553200  1.0  0.0925
  H  H16  1  0.097400  0.232000  0.662000  1.0  0.1235
  H  H17  1  0.621700  0.495700  0.062000  1.0  0.1284
  H  H18  1  0.234000  0.189400  0.257800  1.0  0.1087
  H  H19  1  0.504300  0.378300  0.438000  1.0  0.1283
  H  H20  1  0.975000  0.915200  0.796000  1.0  0.1198
  H  H21  1  0.023800  0.568400  0.257800  1.0  0.1085
  H  H22  1  0.930000  0.564600  0.162000  1.0  0.1231
  H  H23  1  0.052100  0.139700  0.337000  1.0  0.0718
  H  H24  1  0.066300  0.440300  0.562000  1.0  0.1293
  H  H25  1  0.768800  0.259200  0.047400  1.0  0.1194
  H  H26  1  0.102600  0.724000  0.872200  1.0  0.1218
  H  H27  1  0.276000  0.897400  0.627800  1.0  0.1213
  H  H28  1  0.216700  0.546700  0.621600  1.0  0.0455
  H  H29  1  0.147600  0.437800  0.188800  1.0  0.0892
  H  H30  1  0.740800  0.231200  0.452600  1.0  0.1188
  H  H31  1  0.595100  0.425100  0.378400  1.0  0.0424
  H  H32  1  0.453300  0.783300  0.878400  1.0  0.0457
  H  H33  1  0.546700  0.216700  0.121600  1.0  0.0452
  H  H34  1  0.232000  0.097400  0.162000  1.0  0.1242
  H  H35  1  0.440300  0.066300  0.062000  1.0  0.1294
  H  H36  1  0.769600  0.648200  0.872200  1.0  0.1212
  H  H37  1  0.860300  0.947900  0.163000  1.0  0.0718
  H  H38  1  0.808000  0.593200  0.083600  1.0  0.0936
  H  H39  1  0.574900  0.404900  0.121600  1.0  0.0458
  H  H40  1  0.947900  0.860300  0.663000  1.0  0.0713
  H  H41  1  0.821000  0.380800  0.796000  1.0  0.119
  H  H42  1  0.697300  0.284900  0.837000  1.0  0.0724
  H  H43  1  0.070000  0.435400  0.838000  1.0  0.1245
  H  H44  1  0.915200  0.975000  0.296000  1.0  0.1191
  H  H45  1  0.990400  0.275600  0.583600  1.0  0.0924
  H  H46  1  0.378300  0.504300  0.938000  1.0  0.1289
  H  H47  1  0.404900  0.574900  0.621600  1.0  0.043
  H  H48  1  0.724000  0.102600  0.372200  1.0  0.122
  H  H49  1  0.425100  0.595100  0.878400  1.0  0.0458
  H  H50  1  0.855500  0.386100  0.253800  1.0  0.107
  H  H51  1  0.601700  0.632300  0.746200  1.0  0.1083
  H  H52  1  0.041200  0.251000  0.188800  1.0  0.0896
  H  H53  1  0.581100  0.515500  0.946800  1.0  0.0928
  H  H54  1  0.084800  0.025000  0.704000  1.0  0.1191
  H  H55  1  0.288200  0.278600  0.547400  1.0  0.1183
  H  H56  1  0.515500  0.581100  0.446800  1.0  0.0923
  H  H57  1  0.632300  0.601700  0.246200  1.0  0.1071
  H  H58  1  0.619200  0.179000  0.704000  1.0  0.1195
  H  H59  1  0.810600  0.766000  0.242200  1.0  0.1078
  H  H60  1  0.976200  0.431600  0.742200  1.0  0.1085
  H  H61  1  0.931300  0.365700  0.446800  1.0  0.0925
  H  H62  1  0.634300  0.068700  0.053200  1.0  0.093
  H  H63  1  0.278600  0.288200  0.047400  1.0  0.1189
  H  H64  1  0.768000  0.902600  0.838000  1.0  0.1235
  H  H65  1  0.251000  0.041200  0.688800  1.0  0.0905
  H  H66  1  0.231200  0.740800  0.952600  1.0  0.1177
  H  H67  1  0.852400  0.562200  0.811200  1.0  0.0888
  H  H68  1  0.648200  0.769600  0.372200  1.0  0.1216
  H  H69  1  0.275600  0.990400  0.083600  1.0  0.0928
  H  H70  1  0.367700  0.398300  0.753800  1.0  0.1074
  H  H71  1  0.495700  0.621700  0.562000  1.0  0.1283
  H  H72  1  0.365700  0.931300  0.946800  1.0  0.0931
  H  H73  1  0.025000  0.084800  0.204000  1.0  0.1197
  H  H74  1  0.398300  0.367700  0.253800  1.0  0.1088
  H  H75  1  0.715100  0.302700  0.663000  1.0  0.072
  H  H76  1  0.783300  0.453300  0.378400  1.0  0.0454
  H  H77  1  0.749000  0.958800  0.311200  1.0  0.0909
  H  H78  1  0.559700  0.933700  0.938000  1.0  0.1283
  H  H79  1  0.897400  0.276000  0.127800  1.0  0.1215
  H  H80  1  0.721400  0.711800  0.952600  1.0  0.1178
  H  H81  1  0.724400  0.009600  0.916400  1.0  0.0953
  H  H82  1  0.933700  0.559700  0.438000  1.0  0.1284
  H  H83  1  0.418900  0.484500  0.053200  1.0  0.0927
  H  H84  1  0.179000  0.619200  0.204000  1.0  0.119
  H  H85  1  0.958800  0.749000  0.811200  1.0  0.0903
  H  H86  1  0.613900  0.144500  0.246200  1.0  0.1075
  H  H87  1  0.351800  0.230400  0.627800  1.0  0.1216
  H  H88  1  0.189400  0.234000  0.757800  1.0  0.1081
  H  H89  1  0.564600  0.930000  0.662000  1.0  0.1235
  H  H90  1  0.302700  0.715100  0.163000  1.0  0.0727
  H  H91  1  0.431600  0.976200  0.242200  1.0  0.1085
  H  H92  1  0.386100  0.855500  0.753800  1.0  0.1068
  H  H93  1  0.711800  0.721400  0.452600  1.0  0.1183
  H  H94  1  0.766000  0.810600  0.742200  1.0  0.1084
  H  H95  1  0.259200  0.768800  0.547400  1.0  0.1192
  H  H96  1  0.593200  0.808000  0.583600  1.0  0.0982
  H  H97  1  0.380800  0.821000  0.296000  1.0  0.1192
  H  H98  1  0.902600  0.768000  0.338000  1.0  0.1225
  H  H99  1  0.144500  0.613900  0.746200  1.0  0.1069
  H  H100  1  0.562200  0.852400  0.311200  1.0  0.0885
  H  H101  1  0.230400  0.351800  0.127800  1.0  0.1211
  H  H102  1  0.284900  0.697300  0.337000  1.0  0.0727
  H  H103  1  0.406800  0.192000  0.416400  1.0  0.0943
  H  H104  1  0.484500  0.418900  0.553200  1.0  0.0922
  H  H105  1  0.568400  0.023800  0.757800  1.0  0.1084
  H  H106  1  0.009600  0.724400  0.416400  1.0  0.096
  C  C107  1  0.687390  0.514390  0.894180  1.0  0.2531
  C  C108  1  0.879790  0.206790  0.394180  1.0  0.2521
  C  C109  1  0.287100  0.640500  0.155000  1.0  0.1794
  C  C110  1  0.975400  0.193000  0.170400  1.0  0.0205
  C  C111  1  0.479600  0.190400  0.129200  1.0  0.1992
  C  C112  1  0.562290  0.638290  0.437580  1.0  -0.0837
  C  C113  1  0.890600  0.208200  0.134000  1.0  -0.2029
  C  C114  1  0.705300  0.646500  0.259600  1.0  -0.1121
  C  C115  1  0.520400  0.809600  0.870800  1.0  0.1993
  C  C116  1  0.195000  0.477400  0.170400  1.0  0.022
  C  C117  1  0.220100  0.371100  0.687600  1.0  0.2775
  C  C118  1  0.282180  0.376180  0.486160  1.0  0.6629
  C  C119  1  0.361710  0.437710  0.062420  1.0  -0.0834
  C  C120  1  0.628900  0.779900  0.812400  1.0  0.2789
  C  C121  1  0.262700  0.277100  0.769400  1.0  -0.2369
  C  C122  1  0.816500  0.467500  0.187600  1.0  0.2787
  C  C123  1  0.522600  0.805000  0.329600  1.0  0.0225
  C  C124  1  0.793210  0.120210  0.105820  1.0  0.2523
  C  C125  1  0.554300  0.113100  0.259600  1.0  -0.1096
  C  C126  1  0.113100  0.554300  0.759600  1.0  -0.1087
  C  C127  1  0.701300  0.876900  0.846000  1.0  -0.2245
  C  C128  1  0.676200  0.940000  0.893400  1.0  0.0293
  C  C129  1  0.985500  0.132100  0.345000  1.0  0.1805
  C  C130  1  0.700710  0.124710  0.062420  1.0  -0.0841
  C  C131  1  0.722900  0.737300  0.730600  1.0  -0.2393
  C  C132  1  0.609980  0.203980  0.986160  1.0  0.664
  C  C133  1  0.703300  0.200700  0.035400  1.0  -0.2103
  C  C134  1  0.561200  0.350400  0.370800  1.0  0.2015
  C  C135  1  0.120210  0.793210  0.605820  1.0  0.2516
  C  C136  1  0.886900  0.445700  0.240400  1.0  -0.1099
  C  C137  1  0.992300  0.506700  0.269400  1.0  -0.2361
  C  C138  1  0.376180  0.282180  0.986160  1.0  0.6655
  C  C139  1  0.190400  0.479600  0.629200  1.0  0.2003
  C  C140  1  0.584600  0.214400  0.680400  1.0  -0.1881
  C  C141  1  0.578900  0.897300  0.905400  1.0  -0.1429
  C  C142  1  0.102700  0.421100  0.594600  1.0  -0.1448
  C  C143  1  0.546600  0.782800  0.606600  1.0  0.0247
  C  C144  1  0.508100  0.326500  0.405400  1.0  -0.1443
  C  C145  1  0.007700  0.493300  0.730600  1.0  -0.2445
  C  C146  1  0.532500  0.183500  0.312400  1.0  0.2779
  C  C147  1  0.034000  0.904200  0.819600  1.0  -0.1881
  C  C148  1  0.144700  0.469100  0.846000  1.0  -0.2231
  C  C149  1  0.649600  0.438800  0.129200  1.0  0.2004
  C  C150  1  0.024600  0.807000  0.829600  1.0  0.0214
  C  C151  1  0.809600  0.520400  0.370800  1.0  0.2005
  C  C152  1  0.438800  0.649600  0.629200  1.0  0.2004
  C  C153  1  0.214400  0.584600  0.180400  1.0  -0.1884
  C  C154  1  0.791800  0.109400  0.366000  1.0  -0.2002
  C  C155  1  0.807000  0.024600  0.329600  1.0  0.0152
  C  C156  1  0.659240  0.740840  0.179880  1.0  0.6824
  C  C157  1  0.667900  0.665300  0.964600  1.0  -0.204
  C  C158  1  0.779900  0.628900  0.312400  1.0  0.2778
  C  C159  1  0.966000  0.095800  0.180400  1.0  -0.186
  C  C160  1  0.296700  0.799300  0.964600  1.0  -0.2031
  C  C161  1  0.485610  0.312610  0.605820  1.0  0.2529
  C  C162  1  0.876900  0.701300  0.346000  1.0  -0.2231
  C  C163  1  0.940000  0.676200  0.393400  1.0  0.0309
  C  C164  1  0.060960  0.479360  0.320120  1.0  0.6812
  C  C165  1  0.206790  0.879790  0.894180  1.0  0.2518
  C  C166  1  0.855300  0.530900  0.154000  1.0  -0.2297
  C  C167  1  0.737300  0.722900  0.230600  1.0  -0.2464
  C  C168  1  0.712900  0.359500  0.845000  1.0  0.1785
  C  C169  1  0.939040  0.520640  0.679880  1.0  0.6815
  C  C170  1  0.425800  0.243400  0.634000  1.0  -0.1998
  C  C171  1  0.123100  0.298700  0.654000  1.0  -0.2244
  C  C172  1  0.623820  0.717820  0.013840  1.0  0.6637
  C  C173  1  0.520640  0.939040  0.179880  1.0  0.6831
  C  C174  1  0.469100  0.144700  0.346000  1.0  -0.2274
  C  C175  1  0.217200  0.453400  0.893400  1.0  0.0376
  C  C176  1  0.477400  0.195000  0.670400  1.0  0.0216
  C  C177  1  0.312610  0.485610  0.105820  1.0  0.2526
  C  C178  1  0.467500  0.816500  0.687600  1.0  0.278
  C  C179  1  0.493300  0.007700  0.230600  1.0  -0.2462
  C  C180  1  0.491900  0.673500  0.594600  1.0  -0.1437
  C  C181  1  0.638290  0.562290  0.937580  1.0  -0.0826
  C  C182  1  0.574200  0.756600  0.366000  1.0  -0.1998
  C  C183  1  0.183500  0.532500  0.812400  1.0  0.2785
  C  C184  1  0.014500  0.867900  0.655000  1.0  0.1795
  C  C185  1  0.673500  0.491900  0.094600  1.0  -0.1458
  C  C186  1  0.875290  0.299290  0.437580  1.0  -0.0861
  C  C187  1  0.350400  0.561200  0.870800  1.0  0.2005
  C  C188  1  0.124710  0.700710  0.562420  1.0  -0.0863
  C  C189  1  0.514390  0.687390  0.394180  1.0  0.252
  C  C190  1  0.740840  0.659240  0.679880  1.0  0.6836
  C  C191  1  0.421100  0.102700  0.094600  1.0  -0.1408
  C  C192  1  0.095800  0.966000  0.680400  1.0  -0.188
  C  C193  1  0.298700  0.123100  0.154000  1.0  -0.2212
  C  C194  1  0.799300  0.296700  0.464600  1.0  -0.2093
  C  C195  1  0.437710  0.361710  0.562420  1.0  -0.0846
  C  C196  1  0.208200  0.890600  0.634000  1.0  -0.1983
  C  C197  1  0.506700  0.992300  0.769400  1.0  -0.2362
  C  C198  1  0.785600  0.415400  0.819600  1.0  -0.1888
  C  C199  1  0.445700  0.886900  0.740400  1.0  -0.1099
  C  C200  1  0.904200  0.034000  0.319600  1.0  -0.1887
  C  C201  1  0.340760  0.259160  0.820120  1.0  0.6828
  C  C202  1  0.334700  0.332100  0.535400  1.0  -0.2056
  C  C203  1  0.353500  0.294700  0.240400  1.0  -0.1144
  C  C204  1  0.782800  0.546600  0.106600  1.0  0.0264
  C  C205  1  0.323800  0.060000  0.106600  1.0  0.0278
  C  C206  1  0.640500  0.287100  0.655000  1.0  0.1793
  C  C207  1  0.390020  0.796020  0.013840  1.0  0.6646
  C  C208  1  0.530900  0.855300  0.654000  1.0  -0.2292
  C  C209  1  0.646500  0.705300  0.759600  1.0  -0.1142
  C  C210  1  0.371100  0.220100  0.187600  1.0  0.2778
  C  C211  1  0.805000  0.522600  0.829600  1.0  0.0154
  C  C212  1  0.200700  0.703300  0.535400  1.0  -0.2125
  C  C213  1  0.203980  0.609980  0.486160  1.0  0.6639
  C  C214  1  0.665300  0.667900  0.464600  1.0  -0.2098
  C  C215  1  0.359500  0.712900  0.345000  1.0  0.1776
  C  C216  1  0.415400  0.785600  0.319600  1.0  -0.1901
  C  C217  1  0.453400  0.217200  0.393400  1.0  0.0389
  C  C218  1  0.299290  0.875290  0.937580  1.0  -0.0818
  C  C219  1  0.756600  0.574200  0.866000  1.0  -0.1995
  C  C220  1  0.897300  0.578900  0.405400  1.0  -0.142
  C  C221  1  0.277100  0.262700  0.269400  1.0  -0.2503
  C  C222  1  0.796020  0.390020  0.513840  1.0  0.6633
  C  C223  1  0.109400  0.791800  0.866000  1.0  -0.2022
  C  C224  1  0.294700  0.353500  0.740400  1.0  -0.1102
  C  C225  1  0.259160  0.340760  0.320120  1.0  0.6839
  C  C226  1  0.060000  0.323800  0.606600  1.0  0.0267
  C  C227  1  0.326500  0.508100  0.905400  1.0  -0.1458
  C  C228  1  0.243400  0.425800  0.134000  1.0  -0.1997
  C  C229  1  0.132100  0.985500  0.845000  1.0  0.179
  C  C230  1  0.479360  0.060960  0.820120  1.0  0.6832
  C  C231  1  0.332100  0.334700  0.035400  1.0  -0.2116
  C  C232  1  0.867900  0.014500  0.155000  1.0  0.1778
  C  C233  1  0.193000  0.975400  0.670400  1.0  0.0164
  C  C234  1  0.717820  0.623820  0.513840  1.0  0.6638
  N  N235  1  0.288400  0.580800  0.822800  1.0  -0.3863
  N  N236  1  0.594950  0.337750  0.619300  1.0  -0.3248
  N  N237  1  0.024350  0.781550  0.619300  1.0  -0.3234
  N  N238  1  0.405050  0.662250  0.380700  1.0  -0.3249
  N  N239  1  0.258000  0.465600  0.677200  1.0  -0.3836
  N  N240  1  0.534400  0.742000  0.822800  1.0  -0.3834
  N  N241  1  0.580800  0.288400  0.322800  1.0  -0.3851
  N  N242  1  0.781550  0.024350  0.119300  1.0  -0.324
  N  N243  1  0.742000  0.534400  0.322800  1.0  -0.3843
  N  N244  1  0.337750  0.594950  0.119300  1.0  -0.3238
  N  N245  1  0.419200  0.711600  0.677200  1.0  -0.3854
  N  N246  1  0.218450  0.975650  0.880700  1.0  -0.3233
  N  N247  1  0.711600  0.419200  0.177200  1.0  -0.3865
  N  N248  1  0.662250  0.405050  0.880700  1.0  -0.3251
  N  N249  1  0.465600  0.258000  0.177200  1.0  -0.384
  N  N250  1  0.975650  0.218450  0.380700  1.0  -0.3228
  O  O251  1  0.407020  0.010020  0.841840  1.0  -0.5827
  O  O252  1  0.331820  0.434820  0.341840  1.0  -0.5836
  O  O253  1  0.331870  0.180870  0.966340  1.0  -0.5667
  O  O254  1  0.434820  0.331820  0.841840  1.0  -0.5832
  O  O255  1  0.714530  0.365530  0.533660  1.0  -0.5679
  O  O256  1  0.656130  0.546330  0.529660  1.0  -0.5953
  O  O257  1  0.180870  0.331870  0.466340  1.0  -0.5679
  O  O258  1  0.565180  0.668180  0.158160  1.0  -0.5829
  O  O259  1  0.516670  0.126470  0.970340  1.0  -0.5965
  O  O260  1  0.668180  0.565180  0.658160  1.0  -0.5827
  O  O261  1  0.176610  0.305410  0.335820  1.0  -0.6033
  O  O262  1  0.159210  0.530410  0.335820  1.0  -0.6031
  O  O263  1  0.469590  0.840790  0.164180  1.0  -0.6024
  O  O264  1  0.530410  0.159210  0.835820  1.0  -0.6042
  O  O265  1  0.592980  0.989980  0.158160  1.0  -0.5842
  O  O266  1  0.010020  0.407020  0.341840  1.0  -0.582
  O  O267  1  0.365530  0.714530  0.033660  1.0  -0.5658
  O  O268  1  0.819130  0.668130  0.533660  1.0  -0.5671
  O  O269  1  0.483330  0.873530  0.029660  1.0  -0.5968
  O  O270  1  0.546330  0.656130  0.029660  1.0  -0.5974
  O  O271  1  0.343870  0.453670  0.470340  1.0  -0.5959
  O  O272  1  0.305410  0.176610  0.835820  1.0  -0.6043
  O  O273  1  0.873530  0.483330  0.529660  1.0  -0.5957
  O  O274  1  0.634470  0.285470  0.966340  1.0  -0.5651
  O  O275  1  0.453670  0.343870  0.970340  1.0  -0.5977
  O  O276  1  0.285470  0.634470  0.466340  1.0  -0.5672
  O  O277  1  0.668130  0.819130  0.033660  1.0  -0.5662
  O  O278  1  0.840790  0.469590  0.664180  1.0  -0.6026
  O  O279  1  0.694590  0.823390  0.164180  1.0  -0.6047
  O  O280  1  0.989980  0.592980  0.658160  1.0  -0.5837
  O  O281  1  0.126470  0.516670  0.470340  1.0  -0.5964
  O  O282  1  0.823390  0.694590  0.664180  1.0  -0.6027
