# generated using pymatgen
data_PrH3C7NO4
_symmetry_space_group_name_H-M   'P 1'
_cell_length_a   20.50600000
_cell_length_b   20.50600000
_cell_length_c   20.50600000
_cell_angle_alpha   90.00000000
_cell_angle_beta   90.00000000
_cell_angle_gamma   90.00000000
_symmetry_Int_Tables_number   1
_chemical_formula_structural   PrH3C7NO4
_chemical_formula_sum   'Pr24 H72 C168 N24 O96'
_cell_volume   8622.69171422
_cell_formula_units_Z   24
loop_
 _symmetry_equiv_pos_site_id
 _symmetry_equiv_pos_as_xyz
  1  'x, y, z'
loop_
 _atom_site_type_symbol
 _atom_site_label
 _atom_site_symmetry_multiplicity
 _atom_site_fract_x
 _atom_site_fract_y
 _atom_site_fract_z
 _atom_site_occupancy
 _atom_site_charge
  Pr  Pr1  1  0.020320  0.742280  0.143710  1.0  2.0759
  Pr  Pr2  1  0.520320  0.757720  0.856290  1.0  2.0756
  Pr  Pr3  1  0.742280  0.356290  0.520320  1.0  2.075
  Pr  Pr4  1  0.143710  0.020320  0.742280  1.0  2.077
  Pr  Pr5  1  0.242280  0.143710  0.479680  1.0  2.0769
  Pr  Pr6  1  0.742280  0.143710  0.020320  1.0  2.0768
  Pr  Pr7  1  0.979680  0.257720  0.856290  1.0  2.0764
  Pr  Pr8  1  0.757720  0.643710  0.020320  1.0  2.077
  Pr  Pr9  1  0.356290  0.979680  0.242280  1.0  2.0765
  Pr  Pr10  1  0.520320  0.742280  0.356290  1.0  2.0759
  Pr  Pr11  1  0.856290  0.979680  0.257720  1.0  2.0766
  Pr  Pr12  1  0.257720  0.643710  0.479680  1.0  2.0771
  Pr  Pr13  1  0.643710  0.020320  0.757720  1.0  2.077
  Pr  Pr14  1  0.356290  0.520320  0.742280  1.0  2.0766
  Pr  Pr15  1  0.020320  0.757720  0.643710  1.0  2.0757
  Pr  Pr16  1  0.143710  0.479680  0.242280  1.0  2.0771
  Pr  Pr17  1  0.856290  0.520320  0.757720  1.0  2.0767
  Pr  Pr18  1  0.479680  0.257720  0.643710  1.0  2.0763
  Pr  Pr19  1  0.479680  0.242280  0.143710  1.0  2.0765
  Pr  Pr20  1  0.257720  0.856290  0.979680  1.0  2.0751
  Pr  Pr21  1  0.757720  0.856290  0.520320  1.0  2.0752
  Pr  Pr22  1  0.979680  0.242280  0.356290  1.0  2.0766
  Pr  Pr23  1  0.643710  0.479680  0.257720  1.0  2.0772
  Pr  Pr24  1  0.242280  0.356290  0.979680  1.0  2.0749
  H  H25  1  0.216700  0.051500  0.011500  1.0  0.096
  H  H26  1  0.888400  0.039000  0.865200  1.0  0.0997
  H  H27  1  0.551200  0.308000  0.394400  1.0  0.1083
  H  H28  1  0.388400  0.461000  0.134800  1.0  0.0995
  H  H29  1  0.948800  0.808000  0.394400  1.0  0.1082
  H  H30  1  0.539000  0.634800  0.111600  1.0  0.0996
  H  H31  1  0.948800  0.692000  0.894400  1.0  0.1079
  H  H32  1  0.488500  0.783300  0.551500  1.0  0.0951
  H  H33  1  0.394400  0.948800  0.808000  1.0  0.1084
  H  H34  1  0.894400  0.948800  0.692000  1.0  0.1086
  H  H35  1  0.283300  0.551500  0.011500  1.0  0.0949
  H  H36  1  0.111600  0.539000  0.634800  1.0  0.099
  H  H37  1  0.448800  0.692000  0.605600  1.0  0.1073
  H  H38  1  0.051200  0.192000  0.605600  1.0  0.1073
  H  H39  1  0.448500  0.511500  0.216700  1.0  0.0992
  H  H40  1  0.051500  0.488500  0.716700  1.0  0.095
  H  H41  1  0.961000  0.134800  0.111600  1.0  0.0994
  H  H42  1  0.051500  0.011500  0.216700  1.0  0.0951
  H  H43  1  0.539000  0.865200  0.611600  1.0  0.1002
  H  H44  1  0.692000  0.894400  0.948800  1.0  0.1069
  H  H45  1  0.611600  0.961000  0.365200  1.0  0.1001
  H  H46  1  0.716700  0.051500  0.488500  1.0  0.0962
  H  H47  1  0.488500  0.716700  0.051500  1.0  0.0962
  H  H48  1  0.051200  0.308000  0.105600  1.0  0.1083
  H  H49  1  0.192000  0.605600  0.051200  1.0  0.1068
  H  H50  1  0.134800  0.111600  0.961000  1.0  0.1001
  H  H51  1  0.634800  0.388400  0.039000  1.0  0.0999
  H  H52  1  0.511500  0.216700  0.448500  1.0  0.0972
  H  H53  1  0.605600  0.051200  0.192000  1.0  0.1083
  H  H54  1  0.634800  0.111600  0.539000  1.0  0.1002
  H  H55  1  0.865200  0.888400  0.039000  1.0  0.1002
  H  H56  1  0.216700  0.448500  0.511500  1.0  0.098
  H  H57  1  0.111600  0.961000  0.134800  1.0  0.0994
  H  H58  1  0.039000  0.865200  0.888400  1.0  0.1
  H  H59  1  0.448500  0.988500  0.716700  1.0  0.0986
  H  H60  1  0.308000  0.105600  0.051200  1.0  0.1069
  H  H61  1  0.888400  0.461000  0.365200  1.0  0.0997
  H  H62  1  0.308000  0.394400  0.551200  1.0  0.1069
  H  H63  1  0.448800  0.808000  0.105600  1.0  0.1082
  H  H64  1  0.605600  0.448800  0.692000  1.0  0.1083
  H  H65  1  0.105600  0.051200  0.308000  1.0  0.1084
  H  H66  1  0.948500  0.988500  0.783300  1.0  0.0983
  H  H67  1  0.808000  0.105600  0.448800  1.0  0.107
  H  H68  1  0.134800  0.388400  0.461000  1.0  0.1
  H  H69  1  0.716700  0.448500  0.988500  1.0  0.0974
  H  H70  1  0.865200  0.611600  0.539000  1.0  0.0998
  H  H71  1  0.988500  0.783300  0.948500  1.0  0.0971
  H  H72  1  0.365200  0.888400  0.461000  1.0  0.1003
  H  H73  1  0.808000  0.394400  0.948800  1.0  0.1073
  H  H74  1  0.783300  0.948500  0.988500  1.0  0.0972
  H  H75  1  0.692000  0.605600  0.448800  1.0  0.1068
  H  H76  1  0.551500  0.011500  0.283300  1.0  0.0965
  H  H77  1  0.365200  0.611600  0.961000  1.0  0.0999
  H  H78  1  0.511500  0.283300  0.948500  1.0  0.097
  H  H79  1  0.551500  0.488500  0.783300  1.0  0.0961
  H  H80  1  0.461000  0.365200  0.888400  1.0  0.1002
  H  H81  1  0.105600  0.448800  0.808000  1.0  0.1085
  H  H82  1  0.894400  0.551200  0.192000  1.0  0.1084
  H  H83  1  0.948500  0.511500  0.283300  1.0  0.0973
  H  H84  1  0.611600  0.539000  0.865200  1.0  0.0996
  H  H85  1  0.192000  0.894400  0.551200  1.0  0.1067
  H  H86  1  0.011500  0.216700  0.051500  1.0  0.0971
  H  H87  1  0.388400  0.039000  0.634800  1.0  0.0997
  H  H88  1  0.461000  0.134800  0.388400  1.0  0.1
  H  H89  1  0.011500  0.283300  0.551500  1.0  0.0972
  H  H90  1  0.783300  0.551500  0.488500  1.0  0.0959
  H  H91  1  0.988500  0.716700  0.448500  1.0  0.0972
  H  H92  1  0.283300  0.948500  0.511500  1.0  0.0979
  H  H93  1  0.039000  0.634800  0.388400  1.0  0.0998
  H  H94  1  0.961000  0.365200  0.611600  1.0  0.1001
  H  H95  1  0.394400  0.551200  0.308000  1.0  0.1083
  H  H96  1  0.551200  0.192000  0.894400  1.0  0.1078
  C  C97  1  0.833450  0.263180  0.950080  1.0  0.6552
  C  C98  1  0.628800  0.242260  0.560150  1.0  0.6626
  C  C99  1  0.804290  0.974950  0.722380  1.0  0.0798
  C  C100  1  0.632300  0.977500  0.328400  1.0  -0.1509
  C  C101  1  0.720400  0.403500  0.992500  1.0  -0.1141
  C  C102  1  0.007500  0.279600  0.596500  1.0  -0.1164
  C  C103  1  0.777620  0.195710  0.474950  1.0  0.0804
  C  C104  1  0.439850  0.371200  0.757740  1.0  0.6653
  C  C105  1  0.132300  0.522500  0.671600  1.0  -0.1507
  C  C106  1  0.321670  0.698800  0.972380  1.0  0.0698
  C  C107  1  0.263180  0.549920  0.333450  1.0  0.6539
  C  C108  1  0.220400  0.096500  0.007500  1.0  -0.1096
  C  C109  1  0.195710  0.025050  0.277620  1.0  0.0817
  C  C110  1  0.025050  0.222380  0.695710  1.0  0.0826
  C  C111  1  0.695710  0.474950  0.722380  1.0  0.0818
  C  C112  1  0.477500  0.171600  0.367700  1.0  -0.1474
  C  C113  1  0.225600  0.628600  0.031300  1.0  -0.1534
  C  C114  1  0.736820  0.049920  0.166550  1.0  0.6544
  C  C115  1  0.992500  0.720400  0.403500  1.0  -0.1148
  C  C116  1  0.522500  0.828400  0.632300  1.0  -0.1495
  C  C117  1  0.525050  0.277620  0.304290  1.0  0.082
  C  C118  1  0.274400  0.128600  0.031300  1.0  -0.1507
  C  C119  1  0.777620  0.304290  0.974950  1.0  0.0827
  C  C120  1  0.128600  0.468700  0.774400  1.0  -0.1542
  C  C121  1  0.096500  0.492500  0.720400  1.0  -0.117
  C  C122  1  0.678330  0.301200  0.027620  1.0  0.0695
  C  C123  1  0.950080  0.666550  0.763180  1.0  0.6563
  C  C124  1  0.450080  0.666550  0.736820  1.0  0.6566
  C  C125  1  0.560150  0.628800  0.242260  1.0  0.6654
  C  C126  1  0.974950  0.777620  0.304290  1.0  0.0822
  C  C127  1  0.468700  0.774400  0.128600  1.0  -0.1533
  C  C128  1  0.242260  0.939850  0.128800  1.0  0.6648
  C  C129  1  0.507500  0.220400  0.403500  1.0  -0.1132
  C  C130  1  0.596500  0.007500  0.279600  1.0  -0.1167
  C  C131  1  0.321670  0.801200  0.472380  1.0  0.0703
  C  C132  1  0.695710  0.025050  0.222380  1.0  0.0827
  C  C133  1  0.527620  0.678330  0.198800  1.0  0.0711
  C  C134  1  0.722380  0.695710  0.474950  1.0  0.0787
  C  C135  1  0.371400  0.968700  0.774400  1.0  -0.1535
  C  C136  1  0.277620  0.304290  0.525050  1.0  0.082
  C  C137  1  0.725600  0.628600  0.468700  1.0  -0.1536
  C  C138  1  0.257740  0.060150  0.628800  1.0  0.6648
  C  C139  1  0.871400  0.968700  0.725600  1.0  -0.1556
  C  C140  1  0.722380  0.804290  0.974950  1.0  0.0812
  C  C141  1  0.333450  0.236820  0.049920  1.0  0.6552
  C  C142  1  0.128600  0.031300  0.274400  1.0  -0.1552
  C  C143  1  0.527620  0.821670  0.698800  1.0  0.0702
  C  C144  1  0.277620  0.195710  0.025050  1.0  0.0814
  C  C145  1  0.774400  0.128600  0.468700  1.0  -0.1513
  C  C146  1  0.304290  0.525050  0.277620  1.0  0.0811
  C  C147  1  0.833450  0.236820  0.450080  1.0  0.6551
  C  C148  1  0.992500  0.779600  0.903500  1.0  -0.113
  C  C149  1  0.531300  0.274400  0.371400  1.0  -0.1531
  C  C150  1  0.128800  0.242260  0.939850  1.0  0.6629
  C  C151  1  0.128800  0.257740  0.439850  1.0  0.6634
  C  C152  1  0.178330  0.301200  0.472380  1.0  0.0693
  C  C153  1  0.903500  0.992500  0.779600  1.0  -0.1151
  C  C154  1  0.867700  0.477500  0.328400  1.0  -0.1512
  C  C155  1  0.049920  0.166550  0.736820  1.0  0.6566
  C  C156  1  0.171600  0.367700  0.477500  1.0  -0.1492
  C  C157  1  0.132300  0.977500  0.171600  1.0  -0.1501
  C  C158  1  0.220400  0.403500  0.507500  1.0  -0.1138
  C  C159  1  0.871200  0.742260  0.560150  1.0  0.6631
  C  C160  1  0.403500  0.507500  0.220400  1.0  -0.1112
  C  C161  1  0.171600  0.132300  0.977500  1.0  -0.1477
  C  C162  1  0.698800  0.527620  0.821670  1.0  0.0708
  C  C163  1  0.301200  0.027620  0.678330  1.0  0.0696
  C  C164  1  0.972380  0.321670  0.698800  1.0  0.0702
  C  C165  1  0.236820  0.049920  0.333450  1.0  0.6543
  C  C166  1  0.628600  0.468700  0.725600  1.0  -0.1546
  C  C167  1  0.060150  0.628800  0.257740  1.0  0.6653
  C  C168  1  0.972380  0.178330  0.198800  1.0  0.0707
  C  C169  1  0.328400  0.632300  0.977500  1.0  -0.1488
  C  C170  1  0.763180  0.549920  0.166550  1.0  0.655
  C  C171  1  0.472380  0.321670  0.801200  1.0  0.0709
  C  C172  1  0.560150  0.871200  0.742260  1.0  0.6645
  C  C173  1  0.371200  0.757740  0.439850  1.0  0.6627
  C  C174  1  0.166550  0.763180  0.549920  1.0  0.6572
  C  C175  1  0.779600  0.903500  0.992500  1.0  -0.113
  C  C176  1  0.725600  0.871400  0.968700  1.0  -0.1513
  C  C177  1  0.222380  0.804290  0.525050  1.0  0.0807
  C  C178  1  0.242260  0.560150  0.628800  1.0  0.665
  C  C179  1  0.198800  0.527620  0.678330  1.0  0.0707
  C  C180  1  0.678330  0.198800  0.527620  1.0  0.0694
  C  C181  1  0.974950  0.722380  0.804290  1.0  0.0816
  C  C182  1  0.450080  0.833450  0.236820  1.0  0.6542
  C  C183  1  0.031300  0.225600  0.628600  1.0  -0.151
  C  C184  1  0.867700  0.022500  0.828400  1.0  -0.1497
  C  C185  1  0.968700  0.725600  0.871400  1.0  -0.1498
  C  C186  1  0.628800  0.257740  0.060150  1.0  0.6643
  C  C187  1  0.166550  0.736820  0.049920  1.0  0.6572
  C  C188  1  0.403500  0.992500  0.720400  1.0  -0.1156
  C  C189  1  0.671600  0.367700  0.022500  1.0  -0.1487
  C  C190  1  0.371400  0.531300  0.274400  1.0  -0.1511
  C  C191  1  0.027620  0.821670  0.801200  1.0  0.0713
  C  C192  1  0.977500  0.328400  0.632300  1.0  -0.1498
  C  C193  1  0.222380  0.695710  0.025050  1.0  0.0793
  C  C194  1  0.828400  0.867700  0.022500  1.0  -0.1466
  C  C195  1  0.492500  0.720400  0.096500  1.0  -0.1148
  C  C196  1  0.821670  0.698800  0.527620  1.0  0.069
  C  C197  1  0.371200  0.742260  0.939850  1.0  0.6628
  C  C198  1  0.950080  0.833450  0.263180  1.0  0.6552
  C  C199  1  0.049920  0.333450  0.236820  1.0  0.6547
  C  C200  1  0.549920  0.333450  0.263180  1.0  0.6552
  C  C201  1  0.939850  0.371200  0.742260  1.0  0.6643
  C  C202  1  0.367700  0.022500  0.671600  1.0  -0.1506
  C  C203  1  0.628600  0.031300  0.225600  1.0  -0.1552
  C  C204  1  0.236820  0.450080  0.833450  1.0  0.6548
  C  C205  1  0.472380  0.178330  0.301200  1.0  0.0709
  C  C206  1  0.022500  0.671600  0.367700  1.0  -0.1483
  C  C207  1  0.301200  0.472380  0.178330  1.0  0.0694
  C  C208  1  0.027620  0.678330  0.301200  1.0  0.0715
  C  C209  1  0.801200  0.472380  0.321670  1.0  0.0696
  C  C210  1  0.279600  0.903500  0.507500  1.0  -0.1085
  C  C211  1  0.828400  0.632300  0.522500  1.0  -0.1471
  C  C212  1  0.801200  0.027620  0.821670  1.0  0.0703
  C  C213  1  0.666550  0.763180  0.950080  1.0  0.657
  C  C214  1  0.198800  0.972380  0.178330  1.0  0.0706
  C  C215  1  0.439850  0.128800  0.257740  1.0  0.6659
  C  C216  1  0.525050  0.222380  0.804290  1.0  0.0812
  C  C217  1  0.007500  0.220400  0.096500  1.0  -0.1142
  C  C218  1  0.367700  0.477500  0.171600  1.0  -0.1502
  C  C219  1  0.279600  0.596500  0.007500  1.0  -0.109
  C  C220  1  0.468700  0.725600  0.628600  1.0  -0.1531
  C  C221  1  0.804290  0.525050  0.222380  1.0  0.0806
  C  C222  1  0.477500  0.328400  0.867700  1.0  -0.1476
  C  C223  1  0.474950  0.722380  0.695710  1.0  0.081
  C  C224  1  0.333450  0.263180  0.549920  1.0  0.6554
  C  C225  1  0.263180  0.950080  0.833450  1.0  0.6548
  C  C226  1  0.757740  0.439850  0.371200  1.0  0.666
  C  C227  1  0.977500  0.171600  0.132300  1.0  -0.1462
  C  C228  1  0.720400  0.096500  0.492500  1.0  -0.1092
  C  C229  1  0.698800  0.972380  0.321670  1.0  0.071
  C  C230  1  0.025050  0.277620  0.195710  1.0  0.0811
  C  C231  1  0.632300  0.522500  0.828400  1.0  -0.1523
  C  C232  1  0.022500  0.828400  0.867700  1.0  -0.1492
  C  C233  1  0.522500  0.671600  0.132300  1.0  -0.1484
  C  C234  1  0.871400  0.531300  0.225600  1.0  -0.1552
  C  C235  1  0.736820  0.450080  0.666550  1.0  0.6545
  C  C236  1  0.274400  0.371400  0.531300  1.0  -0.1533
  C  C237  1  0.774400  0.371400  0.968700  1.0  -0.1508
  C  C238  1  0.195710  0.474950  0.777620  1.0  0.082
  C  C239  1  0.742260  0.939850  0.371200  1.0  0.666
  C  C240  1  0.939850  0.128800  0.242260  1.0  0.6655
  C  C241  1  0.903500  0.507500  0.279600  1.0  -0.1149
  C  C242  1  0.492500  0.779600  0.596500  1.0  -0.1112
  C  C243  1  0.304290  0.974950  0.777620  1.0  0.0801
  C  C244  1  0.474950  0.777620  0.195710  1.0  0.0799
  C  C245  1  0.968700  0.774400  0.371400  1.0  -0.1541
  C  C246  1  0.060150  0.871200  0.757740  1.0  0.6651
  C  C247  1  0.178330  0.198800  0.972380  1.0  0.0699
  C  C248  1  0.757740  0.060150  0.871200  1.0  0.6644
  C  C249  1  0.742260  0.560150  0.871200  1.0  0.6652
  C  C250  1  0.225600  0.871400  0.531300  1.0  -0.1545
  C  C251  1  0.328400  0.867700  0.477500  1.0  -0.1464
  C  C252  1  0.779600  0.596500  0.492500  1.0  -0.1132
  C  C253  1  0.763180  0.950080  0.666550  1.0  0.6552
  C  C254  1  0.507500  0.279600  0.903500  1.0  -0.1133
  C  C255  1  0.671600  0.132300  0.522500  1.0  -0.1471
  C  C256  1  0.821670  0.801200  0.027620  1.0  0.07
  C  C257  1  0.096500  0.007500  0.220400  1.0  -0.112
  C  C258  1  0.031300  0.274400  0.128600  1.0  -0.1531
  C  C259  1  0.549920  0.166550  0.763180  1.0  0.6559
  C  C260  1  0.666550  0.736820  0.450080  1.0  0.6571
  C  C261  1  0.257740  0.439850  0.128800  1.0  0.6655
  C  C262  1  0.596500  0.492500  0.779600  1.0  -0.1186
  C  C263  1  0.531300  0.225600  0.871400  1.0  -0.1527
  C  C264  1  0.871200  0.757740  0.060150  1.0  0.6643
  N  N265  1  0.230890  0.230160  0.995320  1.0  -0.5151
  N  N266  1  0.769110  0.769840  0.004680  1.0  -0.5144
  N  N267  1  0.730160  0.995320  0.269110  1.0  -0.5159
  N  N268  1  0.730160  0.504680  0.769110  1.0  -0.5158
  N  N269  1  0.230160  0.504680  0.730890  1.0  -0.5157
  N  N270  1  0.995320  0.269110  0.730160  1.0  -0.5219
  N  N271  1  0.004680  0.730890  0.269840  1.0  -0.5215
  N  N272  1  0.004680  0.769110  0.769840  1.0  -0.5216
  N  N273  1  0.730890  0.230160  0.504680  1.0  -0.515
  N  N274  1  0.495320  0.269110  0.769840  1.0  -0.5221
  N  N275  1  0.269110  0.769840  0.495320  1.0  -0.5145
  N  N276  1  0.769840  0.004680  0.769110  1.0  -0.5153
  N  N277  1  0.504680  0.730890  0.230160  1.0  -0.5203
  N  N278  1  0.269840  0.004680  0.730890  1.0  -0.5149
  N  N279  1  0.269110  0.730160  0.995320  1.0  -0.5156
  N  N280  1  0.230890  0.269840  0.495320  1.0  -0.5141
  N  N281  1  0.730890  0.269840  0.004680  1.0  -0.514
  N  N282  1  0.230160  0.995320  0.230890  1.0  -0.5159
  N  N283  1  0.769110  0.730160  0.504680  1.0  -0.5154
  N  N284  1  0.504680  0.769110  0.730160  1.0  -0.5209
  N  N285  1  0.995320  0.230890  0.230160  1.0  -0.5211
  N  N286  1  0.769840  0.495320  0.269110  1.0  -0.5157
  N  N287  1  0.495320  0.230890  0.269840  1.0  -0.5218
  N  N288  1  0.269840  0.495320  0.230890  1.0  -0.5152
  O  O289  1  0.580320  0.577390  0.217640  1.0  -0.7068
  O  O290  1  0.419680  0.422610  0.782360  1.0  -0.7079
  O  O291  1  0.356080  0.697870  0.435460  1.0  -0.7037
  O  O292  1  0.584640  0.375710  0.289160  1.0  -0.7903
  O  O293  1  0.422610  0.717640  0.919680  1.0  -0.7112
  O  O294  1  0.782360  0.419680  0.422610  1.0  -0.7076
  O  O295  1  0.064540  0.856080  0.697870  1.0  -0.7023
  O  O296  1  0.289160  0.584640  0.375710  1.0  -0.7908
  O  O297  1  0.832260  0.296380  0.466690  1.0  -0.7115
  O  O298  1  0.697870  0.435460  0.356080  1.0  -0.7057
  O  O299  1  0.033310  0.167740  0.796380  1.0  -0.7158
  O  O300  1  0.703620  0.966690  0.667740  1.0  -0.7146
  O  O301  1  0.124290  0.710840  0.084640  1.0  -0.7939
  O  O302  1  0.919680  0.077390  0.217640  1.0  -0.7066
  O  O303  1  0.435460  0.356080  0.697870  1.0  -0.7034
  O  O304  1  0.802130  0.564540  0.856080  1.0  -0.7037
  O  O305  1  0.282360  0.419680  0.077390  1.0  -0.711
  O  O306  1  0.624290  0.710840  0.415360  1.0  -0.793
  O  O307  1  0.710840  0.084640  0.124290  1.0  -0.7923
  O  O308  1  0.332260  0.296380  0.033310  1.0  -0.711
  O  O309  1  0.782360  0.080320  0.922610  1.0  -0.7089
  O  O310  1  0.533310  0.332260  0.203620  1.0  -0.7171
  O  O311  1  0.667740  0.703620  0.966690  1.0  -0.7119
  O  O312  1  0.966690  0.832260  0.203620  1.0  -0.7171
  O  O313  1  0.289160  0.915360  0.875710  1.0  -0.7905
  O  O314  1  0.197870  0.435460  0.143920  1.0  -0.7056
  O  O315  1  0.875710  0.289160  0.915360  1.0  -0.7914
  O  O316  1  0.143920  0.302130  0.935460  1.0  -0.7025
  O  O317  1  0.717640  0.919680  0.422610  1.0  -0.708
  O  O318  1  0.435460  0.143920  0.197870  1.0  -0.7035
  O  O319  1  0.203620  0.533310  0.332260  1.0  -0.7143
  O  O320  1  0.302130  0.935460  0.143920  1.0  -0.7037
  O  O321  1  0.856080  0.697870  0.064540  1.0  -0.7029
  O  O322  1  0.167740  0.703620  0.533310  1.0  -0.7117
  O  O323  1  0.564540  0.856080  0.802130  1.0  -0.7042
  O  O324  1  0.375710  0.289160  0.584640  1.0  -0.7919
  O  O325  1  0.419680  0.077390  0.282360  1.0  -0.7067
  O  O326  1  0.935460  0.356080  0.802130  1.0  -0.7054
  O  O327  1  0.643920  0.197870  0.064540  1.0  -0.7005
  O  O328  1  0.710840  0.415360  0.624290  1.0  -0.7921
  O  O329  1  0.282360  0.080320  0.577390  1.0  -0.7116
  O  O330  1  0.966690  0.667740  0.703620  1.0  -0.7166
  O  O331  1  0.210840  0.415360  0.875710  1.0  -0.7905
  O  O332  1  0.415360  0.624290  0.710840  1.0  -0.7917
  O  O333  1  0.564540  0.643920  0.302130  1.0  -0.7045
  O  O334  1  0.033310  0.332260  0.296380  1.0  -0.7176
  O  O335  1  0.296380  0.033310  0.332260  1.0  -0.7146
  O  O336  1  0.703620  0.533310  0.167740  1.0  -0.7143
  O  O337  1  0.217640  0.580320  0.577390  1.0  -0.7116
  O  O338  1  0.875710  0.210840  0.415360  1.0  -0.7915
  O  O339  1  0.922610  0.717640  0.580320  1.0  -0.7129
  O  O340  1  0.697870  0.064540  0.856080  1.0  -0.7061
  O  O341  1  0.203620  0.966690  0.832260  1.0  -0.7149
  O  O342  1  0.922610  0.782360  0.080320  1.0  -0.7095
  O  O343  1  0.796380  0.466690  0.667740  1.0  -0.7142
  O  O344  1  0.167740  0.796380  0.033310  1.0  -0.7125
  O  O345  1  0.084640  0.375710  0.210840  1.0  -0.79
  O  O346  1  0.080320  0.577390  0.282360  1.0  -0.7103
  O  O347  1  0.210840  0.084640  0.375710  1.0  -0.791
  O  O348  1  0.356080  0.802130  0.935460  1.0  -0.7036
  O  O349  1  0.064540  0.643920  0.197870  1.0  -0.7023
  O  O350  1  0.217640  0.919680  0.077390  1.0  -0.7111
  O  O351  1  0.832260  0.203620  0.966690  1.0  -0.7114
  O  O352  1  0.796380  0.033310  0.167740  1.0  -0.714
  O  O353  1  0.466690  0.667740  0.796380  1.0  -0.7153
  O  O354  1  0.789160  0.584640  0.124290  1.0  -0.7921
  O  O355  1  0.197870  0.064540  0.643920  1.0  -0.7056
  O  O356  1  0.077390  0.282360  0.419680  1.0  -0.714
  O  O357  1  0.533310  0.167740  0.703620  1.0  -0.7167
  O  O358  1  0.077390  0.217640  0.919680  1.0  -0.7153
  O  O359  1  0.643920  0.302130  0.564540  1.0  -0.7028
  O  O360  1  0.667740  0.796380  0.466690  1.0  -0.7128
  O  O361  1  0.802130  0.935460  0.356080  1.0  -0.7036
  O  O362  1  0.789160  0.915360  0.624290  1.0  -0.792
  O  O363  1  0.302130  0.564540  0.643920  1.0  -0.7035
  O  O364  1  0.577390  0.282360  0.080320  1.0  -0.7097
  O  O365  1  0.296380  0.466690  0.832260  1.0  -0.7148
  O  O366  1  0.919680  0.422610  0.717640  1.0  -0.7077
  O  O367  1  0.415360  0.875710  0.210840  1.0  -0.7924
  O  O368  1  0.466690  0.832260  0.296380  1.0  -0.7169
  O  O369  1  0.577390  0.217640  0.580320  1.0  -0.7138
  O  O370  1  0.584640  0.124290  0.789160  1.0  -0.7895
  O  O371  1  0.935460  0.143920  0.302130  1.0  -0.7058
  O  O372  1  0.422610  0.782360  0.419680  1.0  -0.7108
  O  O373  1  0.915360  0.624290  0.789160  1.0  -0.791
  O  O374  1  0.084640  0.124290  0.710840  1.0  -0.7892
  O  O375  1  0.143920  0.197870  0.435460  1.0  -0.7015
  O  O376  1  0.915360  0.875710  0.289160  1.0  -0.7918
  O  O377  1  0.717640  0.580320  0.922610  1.0  -0.7094
  O  O378  1  0.332260  0.203620  0.533310  1.0  -0.7112
  O  O379  1  0.124290  0.789160  0.584640  1.0  -0.7932
  O  O380  1  0.080320  0.922610  0.782360  1.0  -0.7074
  O  O381  1  0.580320  0.922610  0.717640  1.0  -0.7071
  O  O382  1  0.375710  0.210840  0.084640  1.0  -0.7929
  O  O383  1  0.624290  0.789160  0.915360  1.0  -0.7932
  O  O384  1  0.856080  0.802130  0.564540  1.0  -0.7044
