# generated using pymatgen
data_CuH10C18S2(NO)4
_symmetry_space_group_name_H-M   'P 1'
_cell_length_a   14.65240000
_cell_length_b   15.59110000
_cell_length_c   15.59110000
_cell_angle_alpha   106.10400000
_cell_angle_beta   94.58450000
_cell_angle_gamma   85.41550000
_symmetry_Int_Tables_number   1
_chemical_formula_structural   CuH10C18S2(NO)4
_chemical_formula_sum   'Cu6 H60 C108 S12 N24 O24'
_cell_volume   3404.81943953
_cell_formula_units_Z   6
loop_
 _symmetry_equiv_pos_site_id
 _symmetry_equiv_pos_as_xyz
  1  'x, y, z'
loop_
 _atom_site_type_symbol
 _atom_site_label
 _atom_site_symmetry_multiplicity
 _atom_site_fract_x
 _atom_site_fract_y
 _atom_site_fract_z
 _atom_site_occupancy
 _atom_site_charge
  Cu  Cu1  1  0.478120  0.644420  0.248180  1.0  0.7466
  Cu  Cu2  1  0.021880  0.248180  0.644420  1.0  0.7469
  Cu  Cu3  1  0.750000  0.141030  0.141030  1.0  0.7714
  Cu  Cu4  1  0.521880  0.355580  0.751820  1.0  0.7467
  Cu  Cu5  1  0.978120  0.751820  0.355580  1.0  0.7473
  Cu  Cu6  1  0.250000  0.858970  0.858970  1.0  0.7712
  H  H7  1  0.810500  0.507100  0.441100  1.0  0.1448
  H  H8  1  0.637400  0.736100  0.225700  1.0  0.0884
  H  H9  1  0.066900  0.058900  0.673100  1.0  0.0787
  H  H10  1  0.433400  0.834700  0.773700  1.0  0.0797
  H  H11  1  0.446600  0.856800  0.288400  1.0  0.0844
  H  H12  1  0.081300  0.218000  0.970000  1.0  0.1309
  H  H13  1  0.689500  0.441100  0.507100  1.0  0.1432
  H  H14  1  0.821800  0.526500  0.756300  1.0  0.1258
  H  H15  1  0.626500  0.461700  0.277900  1.0  0.1402
  H  H16  1  0.780600  0.193600  0.348000  1.0  0.0889
  H  H17  1  0.097900  0.981300  0.780100  1.0  0.1226
  H  H18  1  0.052900  0.558700  0.308900  1.0  0.073
  H  H19  1  0.060200  0.035700  0.354500  1.0  0.1384
  H  H20  1  0.362600  0.263900  0.774300  1.0  0.0881
  H  H21  1  0.031900  0.310000  0.273200  1.0  0.1232
  H  H22  1  0.178200  0.473500  0.243700  1.0  0.1255
  H  H23  1  0.581300  0.030000  0.782000  1.0  0.1298
  H  H24  1  0.873500  0.277900  0.461700  1.0  0.1402
  H  H25  1  0.418700  0.970000  0.218000  1.0  0.1301
  H  H26  1  0.619800  0.848200  0.011000  1.0  0.1515
  H  H27  1  0.918700  0.782000  0.030000  1.0  0.1314
  H  H28  1  0.933100  0.941100  0.326900  1.0  0.079
  H  H29  1  0.402100  0.780100  0.981300  1.0  0.1236
  H  H30  1  0.678200  0.756300  0.526500  1.0  0.1245
  H  H31  1  0.946600  0.711600  0.143200  1.0  0.0856
  H  H32  1  0.968100  0.690000  0.726800  1.0  0.123
  H  H33  1  0.939800  0.964300  0.645500  1.0  0.1388
  H  H34  1  0.468100  0.273200  0.310000  1.0  0.1229
  H  H35  1  0.736600  0.304900  0.803700  1.0  0.1217
  H  H36  1  0.219400  0.806400  0.652000  1.0  0.0891
  H  H37  1  0.236600  0.196300  0.695100  1.0  0.1218
  H  H38  1  0.947100  0.441300  0.691100  1.0  0.0725
  H  H39  1  0.447100  0.308900  0.558700  1.0  0.0727
  H  H40  1  0.552900  0.691100  0.441300  1.0  0.0735
  H  H41  1  0.566900  0.326900  0.941100  1.0  0.0794
  H  H42  1  0.433100  0.673100  0.058900  1.0  0.0788
  H  H43  1  0.763400  0.803700  0.304900  1.0  0.122
  H  H44  1  0.719400  0.348000  0.193600  1.0  0.0892
  H  H45  1  0.263400  0.695100  0.196300  1.0  0.1219
  H  H46  1  0.531900  0.726800  0.690000  1.0  0.1233
  H  H47  1  0.597900  0.219900  0.018700  1.0  0.1236
  H  H48  1  0.280600  0.652000  0.806400  1.0  0.0891
  H  H49  1  0.373500  0.538300  0.722100  1.0  0.1408
  H  H50  1  0.310500  0.558900  0.492900  1.0  0.1431
  H  H51  1  0.321800  0.243700  0.473500  1.0  0.1243
  H  H52  1  0.066600  0.773700  0.834700  1.0  0.0787
  H  H53  1  0.566600  0.165300  0.226300  1.0  0.0795
  H  H54  1  0.933400  0.226300  0.165300  1.0  0.0791
  H  H55  1  0.862600  0.225700  0.736100  1.0  0.0894
  H  H56  1  0.189500  0.492900  0.558900  1.0  0.1446
  H  H57  1  0.126500  0.722100  0.538300  1.0  0.14
  H  H58  1  0.553400  0.143200  0.711600  1.0  0.084
  H  H59  1  0.560200  0.645500  0.964300  1.0  0.1384
  H  H60  1  0.053400  0.288400  0.856800  1.0  0.0847
  H  H61  1  0.380200  0.151800  0.989000  1.0  0.152
  H  H62  1  0.902100  0.018700  0.219900  1.0  0.1232
  H  H63  1  0.119800  0.989000  0.151800  1.0  0.1498
  H  H64  1  0.880200  0.011000  0.848200  1.0  0.1501
  H  H65  1  0.137400  0.774300  0.263900  1.0  0.0888
  H  H66  1  0.439800  0.354500  0.035700  1.0  0.1392
  C  C67  1  0.920600  0.816430  0.090770  1.0  -0.18
  C  C68  1  0.112300  0.732290  0.598910  1.0  -0.1682
  C  C69  1  0.019400  0.713170  0.709430  1.0  -0.1955
  C  C70  1  0.644100  0.465880  0.548720  1.0  -0.1916
  C  C71  1  0.093700  0.091300  0.887500  1.0  0.0493
  C  C72  1  0.579400  0.090770  0.816430  1.0  -0.1867
  C  C73  1  0.451800  0.482500  0.114960  1.0  0.0694
  C  C74  1  0.088800  0.044620  0.797780  1.0  -0.161
  C  C75  1  0.332500  0.667170  0.782030  1.0  0.168
  C  C76  1  0.965100  0.303200  0.380000  1.0  0.0682
  C  C77  1  0.078600  0.763300  0.773500  1.0  0.1622
  C  C78  1  0.355900  0.534120  0.451280  1.0  -0.1912
  C  C79  1  0.562200  0.158980  0.775020  1.0  0.172
  C  C80  1  0.406300  0.887500  0.091300  1.0  0.0465
  C  C81  1  0.121000  0.997380  0.093820  1.0  -0.1902
  C  C82  1  0.048400  0.889220  0.495980  1.0  0.608
  C  C83  1  0.687500  0.478290  0.834150  1.0  0.1621
  C  C84  1  0.048200  0.114960  0.482500  1.0  0.0694
  C  C85  1  0.929600  0.908290  0.265670  1.0  0.1836
  C  C86  1  0.429600  0.734330  0.091710  1.0  0.1811
  C  C87  1  0.951600  0.110780  0.504020  1.0  0.6091
  C  C88  1  0.471500  0.449770  0.354030  1.0  0.1507
  C  C89  1  0.363400  0.672930  0.400070  1.0  0.6313
  C  C90  1  0.528500  0.550230  0.645970  1.0  0.1487
  C  C91  1  0.403100  0.285930  0.586670  1.0  0.1685
  C  C92  1  0.720800  0.780810  0.334550  1.0  -0.1321
  C  C93  1  0.903100  0.413330  0.714070  1.0  0.1674
  C  C94  1  0.410600  0.405930  0.073870  1.0  -0.1586
  C  C95  1  0.906300  0.908700  0.112500  1.0  0.0471
  C  C96  1  0.980600  0.286830  0.290570  1.0  -0.1969
  C  C97  1  0.279200  0.219190  0.665450  1.0  -0.1343
  C  C98  1  0.393300  0.578880  0.401320  1.0  0.0699
  C  C99  1  0.106700  0.401320  0.578880  1.0  0.0686
  C  C100  1  0.612300  0.401090  0.267710  1.0  -0.1684
  C  C101  1  0.636600  0.327070  0.599930  1.0  0.6328
  C  C102  1  0.534900  0.380000  0.303200  1.0  0.0702
  C  C103  1  0.349100  0.021230  0.934370  1.0  0.0635
  C  C104  1  0.921400  0.236700  0.226500  1.0  0.1624
  C  C105  1  0.451600  0.495980  0.889220  1.0  0.6096
  C  C106  1  0.854200  0.287740  0.740420  1.0  0.1704
  C  C107  1  0.034900  0.696800  0.620000  1.0  0.0684
  C  C108  1  0.863400  0.599930  0.327070  1.0  0.6367
  C  C109  1  0.734700  0.788420  0.424720  1.0  0.071
  C  C110  1  0.136600  0.400070  0.672930  1.0  0.6388
  C  C111  1  0.650900  0.978770  0.065630  1.0  0.0644
  C  C112  1  0.645800  0.740420  0.287740  1.0  0.17
  C  C113  1  0.089400  0.073870  0.405930  1.0  -0.1553
  C  C114  1  0.387700  0.598910  0.732290  1.0  -0.1685
  C  C115  1  0.578600  0.226500  0.236700  1.0  0.1601
  C  C116  1  0.829200  0.464720  0.753280  1.0  -0.1796
  C  C117  1  0.593700  0.112500  0.908700  1.0  0.0559
  C  C118  1  0.596900  0.714070  0.413330  1.0  0.1697
  C  C119  1  0.893300  0.598680  0.421120  1.0  0.0685
  C  C120  1  0.312500  0.521710  0.165850  1.0  0.1632
  C  C121  1  0.411200  0.797780  0.044620  1.0  -0.1632
  C  C122  1  0.234700  0.575280  0.211580  1.0  0.0697
  C  C123  1  0.519400  0.290570  0.286830  1.0  -0.1946
  C  C124  1  0.570400  0.265670  0.908290  1.0  0.1809
  C  C125  1  0.354200  0.259580  0.712260  1.0  0.1703
  C  C126  1  0.437800  0.841020  0.224980  1.0  0.1703
  C  C127  1  0.779200  0.334550  0.780810  1.0  -0.132
  C  C128  1  0.480600  0.709430  0.713170  1.0  -0.1922
  C  C129  1  0.379000  0.093820  0.997380  1.0  -0.1911
  C  C130  1  0.170800  0.535280  0.246720  1.0  -0.1847
  C  C131  1  0.812500  0.834150  0.478290  1.0  0.1613
  C  C132  1  0.062200  0.224980  0.841020  1.0  0.17
  C  C133  1  0.951800  0.885040  0.517500  1.0  0.0687
  C  C134  1  0.588800  0.202220  0.955380  1.0  -0.1599
  C  C135  1  0.220800  0.665450  0.219190  1.0  -0.1334
  C  C136  1  0.167500  0.782030  0.667170  1.0  0.1662
  C  C137  1  0.144100  0.451280  0.534120  1.0  -0.1914
  C  C138  1  0.887700  0.267710  0.401090  1.0  -0.1663
  C  C139  1  0.621000  0.906180  0.002620  1.0  -0.1943
  C  C140  1  0.612600  0.043190  0.956210  1.0  0.1472
  C  C141  1  0.112600  0.043790  0.956810  1.0  0.1469
  C  C142  1  0.096900  0.586670  0.285930  1.0  0.1682
  C  C143  1  0.187100  0.840240  0.016560  1.0  0.6022
  C  C144  1  0.687100  0.983440  0.159760  1.0  0.604
  C  C145  1  0.667500  0.332830  0.217970  1.0  0.1673
  C  C146  1  0.855900  0.548720  0.465880  1.0  -0.1919
  C  C147  1  0.028500  0.354030  0.449770  1.0  0.1508
  C  C148  1  0.849100  0.065630  0.978770  1.0  0.0633
  C  C149  1  0.079400  0.183570  0.909230  1.0  -0.179
  C  C150  1  0.765300  0.424720  0.788420  1.0  0.0708
  C  C151  1  0.589400  0.594070  0.926130  1.0  -0.1595
  C  C152  1  0.145800  0.712260  0.259580  1.0  0.1692
  C  C153  1  0.465100  0.620000  0.696800  1.0  0.0685
  C  C154  1  0.265300  0.211580  0.575280  1.0  0.0695
  C  C155  1  0.911200  0.955380  0.202220  1.0  -0.1621
  C  C156  1  0.879000  0.002620  0.906180  1.0  -0.1875
  C  C157  1  0.548400  0.504020  0.110780  1.0  0.6084
  C  C158  1  0.548200  0.517500  0.885040  1.0  0.0697
  C  C159  1  0.420600  0.909230  0.183570  1.0  -0.184
  C  C160  1  0.150900  0.934370  0.021230  1.0  0.0643
  C  C161  1  0.937800  0.775020  0.158980  1.0  0.1702
  C  C162  1  0.887400  0.956210  0.043190  1.0  0.1472
  C  C163  1  0.070400  0.091710  0.734330  1.0  0.1828
  C  C164  1  0.421400  0.773500  0.763300  1.0  0.1635
  C  C165  1  0.312900  0.016560  0.840240  1.0  0.604
  C  C166  1  0.187500  0.165850  0.521710  1.0  0.1626
  C  C167  1  0.329200  0.246720  0.535280  1.0  -0.1803
  C  C168  1  0.606700  0.421120  0.598680  1.0  0.0701
  C  C169  1  0.670800  0.753280  0.464720  1.0  -0.1797
  C  C170  1  0.832500  0.217970  0.332830  1.0  0.1673
  C  C171  1  0.812900  0.159760  0.983440  1.0  0.6013
  C  C172  1  0.387400  0.956810  0.043790  1.0  0.1465
  C  C173  1  0.971500  0.645970  0.550230  1.0  0.1496
  C  C174  1  0.910600  0.926130  0.594070  1.0  -0.1562
  S  S175  1  0.200630  0.100030  0.414350  1.0  0.1104
  S  S176  1  0.914030  0.906520  0.933840  1.0  0.1137
  S  S177  1  0.799370  0.899970  0.585650  1.0  0.115
  S  S178  1  0.085970  0.093480  0.066160  1.0  0.1141
  S  S179  1  0.401580  0.427260  0.429120  1.0  0.0989
  S  S180  1  0.299370  0.414350  0.100030  1.0  0.1121
  S  S181  1  0.598420  0.572740  0.570880  1.0  0.0993
  S  S182  1  0.901580  0.570880  0.572740  1.0  0.0988
  S  S183  1  0.414030  0.066160  0.093480  1.0  0.1142
  S  S184  1  0.098420  0.429120  0.427260  1.0  0.0987
  S  S185  1  0.700630  0.585650  0.899970  1.0  0.112
  S  S186  1  0.585970  0.933840  0.906520  1.0  0.1122
  N  N187  1  0.152000  0.797940  0.753920  1.0  -0.3267
  N  N188  1  0.583900  0.706850  0.325310  1.0  -0.2879
  N  N189  1  0.146000  0.960740  0.943700  1.0  -0.3582
  N  N190  1  0.057270  0.180640  0.754480  1.0  -0.3417
  N  N191  1  0.896100  0.832510  0.451490  1.0  -0.3028
  N  N192  1  0.960500  0.652690  0.469090  1.0  -0.3564
  N  N193  1  0.646000  0.056300  0.039260  1.0  -0.3571
  N  N194  1  0.942730  0.819360  0.245520  1.0  -0.3412
  N  N195  1  0.396100  0.548510  0.167490  1.0  -0.3007
  N  N196  1  0.416100  0.293150  0.674690  1.0  -0.2887
  N  N197  1  0.916100  0.325310  0.706850  1.0  -0.2873
  N  N198  1  0.652000  0.246080  0.202060  1.0  -0.3272
  N  N199  1  0.460500  0.530910  0.347310  1.0  -0.3586
  N  N200  1  0.848000  0.202060  0.246080  1.0  -0.3274
  N  N201  1  0.103900  0.167490  0.548510  1.0  -0.3007
  N  N202  1  0.348000  0.753920  0.797940  1.0  -0.3262
  N  N203  1  0.539500  0.469090  0.652690  1.0  -0.3624
  N  N204  1  0.854000  0.039260  0.056300  1.0  -0.3585
  N  N205  1  0.083900  0.674690  0.293150  1.0  -0.2876
  N  N206  1  0.603900  0.451490  0.832510  1.0  -0.3026
  N  N207  1  0.039500  0.347310  0.530910  1.0  -0.356
  N  N208  1  0.354000  0.943700  0.960740  1.0  -0.3572
  N  N209  1  0.557270  0.245520  0.819360  1.0  -0.3412
  N  N210  1  0.442730  0.754480  0.180640  1.0  -0.3407
  O  O211  1  0.315270  0.082430  0.810730  1.0  -0.5514
  O  O212  1  0.399910  0.549020  0.939740  1.0  -0.5345
  O  O213  1  0.069580  0.836630  0.420610  1.0  -0.5578
  O  O214  1  0.930420  0.163370  0.579390  1.0  -0.557
  O  O215  1  0.684730  0.917570  0.189270  1.0  -0.5507
  O  O216  1  0.718300  0.058010  0.204490  1.0  -0.5546
  O  O217  1  0.100090  0.939740  0.549020  1.0  -0.5336
  O  O218  1  0.106100  0.341690  0.703290  1.0  -0.5782
  O  O219  1  0.569580  0.579390  0.163370  1.0  -0.5557
  O  O220  1  0.309040  0.714430  0.455430  1.0  -0.5576
  O  O221  1  0.606100  0.296710  0.658310  1.0  -0.5778
  O  O222  1  0.690960  0.285570  0.544570  1.0  -0.5588
  O  O223  1  0.393900  0.703290  0.341690  1.0  -0.5781
  O  O224  1  0.218300  0.795510  0.941990  1.0  -0.5536
  O  O225  1  0.184730  0.810730  0.082430  1.0  -0.5523
  O  O226  1  0.815270  0.189270  0.917570  1.0  -0.5518
  O  O227  1  0.600090  0.450980  0.060260  1.0  -0.5338
  O  O228  1  0.809040  0.544570  0.285570  1.0  -0.5586
  O  O229  1  0.190960  0.455430  0.714430  1.0  -0.5576
  O  O230  1  0.781700  0.204490  0.058010  1.0  -0.5525
  O  O231  1  0.893900  0.658310  0.296710  1.0  -0.5772
  O  O232  1  0.899910  0.060260  0.450980  1.0  -0.5355
  O  O233  1  0.281700  0.941990  0.795510  1.0  -0.554
  O  O234  1  0.430420  0.420610  0.836630  1.0  -0.555
