# generated using pymatgen
data_Cd5H6(C4N11)3
_symmetry_space_group_name_H-M   'P 1'
_cell_length_a   13.24330000
_cell_length_b   26.33970000
_cell_length_c   26.33970000
_cell_angle_alpha   120.00000000
_cell_angle_beta   90.00000000
_cell_angle_gamma   90.00000000
_symmetry_Int_Tables_number   1
_chemical_formula_structural   Cd5H6(C4N11)3
_chemical_formula_sum   'Cd40 H48 C96 N264'
_cell_volume   7956.98422940
_cell_formula_units_Z   8
loop_
 _symmetry_equiv_pos_site_id
 _symmetry_equiv_pos_as_xyz
  1  'x, y, z'
loop_
 _atom_site_type_symbol
 _atom_site_label
 _atom_site_symmetry_multiplicity
 _atom_site_fract_x
 _atom_site_fract_y
 _atom_site_fract_z
 _atom_site_occupancy
 _atom_site_charge
  Cd  Cd1  1  0.000000  0.841120  0.000000  1.0  0.6707
  Cd  Cd2  1  0.753760  0.751040  0.502080  1.0  0.812
  Cd  Cd3  1  0.248800  0.000000  0.249390  1.0  0.807
  Cd  Cd4  1  0.344360  0.333333  0.666667  1.0  0.7685
  Cd  Cd5  1  0.751200  0.000000  0.249390  1.0  0.807
  Cd  Cd6  1  0.753760  0.248970  0.751040  1.0  0.8124
  Cd  Cd7  1  0.751200  0.000000  0.750610  1.0  0.8073
  Cd  Cd8  1  0.248800  0.000000  0.750610  1.0  0.8075
  Cd  Cd9  1  0.000000  0.158880  0.000000  1.0  0.6715
  Cd  Cd10  1  0.000000  0.000000  0.158880  1.0  0.6624
  Cd  Cd11  1  0.500000  0.000000  0.341820  1.0  0.8178
  Cd  Cd12  1  0.500000  0.341820  0.341820  1.0  0.8293
  Cd  Cd13  1  0.655640  0.333333  0.666667  1.0  0.7689
  Cd  Cd14  1  0.500000  0.658180  0.000000  1.0  0.83
  Cd  Cd15  1  0.500000  0.658180  0.658180  1.0  0.8267
  Cd  Cd16  1  0.751200  0.750610  0.000000  1.0  0.8061
  Cd  Cd17  1  0.246240  0.248970  0.751040  1.0  0.814
  Cd  Cd18  1  0.246240  0.751040  0.502080  1.0  0.8137
  Cd  Cd19  1  0.751200  0.249390  0.249390  1.0  0.807
  Cd  Cd20  1  0.751200  0.750610  0.750610  1.0  0.8067
  Cd  Cd21  1  0.753760  0.497930  0.248970  1.0  0.8126
  Cd  Cd22  1  0.246240  0.248970  0.497930  1.0  0.8137
  Cd  Cd23  1  0.000000  0.158880  0.158880  1.0  0.6693
  Cd  Cd24  1  0.753760  0.502070  0.751030  1.0  0.8115
  Cd  Cd25  1  0.248800  0.249390  0.249390  1.0  0.807
  Cd  Cd26  1  0.248800  0.249390  0.000000  1.0  0.8077
  Cd  Cd27  1  0.500000  0.341820  0.000000  1.0  0.8269
  Cd  Cd28  1  0.248800  0.750610  0.750610  1.0  0.8069
  Cd  Cd29  1  0.344360  0.666667  0.333333  1.0  0.7693
  Cd  Cd30  1  0.000000  0.000000  0.841120  1.0  0.6628
  Cd  Cd31  1  0.246240  0.497930  0.248970  1.0  0.8143
  Cd  Cd32  1  0.655640  0.666667  0.333333  1.0  0.7697
  Cd  Cd33  1  0.248800  0.750610  0.000000  1.0  0.8061
  Cd  Cd34  1  0.751200  0.249390  0.000000  1.0  0.8075
  Cd  Cd35  1  0.246240  0.502070  0.751030  1.0  0.8132
  Cd  Cd36  1  0.000000  0.841120  0.841120  1.0  0.671
  Cd  Cd37  1  0.753760  0.248970  0.497930  1.0  0.8121
  Cd  Cd38  1  0.246240  0.751040  0.248970  1.0  0.8132
  Cd  Cd39  1  0.753760  0.751040  0.248970  1.0  0.8116
  Cd  Cd40  1  0.500000  0.000000  0.658180  1.0  0.8122
  H  H41  1  0.680400  0.867800  0.132200  1.0  0.0633
  H  H42  1  0.680400  0.264400  0.132200  1.0  0.063
  H  H43  1  0.319600  0.132200  0.264400  1.0  0.0628
  H  H44  1  0.319600  0.735600  0.867800  1.0  0.0629
  H  H45  1  0.000000  0.727550  0.455100  1.0  0.0789
  H  H46  1  0.580500  0.678200  0.543600  1.0  0.0713
  H  H47  1  0.000000  0.455100  0.727550  1.0  0.0814
  H  H48  1  0.500000  0.453900  0.226950  1.0  0.061
  H  H49  1  0.419500  0.678200  0.543600  1.0  0.0722
  H  H50  1  0.580500  0.321800  0.456400  1.0  0.072
  H  H51  1  0.680400  0.735600  0.867800  1.0  0.0633
  H  H52  1  0.419500  0.543600  0.678200  1.0  0.0718
  H  H53  1  0.500000  0.773050  0.546100  1.0  0.0604
  H  H54  1  0.000000  0.544900  0.272450  1.0  0.081
  H  H55  1  0.580500  0.865400  0.321800  1.0  0.0708
  H  H56  1  0.319600  0.867800  0.735600  1.0  0.0629
  H  H57  1  0.500000  0.226950  0.773050  1.0  0.0604
  H  H58  1  0.500000  0.773050  0.226950  1.0  0.0599
  H  H59  1  0.419500  0.865400  0.321800  1.0  0.0716
  H  H60  1  0.419500  0.321800  0.456400  1.0  0.0726
  H  H61  1  0.000000  0.272450  0.727550  1.0  0.079
  H  H62  1  0.419500  0.456400  0.134600  1.0  0.072
  H  H63  1  0.500000  0.226950  0.453900  1.0  0.0595
  H  H64  1  0.000000  0.727550  0.272450  1.0  0.0774
  H  H65  1  0.580500  0.543600  0.678200  1.0  0.071
  H  H66  1  0.580500  0.456400  0.134600  1.0  0.0717
  H  H67  1  0.500000  0.546100  0.773050  1.0  0.0608
  H  H68  1  0.580500  0.134600  0.678200  1.0  0.071
  H  H69  1  0.319600  0.867800  0.132200  1.0  0.063
  H  H70  1  0.419500  0.678200  0.134600  1.0  0.0727
  H  H71  1  0.319600  0.264400  0.132200  1.0  0.0626
  H  H72  1  0.419500  0.543600  0.865400  1.0  0.0726
  H  H73  1  0.680400  0.132200  0.264400  1.0  0.0631
  H  H74  1  0.680400  0.132200  0.867800  1.0  0.0633
  H  H75  1  0.580500  0.865400  0.543600  1.0  0.0705
  H  H76  1  0.419500  0.865400  0.543600  1.0  0.0711
  H  H77  1  0.419500  0.134600  0.456400  1.0  0.0722
  H  H78  1  0.580500  0.321800  0.865400  1.0  0.072
  H  H79  1  0.580500  0.543600  0.865400  1.0  0.072
  H  H80  1  0.580500  0.678200  0.134600  1.0  0.0718
  H  H81  1  0.580500  0.134600  0.456400  1.0  0.0713
  H  H82  1  0.419500  0.321800  0.865400  1.0  0.0726
  H  H83  1  0.000000  0.272450  0.544900  1.0  0.0775
  H  H84  1  0.419500  0.134600  0.678200  1.0  0.0718
  H  H85  1  0.680400  0.867800  0.735600  1.0  0.0634
  H  H86  1  0.580500  0.456400  0.321800  1.0  0.0719
  H  H87  1  0.419500  0.456400  0.321800  1.0  0.0725
  H  H88  1  0.319600  0.132200  0.867800  1.0  0.0628
  C  C89  1  0.049100  0.000000  0.326500  1.0  0.0532
  C  C90  1  0.629700  0.304100  0.426200  1.0  0.1491
  C  C91  1  0.370300  0.304100  0.426200  1.0  0.1491
  C  C92  1  0.629700  0.573800  0.695900  1.0  0.1513
  C  C93  1  0.370300  0.122100  0.426200  1.0  0.1525
  C  C94  1  0.000000  0.748350  0.251650  1.0  0.2494
  C  C95  1  0.629700  0.877900  0.573800  1.0  0.1518
  C  C96  1  0.841600  0.562100  0.175600  1.0  -0.008
  C  C97  1  0.158400  0.175600  0.613500  1.0  -0.0093
  C  C98  1  0.742400  0.121700  0.243400  1.0  0.2465
  C  C99  1  0.500000  0.247750  0.752250  1.0  0.1721
  C  C100  1  0.257600  0.121700  0.878300  1.0  0.2476
  C  C101  1  0.049100  0.673500  0.673500  1.0  0.0559
  C  C102  1  0.950900  0.000000  0.673500  1.0  0.0549
  C  C103  1  0.548600  0.172700  0.172700  1.0  0.0702
  C  C104  1  0.629700  0.304100  0.877900  1.0  0.1489
  C  C105  1  0.158400  0.613500  0.175600  1.0  -0.0068
  C  C106  1  0.000000  0.503300  0.251650  1.0  0.2488
  C  C107  1  0.629700  0.122100  0.695900  1.0  0.1516
  C  C108  1  0.370300  0.695900  0.573800  1.0  0.1494
  C  C109  1  0.500000  0.752250  0.504500  1.0  0.1723
  C  C110  1  0.370300  0.573800  0.695900  1.0  0.1511
  C  C111  1  0.257600  0.121700  0.243400  1.0  0.2474
  C  C112  1  0.629700  0.877900  0.304100  1.0  0.1522
  C  C113  1  0.742400  0.121700  0.878300  1.0  0.2467
  C  C114  1  0.629700  0.122100  0.426200  1.0  0.1526
  C  C115  1  0.000000  0.496700  0.748350  1.0  0.2485
  C  C116  1  0.370300  0.877900  0.573800  1.0  0.1516
  C  C117  1  0.000000  0.251650  0.748350  1.0  0.2494
  C  C118  1  0.049100  0.000000  0.673500  1.0  0.0549
  C  C119  1  0.370300  0.426200  0.304100  1.0  0.1494
  C  C120  1  0.841600  0.175600  0.562100  1.0  -0.0077
  C  C121  1  0.841600  0.613500  0.175600  1.0  -0.0063
  C  C122  1  0.257600  0.243400  0.121700  1.0  0.2467
  C  C123  1  0.158400  0.562100  0.175600  1.0  -0.0075
  C  C124  1  0.841600  0.437900  0.824400  1.0  -0.0091
  C  C125  1  0.370300  0.304100  0.877900  1.0  0.1489
  C  C126  1  0.370300  0.122100  0.695900  1.0  0.1516
  C  C127  1  0.451400  0.172700  0.172700  1.0  0.0697
  C  C128  1  0.451400  0.827300  0.000000  1.0  0.0692
  C  C129  1  0.548600  0.172700  0.000000  1.0  0.0709
  C  C130  1  0.257600  0.878300  0.756600  1.0  0.2475
  C  C131  1  0.500000  0.504500  0.752250  1.0  0.1725
  C  C132  1  0.257600  0.878300  0.121700  1.0  0.2471
  C  C133  1  0.629700  0.573800  0.877900  1.0  0.1513
  C  C134  1  0.841600  0.613500  0.437900  1.0  -0.0072
  C  C135  1  0.500000  0.495500  0.247750  1.0  0.1728
  C  C136  1  0.370300  0.877900  0.304100  1.0  0.1518
  C  C137  1  0.841600  0.175600  0.613500  1.0  -0.008
  C  C138  1  0.158400  0.437900  0.824400  1.0  -0.0107
  C  C139  1  0.548600  0.827300  0.000000  1.0  0.0691
  C  C140  1  0.158400  0.613500  0.437900  1.0  -0.0079
  C  C141  1  0.370300  0.695900  0.122100  1.0  0.1498
  C  C142  1  0.500000  0.752250  0.247750  1.0  0.1717
  C  C143  1  0.370300  0.573800  0.877900  1.0  0.1509
  C  C144  1  0.950900  0.000000  0.326500  1.0  0.0535
  C  C145  1  0.841600  0.824400  0.386500  1.0  -0.0072
  C  C146  1  0.451400  0.827300  0.827300  1.0  0.0705
  C  C147  1  0.950900  0.673500  0.000000  1.0  0.0541
  C  C148  1  0.742400  0.878300  0.121700  1.0  0.2464
  C  C149  1  0.629700  0.426200  0.122100  1.0  0.1504
  C  C150  1  0.158400  0.437900  0.613500  1.0  -0.0104
  C  C151  1  0.049100  0.326500  0.326500  1.0  0.0544
  C  C152  1  0.841600  0.386500  0.824400  1.0  -0.007
  C  C153  1  0.158400  0.175600  0.562100  1.0  -0.009
  C  C154  1  0.548600  0.000000  0.172700  1.0  0.0672
  C  C155  1  0.257600  0.756600  0.878300  1.0  0.2458
  C  C156  1  0.158400  0.824400  0.386500  1.0  -0.0087
  C  C157  1  0.629700  0.426200  0.304100  1.0  0.1501
  C  C158  1  0.841600  0.386500  0.562100  1.0  -0.0064
  C  C159  1  0.548600  0.000000  0.827300  1.0  0.0688
  C  C160  1  0.158400  0.386500  0.562100  1.0  -0.0065
  C  C161  1  0.451400  0.172700  0.000000  1.0  0.0696
  C  C162  1  0.000000  0.251650  0.503300  1.0  0.2492
  C  C163  1  0.950900  0.673500  0.673500  1.0  0.0551
  C  C164  1  0.451400  0.000000  0.172700  1.0  0.0672
  C  C165  1  0.629700  0.695900  0.122100  1.0  0.15
  C  C166  1  0.548600  0.827300  0.827300  1.0  0.0706
  C  C167  1  0.841600  0.824400  0.437900  1.0  -0.0055
  C  C168  1  0.000000  0.748350  0.496700  1.0  0.2492
  C  C169  1  0.742400  0.878300  0.756600  1.0  0.2468
  C  C170  1  0.158400  0.824400  0.437900  1.0  -0.0069
  C  C171  1  0.950900  0.326500  0.326500  1.0  0.054
  C  C172  1  0.451400  0.000000  0.827300  1.0  0.0685
  C  C173  1  0.370300  0.426200  0.122100  1.0  0.1505
  C  C174  1  0.049100  0.326500  0.000000  1.0  0.0545
  C  C175  1  0.742400  0.756600  0.878300  1.0  0.2454
  C  C176  1  0.841600  0.437900  0.613500  1.0  -0.0096
  C  C177  1  0.742400  0.243400  0.121700  1.0  0.246
  C  C178  1  0.841600  0.562100  0.386500  1.0  -0.0077
  C  C179  1  0.158400  0.386500  0.824400  1.0  -0.0073
  C  C180  1  0.950900  0.326500  0.000000  1.0  0.0544
  C  C181  1  0.500000  0.247750  0.495500  1.0  0.1717
  C  C182  1  0.629700  0.695900  0.573800  1.0  0.1496
  C  C183  1  0.158400  0.562100  0.386500  1.0  -0.0085
  C  C184  1  0.049100  0.673500  0.000000  1.0  0.0554
  N  N185  1  0.872400  0.801700  0.875900  1.0  -0.0913
  N  N186  1  0.049200  0.207150  0.414300  1.0  -0.1136
  N  N187  1  0.753200  0.624700  0.249400  1.0  -0.0336
  N  N188  1  0.950800  0.792850  0.585700  1.0  -0.1183
  N  N189  1  0.213400  0.569700  0.347900  1.0  -0.1486
  N  N190  1  0.418400  0.220900  0.000000  1.0  -0.1885
  N  N191  1  0.710500  0.847700  0.276300  1.0  -0.2572
  N  N192  1  0.246800  0.249400  0.624700  1.0  -0.033
  N  N193  1  0.626500  0.071700  0.375700  1.0  -0.2538
  N  N194  1  0.208300  0.927700  0.773400  1.0  -0.2252
  N  N195  1  0.872400  0.198300  0.074200  1.0  -0.0922
  N  N196  1  0.581600  0.000000  0.779100  1.0  -0.1881
  N  N197  1  0.549600  0.708150  0.291850  1.0  -0.0503
  N  N198  1  0.791700  0.845700  0.773400  1.0  -0.2215
  N  N199  1  0.918800  0.530100  0.765050  1.0  -0.1991
  N  N200  1  0.208300  0.773400  0.845700  1.0  -0.2217
  N  N201  1  0.127600  0.801700  0.875900  1.0  -0.0908
  N  N202  1  0.000000  0.749500  0.749500  1.0  -0.0238
  N  N203  1  0.245100  0.878800  0.255900  1.0  -0.1483
  N  N204  1  0.213400  0.652100  0.221800  1.0  -0.1462
  N  N205  1  0.626500  0.304000  0.375700  1.0  -0.2515
  N  N206  1  0.706400  0.928400  0.272600  1.0  -0.1964
  N  N207  1  0.786600  0.221800  0.652100  1.0  -0.1478
  N  N208  1  0.918600  0.278300  0.000000  1.0  -0.2185
  N  N209  1  0.049200  0.792850  0.585700  1.0  -0.1175
  N  N210  1  0.208300  0.845700  0.773400  1.0  -0.2214
  N  N211  1  0.293600  0.655800  0.928400  1.0  -0.1962
  N  N212  1  0.208300  0.072300  0.845700  1.0  -0.2242
  N  N213  1  0.208300  0.072300  0.226600  1.0  -0.2248
  N  N214  1  0.293600  0.344200  0.272600  1.0  -0.1973
  N  N215  1  0.417600  0.736200  0.472400  1.0  -0.2867
  N  N216  1  0.000000  0.250500  0.250500  1.0  -0.0223
  N  N217  1  0.289500  0.428600  0.152300  1.0  -0.2596
  N  N218  1  0.293600  0.655800  0.727400  1.0  -0.1958
  N  N219  1  0.582400  0.736200  0.472400  1.0  -0.2889
  N  N220  1  0.373500  0.696000  0.624300  1.0  -0.2516
  N  N221  1  0.791700  0.226600  0.072300  1.0  -0.222
  N  N222  1  0.754900  0.878800  0.622900  1.0  -0.1477
  N  N223  1  0.791700  0.226600  0.154300  1.0  -0.2226
  N  N224  1  0.049200  0.792850  0.207150  1.0  -0.1133
  N  N225  1  0.246800  0.624700  0.375300  1.0  -0.0329
  N  N226  1  0.791700  0.845700  0.072300  1.0  -0.2211
  N  N227  1  0.373500  0.624300  0.928300  1.0  -0.249
  N  N228  1  0.754900  0.878800  0.255900  1.0  -0.1474
  N  N229  1  0.918600  0.278300  0.278300  1.0  -0.2186
  N  N230  1  0.373500  0.071700  0.375700  1.0  -0.2526
  N  N231  1  0.450400  0.291850  0.708150  1.0  -0.0507
  N  N232  1  0.213400  0.221800  0.652100  1.0  -0.1479
  N  N233  1  0.293600  0.344200  0.071600  1.0  -0.1969
  N  N234  1  0.127600  0.875900  0.801700  1.0  -0.0904
  N  N235  1  0.582400  0.263800  0.736200  1.0  -0.288
  N  N236  1  0.626500  0.304000  0.928300  1.0  -0.2533
  N  N237  1  0.918600  0.721700  0.000000  1.0  -0.2182
  N  N238  1  0.950800  0.414300  0.207150  1.0  -0.1182
  N  N239  1  0.418400  0.220900  0.220900  1.0  -0.1891
  N  N240  1  0.950800  0.207150  0.792850  1.0  -0.1174
  N  N241  1  0.246800  0.375300  0.624700  1.0  -0.0342
  N  N242  1  0.127600  0.925800  0.124100  1.0  -0.0893
  N  N243  1  0.373500  0.928300  0.304000  1.0  -0.2519
  N  N244  1  0.710500  0.276300  0.428600  1.0  -0.2605
  N  N245  1  0.289500  0.428600  0.276300  1.0  -0.2589
  N  N246  1  0.872400  0.124100  0.198300  1.0  -0.09
  N  N247  1  0.626500  0.928300  0.304000  1.0  -0.2528
  N  N248  1  0.754900  0.255900  0.878800  1.0  -0.148
  N  N249  1  0.373500  0.304000  0.375700  1.0  -0.2506
  N  N250  1  0.581600  0.000000  0.220900  1.0  -0.1894
  N  N251  1  0.549600  0.416300  0.708150  1.0  -0.0485
  N  N252  1  0.706400  0.344200  0.272600  1.0  -0.1965
  N  N253  1  0.127600  0.875900  0.074200  1.0  -0.0908
  N  N254  1  0.754900  0.377100  0.121200  1.0  -0.149
  N  N255  1  0.208300  0.927700  0.154300  1.0  -0.2257
  N  N256  1  0.710500  0.276300  0.847700  1.0  -0.2578
  N  N257  1  0.500000  0.749400  0.749400  1.0  -0.0609
  N  N258  1  0.786600  0.778200  0.347900  1.0  -0.1467
  N  N259  1  0.450400  0.416300  0.708150  1.0  -0.0493
  N  N260  1  0.293600  0.272600  0.344200  1.0  -0.1971
  N  N261  1  0.791700  0.072300  0.845700  1.0  -0.2243
  N  N262  1  0.753200  0.624700  0.375300  1.0  -0.033
  N  N263  1  0.213400  0.347900  0.778200  1.0  -0.1479
  N  N264  1  0.872400  0.124100  0.925800  1.0  -0.0902
  N  N265  1  0.918800  0.765050  0.234950  1.0  -0.1991
  N  N266  1  0.791700  0.773400  0.845700  1.0  -0.2218
  N  N267  1  0.289500  0.723700  0.152300  1.0  -0.2605
  N  N268  1  0.208300  0.226600  0.154300  1.0  -0.2225
  N  N269  1  0.246800  0.624700  0.249400  1.0  -0.0333
  N  N270  1  0.549600  0.583700  0.291850  1.0  -0.0495
  N  N271  1  0.289500  0.847700  0.571400  1.0  -0.2566
  N  N272  1  0.049200  0.414300  0.207150  1.0  -0.1179
  N  N273  1  0.786600  0.778200  0.430300  1.0  -0.1482
  N  N274  1  0.081400  0.278300  0.000000  1.0  -0.2175
  N  N275  1  0.918600  0.000000  0.278300  1.0  -0.2182
  N  N276  1  0.289500  0.152300  0.723700  1.0  -0.2576
  N  N277  1  0.245100  0.377100  0.121200  1.0  -0.1505
  N  N278  1  0.626500  0.624300  0.696000  1.0  -0.2487
  N  N279  1  0.373500  0.304000  0.928300  1.0  -0.2516
  N  N280  1  0.950800  0.207150  0.414300  1.0  -0.114
  N  N281  1  0.754900  0.121200  0.744100  1.0  -0.1477
  N  N282  1  0.710500  0.571400  0.723700  1.0  -0.2594
  N  N283  1  0.872400  0.074200  0.198300  1.0  -0.0895
  N  N284  1  0.213400  0.430300  0.778200  1.0  -0.1487
  N  N285  1  0.213400  0.221800  0.569700  1.0  -0.147
  N  N286  1  0.000000  0.000000  0.250500  1.0  -0.0228
  N  N287  1  0.289500  0.847700  0.276300  1.0  -0.2575
  N  N288  1  0.289500  0.571400  0.847700  1.0  -0.259
  N  N289  1  0.213400  0.347900  0.569700  1.0  -0.1468
  N  N290  1  0.626500  0.696000  0.624300  1.0  -0.253
  N  N291  1  0.626500  0.928300  0.624300  1.0  -0.2532
  N  N292  1  0.208300  0.226600  0.072300  1.0  -0.2219
  N  N293  1  0.000000  0.000000  0.749500  1.0  -0.0245
  N  N294  1  0.500000  0.250600  0.000000  1.0  -0.0608
  N  N295  1  0.754900  0.744100  0.622900  1.0  -0.1475
  N  N296  1  0.706400  0.928400  0.655800  1.0  -0.1963
  N  N297  1  0.500000  0.000000  0.749400  1.0  -0.0595
  N  N298  1  0.417600  0.263800  0.527600  1.0  -0.2859
  N  N299  1  0.208300  0.773400  0.927700  1.0  -0.2224
  N  N300  1  0.127600  0.198300  0.074200  1.0  -0.0918
  N  N301  1  0.753200  0.375300  0.624700  1.0  -0.0346
  N  N302  1  0.081200  0.234950  0.765050  1.0  -0.1962
  N  N303  1  0.786600  0.430300  0.778200  1.0  -0.148
  N  N304  1  0.753200  0.750600  0.375300  1.0  -0.0332
  N  N305  1  0.213400  0.569700  0.221800  1.0  -0.1491
  N  N306  1  0.245100  0.121200  0.377100  1.0  -0.1477
  N  N307  1  0.081400  0.000000  0.278300  1.0  -0.2174
  N  N308  1  0.245100  0.878800  0.622900  1.0  -0.149
  N  N309  1  0.000000  0.749500  0.000000  1.0  -0.0229
  N  N310  1  0.786600  0.569700  0.347900  1.0  -0.1481
  N  N311  1  0.872400  0.198300  0.124100  1.0  -0.0911
  N  N312  1  0.582400  0.263800  0.527600  1.0  -0.2882
  N  N313  1  0.289500  0.571400  0.723700  1.0  -0.2597
  N  N314  1  0.293600  0.928400  0.655800  1.0  -0.1968
  N  N315  1  0.950800  0.585700  0.792850  1.0  -0.1168
  N  N316  1  0.245100  0.744100  0.622900  1.0  -0.1481
  N  N317  1  0.791700  0.927700  0.154300  1.0  -0.226
  N  N318  1  0.373500  0.624300  0.696000  1.0  -0.2481
  N  N319  1  0.373500  0.071700  0.696000  1.0  -0.2521
  N  N320  1  0.289500  0.723700  0.571400  1.0  -0.257
  N  N321  1  0.245100  0.622900  0.744100  1.0  -0.1503
  N  N322  1  0.549600  0.291850  0.708150  1.0  -0.0506
  N  N323  1  0.127600  0.124100  0.925800  1.0  -0.0896
  N  N324  1  0.127600  0.124100  0.198300  1.0  -0.0897
  N  N325  1  0.127600  0.801700  0.925800  1.0  -0.0901
  N  N326  1  0.791700  0.072300  0.226600  1.0  -0.225
  N  N327  1  0.706400  0.344200  0.071600  1.0  -0.1964
  N  N328  1  0.918600  0.000000  0.721700  1.0  -0.2177
  N  N329  1  0.293600  0.272600  0.928400  1.0  -0.1987
  N  N330  1  0.710500  0.152300  0.723700  1.0  -0.2577
  N  N331  1  0.245100  0.622900  0.878800  1.0  -0.1493
  N  N332  1  0.710500  0.847700  0.571400  1.0  -0.2558
  N  N333  1  0.872400  0.074200  0.875900  1.0  -0.0877
  N  N334  1  0.626500  0.624300  0.928300  1.0  -0.2506
  N  N335  1  0.417600  0.527600  0.263800  1.0  -0.2856
  N  N336  1  0.786600  0.569700  0.221800  1.0  -0.1492
  N  N337  1  0.373500  0.696000  0.071700  1.0  -0.2501
  N  N338  1  0.918800  0.234950  0.469900  1.0  -0.1991
  N  N339  1  0.417600  0.263800  0.736200  1.0  -0.2859
  N  N340  1  0.791700  0.927700  0.773400  1.0  -0.2253
  N  N341  1  0.872400  0.875900  0.074200  1.0  -0.0915
  N  N342  1  0.081200  0.765050  0.530100  1.0  -0.1961
  N  N343  1  0.918600  0.721700  0.721700  1.0  -0.218
  N  N344  1  0.582400  0.472400  0.736200  1.0  -0.2877
  N  N345  1  0.289500  0.276300  0.847700  1.0  -0.2566
  N  N346  1  0.754900  0.622900  0.744100  1.0  -0.1491
  N  N347  1  0.081200  0.765050  0.234950  1.0  -0.1962
  N  N348  1  0.450400  0.708150  0.291850  1.0  -0.0511
  N  N349  1  0.754900  0.377100  0.255900  1.0  -0.1483
  N  N350  1  0.710500  0.428600  0.276300  1.0  -0.2591
  N  N351  1  0.872400  0.925800  0.801700  1.0  -0.0887
  N  N352  1  0.706400  0.272600  0.344200  1.0  -0.1966
  N  N353  1  0.872400  0.875900  0.801700  1.0  -0.091
  N  N354  1  0.549600  0.291850  0.583700  1.0  -0.0504
  N  N355  1  0.417600  0.736200  0.263800  1.0  -0.2864
  N  N356  1  0.918800  0.765050  0.530100  1.0  -0.1988
  N  N357  1  0.872400  0.925800  0.124100  1.0  -0.09
  N  N358  1  0.786600  0.652100  0.221800  1.0  -0.146
  N  N359  1  0.081200  0.234950  0.469900  1.0  -0.1963
  N  N360  1  0.213400  0.778200  0.347900  1.0  -0.1471
  N  N361  1  0.706400  0.272600  0.928400  1.0  -0.1981
  N  N362  1  0.081400  0.000000  0.721700  1.0  -0.2167
  N  N363  1  0.289500  0.276300  0.428600  1.0  -0.2602
  N  N364  1  0.581600  0.220900  0.220900  1.0  -0.1899
  N  N365  1  0.245100  0.744100  0.121200  1.0  -0.1485
  N  N366  1  0.373500  0.928300  0.624300  1.0  -0.2521
  N  N367  1  0.706400  0.655800  0.727400  1.0  -0.1951
  N  N368  1  0.753200  0.375300  0.750600  1.0  -0.0335
  N  N369  1  0.582400  0.527600  0.263800  1.0  -0.2882
  N  N370  1  0.245100  0.255900  0.377100  1.0  -0.1497
  N  N371  1  0.710500  0.723700  0.152300  1.0  -0.26
  N  N372  1  0.706400  0.727400  0.071600  1.0  -0.1967
  N  N373  1  0.293600  0.928400  0.272600  1.0  -0.197
  N  N374  1  0.753200  0.249400  0.624700  1.0  -0.033
  N  N375  1  0.626500  0.696000  0.071700  1.0  -0.2507
  N  N376  1  0.127600  0.925800  0.801700  1.0  -0.0883
  N  N377  1  0.500000  0.250600  0.250600  1.0  -0.0611
  N  N378  1  0.710500  0.723700  0.571400  1.0  -0.2575
  N  N379  1  0.706400  0.071600  0.727400  1.0  -0.1962
  N  N380  1  0.581600  0.779100  0.000000  1.0  -0.1902
  N  N381  1  0.786600  0.652100  0.430300  1.0  -0.1457
  N  N382  1  0.754900  0.121200  0.377100  1.0  -0.147
  N  N383  1  0.213400  0.778200  0.430300  1.0  -0.1485
  N  N384  1  0.418400  0.779100  0.000000  1.0  -0.1898
  N  N385  1  0.245100  0.121200  0.744100  1.0  -0.1489
  N  N386  1  0.706400  0.655800  0.928400  1.0  -0.1951
  N  N387  1  0.710500  0.428600  0.152300  1.0  -0.2596
  N  N388  1  0.245100  0.255900  0.878800  1.0  -0.1497
  N  N389  1  0.582400  0.736200  0.263800  1.0  -0.2884
  N  N390  1  0.373500  0.375700  0.304000  1.0  -0.2491
  N  N391  1  0.127600  0.198300  0.124100  1.0  -0.091
  N  N392  1  0.626500  0.071700  0.696000  1.0  -0.2538
  N  N393  1  0.373500  0.375700  0.071700  1.0  -0.2492
  N  N394  1  0.786600  0.347900  0.778200  1.0  -0.1471
  N  N395  1  0.049200  0.585700  0.792850  1.0  -0.1159
  N  N396  1  0.293600  0.071600  0.344200  1.0  -0.1978
  N  N397  1  0.049200  0.207150  0.792850  1.0  -0.1166
  N  N398  1  0.213400  0.652100  0.430300  1.0  -0.1463
  N  N399  1  0.293600  0.071600  0.727400  1.0  -0.1971
  N  N400  1  0.417600  0.472400  0.736200  1.0  -0.2861
  N  N401  1  0.450400  0.708150  0.416300  1.0  -0.0514
  N  N402  1  0.213400  0.430300  0.652100  1.0  -0.1491
  N  N403  1  0.418400  0.000000  0.779100  1.0  -0.1871
  N  N404  1  0.293600  0.727400  0.071600  1.0  -0.1973
  N  N405  1  0.246800  0.750600  0.375300  1.0  -0.0331
  N  N406  1  0.754900  0.744100  0.121200  1.0  -0.1477
  N  N407  1  0.127600  0.074200  0.875900  1.0  -0.0877
  N  N408  1  0.081200  0.469900  0.234950  1.0  -0.1965
  N  N409  1  0.081400  0.721700  0.721700  1.0  -0.2172
  N  N410  1  0.710500  0.152300  0.428600  1.0  -0.2587
  N  N411  1  0.786600  0.347900  0.569700  1.0  -0.1465
  N  N412  1  0.872400  0.801700  0.925800  1.0  -0.0905
  N  N413  1  0.549600  0.708150  0.416300  1.0  -0.0512
  N  N414  1  0.081400  0.721700  0.000000  1.0  -0.2172
  N  N415  1  0.500000  0.000000  0.250600  1.0  -0.0601
  N  N416  1  0.208300  0.154300  0.226600  1.0  -0.2219
  N  N417  1  0.918800  0.469900  0.234950  1.0  -0.1996
  N  N418  1  0.081200  0.530100  0.765050  1.0  -0.1964
  N  N419  1  0.418400  0.779100  0.779100  1.0  -0.1893
  N  N420  1  0.786600  0.430300  0.652100  1.0  -0.1492
  N  N421  1  0.791700  0.154300  0.927700  1.0  -0.223
  N  N422  1  0.081400  0.278300  0.278300  1.0  -0.2178
  N  N423  1  0.626500  0.375700  0.304000  1.0  -0.2504
  N  N424  1  0.293600  0.727400  0.655800  1.0  -0.1987
  N  N425  1  0.581600  0.779100  0.779100  1.0  -0.1899
  N  N426  1  0.786600  0.221800  0.569700  1.0  -0.1468
  N  N427  1  0.754900  0.622900  0.878800  1.0  -0.1483
  N  N428  1  0.450400  0.291850  0.583700  1.0  -0.0512
  N  N429  1  0.000000  0.250500  0.000000  1.0  -0.0233
  N  N430  1  0.754900  0.255900  0.377100  1.0  -0.1477
  N  N431  1  0.626500  0.375700  0.071700  1.0  -0.2498
  N  N432  1  0.710500  0.571400  0.847700  1.0  -0.2589
  N  N433  1  0.791700  0.773400  0.927700  1.0  -0.2225
  N  N434  1  0.500000  0.749400  0.000000  1.0  -0.0616
  N  N435  1  0.246800  0.375300  0.750600  1.0  -0.0334
  N  N436  1  0.706400  0.071600  0.344200  1.0  -0.1966
  N  N437  1  0.208300  0.845700  0.072300  1.0  -0.221
  N  N438  1  0.208300  0.154300  0.927700  1.0  -0.2227
  N  N439  1  0.918800  0.234950  0.765050  1.0  -0.1988
  N  N440  1  0.450400  0.583700  0.291850  1.0  -0.0494
  N  N441  1  0.127600  0.074200  0.198300  1.0  -0.0892
  N  N442  1  0.418400  0.000000  0.220900  1.0  -0.1886
  N  N443  1  0.791700  0.154300  0.226600  1.0  -0.2222
  N  N444  1  0.245100  0.377100  0.255900  1.0  -0.1494
  N  N445  1  0.706400  0.727400  0.655800  1.0  -0.1978
  N  N446  1  0.581600  0.220900  0.000000  1.0  -0.1893
  N  N447  1  0.289500  0.152300  0.428600  1.0  -0.2588
  N  N448  1  0.950800  0.792850  0.207150  1.0  -0.1135
