# generated using pymatgen
data_NaZnH8(C2O)8
_symmetry_space_group_name_H-M   'P 1'
_cell_length_a   9.76510000
_cell_length_b   9.76510000
_cell_length_c   11.32800000
_cell_angle_alpha   104.57800000
_cell_angle_beta   104.57800000
_cell_angle_gamma   94.34080000
_symmetry_Int_Tables_number   1
_chemical_formula_structural   NaZnH8(C2O)8
_chemical_formula_sum   'Na2 Zn2 H16 C32 O16'
_cell_volume   1000.56340461
_cell_formula_units_Z   2
loop_
 _symmetry_equiv_pos_site_id
 _symmetry_equiv_pos_as_xyz
  1  'x, y, z'
loop_
 _atom_site_type_symbol
 _atom_site_label
 _atom_site_symmetry_multiplicity
 _atom_site_fract_x
 _atom_site_fract_y
 _atom_site_fract_z
 _atom_site_occupancy
 _atom_site_charge
  Na  Na1  1  0.000000  0.000000  0.000000  1.0  0.9502
  Na  Na2  1  0.000000  0.000000  0.500000  1.0  0.9502
  Zn  Zn3  1  0.885030  0.114970  0.750000  1.0  1.0196
  Zn  Zn4  1  0.114970  0.885030  0.250000  1.0  1.0205
  H  H5  1  0.753000  0.501400  0.288200  1.0  0.1289
  H  H6  1  0.501400  0.753000  0.788200  1.0  0.1288
  H  H7  1  0.247000  0.498600  0.711800  1.0  0.1286
  H  H8  1  0.730200  0.787000  0.923000  1.0  0.1274
  H  H9  1  0.787400  0.309200  0.369800  1.0  0.1294
  H  H10  1  0.878500  0.570100  0.721700  1.0  0.1287
  H  H11  1  0.570100  0.878500  0.221700  1.0  0.1296
  H  H12  1  0.429900  0.121500  0.778300  1.0  0.1289
  H  H13  1  0.212600  0.690800  0.630200  1.0  0.1298
  H  H14  1  0.690800  0.212600  0.130200  1.0  0.1308
  H  H15  1  0.121500  0.429900  0.278300  1.0  0.1286
  H  H16  1  0.787000  0.730200  0.423000  1.0  0.1268
  H  H17  1  0.309200  0.787400  0.869800  1.0  0.1303
  H  H18  1  0.213000  0.269800  0.577000  1.0  0.1266
  H  H19  1  0.498600  0.247000  0.211800  1.0  0.1275
  H  H20  1  0.269800  0.213000  0.077000  1.0  0.1267
  C  C21  1  0.420300  0.836500  0.053400  1.0  -0.139
  C  C22  1  0.141900  0.705700  0.394700  1.0  0.7238
  C  C23  1  0.515700  0.779700  0.875700  1.0  -0.0704
  C  C24  1  0.579700  0.163500  0.946600  1.0  -0.1379
  C  C25  1  0.705700  0.141900  0.894700  1.0  0.7208
  C  C26  1  0.220300  0.484300  0.624300  1.0  -0.0697
  C  C27  1  0.200600  0.347400  0.543800  1.0  0.0106
  C  C28  1  0.443300  0.145300  0.865700  1.0  0.0221
  C  C29  1  0.136800  0.178600  0.323300  1.0  0.6879
  C  C30  1  0.652600  0.799400  0.956200  1.0  0.0084
  C  C31  1  0.799300  0.400700  0.424500  1.0  -0.0016
  C  C32  1  0.821400  0.863200  0.176700  1.0  0.6857
  C  C33  1  0.200700  0.599300  0.575500  1.0  -0.0042
  C  C34  1  0.326200  0.162200  0.913500  1.0  -0.1624
  C  C35  1  0.599300  0.200700  0.075500  1.0  -0.0024
  C  C36  1  0.294300  0.858100  0.105300  1.0  0.7194
  C  C37  1  0.556700  0.854700  0.134300  1.0  0.0237
  C  C38  1  0.178600  0.136800  0.823300  1.0  0.6854
  C  C39  1  0.400700  0.799300  0.924500  1.0  -0.0017
  C  C40  1  0.145300  0.443300  0.365700  1.0  0.0227
  C  C41  1  0.799400  0.652600  0.456200  1.0  0.011
  C  C42  1  0.779700  0.515700  0.375700  1.0  -0.0755
  C  C43  1  0.162200  0.326200  0.413500  1.0  -0.1655
  C  C44  1  0.863200  0.821400  0.676700  1.0  0.6883
  C  C45  1  0.836500  0.420300  0.553400  1.0  -0.1401
  C  C46  1  0.837800  0.673800  0.586500  1.0  -0.1657
  C  C47  1  0.347400  0.200600  0.043800  1.0  0.007
  C  C48  1  0.854700  0.556700  0.634300  1.0  0.0231
  C  C49  1  0.673800  0.837800  0.086500  1.0  -0.1656
  C  C50  1  0.858100  0.294300  0.605300  1.0  0.7215
  C  C51  1  0.484300  0.220300  0.124300  1.0  -0.0677
  C  C52  1  0.163500  0.579700  0.446600  1.0  -0.1387
  O  O53  1  0.313800  0.886400  0.223500  1.0  -0.5795
  O  O54  1  0.856540  0.924580  0.625500  1.0  -0.6833
  O  O55  1  0.173700  0.844500  0.031500  1.0  -0.6777
  O  O56  1  0.826300  0.155500  0.968500  1.0  -0.6754
  O  O57  1  0.686200  0.113600  0.776500  1.0  -0.5794
  O  O58  1  0.112600  0.162600  0.208400  1.0  -0.6207
  O  O59  1  0.113600  0.686200  0.276500  1.0  -0.5805
  O  O60  1  0.844500  0.173700  0.531500  1.0  -0.6794
  O  O61  1  0.143460  0.075420  0.374500  1.0  -0.6837
  O  O62  1  0.886400  0.313800  0.723500  1.0  -0.5823
  O  O63  1  0.162600  0.112600  0.708400  1.0  -0.6208
  O  O64  1  0.155500  0.826300  0.468500  1.0  -0.6766
  O  O65  1  0.075420  0.143460  0.874500  1.0  -0.6829
  O  O66  1  0.887400  0.837400  0.791600  1.0  -0.6221
  O  O67  1  0.837400  0.887400  0.291600  1.0  -0.6219
  O  O68  1  0.924580  0.856540  0.125500  1.0  -0.6844
