# generated using pymatgen
data_Cd5H18(CN5)9
_symmetry_space_group_name_H-M   'P 1'
_cell_length_a   13.11980000
_cell_length_b   13.11980000
_cell_length_c   13.60070000
_cell_angle_alpha   90.00000000
_cell_angle_beta   90.00000000
_cell_angle_gamma   120.00000000
_symmetry_Int_Tables_number   1
_chemical_formula_structural   Cd5H18(CN5)9
_chemical_formula_sum   'Cd10 H36 C18 N90'
_cell_volume   2027.43211797
_cell_formula_units_Z   2
loop_
 _symmetry_equiv_pos_site_id
 _symmetry_equiv_pos_as_xyz
  1  'x, y, z'
loop_
 _atom_site_type_symbol
 _atom_site_label
 _atom_site_symmetry_multiplicity
 _atom_site_fract_x
 _atom_site_fract_y
 _atom_site_fract_z
 _atom_site_occupancy
 _atom_site_charge
  Cd  Cd1  1  0.666667  0.333333  0.897940  1.0  0.6672
  Cd  Cd2  1  0.666667  0.333333  0.602060  1.0  0.6688
  Cd  Cd3  1  0.487250  0.487250  0.500000  1.0  0.7333
  Cd  Cd4  1  0.487250  0.487250  0.000000  1.0  0.7333
  Cd  Cd5  1  0.333333  0.666667  0.397940  1.0  0.6672
  Cd  Cd6  1  0.000000  0.512750  0.500000  1.0  0.7326
  Cd  Cd7  1  0.333333  0.666667  0.102060  1.0  0.6688
  Cd  Cd8  1  0.000000  0.512750  0.000000  1.0  0.7326
  Cd  Cd9  1  0.512750  0.000000  0.000000  1.0  0.7329
  Cd  Cd10  1  0.512750  0.000000  0.500000  1.0  0.7329
  H  H11  1  0.429700  0.843300  0.802000  1.0  0.2812
  H  H12  1  0.570300  0.413600  0.198000  1.0  0.2817
  H  H13  1  0.263800  0.284100  0.370500  1.0  0.3058
  H  H14  1  0.413600  0.570300  0.698000  1.0  0.2813
  H  H15  1  0.841000  0.050500  0.161100  1.0  0.3145
  H  H16  1  0.586400  0.156700  0.198000  1.0  0.2822
  H  H17  1  0.586400  0.156700  0.302000  1.0  0.2807
  H  H18  1  0.790500  0.949500  0.661100  1.0  0.3141
  H  H19  1  0.841000  0.050500  0.338900  1.0  0.3127
  H  H20  1  0.156700  0.586400  0.698000  1.0  0.2817
  H  H21  1  0.263800  0.284100  0.129500  1.0  0.306
  H  H22  1  0.736200  0.020300  0.629500  1.0  0.3055
  H  H23  1  0.790500  0.949500  0.838900  1.0  0.3126
  H  H24  1  0.570300  0.413600  0.302000  1.0  0.2804
  H  H25  1  0.429700  0.843300  0.698000  1.0  0.2825
  H  H26  1  0.284100  0.263800  0.870500  1.0  0.3071
  H  H27  1  0.715900  0.979700  0.370500  1.0  0.3036
  H  H28  1  0.050500  0.841000  0.838900  1.0  0.3143
  H  H29  1  0.209500  0.159000  0.338900  1.0  0.3153
  H  H30  1  0.413600  0.570300  0.802000  1.0  0.2798
  H  H31  1  0.156700  0.586400  0.802000  1.0  0.2802
  H  H32  1  0.843300  0.429700  0.302000  1.0  0.28
  H  H33  1  0.949500  0.790500  0.161100  1.0  0.3168
  H  H34  1  0.020300  0.736200  0.129500  1.0  0.3075
  H  H35  1  0.736200  0.020300  0.870500  1.0  0.3056
  H  H36  1  0.020300  0.736200  0.370500  1.0  0.3074
  H  H37  1  0.949500  0.790500  0.338900  1.0  0.3155
  H  H38  1  0.843300  0.429700  0.198000  1.0  0.2813
  H  H39  1  0.050500  0.841000  0.661100  1.0  0.3156
  H  H40  1  0.209500  0.159000  0.161100  1.0  0.3167
  H  H41  1  0.284100  0.263800  0.629500  1.0  0.3075
  H  H42  1  0.979700  0.715900  0.629500  1.0  0.3048
  H  H43  1  0.159000  0.209500  0.838900  1.0  0.3164
  H  H44  1  0.159000  0.209500  0.661100  1.0  0.3178
  H  H45  1  0.715900  0.979700  0.129500  1.0  0.3039
  H  H46  1  0.979700  0.715900  0.870500  1.0  0.3049
  C  C47  1  0.208900  0.347700  0.918400  1.0  0.6117
  C  C48  1  0.652300  0.861200  0.918400  1.0  0.612
  C  C49  1  0.861200  0.652300  0.081600  1.0  0.6117
  C  C50  1  0.208900  0.347700  0.581600  1.0  0.6119
  C  C51  1  0.652300  0.861200  0.581600  1.0  0.612
  C  C52  1  0.013400  0.517000  0.750000  1.0  0.5188
  C  C53  1  0.861200  0.652300  0.418400  1.0  0.6117
  C  C54  1  0.503600  0.986600  0.750000  1.0  0.5184
  C  C55  1  0.496400  0.483000  0.250000  1.0  0.5196
  C  C56  1  0.986600  0.503600  0.250000  1.0  0.5185
  C  C57  1  0.138800  0.791100  0.581600  1.0  0.6131
  C  C58  1  0.791100  0.138800  0.081600  1.0  0.6122
  C  C59  1  0.138800  0.791100  0.918400  1.0  0.613
  C  C60  1  0.517000  0.013400  0.250000  1.0  0.518
  C  C61  1  0.347700  0.208900  0.418400  1.0  0.6128
  C  C62  1  0.347700  0.208900  0.081600  1.0  0.6129
  C  C63  1  0.483000  0.496400  0.750000  1.0  0.5184
  C  C64  1  0.791100  0.138800  0.418400  1.0  0.6121
  N  N65  1  0.263600  0.218500  0.370100  1.0  -0.7921
  N  N66  1  0.856700  0.564200  0.469200  1.0  -0.329
  N  N67  1  0.407100  0.571600  0.298000  1.0  -0.0486
  N  N68  1  0.485000  0.947000  0.169300  1.0  -0.3506
  N  N69  1  0.428400  0.835500  0.298000  1.0  -0.0483
  N  N70  1  0.358900  0.112400  0.087700  1.0  -0.3934
  N  N71  1  0.454200  0.138400  0.466500  1.0  -0.0511
  N  N72  1  0.245600  0.501200  0.999100  1.0  -0.072
  N  N73  1  0.134700  0.575200  0.750000  1.0  -0.6438
  N  N74  1  0.498800  0.744400  0.500900  1.0  -0.0696
  N  N75  1  0.571600  0.407100  0.702000  1.0  -0.0484
  N  N76  1  0.501200  0.245600  0.499100  1.0  -0.0686
  N  N77  1  0.515000  0.462000  0.830700  1.0  -0.3496
  N  N78  1  0.781500  0.045100  0.129900  1.0  -0.7938
  N  N79  1  0.315800  0.861600  0.533500  1.0  -0.0504
  N  N80  1  0.754400  0.255600  0.000900  1.0  -0.0692
  N  N81  1  0.753500  0.641100  0.412300  1.0  -0.3947
  N  N82  1  0.559500  0.424800  0.250000  1.0  -0.6434
  N  N83  1  0.515000  0.462000  0.669300  1.0  -0.3493
  N  N84  1  0.707500  0.143300  0.030800  1.0  -0.3294
  N  N85  1  0.255600  0.754400  0.999100  1.0  -0.0688
  N  N86  1  0.707500  0.143300  0.469200  1.0  -0.3292
  N  N87  1  0.246500  0.887600  0.912300  1.0  -0.3938
  N  N88  1  0.753500  0.641100  0.087700  1.0  -0.3948
  N  N89  1  0.947000  0.485000  0.669300  1.0  -0.3518
  N  N90  1  0.754400  0.255600  0.499100  1.0  -0.0691
  N  N91  1  0.781500  0.045100  0.370100  1.0  -0.7934
  N  N92  1  0.454200  0.138400  0.033500  1.0  -0.051
  N  N93  1  0.501200  0.245600  0.000900  1.0  -0.0695
  N  N94  1  0.947000  0.485000  0.830700  1.0  -0.352
  N  N95  1  0.835500  0.428400  0.798000  1.0  -0.0483
  N  N96  1  0.538000  0.053000  0.830700  1.0  -0.3512
  N  N97  1  0.538000  0.053000  0.669300  1.0  -0.3502
  N  N98  1  0.218500  0.263600  0.870100  1.0  -0.7952
  N  N99  1  0.571600  0.407100  0.798000  1.0  -0.048
  N  N100  1  0.835500  0.428400  0.702000  1.0  -0.0484
  N  N101  1  0.564200  0.856700  0.530800  1.0  -0.3287
  N  N102  1  0.245600  0.501200  0.500900  1.0  -0.0724
  N  N103  1  0.143300  0.707500  0.969200  1.0  -0.3301
  N  N104  1  0.435800  0.292500  0.469200  1.0  -0.3292
  N  N105  1  0.428400  0.835500  0.202000  1.0  -0.0486
  N  N106  1  0.485000  0.947000  0.330700  1.0  -0.3509
  N  N107  1  0.407100  0.571600  0.202000  1.0  -0.0479
  N  N108  1  0.292500  0.435800  0.530800  1.0  -0.3285
  N  N109  1  0.736400  0.954900  0.870100  1.0  -0.7945
  N  N110  1  0.143300  0.707500  0.530800  1.0  -0.33
  N  N111  1  0.263600  0.218500  0.129900  1.0  -0.7925
  N  N112  1  0.592900  0.164500  0.702000  1.0  -0.0483
  N  N113  1  0.315800  0.861600  0.966500  1.0  -0.0517
  N  N114  1  0.435800  0.292500  0.030800  1.0  -0.3282
  N  N115  1  0.292500  0.435800  0.969200  1.0  -0.3289
  N  N116  1  0.053000  0.538000  0.169300  1.0  -0.3497
  N  N117  1  0.164500  0.592900  0.298000  1.0  -0.0483
  N  N118  1  0.744400  0.498800  0.499100  1.0  -0.0713
  N  N119  1  0.255600  0.754400  0.500900  1.0  -0.0701
  N  N120  1  0.045100  0.781500  0.629900  1.0  -0.7926
  N  N121  1  0.564200  0.856700  0.969200  1.0  -0.3291
  N  N122  1  0.545800  0.684200  0.533500  1.0  -0.054
  N  N123  1  0.462000  0.515000  0.330700  1.0  -0.3531
  N  N124  1  0.218500  0.263600  0.629900  1.0  -0.7955
  N  N125  1  0.440500  0.865300  0.750000  1.0  -0.6432
  N  N126  1  0.861600  0.315800  0.033500  1.0  -0.0531
  N  N127  1  0.138400  0.454200  0.533500  1.0  -0.054
  N  N128  1  0.498800  0.744400  0.999100  1.0  -0.0687
  N  N129  1  0.736400  0.954900  0.629900  1.0  -0.7949
  N  N130  1  0.954900  0.736400  0.129900  1.0  -0.7938
  N  N131  1  0.641100  0.753500  0.912300  1.0  -0.3976
  N  N132  1  0.684200  0.545800  0.466500  1.0  -0.0551
  N  N133  1  0.865300  0.440500  0.250000  1.0  -0.6465
  N  N134  1  0.887600  0.246500  0.087700  1.0  -0.3978
  N  N135  1  0.545800  0.684200  0.966500  1.0  -0.054
  N  N136  1  0.112400  0.358900  0.587700  1.0  -0.3957
  N  N137  1  0.138400  0.454200  0.966500  1.0  -0.0547
  N  N138  1  0.887600  0.246500  0.412300  1.0  -0.3978
  N  N139  1  0.592900  0.164500  0.798000  1.0  -0.049
  N  N140  1  0.575200  0.134700  0.250000  1.0  -0.6438
  N  N141  1  0.684200  0.545800  0.033500  1.0  -0.0544
  N  N142  1  0.424800  0.559500  0.750000  1.0  -0.6463
  N  N143  1  0.954900  0.736400  0.370100  1.0  -0.7927
  N  N144  1  0.246500  0.887600  0.587700  1.0  -0.3941
  N  N145  1  0.861600  0.315800  0.466500  1.0  -0.0539
  N  N146  1  0.112400  0.358900  0.912300  1.0  -0.3954
  N  N147  1  0.462000  0.515000  0.169300  1.0  -0.3511
  N  N148  1  0.045100  0.781500  0.870100  1.0  -0.7918
  N  N149  1  0.358900  0.112400  0.412300  1.0  -0.3936
  N  N150  1  0.856700  0.564200  0.030800  1.0  -0.3289
  N  N151  1  0.641100  0.753500  0.587700  1.0  -0.3973
  N  N152  1  0.744400  0.498800  0.000900  1.0  -0.0724
  N  N153  1  0.164500  0.592900  0.202000  1.0  -0.0482
  N  N154  1  0.053000  0.538000  0.330700  1.0  -0.3496
