# generated using pymatgen
data_Cd4H9(C3O2)9
_symmetry_space_group_name_H-M   'P 1'
_cell_length_a   10.35030000
_cell_length_b   10.35030000
_cell_length_c   52.55700000
_cell_angle_alpha   90.00000000
_cell_angle_beta   90.00000000
_cell_angle_gamma   90.00000000
_symmetry_Int_Tables_number   1
_chemical_formula_structural   Cd4H9(C3O2)9
_chemical_formula_sum   'Cd16 H36 C108 O72'
_cell_volume   5630.36361620
_cell_formula_units_Z   4
loop_
 _symmetry_equiv_pos_site_id
 _symmetry_equiv_pos_as_xyz
  1  'x, y, z'
loop_
 _atom_site_type_symbol
 _atom_site_label
 _atom_site_symmetry_multiplicity
 _atom_site_fract_x
 _atom_site_fract_y
 _atom_site_fract_z
 _atom_site_occupancy
 _atom_site_charge
  Cd  Cd1  1  0.242960  0.854660  0.421170  1.0  1.1063
  Cd  Cd2  1  0.854660  0.757040  0.171170  1.0  1.1047
  Cd  Cd3  1  0.940280  0.641560  0.773620  1.0  1.1701
  Cd  Cd4  1  0.242960  0.145340  0.078830  1.0  1.1058
  Cd  Cd5  1  0.757040  0.145340  0.921170  1.0  1.1059
  Cd  Cd6  1  0.059720  0.641560  0.226380  1.0  1.1685
  Cd  Cd7  1  0.145340  0.757040  0.828830  1.0  1.1059
  Cd  Cd8  1  0.641560  0.059720  0.523620  1.0  1.1697
  Cd  Cd9  1  0.358440  0.059720  0.476380  1.0  1.1688
  Cd  Cd10  1  0.059720  0.358440  0.273620  1.0  1.17
  Cd  Cd11  1  0.358440  0.940280  0.023620  1.0  1.1707
  Cd  Cd12  1  0.757040  0.854660  0.578830  1.0  1.1056
  Cd  Cd13  1  0.145340  0.242960  0.671170  1.0  1.1058
  Cd  Cd14  1  0.641560  0.940280  0.976380  1.0  1.169
  Cd  Cd15  1  0.854660  0.242960  0.328830  1.0  1.104
  Cd  Cd16  1  0.940280  0.358440  0.726380  1.0  1.1696
  H  H17  1  0.390600  0.479800  0.468700  1.0  0.1211
  H  H18  1  0.520200  0.609400  0.781300  1.0  0.1222
  H  H19  1  0.119000  0.053600  0.525300  1.0  0.1167
  H  H20  1  0.121200  0.335700  0.163100  1.0  0.1268
  H  H21  1  0.053600  0.119000  0.224700  1.0  0.1165
  H  H22  1  0.946400  0.881000  0.724700  1.0  0.1161
  H  H23  1  0.878800  0.335700  0.836900  1.0  0.1275
  H  H24  1  0.479800  0.609400  0.218700  1.0  0.1212
  H  H25  1  0.051100  0.872600  0.092800  1.0  0.1184
  H  H26  1  0.127400  0.051100  0.342800  1.0  0.118
  H  H27  1  0.119000  0.946400  0.974700  1.0  0.1164
  H  H28  1  0.053600  0.881000  0.275300  1.0  0.1165
  H  H29  1  0.878800  0.664300  0.663100  1.0  0.1268
  H  H30  1  0.335700  0.121200  0.586900  1.0  0.1271
  H  H31  1  0.881000  0.946400  0.025300  1.0  0.1162
  H  H32  1  0.946400  0.119000  0.775300  1.0  0.1162
  H  H33  1  0.664300  0.121200  0.413100  1.0  0.1268
  H  H34  1  0.816000  0.500000  0.250000  1.0  0.0991
  H  H35  1  0.500000  0.184000  0.000000  1.0  0.0962
  H  H36  1  0.520200  0.390600  0.718700  1.0  0.1211
  H  H37  1  0.500000  0.816000  0.500000  1.0  0.096
  H  H38  1  0.948900  0.127400  0.592800  1.0  0.117
  H  H39  1  0.051100  0.127400  0.407200  1.0  0.1181
  H  H40  1  0.390600  0.520200  0.031300  1.0  0.1217
  H  H41  1  0.335700  0.878800  0.913100  1.0  0.1269
  H  H42  1  0.184000  0.500000  0.750000  1.0  0.0982
  H  H43  1  0.872600  0.948900  0.842800  1.0  0.1176
  H  H44  1  0.121200  0.664300  0.336900  1.0  0.127
  H  H45  1  0.948900  0.872600  0.907200  1.0  0.1165
  H  H46  1  0.872600  0.051100  0.657200  1.0  0.1193
  H  H47  1  0.609400  0.520200  0.968700  1.0  0.1211
  H  H48  1  0.881000  0.053600  0.474700  1.0  0.1163
  H  H49  1  0.664300  0.878800  0.086900  1.0  0.127
  H  H50  1  0.609400  0.479800  0.531300  1.0  0.1214
  H  H51  1  0.479800  0.390600  0.281300  1.0  0.1216
  H  H52  1  0.127400  0.948900  0.157200  1.0  0.1173
  C  C53  1  0.524600  0.565200  0.231310  1.0  0.0259
  C  C54  1  0.887800  0.745300  0.670550  1.0  0.0353
  C  C55  1  0.755100  0.920000  0.053950  1.0  -0.1625
  C  C56  1  0.976700  0.118800  0.417030  1.0  0.0197
  C  C57  1  0.365700  0.729600  0.460050  1.0  0.7154
  C  C58  1  0.881200  0.023300  0.832970  1.0  0.0214
  C  C59  1  0.918900  0.881500  0.795420  1.0  0.6972
  C  C60  1  0.565200  0.657900  0.518820  1.0  -0.1486
  C  C61  1  0.311100  0.500000  0.250000  1.0  0.7447
  C  C62  1  0.475400  0.434800  0.731310  1.0  0.0254
  C  C63  1  0.051900  0.366700  0.210540  1.0  0.7283
  C  C64  1  0.565200  0.524600  0.518690  1.0  0.0262
  C  C65  1  0.834100  0.847800  0.627810  1.0  0.6799
  C  C66  1  0.874800  0.927600  0.042550  1.0  0.027
  C  C67  1  0.118800  0.023300  0.167030  1.0  0.0209
  C  C68  1  0.131600  0.142700  0.155720  1.0  -0.1557
  C  C69  1  0.080000  0.244900  0.196050  1.0  -0.1624
  C  C70  1  0.366700  0.948100  0.960540  1.0  0.7261
  C  C71  1  0.142700  0.868400  0.905720  1.0  -0.1558
  C  C72  1  0.270400  0.365700  0.710050  1.0  0.7155
  C  C73  1  0.524600  0.434800  0.268690  1.0  0.0267
  C  C74  1  0.500000  0.542700  0.000000  1.0  -0.1632
  C  C75  1  0.118500  0.918900  0.045420  1.0  0.6985
  C  C76  1  0.023300  0.881200  0.917030  1.0  0.02
  C  C77  1  0.927600  0.125200  0.792550  1.0  0.0279
  C  C78  1  0.948100  0.633300  0.710540  1.0  0.7272
  C  C79  1  0.918900  0.118500  0.704580  1.0  0.698
  C  C80  1  0.874800  0.072400  0.457450  1.0  0.0269
  C  C81  1  0.270400  0.634300  0.789950  1.0  0.7161
  C  C82  1  0.906900  0.012500  0.806900  1.0  -0.1571
  C  C83  1  0.500000  0.726200  0.500000  1.0  0.0149
  C  C84  1  0.112200  0.745300  0.329450  1.0  0.0356
  C  C85  1  0.365700  0.270400  0.039950  1.0  0.7146
  C  C86  1  0.906900  0.987500  0.693100  1.0  -0.1566
  C  C87  1  0.857300  0.868400  0.094280  1.0  -0.1558
  C  C88  1  0.118500  0.081100  0.454580  1.0  0.6991
  C  C89  1  0.165900  0.152200  0.127810  1.0  0.681
  C  C90  1  0.081100  0.118500  0.295420  1.0  0.6975
  C  C91  1  0.726200  0.500000  0.250000  1.0  0.0124
  C  C92  1  0.023300  0.118800  0.582970  1.0  0.02
  C  C93  1  0.434800  0.524600  0.481310  1.0  0.0261
  C  C94  1  0.457300  0.500000  0.250000  1.0  -0.1629
  C  C95  1  0.012500  0.906900  0.943100  1.0  -0.1569
  C  C96  1  0.142700  0.131600  0.594280  1.0  -0.1561
  C  C97  1  0.729600  0.634300  0.210050  1.0  0.7148
  C  C98  1  0.927600  0.874800  0.707450  1.0  0.0263
  C  C99  1  0.112200  0.254700  0.170550  1.0  0.0343
  C  C100  1  0.152200  0.834100  0.877810  1.0  0.682
  C  C101  1  0.987500  0.906900  0.056900  1.0  -0.1579
  C  C102  1  0.633300  0.948100  0.039460  1.0  0.7263
  C  C103  1  0.118800  0.976700  0.332970  1.0  0.0212
  C  C104  1  0.887800  0.254700  0.829450  1.0  0.0343
  C  C105  1  0.500000  0.688900  0.000000  1.0  0.7451
  C  C106  1  0.745300  0.112200  0.420550  1.0  0.0329
  C  C107  1  0.920000  0.244900  0.803950  1.0  -0.1621
  C  C108  1  0.755100  0.080000  0.446050  1.0  -0.1627
  C  C109  1  0.834100  0.152200  0.872190  1.0  0.6784
  C  C110  1  0.565200  0.475400  0.981310  1.0  0.0255
  C  C111  1  0.072400  0.874800  0.292550  1.0  0.0276
  C  C112  1  0.920000  0.755100  0.696050  1.0  -0.1626
  C  C113  1  0.634300  0.270400  0.960050  1.0  0.7151
  C  C114  1  0.987500  0.093100  0.443100  1.0  -0.1581
  C  C115  1  0.657900  0.434800  0.268820  1.0  -0.1488
  C  C116  1  0.868400  0.142700  0.844280  1.0  -0.156
  C  C117  1  0.868400  0.857300  0.655720  1.0  -0.1559
  C  C118  1  0.342100  0.434800  0.731180  1.0  -0.1493
  C  C119  1  0.881500  0.918900  0.954580  1.0  0.6982
  C  C120  1  0.051900  0.633300  0.289460  1.0  0.7268
  C  C121  1  0.976700  0.881200  0.082970  1.0  0.0203
  C  C122  1  0.881500  0.081100  0.545420  1.0  0.6973
  C  C123  1  0.434800  0.475400  0.018690  1.0  0.0261
  C  C124  1  0.125200  0.072400  0.542550  1.0  0.0274
  C  C125  1  0.093100  0.987500  0.306900  1.0  -0.1567
  C  C126  1  0.434800  0.657900  0.481180  1.0  -0.1485
  C  C127  1  0.542700  0.500000  0.750000  1.0  -0.1632
  C  C128  1  0.633300  0.051900  0.460540  1.0  0.7258
  C  C129  1  0.273800  0.500000  0.750000  1.0  0.0117
  C  C130  1  0.948100  0.366700  0.789460  1.0  0.7273
  C  C131  1  0.500000  0.273800  0.000000  1.0  0.0164
  C  C132  1  0.165900  0.847800  0.372190  1.0  0.6808
  C  C133  1  0.244900  0.080000  0.553950  1.0  -0.1624
  C  C134  1  0.080000  0.755100  0.303950  1.0  -0.1629
  C  C135  1  0.131600  0.857300  0.344280  1.0  -0.1556
  C  C136  1  0.152200  0.165900  0.622190  1.0  0.6805
  C  C137  1  0.093100  0.012500  0.193100  1.0  -0.1574
  C  C138  1  0.847800  0.165900  0.377810  1.0  0.6803
  C  C139  1  0.634300  0.729600  0.539950  1.0  0.7162
  C  C140  1  0.125200  0.927600  0.957450  1.0  0.0269
  C  C141  1  0.500000  0.457300  0.500000  1.0  -0.1634
  C  C142  1  0.434800  0.342100  0.018820  1.0  -0.1481
  C  C143  1  0.342100  0.565200  0.768820  1.0  -0.1485
  C  C144  1  0.657900  0.565200  0.231180  1.0  -0.1489
  C  C145  1  0.565200  0.342100  0.981180  1.0  -0.1486
  C  C146  1  0.254700  0.887800  0.920550  1.0  0.0338
  C  C147  1  0.072400  0.125200  0.207450  1.0  0.0271
  C  C148  1  0.244900  0.920000  0.946050  1.0  -0.1626
  C  C149  1  0.081100  0.881500  0.204580  1.0  0.6984
  C  C150  1  0.729600  0.365700  0.289950  1.0  0.7156
  C  C151  1  0.500000  0.311100  0.500000  1.0  0.7431
  C  C152  1  0.012500  0.093100  0.556900  1.0  -0.1563
  C  C153  1  0.847800  0.834100  0.122190  1.0  0.6813
  C  C154  1  0.881200  0.976700  0.667030  1.0  0.0207
  C  C155  1  0.857300  0.131600  0.405720  1.0  -0.1561
  C  C156  1  0.254700  0.112200  0.579450  1.0  0.0335
  C  C157  1  0.475400  0.565200  0.768690  1.0  0.0254
  C  C158  1  0.745300  0.887800  0.079450  1.0  0.0333
  C  C159  1  0.366700  0.051900  0.539460  1.0  0.7249
  C  C160  1  0.688900  0.500000  0.750000  1.0  0.744
  O  O161  1  0.641700  0.996700  0.017620  1.0  -0.6694
  O  O162  1  0.867900  0.911700  0.978270  1.0  -0.5602
  O  O163  1  0.331100  0.329500  0.059260  1.0  -0.5621
  O  O164  1  0.329500  0.331100  0.690740  1.0  -0.5621
  O  O165  1  0.591000  0.741900  0.988790  1.0  -0.6246
  O  O166  1  0.740900  0.818700  0.132160  1.0  -0.5778
  O  O167  1  0.183500  0.948100  0.383820  1.0  -0.5472
  O  O168  1  0.471800  0.073800  0.550380  1.0  -0.5889
  O  O169  1  0.051900  0.183500  0.633820  1.0  -0.5406
  O  O170  1  0.591000  0.258100  0.511210  1.0  -0.6243
  O  O171  1  0.996700  0.358300  0.767620  1.0  -0.6678
  O  O172  1  0.528200  0.926200  0.050380  1.0  -0.5887
  O  O173  1  0.668900  0.329500  0.940740  1.0  -0.5608
  O  O174  1  0.784400  0.935500  0.940050  1.0  -0.6235
  O  O175  1  0.641700  0.003300  0.482380  1.0  -0.6699
  O  O176  1  0.658100  0.847900  0.536990  1.0  -0.6519
  O  O177  1  0.259100  0.818700  0.867840  1.0  -0.5806
  O  O178  1  0.051900  0.816500  0.866180  1.0  -0.5427
  O  O179  1  0.409000  0.258100  0.488790  1.0  -0.6241
  O  O180  1  0.341900  0.152100  0.036990  1.0  -0.6515
  O  O181  1  0.658100  0.152100  0.963010  1.0  -0.6517
  O  O182  1  0.003300  0.641700  0.267620  1.0  -0.6678
  O  O183  1  0.329500  0.668900  0.809260  1.0  -0.5643
  O  O184  1  0.948100  0.183500  0.366180  1.0  -0.5457
  O  O185  1  0.784400  0.064500  0.559950  1.0  -0.6241
  O  O186  1  0.259100  0.181300  0.632160  1.0  -0.5814
  O  O187  1  0.926200  0.528200  0.699620  1.0  -0.5915
  O  O188  1  0.528200  0.073800  0.449620  1.0  -0.5906
  O  O189  1  0.132100  0.088300  0.478270  1.0  -0.5633
  O  O190  1  0.073800  0.471800  0.199620  1.0  -0.5906
  O  O191  1  0.911700  0.132100  0.728270  1.0  -0.5608
  O  O192  1  0.132100  0.911700  0.021730  1.0  -0.5598
  O  O193  1  0.064500  0.215600  0.309950  1.0  -0.624
  O  O194  1  0.948100  0.816500  0.133820  1.0  -0.5424
  O  O195  1  0.003300  0.358300  0.232380  1.0  -0.6689
  O  O196  1  0.409000  0.741900  0.011210  1.0  -0.6238
  O  O197  1  0.258100  0.591000  0.238790  1.0  -0.6256
  O  O198  1  0.358300  0.003300  0.517620  1.0  -0.6698
  O  O199  1  0.215600  0.935500  0.059950  1.0  -0.6246
  O  O200  1  0.341900  0.847900  0.463010  1.0  -0.653
  O  O201  1  0.926200  0.471800  0.800380  1.0  -0.5918
  O  O202  1  0.215600  0.064500  0.440050  1.0  -0.6235
  O  O203  1  0.088300  0.867900  0.228270  1.0  -0.5605
  O  O204  1  0.847900  0.341900  0.286990  1.0  -0.6531
  O  O205  1  0.668900  0.670500  0.559260  1.0  -0.5618
  O  O206  1  0.935500  0.784400  0.809950  1.0  -0.6242
  O  O207  1  0.867900  0.088300  0.521730  1.0  -0.5603
  O  O208  1  0.152100  0.658100  0.786990  1.0  -0.6524
  O  O209  1  0.064500  0.784400  0.190050  1.0  -0.6246
  O  O210  1  0.331100  0.670500  0.440740  1.0  -0.5612
  O  O211  1  0.088300  0.132100  0.271730  1.0  -0.5606
  O  O212  1  0.258100  0.409000  0.261210  1.0  -0.6263
  O  O213  1  0.181300  0.740900  0.382160  1.0  -0.5778
  O  O214  1  0.181300  0.259100  0.117840  1.0  -0.5773
  O  O215  1  0.152100  0.341900  0.713010  1.0  -0.6502
  O  O216  1  0.935500  0.215600  0.690050  1.0  -0.6238
  O  O217  1  0.670500  0.331100  0.309260  1.0  -0.5625
  O  O218  1  0.471800  0.926200  0.949620  1.0  -0.5903
  O  O219  1  0.996700  0.641700  0.732380  1.0  -0.6679
  O  O220  1  0.670500  0.668900  0.190740  1.0  -0.5615
  O  O221  1  0.740900  0.181300  0.367840  1.0  -0.5807
  O  O222  1  0.073800  0.528200  0.300380  1.0  -0.5911
  O  O223  1  0.741900  0.591000  0.761210  1.0  -0.6256
  O  O224  1  0.847900  0.658100  0.213010  1.0  -0.6547
  O  O225  1  0.358300  0.996700  0.982380  1.0  -0.671
  O  O226  1  0.816500  0.948100  0.616180  1.0  -0.5485
  O  O227  1  0.818700  0.259100  0.882160  1.0  -0.5776
  O  O228  1  0.183500  0.051900  0.116180  1.0  -0.5451
  O  O229  1  0.818700  0.740900  0.617840  1.0  -0.5782
  O  O230  1  0.741900  0.409000  0.738790  1.0  -0.6259
  O  O231  1  0.816500  0.051900  0.883820  1.0  -0.5487
  O  O232  1  0.911700  0.867900  0.771730  1.0  -0.5615
