# generated using pymatgen
data_Fe3H12C24O13
_symmetry_space_group_name_H-M   'P 1'
_cell_length_a   12.53100000
_cell_length_b   12.53100000
_cell_length_c   18.47600000
_cell_angle_alpha   90.00000000
_cell_angle_beta   90.00000000
_cell_angle_gamma   120.00000000
_symmetry_Int_Tables_number   1
_chemical_formula_structural   Fe3H12C24O13
_chemical_formula_sum   'Fe6 H24 C48 O26'
_cell_volume   2512.52299536
_cell_formula_units_Z   2
loop_
 _symmetry_equiv_pos_site_id
 _symmetry_equiv_pos_as_xyz
  1  'x, y, z'
loop_
 _atom_site_type_symbol
 _atom_site_label
 _atom_site_symmetry_multiplicity
 _atom_site_fract_x
 _atom_site_fract_y
 _atom_site_fract_z
 _atom_site_occupancy
 _atom_site_charge
  Fe  Fe1  1  0.273000  0.492500  0.250000  1.0  1.1836
  Fe  Fe2  1  0.727000  0.219500  0.750000  1.0  1.1785
  Fe  Fe3  1  0.219500  0.727000  0.250000  1.0  1.182
  Fe  Fe4  1  0.507500  0.780500  0.250000  1.0  1.1816
  Fe  Fe5  1  0.492500  0.273000  0.750000  1.0  1.1815
  Fe  Fe6  1  0.780500  0.507500  0.750000  1.0  1.1838
  H  H7  1  0.724800  0.679600  0.554500  1.0  0.1319
  H  H8  1  0.275200  0.954800  0.054500  1.0  0.1323
  H  H9  1  0.361600  0.398700  0.440200  1.0  0.1344
  H  H10  1  0.037100  0.638400  0.440200  1.0  0.1343
  H  H11  1  0.679600  0.724800  0.445500  1.0  0.132
  H  H12  1  0.601300  0.962900  0.059800  1.0  0.1339
  H  H13  1  0.398700  0.361600  0.940200  1.0  0.1336
  H  H14  1  0.601300  0.962900  0.440200  1.0  0.1342
  H  H15  1  0.679600  0.724800  0.054500  1.0  0.1319
  H  H16  1  0.037100  0.638400  0.059800  1.0  0.1338
  H  H17  1  0.275200  0.954800  0.445500  1.0  0.1322
  H  H18  1  0.361600  0.398700  0.059800  1.0  0.1343
  H  H19  1  0.954800  0.275200  0.554500  1.0  0.1316
  H  H20  1  0.320400  0.045200  0.945500  1.0  0.1321
  H  H21  1  0.962900  0.601300  0.940200  1.0  0.1354
  H  H22  1  0.954800  0.275200  0.945500  1.0  0.1317
  H  H23  1  0.962900  0.601300  0.559800  1.0  0.1348
  H  H24  1  0.045200  0.320400  0.054500  1.0  0.1315
  H  H25  1  0.398700  0.361600  0.559800  1.0  0.1336
  H  H26  1  0.045200  0.320400  0.445500  1.0  0.1312
  H  H27  1  0.320400  0.045200  0.554500  1.0  0.1321
  H  H28  1  0.638400  0.037100  0.559800  1.0  0.1341
  H  H29  1  0.638400  0.037100  0.940200  1.0  0.1344
  H  H30  1  0.724800  0.679600  0.945500  1.0  0.1319
  C  C31  1  0.431400  0.947900  0.431500  1.0  -0.1216
  C  C32  1  0.976000  0.544000  0.964700  1.0  -0.0315
  C  C33  1  0.484000  0.595000  0.142300  1.0  0.7484
  C  C34  1  0.483500  0.052100  0.568500  1.0  -0.1231
  C  C35  1  0.483500  0.052100  0.931500  1.0  -0.1215
  C  C36  1  0.432000  0.456000  0.464700  1.0  -0.0319
  C  C37  1  0.025900  0.375400  0.467500  1.0  -0.0556
  C  C38  1  0.976000  0.544000  0.535300  1.0  -0.0323
  C  C39  1  0.568000  0.024000  0.964700  1.0  -0.0314
  C  C40  1  0.974100  0.349500  0.967500  1.0  -0.0485
  C  C41  1  0.024000  0.568000  0.464700  1.0  -0.0326
  C  C42  1  0.516500  0.568600  0.431500  1.0  -0.1211
  C  C43  1  0.624600  0.650500  0.467500  1.0  -0.0493
  C  C44  1  0.974100  0.349500  0.532500  1.0  -0.0475
  C  C45  1  0.624600  0.650500  0.032500  1.0  -0.0497
  C  C46  1  0.516500  0.568600  0.068500  1.0  -0.1225
  C  C47  1  0.024000  0.568000  0.035300  1.0  -0.0324
  C  C48  1  0.595000  0.484000  0.642300  1.0  0.7451
  C  C49  1  0.025900  0.375400  0.032500  1.0  -0.0498
  C  C50  1  0.432000  0.456000  0.035300  1.0  -0.0339
  C  C51  1  0.516000  0.111000  0.642300  1.0  0.7437
  C  C52  1  0.947900  0.431400  0.568500  1.0  -0.1225
  C  C53  1  0.484000  0.595000  0.357700  1.0  0.7475
  C  C54  1  0.595000  0.484000  0.857700  1.0  0.7446
  C  C55  1  0.431400  0.947900  0.068500  1.0  -0.1224
  C  C56  1  0.111000  0.516000  0.357700  1.0  0.7448
  C  C57  1  0.349500  0.974100  0.032500  1.0  -0.0446
  C  C58  1  0.947900  0.431400  0.931500  1.0  -0.1209
  C  C59  1  0.375400  0.025900  0.967500  1.0  -0.0462
  C  C60  1  0.889000  0.405000  0.642300  1.0  0.7477
  C  C61  1  0.375400  0.025900  0.532500  1.0  -0.0459
  C  C62  1  0.456000  0.432000  0.535300  1.0  -0.0324
  C  C63  1  0.544000  0.976000  0.035300  1.0  -0.0304
  C  C64  1  0.568000  0.024000  0.535300  1.0  -0.0336
  C  C65  1  0.405000  0.889000  0.142300  1.0  0.7439
  C  C66  1  0.052100  0.483500  0.068500  1.0  -0.1237
  C  C67  1  0.052100  0.483500  0.431500  1.0  -0.1217
  C  C68  1  0.405000  0.889000  0.357700  1.0  0.7433
  C  C69  1  0.650500  0.624600  0.967500  1.0  -0.05
  C  C70  1  0.544000  0.976000  0.464700  1.0  -0.031
  C  C71  1  0.456000  0.432000  0.964700  1.0  -0.0318
  C  C72  1  0.568600  0.516500  0.931500  1.0  -0.1216
  C  C73  1  0.516000  0.111000  0.857700  1.0  0.743
  C  C74  1  0.650500  0.624600  0.532500  1.0  -0.0506
  C  C75  1  0.889000  0.405000  0.857700  1.0  0.7468
  C  C76  1  0.349500  0.974100  0.467500  1.0  -0.045
  C  C77  1  0.111000  0.516000  0.142300  1.0  0.7455
  C  C78  1  0.568600  0.516500  0.568500  1.0  -0.1236
  O  O79  1  0.301900  0.849900  0.330800  1.0  -0.5884
  O  O80  1  0.494700  0.884100  0.171900  1.0  -0.6235
  O  O81  1  0.610600  0.115900  0.671900  1.0  -0.6236
  O  O82  1  0.115900  0.610600  0.171900  1.0  -0.626
  O  O83  1  0.150100  0.452000  0.330800  1.0  -0.5903
  O  O84  1  0.505300  0.389400  0.828100  1.0  -0.6269
  O  O85  1  0.150100  0.452000  0.169200  1.0  -0.5903
  O  O86  1  0.115900  0.610600  0.328100  1.0  -0.6263
  O  O87  1  0.452000  0.150100  0.669200  1.0  -0.5881
  O  O88  1  0.698100  0.548000  0.669200  1.0  -0.5907
  O  O89  1  0.494700  0.884100  0.328100  1.0  -0.6243
  O  O90  1  0.849900  0.301900  0.669200  1.0  -0.5908
  O  O91  1  0.301900  0.849900  0.169200  1.0  -0.5883
  O  O92  1  0.884100  0.494700  0.828100  1.0  -0.6251
  O  O93  1  0.666667  0.333333  0.750000  1.0  -1.1059
  O  O94  1  0.548000  0.698100  0.169200  1.0  -0.5915
  O  O95  1  0.389400  0.505300  0.328100  1.0  -0.6253
  O  O96  1  0.505300  0.389400  0.671900  1.0  -0.6267
  O  O97  1  0.610600  0.115900  0.828100  1.0  -0.624
  O  O98  1  0.389400  0.505300  0.171900  1.0  -0.6257
  O  O99  1  0.698100  0.548000  0.830800  1.0  -0.5915
  O  O100  1  0.884100  0.494700  0.671900  1.0  -0.6248
  O  O101  1  0.452000  0.150100  0.830800  1.0  -0.5885
  O  O102  1  0.849900  0.301900  0.830800  1.0  -0.591
  O  O103  1  0.548000  0.698100  0.330800  1.0  -0.591
  O  O104  1  0.333333  0.666667  0.250000  1.0  -1.1059
