# generated using pymatgen
data_ZnP2H7(CO2)3
_symmetry_space_group_name_H-M   'P 1'
_cell_length_a   8.85400000
_cell_length_b   9.81500000
_cell_length_c   13.47400000
_cell_angle_alpha   90.00000000
_cell_angle_beta   90.00000000
_cell_angle_gamma   98.52300000
_symmetry_Int_Tables_number   1
_chemical_formula_structural   ZnP2H7(CO2)3
_chemical_formula_sum   'Zn4 P8 H28 C12 O24'
_cell_volume   1157.98659380
_cell_formula_units_Z   4
loop_
 _symmetry_equiv_pos_site_id
 _symmetry_equiv_pos_as_xyz
  1  'x, y, z'
loop_
 _atom_site_type_symbol
 _atom_site_label
 _atom_site_symmetry_multiplicity
 _atom_site_fract_x
 _atom_site_fract_y
 _atom_site_fract_z
 _atom_site_occupancy
 _atom_site_charge
  Zn  Zn1  1  0.362990  0.424260  0.640380  1.0  1.1019
  Zn  Zn2  1  0.637010  0.075740  0.140380  1.0  1.1024
  Zn  Zn3  1  0.362990  0.924260  0.859620  1.0  1.1018
  Zn  Zn4  1  0.637010  0.575740  0.359620  1.0  1.1023
  P  P5  1  0.297810  0.503450  0.418590  1.0  1.5862
  P  P6  1  0.702190  0.996550  0.918590  1.0  1.5848
  P  P7  1  0.702190  0.496550  0.581410  1.0  1.5857
  P  P8  1  0.297810  0.003450  0.081410  1.0  1.589
  P  P9  1  0.771910  0.317140  0.280690  1.0  1.6011
  P  P10  1  0.228090  0.682860  0.719310  1.0  1.5982
  P  P11  1  0.771910  0.817140  0.219310  1.0  1.6017
  P  P12  1  0.228090  0.182860  0.780690  1.0  1.5978
  H  H13  1  0.871100  0.972300  0.792700  1.0  0.1385
  H  H14  1  0.960200  0.010100  0.891900  1.0  0.1504
  H  H15  1  0.060000  0.260600  0.374900  1.0  0.118
  H  H16  1  0.987600  0.849500  0.316500  1.0  0.1616
  H  H17  1  0.179900  0.290800  0.289200  1.0  0.1151
  H  H18  1  0.060000  0.760600  0.125100  1.0  0.1178
  H  H19  1  0.012400  0.650500  0.816500  1.0  0.162
  H  H20  1  0.940000  0.739400  0.625100  1.0  0.1176
  H  H21  1  0.128900  0.027700  0.207300  1.0  0.1381
  H  H22  1  0.039800  0.989900  0.108100  1.0  0.1512
  H  H23  1  0.039800  0.489900  0.391900  1.0  0.1502
  H  H24  1  0.710000  0.340400  0.487800  1.0  0.429
  H  H25  1  0.046300  0.304000  0.718000  1.0  0.1614
  H  H26  1  0.987600  0.349500  0.183500  1.0  0.1613
  H  H27  1  0.940000  0.239400  0.874900  1.0  0.118
  H  H28  1  0.953700  0.196000  0.218000  1.0  0.1615
  H  H29  1  0.960200  0.510100  0.608100  1.0  0.1509
  H  H30  1  0.871100  0.472300  0.707300  1.0  0.1394
  H  H31  1  0.290000  0.659600  0.512200  1.0  0.4286
  H  H32  1  0.179900  0.790800  0.210800  1.0  0.1151
  H  H33  1  0.820100  0.209200  0.789200  1.0  0.1159
  H  H34  1  0.710000  0.840400  0.012200  1.0  0.4307
  H  H35  1  0.128900  0.527700  0.292700  1.0  0.1382
  H  H36  1  0.953700  0.696000  0.282000  1.0  0.1622
  H  H37  1  0.820100  0.709200  0.710800  1.0  0.1156
  H  H38  1  0.046300  0.804000  0.782000  1.0  0.1615
  H  H39  1  0.012400  0.150500  0.683500  1.0  0.1609
  H  H40  1  0.290000  0.159600  0.987800  1.0  0.4284
  C  C41  1  0.877100  0.531600  0.649390  1.0  -0.4168
  C  C42  1  0.912100  0.182000  0.817170  1.0  -0.103
  C  C43  1  0.040400  0.709400  0.759600  1.0  -0.4076
  C  C44  1  0.959600  0.790600  0.259600  1.0  -0.4062
  C  C45  1  0.912100  0.682000  0.682830  1.0  -0.1033
  C  C46  1  0.122900  0.968400  0.149390  1.0  -0.4165
  C  C47  1  0.959600  0.290600  0.240400  1.0  -0.4037
  C  C48  1  0.877100  0.031600  0.850610  1.0  -0.4155
  C  C49  1  0.122900  0.468400  0.350610  1.0  -0.4188
  C  C50  1  0.087900  0.318000  0.317170  1.0  -0.1038
  C  C51  1  0.040400  0.209400  0.740400  1.0  -0.4057
  C  C52  1  0.087900  0.818000  0.182830  1.0  -0.1031
  O  O53  1  0.710370  0.095340  0.005230  1.0  -0.8111
  O  O54  1  0.573830  0.007860  0.846120  1.0  -0.8024
  O  O55  1  0.314200  0.657000  0.453600  1.0  -0.7003
  O  O56  1  0.735050  0.742680  0.121030  1.0  -0.7582
  O  O57  1  0.337870  0.240420  0.697170  1.0  -0.7646
  O  O58  1  0.685800  0.843000  0.953600  1.0  -0.7018
  O  O59  1  0.662130  0.759580  0.302830  1.0  -0.7653
  O  O60  1  0.264950  0.757320  0.621030  1.0  -0.7628
  O  O61  1  0.337870  0.740420  0.802830  1.0  -0.7637
  O  O62  1  0.573830  0.507860  0.653880  1.0  -0.8
  O  O63  1  0.426170  0.492140  0.346120  1.0  -0.8034
  O  O64  1  0.426170  0.992140  0.153880  1.0  -0.7999
  O  O65  1  0.264950  0.257320  0.878970  1.0  -0.7623
  O  O66  1  0.289630  0.904660  0.994770  1.0  -0.8095
  O  O67  1  0.314200  0.157000  0.046400  1.0  -0.6995
  O  O68  1  0.685800  0.343000  0.546400  1.0  -0.7019
  O  O69  1  0.770530  0.472220  0.287510  1.0  -0.7981
  O  O70  1  0.229470  0.027780  0.787510  1.0  -0.7994
  O  O71  1  0.289630  0.404660  0.505230  1.0  -0.8094
  O  O72  1  0.770530  0.972220  0.212490  1.0  -0.7991
  O  O73  1  0.662130  0.259580  0.197170  1.0  -0.7646
  O  O74  1  0.229470  0.527780  0.712490  1.0  -0.7999
  O  O75  1  0.710370  0.595340  0.494770  1.0  -0.8118
  O  O76  1  0.735050  0.242680  0.378970  1.0  -0.759
