# generated using pymatgen
data_Cu3H6C6N9O
_symmetry_space_group_name_H-M   'P 1'
_cell_length_a   17.42590000
_cell_length_b   17.42590000
_cell_length_c   17.42590000
_cell_angle_alpha   60.00000000
_cell_angle_beta   60.00000000
_cell_angle_gamma   60.00000000
_symmetry_Int_Tables_number   1
_chemical_formula_structural   Cu3H6C6N9O
_chemical_formula_sum   'Cu24 H48 C48 N72 O8'
_cell_volume   3741.71456592
_cell_formula_units_Z   8
loop_
 _symmetry_equiv_pos_site_id
 _symmetry_equiv_pos_as_xyz
  1  'x, y, z'
loop_
 _atom_site_type_symbol
 _atom_site_label
 _atom_site_symmetry_multiplicity
 _atom_site_fract_x
 _atom_site_fract_y
 _atom_site_fract_z
 _atom_site_occupancy
 _atom_site_charge
  Cu  Cu1  1  0.862250  0.750000  0.137750  1.0  0.6708
  Cu  Cu2  1  0.750000  0.137750  0.750000  1.0  0.6689
  Cu  Cu3  1  0.750000  0.362250  0.137750  1.0  0.6709
  Cu  Cu4  1  0.637750  0.250000  0.362250  1.0  0.6701
  Cu  Cu5  1  0.250000  0.137750  0.362250  1.0  0.6695
  Cu  Cu6  1  0.750000  0.750000  0.362250  1.0  0.6721
  Cu  Cu7  1  0.250000  0.637750  0.862250  1.0  0.6695
  Cu  Cu8  1  0.750000  0.862250  0.637750  1.0  0.6709
  Cu  Cu9  1  0.250000  0.862250  0.250000  1.0  0.6711
  Cu  Cu10  1  0.862250  0.137750  0.250000  1.0  0.6715
  Cu  Cu11  1  0.250000  0.250000  0.137750  1.0  0.6718
  Cu  Cu12  1  0.862250  0.250000  0.750000  1.0  0.6712
  Cu  Cu13  1  0.750000  0.637750  0.750000  1.0  0.6689
  Cu  Cu14  1  0.362250  0.250000  0.750000  1.0  0.6712
  Cu  Cu15  1  0.137750  0.750000  0.250000  1.0  0.6696
  Cu  Cu16  1  0.637750  0.750000  0.250000  1.0  0.6696
  Cu  Cu17  1  0.250000  0.362250  0.250000  1.0  0.6711
  Cu  Cu18  1  0.137750  0.862250  0.750000  1.0  0.6703
  Cu  Cu19  1  0.250000  0.250000  0.637750  1.0  0.6718
  Cu  Cu20  1  0.362250  0.637750  0.250000  1.0  0.6715
  Cu  Cu21  1  0.362250  0.750000  0.637750  1.0  0.6708
  Cu  Cu22  1  0.637750  0.362250  0.750000  1.0  0.6703
  Cu  Cu23  1  0.137750  0.250000  0.862250  1.0  0.6701
  Cu  Cu24  1  0.750000  0.750000  0.862250  1.0  0.6721
  H  H25  1  0.267200  0.116600  0.549600  1.0  0.0593
  H  H26  1  0.616600  0.066600  0.549600  1.0  0.0597
  H  H27  1  0.616600  0.549600  0.767200  1.0  0.0586
  H  H28  1  0.066600  0.267200  0.616600  1.0  0.0588
  H  H29  1  0.566600  0.116600  0.767200  1.0  0.0585
  H  H30  1  0.232800  0.433400  0.950400  1.0  0.0599
  H  H31  1  0.116600  0.049600  0.566600  1.0  0.0581
  H  H32  1  0.933400  0.950400  0.732800  1.0  0.0584
  H  H33  1  0.116600  0.267200  0.049600  1.0  0.059
  H  H34  1  0.450400  0.433400  0.383400  1.0  0.0588
  H  H35  1  0.767200  0.566600  0.049600  1.0  0.0605
  H  H36  1  0.066600  0.616600  0.049600  1.0  0.0587
  H  H37  1  0.049600  0.116600  0.066600  1.0  0.0594
  H  H38  1  0.883400  0.433400  0.732800  1.0  0.0589
  H  H39  1  0.732800  0.450400  0.933400  1.0  0.0564
  H  H40  1  0.767200  0.616600  0.566600  1.0  0.0588
  H  H41  1  0.732800  0.933400  0.883400  1.0  0.0601
  H  H42  1  0.883400  0.732800  0.950400  1.0  0.0579
  H  H43  1  0.383400  0.232800  0.933400  1.0  0.0589
  H  H44  1  0.049600  0.066600  0.767200  1.0  0.0593
  H  H45  1  0.566600  0.549600  0.116600  1.0  0.0585
  H  H46  1  0.566600  0.767200  0.549600  1.0  0.0591
  H  H47  1  0.267200  0.549600  0.066600  1.0  0.056
  H  H48  1  0.450400  0.732800  0.433400  1.0  0.057
  H  H49  1  0.433400  0.883400  0.232800  1.0  0.059
  H  H50  1  0.383400  0.933400  0.450400  1.0  0.0584
  H  H51  1  0.433400  0.232800  0.450400  1.0  0.0589
  H  H52  1  0.933400  0.383400  0.950400  1.0  0.0588
  H  H53  1  0.767200  0.049600  0.616600  1.0  0.0567
  H  H54  1  0.450400  0.383400  0.732800  1.0  0.0597
  H  H55  1  0.549600  0.566600  0.616600  1.0  0.0584
  H  H56  1  0.950400  0.933400  0.232800  1.0  0.0583
  H  H57  1  0.232800  0.383400  0.433400  1.0  0.0595
  H  H58  1  0.549600  0.616600  0.267200  1.0  0.0597
  H  H59  1  0.549600  0.267200  0.566600  1.0  0.0568
  H  H60  1  0.383400  0.450400  0.232800  1.0  0.0578
  H  H61  1  0.732800  0.883400  0.450400  1.0  0.0588
  H  H62  1  0.267200  0.066600  0.116600  1.0  0.0597
  H  H63  1  0.950400  0.883400  0.933400  1.0  0.06
  H  H64  1  0.116600  0.566600  0.267200  1.0  0.0593
  H  H65  1  0.883400  0.950400  0.433400  1.0  0.0583
  H  H66  1  0.933400  0.732800  0.383400  1.0  0.0593
  H  H67  1  0.616600  0.767200  0.066600  1.0  0.0588
  H  H68  1  0.066600  0.049600  0.267200  1.0  0.0588
  H  H69  1  0.232800  0.950400  0.383400  1.0  0.0568
  H  H70  1  0.049600  0.767200  0.116600  1.0  0.0573
  H  H71  1  0.950400  0.232800  0.883400  1.0  0.0572
  H  H72  1  0.433400  0.450400  0.883400  1.0  0.059
  C  C73  1  0.506940  0.259160  0.556340  1.0  0.1695
  C  C74  1  0.056340  0.006940  0.259160  1.0  0.1672
  C  C75  1  0.443660  0.493060  0.822440  1.0  0.1673
  C  C76  1  0.759160  0.556340  0.006940  1.0  0.1673
  C  C77  1  0.506940  0.677560  0.259160  1.0  0.1657
  C  C78  1  0.993060  0.943660  0.240840  1.0  0.1683
  C  C79  1  0.740840  0.822440  0.493060  1.0  0.1671
  C  C80  1  0.493060  0.322440  0.740840  1.0  0.166
  C  C81  1  0.943660  0.740840  0.322440  1.0  0.1678
  C  C82  1  0.443660  0.822440  0.240840  1.0  0.1663
  C  C83  1  0.056340  0.259160  0.677560  1.0  0.1682
  C  C84  1  0.006940  0.177560  0.056340  1.0  0.1658
  C  C85  1  0.177560  0.556340  0.259160  1.0  0.1676
  C  C86  1  0.006940  0.759160  0.177560  1.0  0.1698
  C  C87  1  0.677560  0.506940  0.759160  1.0  0.1677
  C  C88  1  0.993060  0.240840  0.822440  1.0  0.1686
  C  C89  1  0.822440  0.443660  0.740840  1.0  0.1678
  C  C90  1  0.240840  0.993060  0.322440  1.0  0.1685
  C  C91  1  0.322440  0.240840  0.943660  1.0  0.1687
  C  C92  1  0.240840  0.443660  0.993060  1.0  0.1686
  C  C93  1  0.943660  0.322440  0.993060  1.0  0.1669
  C  C94  1  0.177560  0.259160  0.006940  1.0  0.1679
  C  C95  1  0.259160  0.506940  0.056340  1.0  0.1678
  C  C96  1  0.506940  0.556340  0.677560  1.0  0.1679
  C  C97  1  0.056340  0.677560  0.006940  1.0  0.1663
  C  C98  1  0.177560  0.006940  0.556340  1.0  0.1676
  C  C99  1  0.740840  0.493060  0.943660  1.0  0.169
  C  C100  1  0.240840  0.322440  0.443660  1.0  0.1669
  C  C101  1  0.493060  0.740840  0.443660  1.0  0.1688
  C  C102  1  0.740840  0.943660  0.822440  1.0  0.1678
  C  C103  1  0.943660  0.993060  0.740840  1.0  0.1679
  C  C104  1  0.259160  0.056340  0.177560  1.0  0.1677
  C  C105  1  0.259160  0.177560  0.506940  1.0  0.1661
  C  C106  1  0.443660  0.240840  0.493060  1.0  0.1683
  C  C107  1  0.006940  0.056340  0.759160  1.0  0.1681
  C  C108  1  0.822440  0.993060  0.443660  1.0  0.1682
  C  C109  1  0.493060  0.443660  0.322440  1.0  0.1676
  C  C110  1  0.759160  0.677560  0.556340  1.0  0.166
  C  C111  1  0.322440  0.943660  0.493060  1.0  0.1677
  C  C112  1  0.993060  0.822440  0.943660  1.0  0.1663
  C  C113  1  0.677560  0.056340  0.506940  1.0  0.1673
  C  C114  1  0.822440  0.740840  0.993060  1.0  0.1684
  C  C115  1  0.677560  0.759160  0.056340  1.0  0.168
  C  C116  1  0.556340  0.759160  0.506940  1.0  0.1678
  C  C117  1  0.556340  0.506940  0.177560  1.0  0.1676
  C  C118  1  0.322440  0.493060  0.240840  1.0  0.1682
  C  C119  1  0.556340  0.177560  0.759160  1.0  0.1663
  C  C120  1  0.759160  0.006940  0.677560  1.0  0.1686
  N  N121  1  0.750000  0.976880  0.523120  1.0  -0.3594
  N  N122  1  0.750000  0.023120  0.750000  1.0  -0.3584
  N  N123  1  0.382280  0.576260  0.796740  1.0  -0.2451
  N  N124  1  0.796740  0.382280  0.744720  1.0  -0.2433
  N  N125  1  0.117720  0.923740  0.255280  1.0  -0.2439
  N  N126  1  0.203260  0.255280  0.923740  1.0  -0.2411
  N  N127  1  0.382280  0.244720  0.576260  1.0  -0.2471
  N  N128  1  0.250000  0.250000  0.523120  1.0  -0.358
  N  N129  1  0.423740  0.255280  0.617720  1.0  -0.2458
  N  N130  1  0.023120  0.976880  0.750000  1.0  -0.3586
  N  N131  1  0.423740  0.617720  0.703260  1.0  -0.2437
  N  N132  1  0.255280  0.203260  0.423740  1.0  -0.243
  N  N133  1  0.023120  0.750000  0.250000  1.0  -0.3575
  N  N134  1  0.755280  0.703260  0.617720  1.0  -0.2442
  N  N135  1  0.796740  0.076260  0.382280  1.0  -0.2449
  N  N136  1  0.703260  0.117720  0.423740  1.0  -0.243
  N  N137  1  0.244720  0.076260  0.296740  1.0  -0.244
  N  N138  1  0.744720  0.882280  0.796740  1.0  -0.2434
  N  N139  1  0.076260  0.882280  0.244720  1.0  -0.2427
  N  N140  1  0.250000  0.023120  0.476880  1.0  -0.3585
  N  N141  1  0.423740  0.703260  0.255280  1.0  -0.2476
  N  N142  1  0.076260  0.244720  0.796740  1.0  -0.2448
  N  N143  1  0.976880  0.750000  0.023120  1.0  -0.3598
  N  N144  1  0.296740  0.576260  0.244720  1.0  -0.244
  N  N145  1  0.296740  0.882280  0.576260  1.0  -0.2428
  N  N146  1  0.382280  0.796740  0.244720  1.0  -0.2455
  N  N147  1  0.744720  0.576260  0.882280  1.0  -0.2432
  N  N148  1  0.755280  0.923740  0.703260  1.0  -0.2434
  N  N149  1  0.255280  0.423740  0.117720  1.0  -0.2442
  N  N150  1  0.523120  0.476880  0.750000  1.0  -0.3586
  N  N151  1  0.796740  0.744720  0.076260  1.0  -0.2425
  N  N152  1  0.476880  0.750000  0.523120  1.0  -0.3598
  N  N153  1  0.476880  0.523120  0.250000  1.0  -0.3594
  N  N154  1  0.244720  0.296740  0.382280  1.0  -0.2427
  N  N155  1  0.617720  0.203260  0.755280  1.0  -0.2448
  N  N156  1  0.750000  0.523120  0.750000  1.0  -0.3584
  N  N157  1  0.750000  0.750000  0.976880  1.0  -0.3579
  N  N158  1  0.250000  0.250000  0.023120  1.0  -0.358
  N  N159  1  0.703260  0.423740  0.755280  1.0  -0.2455
  N  N160  1  0.523120  0.250000  0.476880  1.0  -0.3578
  N  N161  1  0.923740  0.755280  0.203260  1.0  -0.2446
  N  N162  1  0.296740  0.244720  0.882280  1.0  -0.2406
  N  N163  1  0.117720  0.255280  0.703260  1.0  -0.2472
  N  N164  1  0.882280  0.744720  0.296740  1.0  -0.2477
  N  N165  1  0.255280  0.117720  0.203260  1.0  -0.2425
  N  N166  1  0.923740  0.117720  0.755280  1.0  -0.2438
  N  N167  1  0.250000  0.523120  0.976880  1.0  -0.3585
  N  N168  1  0.023120  0.250000  0.976880  1.0  -0.3578
  N  N169  1  0.476880  0.250000  0.750000  1.0  -0.3598
  N  N170  1  0.750000  0.750000  0.476880  1.0  -0.3579
  N  N171  1  0.882280  0.076260  0.744720  1.0  -0.2454
  N  N172  1  0.250000  0.976880  0.250000  1.0  -0.3595
  N  N173  1  0.923740  0.203260  0.117720  1.0  -0.2473
  N  N174  1  0.076260  0.796740  0.882280  1.0  -0.2465
  N  N175  1  0.576260  0.382280  0.296740  1.0  -0.242
  N  N176  1  0.203260  0.923740  0.617720  1.0  -0.2447
  N  N177  1  0.203260  0.617720  0.255280  1.0  -0.2435
  N  N178  1  0.244720  0.382280  0.076260  1.0  -0.2428
  N  N179  1  0.576260  0.744720  0.382280  1.0  -0.2438
  N  N180  1  0.744720  0.796740  0.576260  1.0  -0.245
  N  N181  1  0.576260  0.296740  0.744720  1.0  -0.246
  N  N182  1  0.617720  0.423740  0.203260  1.0  -0.2447
  N  N183  1  0.117720  0.703260  0.923740  1.0  -0.2453
  N  N184  1  0.882280  0.296740  0.076260  1.0  -0.2463
  N  N185  1  0.976880  0.023120  0.250000  1.0  -0.3594
  N  N186  1  0.750000  0.476880  0.023120  1.0  -0.3594
  N  N187  1  0.755280  0.617720  0.923740  1.0  -0.2427
  N  N188  1  0.703260  0.755280  0.117720  1.0  -0.2435
  N  N189  1  0.523120  0.750000  0.250000  1.0  -0.3575
  N  N190  1  0.617720  0.755280  0.423740  1.0  -0.2476
  N  N191  1  0.976880  0.250000  0.750000  1.0  -0.3598
  N  N192  1  0.250000  0.476880  0.250000  1.0  -0.3595
  O  O193  1  0.250000  0.250000  0.250000  1.0  -0.8272
  O  O194  1  0.250000  0.750000  0.750000  1.0  -0.8272
  O  O195  1  0.750000  0.250000  0.250000  1.0  -0.8272
  O  O196  1  0.250000  0.250000  0.750000  1.0  -0.8272
  O  O197  1  0.250000  0.750000  0.250000  1.0  -0.8272
  O  O198  1  0.750000  0.750000  0.750000  1.0  -0.8272
  O  O199  1  0.750000  0.250000  0.750000  1.0  -0.8272
  O  O200  1  0.750000  0.750000  0.250000  1.0  -0.8272
