# generated using pymatgen
data_V2P2H5C4O11
_symmetry_space_group_name_H-M   'P 1'
_cell_length_a   7.04790000
_cell_length_b   15.30700000
_cell_length_c   17.53700000
_cell_angle_alpha   90.00000000
_cell_angle_beta   90.00000000
_cell_angle_gamma   90.00000000
_symmetry_Int_Tables_number   1
_chemical_formula_structural   V2P2H5C4O11
_chemical_formula_sum   'V8 P8 H20 C16 O44'
_cell_volume   1891.93023435
_cell_formula_units_Z   4
loop_
 _symmetry_equiv_pos_site_id
 _symmetry_equiv_pos_as_xyz
  1  'x, y, z'
loop_
 _atom_site_type_symbol
 _atom_site_label
 _atom_site_symmetry_multiplicity
 _atom_site_fract_x
 _atom_site_fract_y
 _atom_site_fract_z
 _atom_site_occupancy
 _atom_site_charge
  V  V1  1  0.254490  0.250000  0.250000  1.0  1.3462
  V  V2  1  0.245510  0.750000  0.250000  1.0  1.3462
  V  V3  1  0.745510  0.750000  0.750000  1.0  1.3462
  V  V4  1  0.754490  0.250000  0.750000  1.0  1.3462
  V  V5  1  0.000000  0.000000  0.500000  1.0  1.749
  V  V6  1  0.500000  0.000000  0.500000  1.0  1.749
  V  V7  1  0.500000  0.500000  0.000000  1.0  1.749
  V  V8  1  0.000000  0.500000  0.000000  1.0  1.749
  P  P9  1  0.255420  0.135210  0.400460  1.0  1.6351
  P  P10  1  0.244580  0.864790  0.400460  1.0  1.635
  P  P11  1  0.244580  0.635210  0.099540  1.0  1.6357
  P  P12  1  0.255420  0.364790  0.099540  1.0  1.6346
  P  P13  1  0.744580  0.864790  0.599540  1.0  1.635
  P  P14  1  0.755420  0.135210  0.599540  1.0  1.6352
  P  P15  1  0.755420  0.364790  0.900460  1.0  1.6346
  P  P16  1  0.744580  0.635210  0.900460  1.0  1.6355
  H  H17  1  0.051100  0.249900  0.422300  1.0  0.1661
  H  H18  1  0.185500  0.237700  0.492400  1.0  0.1554
  H  H19  1  0.448900  0.750100  0.422300  1.0  0.1661
  H  H20  1  0.314500  0.762300  0.492400  1.0  0.1555
  H  H21  1  0.448900  0.749900  0.077700  1.0  0.1669
  H  H22  1  0.314500  0.737700  0.007600  1.0  0.1553
  H  H23  1  0.051100  0.250100  0.077700  1.0  0.1664
  H  H24  1  0.185500  0.262300  0.007600  1.0  0.1553
  H  H25  1  0.948900  0.750100  0.577700  1.0  0.1662
  H  H26  1  0.814500  0.762300  0.507600  1.0  0.1553
  H  H27  1  0.551100  0.249900  0.577700  1.0  0.1662
  H  H28  1  0.685500  0.237700  0.507600  1.0  0.1551
  H  H29  1  0.551100  0.250100  0.922300  1.0  0.1662
  H  H30  1  0.685500  0.262300  0.992400  1.0  0.1555
  H  H31  1  0.948900  0.749900  0.922300  1.0  0.1671
  H  H32  1  0.814500  0.737700  0.992400  1.0  0.1557
  H  H33  1  0.250000  0.000000  0.596000  1.0  0.4391
  H  H34  1  0.250000  0.500000  0.904000  1.0  0.4429
  H  H35  1  0.750000  0.000000  0.404000  1.0  0.4429
  H  H36  1  0.750000  0.500000  0.096000  1.0  0.4391
  C  C37  1  0.298000  0.317000  0.411500  1.0  0.7249
  C  C38  1  0.181900  0.240100  0.437200  1.0  -0.4604
  C  C39  1  0.202000  0.683000  0.411500  1.0  0.7257
  C  C40  1  0.318100  0.759900  0.437200  1.0  -0.4597
  C  C41  1  0.202000  0.817000  0.088500  1.0  0.7234
  C  C42  1  0.318100  0.740100  0.062800  1.0  -0.4586
  C  C43  1  0.298000  0.183000  0.088500  1.0  0.7272
  C  C44  1  0.181900  0.259900  0.062800  1.0  -0.4589
  C  C45  1  0.702000  0.683000  0.588500  1.0  0.7257
  C  C46  1  0.818100  0.759900  0.562800  1.0  -0.4588
  C  C47  1  0.798000  0.317000  0.588500  1.0  0.7239
  C  C48  1  0.681900  0.240100  0.562800  1.0  -0.4592
  C  C49  1  0.798000  0.183000  0.911500  1.0  0.7272
  C  C50  1  0.681900  0.259900  0.937200  1.0  -0.46
  C  C51  1  0.702000  0.817000  0.911500  1.0  0.724
  C  C52  1  0.818100  0.740100  0.937200  1.0  -0.46
  O  O53  1  0.299000  0.146190  0.316120  1.0  -0.7769
  O  O54  1  0.433800  0.107470  0.443770  1.0  -0.7966
  O  O55  1  0.090200  0.072940  0.413730  1.0  -0.8164
  O  O56  1  0.372800  0.365900  0.457500  1.0  -0.4711
  O  O57  1  0.312200  0.330100  0.338500  1.0  -0.5995
  O  O58  1  0.201000  0.853810  0.316120  1.0  -0.777
  O  O59  1  0.066200  0.892530  0.443770  1.0  -0.7968
  O  O60  1  0.409800  0.927060  0.413730  1.0  -0.8155
  O  O61  1  0.127200  0.634100  0.457500  1.0  -0.4679
  O  O62  1  0.187800  0.669900  0.338500  1.0  -0.5976
  O  O63  1  0.201000  0.646190  0.183880  1.0  -0.7763
  O  O64  1  0.066200  0.607470  0.056230  1.0  -0.7962
  O  O65  1  0.409800  0.572940  0.086270  1.0  -0.814
  O  O66  1  0.127200  0.865900  0.042500  1.0  -0.4706
  O  O67  1  0.187800  0.830100  0.161500  1.0  -0.5973
  O  O68  1  0.299000  0.353810  0.183880  1.0  -0.7751
  O  O69  1  0.433800  0.392530  0.056230  1.0  -0.7956
  O  O70  1  0.090200  0.427060  0.086270  1.0  -0.8154
  O  O71  1  0.372800  0.134100  0.042500  1.0  -0.4698
  O  O72  1  0.312200  0.169900  0.161500  1.0  -0.5976
  O  O73  1  0.701000  0.853810  0.683880  1.0  -0.7755
  O  O74  1  0.566200  0.892530  0.556230  1.0  -0.7959
  O  O75  1  0.909800  0.927060  0.586270  1.0  -0.8139
  O  O76  1  0.627200  0.634100  0.542500  1.0  -0.4706
  O  O77  1  0.687800  0.669900  0.661500  1.0  -0.5968
  O  O78  1  0.799000  0.146190  0.683880  1.0  -0.7756
  O  O79  1  0.933800  0.107470  0.556230  1.0  -0.7959
  O  O80  1  0.590200  0.072940  0.586270  1.0  -0.8152
  O  O81  1  0.872800  0.365900  0.542500  1.0  -0.4725
  O  O82  1  0.812200  0.330100  0.661500  1.0  -0.5972
  O  O83  1  0.799000  0.353810  0.816120  1.0  -0.7772
  O  O84  1  0.933800  0.392530  0.943770  1.0  -0.7965
  O  O85  1  0.590200  0.427060  0.913730  1.0  -0.8155
  O  O86  1  0.872800  0.134100  0.957500  1.0  -0.4697
  O  O87  1  0.812200  0.169900  0.838500  1.0  -0.5988
  O  O88  1  0.701000  0.646190  0.816120  1.0  -0.777
  O  O89  1  0.566200  0.607470  0.943770  1.0  -0.7968
  O  O90  1  0.909800  0.572940  0.913730  1.0  -0.8165
  O  O91  1  0.627200  0.865900  0.957500  1.0  -0.4698
  O  O92  1  0.687800  0.830100  0.838500  1.0  -0.5992
  O  O93  1  0.250000  0.000000  0.542900  1.0  -1.0707
  O  O94  1  0.250000  0.500000  0.957100  1.0  -1.0682
  O  O95  1  0.750000  0.000000  0.457100  1.0  -1.0682
  O  O96  1  0.750000  0.500000  0.042900  1.0  -1.0707
