# generated using pymatgen
data_NiH24C30(NO)6
_symmetry_space_group_name_H-M   'P 1'
_cell_length_a   20.03400000
_cell_length_b   20.03380000
_cell_length_c   20.03380000
_cell_angle_alpha   109.47100000
_cell_angle_beta   109.47100000
_cell_angle_gamma   109.47100000
_symmetry_Int_Tables_number   1
_chemical_formula_structural   NiH24C30(NO)6
_chemical_formula_sum   'Ni4 H96 C120 N24 O24'
_cell_volume   6189.79112513
_cell_formula_units_Z   4
loop_
 _symmetry_equiv_pos_site_id
 _symmetry_equiv_pos_as_xyz
  1  'x, y, z'
loop_
 _atom_site_type_symbol
 _atom_site_label
 _atom_site_symmetry_multiplicity
 _atom_site_fract_x
 _atom_site_fract_y
 _atom_site_fract_z
 _atom_site_occupancy
 _atom_site_charge
  Ni  Ni1  1  0.000000  0.500000  0.000000  1.0  0.7804
  Ni  Ni2  1  0.500000  0.500000  0.500000  1.0  0.7804
  Ni  Ni3  1  0.500000  0.000000  0.000000  1.0  0.7804
  Ni  Ni4  1  0.000000  0.000000  0.500000  1.0  0.7804
  H  H5  1  0.080500  0.335400  0.966500  1.0  0.1142
  H  H6  1  0.423900  0.721300  0.614600  1.0  0.1149
  H  H7  1  0.064300  0.730100  0.885200  1.0  0.1073
  H  H8  1  0.190700  0.297400  0.576100  1.0  0.1159
  H  H9  1  0.665800  0.935700  0.820900  1.0  0.1071
  H  H10  1  0.614600  0.423900  0.721300  1.0  0.1163
  H  H11  1  0.885200  0.155100  0.820900  1.0  0.1078
  H  H12  1  0.254900  0.368900  0.335400  1.0  0.1151
  H  H13  1  0.806800  0.898300  0.383100  1.0  0.1167
  H  H14  1  0.114000  0.033500  0.368900  1.0  0.1133
  H  H15  1  0.278700  0.702600  0.893300  1.0  0.1172
  H  H16  1  0.106700  0.809300  0.385400  1.0  0.1149
  H  H17  1  0.966500  0.080500  0.335400  1.0  0.1129
  H  H18  1  0.576100  0.190700  0.297400  1.0  0.1138
  H  H19  1  0.155100  0.820900  0.885200  1.0  0.1056
  H  H20  1  0.730100  0.885200  0.064300  1.0  0.1057
  H  H21  1  0.702600  0.423900  0.809300  1.0  0.117
  H  H22  1  0.898300  0.091500  0.515200  1.0  0.1176
  H  H23  1  0.190700  0.614600  0.893300  1.0  0.114
  H  H24  1  0.631100  0.664600  0.745100  1.0  0.1159
  H  H25  1  0.809300  0.385400  0.106700  1.0  0.1133
  H  H26  1  0.484800  0.101700  0.908500  1.0  0.115
  H  H27  1  0.844900  0.179100  0.114800  1.0  0.106
  H  H28  1  0.885200  0.064300  0.730100  1.0  0.1086
  H  H29  1  0.908500  0.484800  0.101700  1.0  0.115
  H  H30  1  0.820900  0.665800  0.935700  1.0  0.1084
  H  H31  1  0.033500  0.368900  0.114000  1.0  0.1189
  H  H32  1  0.278700  0.385400  0.576100  1.0  0.117
  H  H33  1  0.193200  0.576300  0.091500  1.0  0.1152
  H  H34  1  0.664600  0.745100  0.631100  1.0  0.115
  H  H35  1  0.385400  0.576100  0.278700  1.0  0.1163
  H  H36  1  0.664600  0.033500  0.919500  1.0  0.1149
  H  H37  1  0.334200  0.064300  0.179100  1.0  0.1062
  H  H38  1  0.745100  0.080500  0.114000  1.0  0.1147
  H  H39  1  0.616900  0.193200  0.101700  1.0  0.1187
  H  H40  1  0.179100  0.114800  0.844900  1.0  0.1082
  H  H41  1  0.368900  0.114000  0.033500  1.0  0.1145
  H  H42  1  0.101700  0.908500  0.484800  1.0  0.1179
  H  H43  1  0.631100  0.886000  0.966500  1.0  0.1137
  H  H44  1  0.809300  0.702600  0.423900  1.0  0.1152
  H  H45  1  0.515200  0.423700  0.616900  1.0  0.1147
  H  H46  1  0.080500  0.114000  0.745100  1.0  0.1134
  H  H47  1  0.665800  0.844900  0.730100  1.0  0.1053
  H  H48  1  0.335400  0.966500  0.080500  1.0  0.1147
  H  H49  1  0.269900  0.114800  0.935700  1.0  0.106
  H  H50  1  0.297400  0.106700  0.721300  1.0  0.1134
  H  H51  1  0.702600  0.893300  0.278700  1.0  0.1143
  H  H52  1  0.616900  0.515200  0.423700  1.0  0.1156
  H  H53  1  0.966500  0.631100  0.886000  1.0  0.1182
  H  H54  1  0.423700  0.908500  0.806800  1.0  0.1153
  H  H55  1  0.091500  0.193200  0.576300  1.0  0.1169
  H  H56  1  0.893300  0.190700  0.614600  1.0  0.1149
  H  H57  1  0.091500  0.515200  0.898300  1.0  0.1146
  H  H58  1  0.368900  0.335400  0.254900  1.0  0.1154
  H  H59  1  0.193200  0.101700  0.616900  1.0  0.1173
  H  H60  1  0.423900  0.809300  0.702600  1.0  0.1137
  H  H61  1  0.886000  0.254900  0.919500  1.0  0.1143
  H  H62  1  0.919500  0.886000  0.254900  1.0  0.113
  H  H63  1  0.844900  0.730100  0.665800  1.0  0.1068
  H  H64  1  0.721300  0.297400  0.106700  1.0  0.1175
  H  H65  1  0.297400  0.576100  0.190700  1.0  0.118
  H  H66  1  0.806800  0.423700  0.908500  1.0  0.1142
  H  H67  1  0.334200  0.155100  0.269900  1.0  0.1054
  H  H68  1  0.114800  0.935700  0.269900  1.0  0.1083
  H  H69  1  0.269900  0.334200  0.155100  1.0  0.1091
  H  H70  1  0.935700  0.269900  0.114800  1.0  0.1072
  H  H71  1  0.935700  0.820900  0.665800  1.0  0.1077
  H  H72  1  0.484800  0.576300  0.383100  1.0  0.115
  H  H73  1  0.179100  0.334200  0.064300  1.0  0.1081
  H  H74  1  0.383100  0.484800  0.576300  1.0  0.115
  H  H75  1  0.385400  0.106700  0.809300  1.0  0.114
  H  H76  1  0.745100  0.631100  0.664600  1.0  0.1154
  H  H77  1  0.383100  0.806800  0.898300  1.0  0.1167
  H  H78  1  0.515200  0.898300  0.091500  1.0  0.1152
  H  H79  1  0.721300  0.614600  0.423900  1.0  0.1168
  H  H80  1  0.919500  0.664600  0.033500  1.0  0.1142
  H  H81  1  0.898300  0.383100  0.806800  1.0  0.1149
  H  H82  1  0.820900  0.885200  0.155100  1.0  0.1081
  H  H83  1  0.155100  0.269900  0.334200  1.0  0.1073
  H  H84  1  0.893300  0.278700  0.702600  1.0  0.1181
  H  H85  1  0.908500  0.806800  0.423700  1.0  0.1176
  H  H86  1  0.106700  0.721300  0.297400  1.0  0.1162
  H  H87  1  0.033500  0.919500  0.664600  1.0  0.1126
  H  H88  1  0.576300  0.091500  0.193200  1.0  0.1146
  H  H89  1  0.576100  0.278700  0.385400  1.0  0.1156
  H  H90  1  0.576300  0.383100  0.484800  1.0  0.1124
  H  H91  1  0.730100  0.665800  0.844900  1.0  0.1089
  H  H92  1  0.423700  0.616900  0.515200  1.0  0.113
  H  H93  1  0.614600  0.893300  0.190700  1.0  0.1147
  H  H94  1  0.335400  0.254900  0.368900  1.0  0.1162
  H  H95  1  0.886000  0.966500  0.631100  1.0  0.1144
  H  H96  1  0.114800  0.844900  0.179100  1.0  0.1076
  H  H97  1  0.254900  0.919500  0.886000  1.0  0.1141
  H  H98  1  0.101700  0.616900  0.193200  1.0  0.1148
  H  H99  1  0.064300  0.179100  0.334200  1.0  0.1086
  H  H100  1  0.114000  0.745100  0.080500  1.0  0.1137
  C  C101  1  0.545500  0.861200  0.749300  1.0  0.0295
  C  C102  1  0.986500  0.370500  0.109600  1.0  -0.0538
  C  C103  1  0.111900  0.861200  0.315700  1.0  0.0265
  C  C104  1  0.260900  0.876900  0.890400  1.0  -0.0658
  C  C105  1  0.892800  0.145800  0.619200  1.0  -0.1191
  C  C106  1  0.203800  0.749300  0.888100  1.0  0.0265
  C  C107  1  0.250700  0.111900  0.796200  1.0  0.0285
  C  C108  1  0.103000  0.662800  0.190600  1.0  0.0114
  C  C109  1  0.816300  0.887500  0.200400  1.0  -0.1367
  C  C110  1  0.103000  0.912400  0.440200  1.0  0.0124
  C  C111  1  0.109600  0.739100  0.123100  1.0  -0.0589
  C  C112  1  0.876900  0.616000  0.986500  1.0  -0.0626
  C  C113  1  0.726400  0.619200  0.473400  1.0  -0.1223
  C  C114  1  0.384100  0.071200  0.183700  1.0  -0.1323
  C  C115  1  0.273600  0.747000  0.892800  1.0  -0.1218
  C  C116  1  0.190600  0.527800  0.087600  1.0  0.0094
  C  C117  1  0.897000  0.087600  0.559800  1.0  0.0095
  C  C118  1  0.138800  0.250700  0.454500  1.0  0.03
  C  C119  1  0.123100  0.384000  0.013500  1.0  -0.0629
  C  C120  1  0.749300  0.888100  0.203800  1.0  0.0273
  C  C121  1  0.071200  0.687100  0.887500  1.0  -0.1333
  C  C122  1  0.107200  0.726400  0.253000  1.0  -0.1184
  C  C123  1  0.123100  0.109600  0.739100  1.0  -0.0644
  C  C124  1  0.615900  0.799600  0.687100  1.0  -0.1356
  C  C125  1  0.380800  0.107200  0.854200  1.0  -0.1243
  C  C126  1  0.472200  0.912400  0.809400  1.0  0.0104
  C  C127  1  0.190600  0.103000  0.662800  1.0  0.0137
  C  C128  1  0.799600  0.687100  0.615900  1.0  -0.1316
  C  C129  1  0.527800  0.337200  0.440200  1.0  0.0108
  C  C130  1  0.749300  0.545500  0.861200  1.0  0.0259
  C  C131  1  0.615900  0.928800  0.816300  1.0  -0.1332
  C  C132  1  0.747000  0.473400  0.854200  1.0  -0.125
  C  C133  1  0.726400  0.253000  0.107200  1.0  -0.1218
  C  C134  1  0.380800  0.526600  0.273600  1.0  -0.1268
  C  C135  1  0.887500  0.200400  0.816300  1.0  -0.1415
  C  C136  1  0.472200  0.662800  0.559800  1.0  0.0092
  C  C137  1  0.897000  0.337200  0.809400  1.0  0.0108
  C  C138  1  0.384000  0.013500  0.123100  1.0  -0.0725
  C  C139  1  0.370500  0.109600  0.986500  1.0  -0.0667
  C  C140  1  0.200400  0.312900  0.384100  1.0  -0.1293
  C  C141  1  0.183700  0.112500  0.799600  1.0  -0.1364
  C  C142  1  0.526600  0.273600  0.380800  1.0  -0.1167
  C  C143  1  0.986500  0.876900  0.616000  1.0  -0.0569
  C  C144  1  0.816300  0.615900  0.928800  1.0  -0.1369
  C  C145  1  0.337200  0.809400  0.897000  1.0  0.0105
  C  C146  1  0.384100  0.200400  0.312900  1.0  -0.1385
  C  C147  1  0.454500  0.203800  0.315700  1.0  0.0278
  C  C148  1  0.559800  0.897000  0.087600  1.0  0.013
  C  C149  1  0.662800  0.190600  0.103000  1.0  0.0097
  C  C150  1  0.887500  0.071200  0.687100  1.0  -0.1369
  C  C151  1  0.111900  0.796200  0.250700  1.0  0.0297
  C  C152  1  0.454500  0.138800  0.250700  1.0  0.03
  C  C153  1  0.526600  0.145800  0.253000  1.0  -0.121
  C  C154  1  0.890400  0.013500  0.629500  1.0  -0.0668
  C  C155  1  0.559800  0.472200  0.662800  1.0  0.0068
  C  C156  1  0.747000  0.892800  0.273600  1.0  -0.1247
  C  C157  1  0.888100  0.203800  0.749300  1.0  0.0283
  C  C158  1  0.273600  0.380800  0.526600  1.0  -0.1208
  C  C159  1  0.928800  0.816300  0.615900  1.0  -0.1374
  C  C160  1  0.112500  0.928800  0.312900  1.0  -0.1365
  C  C161  1  0.861200  0.749300  0.545500  1.0  0.0299
  C  C162  1  0.315700  0.111900  0.861200  1.0  0.0328
  C  C163  1  0.107200  0.854200  0.380800  1.0  -0.1213
  C  C164  1  0.384000  0.260900  0.370500  1.0  -0.0607
  C  C165  1  0.440200  0.527800  0.337200  1.0  0.0067
  C  C166  1  0.629500  0.616000  0.739100  1.0  -0.0633
  C  C167  1  0.796200  0.250700  0.111900  1.0  0.0279
  C  C168  1  0.619200  0.892800  0.145800  1.0  -0.1192
  C  C169  1  0.662800  0.559800  0.472200  1.0  0.0123
  C  C170  1  0.854200  0.747000  0.473400  1.0  -0.1286
  C  C171  1  0.253000  0.107200  0.726400  1.0  -0.1166
  C  C172  1  0.687100  0.887500  0.071200  1.0  -0.1394
  C  C173  1  0.809400  0.472200  0.912400  1.0  0.0107
  C  C174  1  0.312900  0.384100  0.200400  1.0  -0.1376
  C  C175  1  0.260900  0.370500  0.384000  1.0  -0.0618
  C  C176  1  0.109600  0.986500  0.370500  1.0  -0.0647
  C  C177  1  0.337200  0.440200  0.527800  1.0  0.0092
  C  C178  1  0.145800  0.619200  0.892800  1.0  -0.117
  C  C179  1  0.619200  0.473400  0.726400  1.0  -0.125
  C  C180  1  0.854200  0.380800  0.107200  1.0  -0.1186
  C  C181  1  0.876900  0.890400  0.260900  1.0  -0.0588
  C  C182  1  0.527800  0.087600  0.190600  1.0  0.0088
  C  C183  1  0.250700  0.454500  0.138800  1.0  0.0257
  C  C184  1  0.183700  0.384100  0.071200  1.0  -0.1382
  C  C185  1  0.013500  0.123100  0.384000  1.0  -0.0584
  C  C186  1  0.616000  0.986500  0.876900  1.0  -0.0691
  C  C187  1  0.112500  0.799600  0.183700  1.0  -0.1382
  C  C188  1  0.312900  0.112500  0.928800  1.0  -0.1346
  C  C189  1  0.087600  0.559800  0.897000  1.0  0.0085
  C  C190  1  0.928800  0.312900  0.112500  1.0  -0.1343
  C  C191  1  0.253000  0.526600  0.145800  1.0  -0.1243
  C  C192  1  0.739100  0.629500  0.616000  1.0  -0.0628
  C  C193  1  0.200400  0.816300  0.887500  1.0  -0.1296
  C  C194  1  0.912400  0.440200  0.103000  1.0  0.0055
  C  C195  1  0.370500  0.384000  0.260900  1.0  -0.0622
  C  C196  1  0.809400  0.897000  0.337200  1.0  0.0134
  C  C197  1  0.545500  0.796200  0.684300  1.0  0.0285
  C  C198  1  0.684300  0.545500  0.796200  1.0  0.0321
  C  C199  1  0.013500  0.629500  0.890400  1.0  -0.0556
  C  C200  1  0.616000  0.739100  0.629500  1.0  -0.0574
  C  C201  1  0.684300  0.888100  0.138800  1.0  0.0322
  C  C202  1  0.473400  0.854200  0.747000  1.0  -0.1209
  C  C203  1  0.890400  0.260900  0.876900  1.0  -0.0577
  C  C204  1  0.071200  0.183700  0.384100  1.0  -0.1366
  C  C205  1  0.861200  0.315700  0.111900  1.0  0.0339
  C  C206  1  0.796200  0.684300  0.545500  1.0  0.0276
  C  C207  1  0.087600  0.190600  0.527800  1.0  0.0091
  C  C208  1  0.687100  0.615900  0.799600  1.0  -0.1391
  C  C209  1  0.799600  0.183700  0.112500  1.0  -0.1318
  C  C210  1  0.315700  0.454500  0.203800  1.0  0.031
  C  C211  1  0.440200  0.103000  0.912400  1.0  0.0134
  C  C212  1  0.203800  0.315700  0.454500  1.0  0.0275
  C  C213  1  0.473400  0.726400  0.619200  1.0  -0.1182
  C  C214  1  0.739100  0.123100  0.109600  1.0  -0.0621
  C  C215  1  0.145800  0.253000  0.526600  1.0  -0.1269
  C  C216  1  0.892800  0.273600  0.747000  1.0  -0.1188
  C  C217  1  0.888100  0.138800  0.684300  1.0  0.0266
  C  C218  1  0.138800  0.684300  0.888100  1.0  0.0335
  C  C219  1  0.629500  0.890400  0.013500  1.0  -0.0648
  C  C220  1  0.912400  0.809400  0.472200  1.0  0.0106
  N  N221  1  0.126500  0.100900  0.672800  1.0  0.2819
  N  N222  1  0.428100  0.100900  0.974400  1.0  0.2838
  N  N223  1  0.974400  0.428100  0.100900  1.0  0.2775
  N  N224  1  0.672800  0.126500  0.100900  1.0  0.2798
  N  N225  1  0.899100  0.327200  0.873500  1.0  0.2792
  N  N226  1  0.546300  0.974400  0.873500  1.0  0.2816
  N  N227  1  0.327200  0.428100  0.453700  1.0  0.2801
  N  N228  1  0.428100  0.453700  0.327200  1.0  0.2791
  N  N229  1  0.899100  0.025600  0.571900  1.0  0.2781
  N  N230  1  0.672800  0.571900  0.546300  1.0  0.2811
  N  N231  1  0.327200  0.873500  0.899100  1.0  0.2806
  N  N232  1  0.571900  0.546300  0.672800  1.0  0.2783
  N  N233  1  0.025600  0.571900  0.899100  1.0  0.2799
  N  N234  1  0.126500  0.453700  0.025600  1.0  0.2816
  N  N235  1  0.025600  0.126500  0.453700  1.0  0.2787
  N  N236  1  0.100900  0.672800  0.126500  1.0  0.282
  N  N237  1  0.571900  0.899100  0.025600  1.0  0.2825
  N  N238  1  0.453700  0.025600  0.126500  1.0  0.2786
  N  N239  1  0.974400  0.873500  0.546300  1.0  0.2778
  N  N240  1  0.100900  0.974400  0.428100  1.0  0.2808
  N  N241  1  0.873500  0.899100  0.327200  1.0  0.2791
  N  N242  1  0.453700  0.327200  0.428100  1.0  0.2801
  N  N243  1  0.873500  0.546300  0.974400  1.0  0.2791
  N  N244  1  0.546300  0.672800  0.571900  1.0  0.281
  O  O245  1  0.614300  0.066400  0.099100  1.0  -0.5808
  O  O246  1  0.515200  0.900900  0.967300  1.0  -0.5921
  O  O247  1  0.614300  0.515200  0.547900  1.0  -0.5805
  O  O248  1  0.967300  0.066400  0.452100  1.0  -0.5903
  O  O249  1  0.515200  0.547900  0.614300  1.0  -0.5918
  O  O250  1  0.452100  0.967300  0.066400  1.0  -0.5761
  O  O251  1  0.385700  0.933600  0.900900  1.0  -0.582
  O  O252  1  0.933600  0.900900  0.385700  1.0  -0.5791
  O  O253  1  0.933600  0.547900  0.032700  1.0  -0.5769
  O  O254  1  0.066400  0.452100  0.967300  1.0  -0.5796
  O  O255  1  0.547900  0.614300  0.515200  1.0  -0.5802
  O  O256  1  0.900900  0.385700  0.933600  1.0  -0.5776
  O  O257  1  0.900900  0.967300  0.515200  1.0  -0.5883
  O  O258  1  0.484800  0.099100  0.032700  1.0  -0.5898
  O  O259  1  0.032700  0.484800  0.099100  1.0  -0.5894
  O  O260  1  0.099100  0.032700  0.484800  1.0  -0.5878
  O  O261  1  0.066400  0.099100  0.614300  1.0  -0.5775
  O  O262  1  0.547900  0.032700  0.933600  1.0  -0.5768
  O  O263  1  0.484800  0.452100  0.385700  1.0  -0.5893
  O  O264  1  0.967300  0.515200  0.900900  1.0  -0.5899
  O  O265  1  0.452100  0.385700  0.484800  1.0  -0.5783
  O  O266  1  0.032700  0.933600  0.547900  1.0  -0.5874
  O  O267  1  0.099100  0.614300  0.066400  1.0  -0.5779
  O  O268  1  0.385700  0.484800  0.452100  1.0  -0.58
