# generated using pymatgen
data_Ni2H6C8S4N13O4
_symmetry_space_group_name_H-M   'P 1'
_cell_length_a   15.32100000
_cell_length_b   15.32100000
_cell_length_c   15.32100000
_cell_angle_alpha   105.19700000
_cell_angle_beta   105.19700000
_cell_angle_gamma   105.19700000
_symmetry_Int_Tables_number   1
_chemical_formula_structural   Ni2H6C8S4N13O4
_chemical_formula_sum   'Ni12 H36 C48 S24 N78 O24'
_cell_volume   3130.72802844
_cell_formula_units_Z   6
loop_
 _symmetry_equiv_pos_site_id
 _symmetry_equiv_pos_as_xyz
  1  'x, y, z'
loop_
 _atom_site_type_symbol
 _atom_site_label
 _atom_site_symmetry_multiplicity
 _atom_site_fract_x
 _atom_site_fract_y
 _atom_site_fract_z
 _atom_site_occupancy
 _atom_site_charge
  Ni  Ni1  1  0.208990  0.425440  0.873170  1.0  0.9685
  Ni  Ni2  1  0.074560  0.291010  0.626830  1.0  0.9674
  Ni  Ni3  1  0.873170  0.208990  0.425440  1.0  0.9673
  Ni  Ni4  1  0.791010  0.574560  0.126830  1.0  0.9687
  Ni  Ni5  1  0.925440  0.708990  0.373170  1.0  0.969
  Ni  Ni6  1  0.574560  0.126830  0.791010  1.0  0.9685
  Ni  Ni7  1  0.126830  0.791010  0.574560  1.0  0.9686
  Ni  Ni8  1  0.708990  0.373170  0.925440  1.0  0.9683
  Ni  Ni9  1  0.291010  0.626830  0.074560  1.0  0.969
  Ni  Ni10  1  0.373170  0.925440  0.708990  1.0  0.9683
  Ni  Ni11  1  0.425440  0.873170  0.208990  1.0  0.9697
  Ni  Ni12  1  0.626830  0.074560  0.291010  1.0  0.9696
  H  H13  1  0.170100  0.140200  0.547500  1.0  0.1504
  H  H14  1  0.049100  0.079400  0.795800  1.0  0.2038
  H  H15  1  0.795800  0.049100  0.079400  1.0  0.2019
  H  H16  1  0.874600  0.130100  0.844200  1.0  0.2174
  H  H17  1  0.155800  0.125400  0.869900  1.0  0.2211
  H  H18  1  0.579400  0.549100  0.295800  1.0  0.2047
  H  H19  1  0.547500  0.170100  0.140200  1.0  0.1493
  H  H20  1  0.369900  0.625400  0.655800  1.0  0.217
  H  H21  1  0.329900  0.952500  0.359800  1.0  0.1501
  H  H22  1  0.625400  0.655800  0.369900  1.0  0.2208
  H  H23  1  0.420600  0.450900  0.704200  1.0  0.2024
  H  H24  1  0.047500  0.640200  0.670100  1.0  0.1488
  H  H25  1  0.869900  0.155800  0.125400  1.0  0.2194
  H  H26  1  0.859800  0.452500  0.829900  1.0  0.1507
  H  H27  1  0.125400  0.869900  0.155800  1.0  0.2181
  H  H28  1  0.359800  0.329900  0.952500  1.0  0.1516
  H  H29  1  0.920600  0.204200  0.950900  1.0  0.2018
  H  H30  1  0.374600  0.344200  0.630100  1.0  0.2199
  H  H31  1  0.950900  0.920600  0.204200  1.0  0.2027
  H  H32  1  0.549100  0.295800  0.579400  1.0  0.2008
  H  H33  1  0.655800  0.369900  0.625400  1.0  0.2187
  H  H34  1  0.295800  0.579400  0.549100  1.0  0.2019
  H  H35  1  0.079400  0.795800  0.049100  1.0  0.2011
  H  H36  1  0.630100  0.374600  0.344200  1.0  0.215
  H  H37  1  0.452500  0.829900  0.859800  1.0  0.1497
  H  H38  1  0.450900  0.704200  0.420600  1.0  0.2002
  H  H39  1  0.640200  0.670100  0.047500  1.0  0.154
  H  H40  1  0.344200  0.630100  0.374600  1.0  0.2189
  H  H41  1  0.704200  0.420600  0.450900  1.0  0.2023
  H  H42  1  0.130100  0.844200  0.874600  1.0  0.2183
  H  H43  1  0.204200  0.950900  0.920600  1.0  0.2016
  H  H44  1  0.829900  0.859800  0.452500  1.0  0.1504
  H  H45  1  0.952500  0.359800  0.329900  1.0  0.1496
  H  H46  1  0.844200  0.874600  0.130100  1.0  0.2198
  H  H47  1  0.140200  0.547500  0.170100  1.0  0.1506
  H  H48  1  0.670100  0.047500  0.640200  1.0  0.1527
  C  C49  1  0.873610  0.793570  0.216010  1.0  0.7471
  C  C50  1  0.958620  0.626020  0.043800  1.0  0.0067
  C  C51  1  0.126390  0.206430  0.783990  1.0  0.7466
  C  C52  1  0.107780  0.119080  0.502720  1.0  0.2923
  C  C53  1  0.458620  0.543800  0.126020  1.0  0.0062
  C  C54  1  0.389120  0.384160  0.696490  1.0  -0.3582
  C  C55  1  0.803510  0.115840  0.110880  1.0  -0.3536
  C  C56  1  0.293570  0.373610  0.716010  1.0  0.743
  C  C57  1  0.119080  0.502720  0.107780  1.0  0.293
  C  C58  1  0.793570  0.216010  0.873610  1.0  0.7437
  C  C59  1  0.110880  0.803510  0.115840  1.0  -0.3579
  C  C60  1  0.502720  0.107780  0.119080  1.0  0.2941
  C  C61  1  0.497280  0.892220  0.880920  1.0  0.2939
  C  C62  1  0.607780  0.002720  0.619080  1.0  0.2938
  C  C63  1  0.126020  0.458620  0.543800  1.0  0.0083
  C  C64  1  0.880920  0.497280  0.892220  1.0  0.2933
  C  C65  1  0.303510  0.610880  0.615840  1.0  -0.3562
  C  C66  1  0.892220  0.880920  0.497280  1.0  0.2922
  C  C67  1  0.889120  0.196490  0.884160  1.0  -0.3538
  C  C68  1  0.115840  0.110880  0.803510  1.0  -0.3604
  C  C69  1  0.002720  0.619080  0.607780  1.0  0.2963
  C  C70  1  0.696490  0.389120  0.384160  1.0  -0.3543
  C  C71  1  0.610880  0.615840  0.303510  1.0  -0.3578
  C  C72  1  0.619080  0.607780  0.002720  1.0  0.2923
  C  C73  1  0.216010  0.873610  0.793570  1.0  0.7463
  C  C74  1  0.626020  0.043800  0.958620  1.0  0.0047
  C  C75  1  0.873980  0.541380  0.456200  1.0  0.0074
  C  C76  1  0.626390  0.283990  0.706430  1.0  0.7465
  C  C77  1  0.716010  0.293570  0.373610  1.0  0.7466
  C  C78  1  0.543800  0.126020  0.458620  1.0  0.0038
  C  C79  1  0.380920  0.392220  0.997280  1.0  0.2908
  C  C80  1  0.456200  0.873980  0.541380  1.0  0.0075
  C  C81  1  0.196490  0.884160  0.889120  1.0  -0.354
  C  C82  1  0.706430  0.626390  0.283990  1.0  0.7428
  C  C83  1  0.043800  0.958620  0.626020  1.0  0.0055
  C  C84  1  0.041380  0.373980  0.956200  1.0  0.0074
  C  C85  1  0.783990  0.126390  0.206430  1.0  0.7482
  C  C86  1  0.392220  0.997280  0.380920  1.0  0.2935
  C  C87  1  0.373980  0.956200  0.041380  1.0  0.0059
  C  C88  1  0.384160  0.696490  0.389120  1.0  -0.35
  C  C89  1  0.373610  0.716010  0.293570  1.0  0.7453
  C  C90  1  0.615840  0.303510  0.610880  1.0  -0.3547
  C  C91  1  0.997280  0.380920  0.392220  1.0  0.2966
  C  C92  1  0.884160  0.889120  0.196490  1.0  -0.357
  C  C93  1  0.206430  0.783990  0.126390  1.0  0.7449
  C  C94  1  0.541380  0.456200  0.873980  1.0  0.0058
  C  C95  1  0.956200  0.041380  0.373980  1.0  0.0064
  C  C96  1  0.283990  0.706430  0.626390  1.0  0.7462
  S  S97  1  0.989120  0.591800  0.942130  1.0  0.1114
  S  S98  1  0.150730  0.029510  0.722970  1.0  0.0581
  S  S99  1  0.722970  0.150730  0.029510  1.0  0.0595
  S  S100  1  0.529510  0.650730  0.222970  1.0  0.0612
  S  S101  1  0.349270  0.777030  0.470490  1.0  0.0613
  S  S102  1  0.091800  0.489120  0.442130  1.0  0.1112
  S  S103  1  0.777030  0.470490  0.349270  1.0  0.0583
  S  S104  1  0.510880  0.557870  0.908200  1.0  0.1101
  S  S105  1  0.849270  0.970490  0.277030  1.0  0.0615
  S  S106  1  0.408200  0.057870  0.010880  1.0  0.1085
  S  S107  1  0.029510  0.722970  0.150730  1.0  0.0579
  S  S108  1  0.908200  0.510880  0.557870  1.0  0.1111
  S  S109  1  0.222970  0.529510  0.650730  1.0  0.0581
  S  S110  1  0.557870  0.908200  0.510880  1.0  0.1093
  S  S111  1  0.489120  0.442130  0.091800  1.0  0.112
  S  S112  1  0.442130  0.091800  0.489120  1.0  0.1102
  S  S113  1  0.650730  0.222970  0.529510  1.0  0.0591
  S  S114  1  0.057870  0.010880  0.408200  1.0  0.1092
  S  S115  1  0.591800  0.942130  0.989120  1.0  0.1105
  S  S116  1  0.470490  0.349270  0.777030  1.0  0.0605
  S  S117  1  0.942130  0.989120  0.591800  1.0  0.1124
  S  S118  1  0.277030  0.849270  0.970490  1.0  0.0591
  S  S119  1  0.970490  0.277030  0.849270  1.0  0.0582
  S  S120  1  0.010880  0.408200  0.057870  1.0  0.1105
  N  N121  1  0.525400  0.757700  0.029100  1.0  -0.2299
  N  N122  1  0.097510  0.402490  0.750000  1.0  -0.4585
  N  N123  1  0.704800  0.376800  0.114800  1.0  -0.0548
  N  N124  1  0.992970  0.330700  0.448220  1.0  -0.2261
  N  N125  1  0.548550  0.250000  0.951450  1.0  -0.0698
  N  N126  1  0.876800  0.204800  0.614800  1.0  -0.0505
  N  N127  1  0.875440  0.568800  0.036660  1.0  -0.171
  N  N128  1  0.669300  0.551780  0.007030  1.0  -0.2253
  N  N129  1  0.651900  0.832200  0.164600  1.0  -0.4062
  N  N130  1  0.551780  0.007030  0.669300  1.0  -0.2271
  N  N131  1  0.375440  0.536660  0.068800  1.0  -0.1683
  N  N132  1  0.007030  0.669300  0.551780  1.0  -0.2265
  N  N133  1  0.750000  0.048550  0.451450  1.0  -0.0666
  N  N134  1  0.431200  0.963340  0.124560  1.0  -0.17
  N  N135  1  0.295200  0.623200  0.885200  1.0  -0.0524
  N  N136  1  0.507030  0.051780  0.169300  1.0  -0.2282
  N  N137  1  0.330700  0.448220  0.992970  1.0  -0.2244
  N  N138  1  0.423330  0.076670  0.750000  1.0  0.0271
  N  N139  1  0.332200  0.151900  0.664600  1.0  -0.4052
  N  N140  1  0.848100  0.335400  0.667800  1.0  -0.408
  N  N141  1  0.448220  0.992970  0.330700  1.0  -0.2279
  N  N142  1  0.951450  0.548550  0.250000  1.0  -0.0659
  N  N143  1  0.164600  0.651900  0.832200  1.0  -0.4067
  N  N144  1  0.204800  0.614800  0.876800  1.0  -0.0525
  N  N145  1  0.076670  0.750000  0.423330  1.0  0.0256
  N  N146  1  0.835400  0.348100  0.167800  1.0  -0.4075
  N  N147  1  0.597510  0.250000  0.902490  1.0  -0.4585
  N  N148  1  0.624560  0.463340  0.931200  1.0  -0.1696
  N  N149  1  0.036660  0.875440  0.568800  1.0  -0.1691
  N  N150  1  0.250000  0.576670  0.923330  1.0  0.0277
  N  N151  1  0.124560  0.431200  0.963340  1.0  -0.1715
  N  N152  1  0.250000  0.902490  0.597510  1.0  -0.4581
  N  N153  1  0.068800  0.375440  0.536660  1.0  -0.1708
  N  N154  1  0.757700  0.029100  0.525400  1.0  -0.228
  N  N155  1  0.832200  0.164600  0.651900  1.0  -0.4067
  N  N156  1  0.492970  0.948220  0.830700  1.0  -0.2282
  N  N157  1  0.923330  0.250000  0.576670  1.0  0.0213
  N  N158  1  0.385200  0.123200  0.795200  1.0  -0.0523
  N  N159  1  0.885200  0.295200  0.623200  1.0  -0.0532
  N  N160  1  0.948220  0.830700  0.492970  1.0  -0.2267
  N  N161  1  0.750000  0.097510  0.402490  1.0  -0.4588
  N  N162  1  0.667800  0.848100  0.335400  1.0  -0.4061
  N  N163  1  0.970900  0.474600  0.242300  1.0  -0.2337
  N  N164  1  0.167800  0.835400  0.348100  1.0  -0.4065
  N  N165  1  0.742300  0.974600  0.470900  1.0  -0.2324
  N  N166  1  0.664600  0.332200  0.151900  1.0  -0.407
  N  N167  1  0.123200  0.795200  0.385200  1.0  -0.0527
  N  N168  1  0.830700  0.492970  0.948220  1.0  -0.227
  N  N169  1  0.051780  0.169300  0.507030  1.0  -0.2263
  N  N170  1  0.750000  0.423330  0.076670  1.0  0.0186
  N  N171  1  0.536660  0.068800  0.375440  1.0  -0.1693
  N  N172  1  0.474600  0.242300  0.970900  1.0  -0.2318
  N  N173  1  0.376800  0.114800  0.704800  1.0  -0.0522
  N  N174  1  0.114800  0.704800  0.376800  1.0  -0.051
  N  N175  1  0.029100  0.525400  0.757700  1.0  -0.2296
  N  N176  1  0.250000  0.951450  0.548550  1.0  -0.068
  N  N177  1  0.931200  0.624560  0.463340  1.0  -0.1707
  N  N178  1  0.568800  0.036660  0.875440  1.0  -0.1689
  N  N179  1  0.451450  0.750000  0.048550  1.0  -0.0677
  N  N180  1  0.169300  0.507030  0.051780  1.0  -0.228
  N  N181  1  0.025400  0.529100  0.257700  1.0  -0.233
  N  N182  1  0.963340  0.124560  0.431200  1.0  -0.1685
  N  N183  1  0.795200  0.385200  0.123200  1.0  -0.0519
  N  N184  1  0.614800  0.876800  0.204800  1.0  -0.052
  N  N185  1  0.623200  0.885200  0.295200  1.0  -0.0511
  N  N186  1  0.348100  0.167800  0.835400  1.0  -0.4057
  N  N187  1  0.048550  0.451450  0.750000  1.0  -0.0702
  N  N188  1  0.902490  0.597510  0.250000  1.0  -0.4584
  N  N189  1  0.402490  0.750000  0.097510  1.0  -0.4572
  N  N190  1  0.576670  0.923330  0.250000  1.0  0.0256
  N  N191  1  0.470900  0.742300  0.974600  1.0  -0.2313
  N  N192  1  0.974600  0.470900  0.742300  1.0  -0.2323
  N  N193  1  0.335400  0.667800  0.848100  1.0  -0.4068
  N  N194  1  0.151900  0.664600  0.332200  1.0  -0.4086
  N  N195  1  0.463340  0.931200  0.624560  1.0  -0.1693
  N  N196  1  0.242300  0.970900  0.474600  1.0  -0.2278
  N  N197  1  0.529100  0.257700  0.025400  1.0  -0.228
  N  N198  1  0.257700  0.025400  0.529100  1.0  -0.2297
  O  O199  1  0.854880  0.179480  0.282520  1.0  -0.5336
  O  O200  1  0.782520  0.679480  0.354880  1.0  -0.5359
  O  O201  1  0.802370  0.299770  0.919950  1.0  -0.5282
  O  O202  1  0.217480  0.320520  0.645120  1.0  -0.5361
  O  O203  1  0.200230  0.697630  0.580050  1.0  -0.5277
  O  O204  1  0.179480  0.282520  0.854880  1.0  -0.5354
  O  O205  1  0.282520  0.854880  0.179480  1.0  -0.5343
  O  O206  1  0.080050  0.197630  0.700230  1.0  -0.528
  O  O207  1  0.820520  0.717480  0.145120  1.0  -0.5342
  O  O208  1  0.419950  0.799770  0.302370  1.0  -0.5273
  O  O209  1  0.299770  0.919950  0.802370  1.0  -0.5276
  O  O210  1  0.354880  0.782520  0.679480  1.0  -0.5349
  O  O211  1  0.302370  0.419950  0.799770  1.0  -0.5276
  O  O212  1  0.717480  0.145120  0.820520  1.0  -0.5341
  O  O213  1  0.697630  0.580050  0.200230  1.0  -0.5287
  O  O214  1  0.320520  0.645120  0.217480  1.0  -0.534
  O  O215  1  0.580050  0.200230  0.697630  1.0  -0.5275
  O  O216  1  0.679480  0.354880  0.782520  1.0  -0.5345
  O  O217  1  0.799770  0.302370  0.419950  1.0  -0.5284
  O  O218  1  0.700230  0.080050  0.197630  1.0  -0.5283
  O  O219  1  0.145120  0.820520  0.717480  1.0  -0.5338
  O  O220  1  0.645120  0.217480  0.320520  1.0  -0.5346
  O  O221  1  0.919950  0.802370  0.299770  1.0  -0.5278
  O  O222  1  0.197630  0.700230  0.080050  1.0  -0.5287
