# generated using pymatgen
data_Zn4H30C48N12O13
_symmetry_space_group_name_H-M   'P 1'
_cell_length_a   27.26000000
_cell_length_b   27.26000000
_cell_length_c   27.26000000
_cell_angle_alpha   90.00000000
_cell_angle_beta   90.00000000
_cell_angle_gamma   90.00000000
_symmetry_Int_Tables_number   1
_chemical_formula_structural   Zn4H30C48N12O13
_chemical_formula_sum   'Zn16 H120 C192 N48 O52'
_cell_volume   20257.11317600
_cell_formula_units_Z   4
loop_
 _symmetry_equiv_pos_site_id
 _symmetry_equiv_pos_as_xyz
  1  'x, y, z'
loop_
 _atom_site_type_symbol
 _atom_site_label
 _atom_site_symmetry_multiplicity
 _atom_site_fract_x
 _atom_site_fract_y
 _atom_site_fract_z
 _atom_site_occupancy
 _atom_site_charge
  Zn  Zn1  1  0.055340  0.974400  0.983250  1.0  1.1537
  Zn  Zn2  1  0.984330  0.057490  0.970000  1.0  1.1459
  Zn  Zn3  1  0.952680  0.954600  0.950880  1.0  1.1567
  Zn  Zn4  1  0.971570  0.987060  0.053550  1.0  1.1423
  Zn  Zn5  1  0.470700  0.983180  0.429030  1.0  1.1309
  Zn  Zn6  1  0.451150  0.951340  0.531800  1.0  1.1363
  Zn  Zn7  1  0.553920  0.970890  0.499960  1.0  1.1287
  Zn  Zn8  1  0.482990  0.054110  0.512250  1.0  1.1279
  Zn  Zn9  1  0.929400  0.471760  0.496080  1.0  1.1381
  Zn  Zn10  1  0.032070  0.452870  0.528540  1.0  1.1569
  Zn  Zn11  1  0.012950  0.484530  0.425650  1.0  1.1287
  Zn  Zn12  1  0.999700  0.555530  0.508740  1.0  1.1516
  Zn  Zn13  1  0.486870  0.429590  0.011380  1.0  1.1375
  Zn  Zn14  1  0.474210  0.499890  0.927610  1.0  1.1566
  Zn  Zn15  1  0.454410  0.532260  0.030270  1.0  1.1584
  Zn  Zn16  1  0.557300  0.513140  0.998610  1.0  1.1237
  H  H17  1  0.256720  0.266010  0.413230  1.0  0.1407
  H  H18  1  0.153060  0.367980  0.506930  1.0  0.1098
  H  H19  1  0.220600  0.315320  0.480560  1.0  0.112
  H  H20  1  0.118310  0.398850  0.355390  1.0  0.1109
  H  H21  1  0.185130  0.345030  0.329370  1.0  0.1091
  H  H22  1  0.403640  0.241620  0.258260  1.0  0.1372
  H  H23  1  0.438220  0.082310  0.319920  1.0  0.1052
  H  H24  1  0.412160  0.149660  0.266480  1.0  0.1097
  H  H25  1  0.421180  0.176560  0.446220  1.0  0.1103
  H  H26  1  0.395200  0.243580  0.392420  1.0  0.1086
  H  H27  1  0.279700  0.419520  0.265000  1.0  0.1328
  H  H28  1  0.378240  0.510560  0.157100  1.0  0.1069
  H  H29  1  0.329130  0.484340  0.227240  1.0  0.1135
  H  H30  1  0.347680  0.333333  0.184030  1.0  0.1153
  H  H31  1  0.398370  0.359170  0.114850  1.0  0.1116
  H  H32  1  0.227120  0.714820  0.913760  1.0  0.1405
  H  H33  1  0.331450  0.614180  0.007390  1.0  0.1046
  H  H34  1  0.263220  0.665560  0.980410  1.0  0.1114
  H  H35  1  0.370230  0.586720  0.856190  1.0  0.1101
  H  H36  1  0.302790  0.639440  0.829560  1.0  0.1086
  H  H37  1  0.069190  0.727320  0.768320  1.0  0.1394
  H  H38  1  0.975560  0.831630  0.868960  1.0  0.1057
  H  H39  1  0.002540  0.763410  0.817580  1.0  0.1106
  H  H40  1  0.126760  0.870420  0.896420  1.0  0.11
  H  H41  1  0.153390  0.802980  0.843700  1.0  0.1104
  H  H42  1  0.214630  0.569380  0.755820  1.0  0.14
  H  H43  1  0.113990  0.475750  0.651500  1.0  0.1067
  H  H44  1  0.165370  0.502730  0.719730  1.0  0.1132
  H  H45  1  0.139250  0.653580  0.680160  1.0  0.1127
  H  H46  1  0.086530  0.626950  0.612720  1.0  0.111
  H  H47  1  0.717950  0.779890  0.063620  1.0  0.1354
  H  H48  1  0.825850  0.878440  0.972580  1.0  0.1045
  H  H49  1  0.755710  0.829330  0.998810  1.0  0.1114
  H  H50  1  0.868100  0.898560  0.123970  1.0  0.1105
  H  H51  1  0.798920  0.847880  0.149830  1.0  0.1112
  H  H52  1  0.569720  0.756900  0.217130  1.0  0.1376
  H  H53  1  0.476020  0.653250  0.115160  1.0  0.1103
  H  H54  1  0.502390  0.720790  0.167810  1.0  0.1122
  H  H55  1  0.627560  0.618500  0.084290  1.0  0.1107
  H  H56  1  0.653580  0.685320  0.138110  1.0  0.1106
  H  H57  1  0.724690  0.903830  0.241520  1.0  0.1389
  H  H58  1  0.536730  0.921370  0.306570  1.0  0.1119
  H  H59  1  0.590520  0.895390  0.239560  1.0  0.1075
  H  H60  1  0.716470  0.912350  0.333480  1.0  0.1117
  H  H61  1  0.663020  0.938410  0.400820  1.0  0.1091
  H  H62  1  0.741430  0.224880  0.579310  1.0  0.1399
  H  H63  1  0.582120  0.163210  0.544730  1.0  0.1067
  H  H64  1  0.649470  0.216660  0.570790  1.0  0.1146
  H  H65  1  0.676370  0.036920  0.561770  1.0  0.1127
  H  H66  1  0.743390  0.090720  0.587740  1.0  0.1075
  H  H67  1  0.919330  0.218140  0.703250  1.0  0.1342
  H  H68  1  0.010370  0.326050  0.604710  1.0  0.1068
  H  H69  1  0.984140  0.255900  0.653820  1.0  0.1111
  H  H70  1  0.858980  0.368290  0.584570  1.0  0.1115
  H  H71  1  0.833120  0.299110  0.635260  1.0  0.1122
  H  H72  1  0.765820  0.069910  0.726230  1.0  0.1384
  H  H73  1  0.867790  0.976210  0.829890  1.0  0.111
  H  H74  1  0.815140  0.002580  0.762350  1.0  0.112
  H  H75  1  0.844830  0.153770  0.797820  1.0  0.1145
  H  H76  1  0.898650  0.127750  0.864640  1.0  0.1115
  H  H77  1  0.737860  0.720760  0.577480  1.0  0.1386
  H  H78  1  0.808390  0.534850  0.563230  1.0  0.1109
  H  H79  1  0.740600  0.587090  0.590550  1.0  0.108
  H  H80  1  0.897870  0.663580  0.540070  1.0  0.1065
  H  H81  1  0.829700  0.715470  0.567240  1.0  0.1149
  H  H82  1  0.564940  0.717340  0.707380  1.0  0.1377
  H  H83  1  0.473040  0.825020  0.608940  1.0  0.1066
  H  H84  1  0.499430  0.754990  0.658160  1.0  0.1106
  H  H85  1  0.624460  0.866150  0.586720  1.0  0.1113
  H  H86  1  0.650480  0.796980  0.637360  1.0  0.108
  H  H87  1  0.729300  0.583280  0.742170  1.0  0.139
  H  H88  1  0.665860  0.549700  0.900770  1.0  0.1124
  H  H89  1  0.719350  0.576500  0.833810  1.0  0.1126
  H  H90  1  0.594810  0.584410  0.736880  1.0  0.1061
  H  H91  1  0.540900  0.557820  0.803590  1.0  0.1106
  H  H92  1  0.746970  0.261120  0.077700  1.0  0.1378
  H  H93  1  0.679970  0.448280  0.061030  1.0  0.1113
  H  H94  1  0.747480  0.395130  0.087240  1.0  0.1097
  H  H95  1  0.587270  0.321000  0.042940  1.0  0.108
  H  H96  1  0.655100  0.268230  0.069150  1.0  0.1131
  H  H97  1  0.905250  0.247160  0.222020  1.0  0.136
  H  H98  1  0.921910  0.180160  0.034860  1.0  0.1071
  H  H99  1  0.895710  0.247670  0.088010  1.0  0.1075
  H  H100  1  0.940010  0.087460  0.162150  1.0  0.1085
  H  H101  1  0.913790  0.155290  0.214910  1.0  0.1083
  H  H102  1  0.760930  0.405440  0.235980  1.0  0.1364
  H  H103  1  0.820810  0.440190  0.395680  1.0  0.1081
  H  H104  1  0.768040  0.413980  0.327860  1.0  0.1107
  H  H105  1  0.894940  0.395910  0.235460  1.0  0.1083
  H  H106  1  0.948090  0.422110  0.302980  1.0  0.1107
  H  H107  1  0.240780  0.229490  0.899860  1.0  0.141
  H  H108  1  0.179360  0.041090  0.925320  1.0  0.112
  H  H109  1  0.246070  0.095000  0.898730  1.0  0.1069
  H  H110  1  0.082180  0.166050  0.933450  1.0  0.1123
  H  H111  1  0.149140  0.219550  0.906640  1.0  0.1162
  H  H112  1  0.405470  0.238050  0.762380  1.0  0.1366
  H  H113  1  0.419720  0.308580  0.948290  1.0  0.1087
  H  H114  1  0.392410  0.240790  0.896050  1.0  0.1085
  H  H115  1  0.442870  0.398060  0.819560  1.0  0.1077
  H  H116  1  0.415710  0.329890  0.767660  1.0  0.1093
  H  H117  1  0.275570  0.065130  0.765800  1.0  0.1383
  H  H118  1  0.374010  0.973230  0.658120  1.0  0.1129
  H  H119  1  0.324790  0.999620  0.728150  1.0  0.1115
  H  H120  1  0.345590  0.150670  0.686170  1.0  0.1121
  H  H121  1  0.396240  0.124650  0.616990  1.0  0.111
  H  H122  1  0.217150  0.775770  0.418010  1.0  0.1389
  H  H123  1  0.324830  0.874200  0.509910  1.0  0.1056
  H  H124  1  0.254800  0.824980  0.483520  1.0  0.1131
  H  H125  1  0.365960  0.896430  0.358490  1.0  0.1106
  H  H126  1  0.296780  0.845790  0.332470  1.0  0.1069
  H  H127  1  0.083080  0.740970  0.253650  1.0  0.1373
  H  H128  1  0.057620  0.679550  0.442050  1.0  0.1093
  H  H129  1  0.084210  0.746260  0.388140  1.0  0.1073
  H  H130  1  0.049500  0.582380  0.317090  1.0  0.1136
  H  H131  1  0.076310  0.649340  0.263600  1.0  0.1102
  H  H132  1  0.220570  0.905650  0.245090  1.0  0.1381
  H  H133  1  0.163390  0.943070  0.085080  1.0  0.1078
  H  H134  1  0.215290  0.915910  0.153250  1.0  0.1127
  H  H135  1  0.086900  0.892590  0.242350  1.0  0.1081
  H  H136  1  0.034660  0.919910  0.174560  1.0  0.1102
  C  C137  1  0.130500  0.388060  0.433260  1.0  -0.0945
  C  C138  1  0.209140  0.327380  0.403160  1.0  0.1327
  C  C139  1  0.281130  0.302230  0.348770  1.0  0.098
  C  C140  1  0.159940  0.363830  0.468030  1.0  -0.0914
  C  C141  1  0.198600  0.333730  0.453070  1.0  -0.1084
  C  C142  1  0.140690  0.381290  0.383110  1.0  -0.0818
  C  C143  1  0.179410  0.350940  0.368180  1.0  -0.112
  C  C144  1  0.431530  0.123970  0.387410  1.0  -0.0855
  C  C145  1  0.400560  0.201180  0.325450  1.0  0.1527
  C  C146  1  0.349990  0.276280  0.303220  1.0  0.0941
  C  C147  1  0.428460  0.117140  0.336350  1.0  -0.0837
  C  C148  1  0.413630  0.155540  0.305740  1.0  -0.0655
  C  C149  1  0.418940  0.170000  0.407100  1.0  -0.0915
  C  C150  1  0.403560  0.208230  0.376420  1.0  -0.158
  C  C151  1  0.392610  0.436920  0.130560  1.0  -0.0957
  C  C152  1  0.372380  0.471690  0.162810  1.0  -0.0918
  C  C153  1  0.344390  0.456780  0.203020  1.0  -0.1206
  C  C154  1  0.336020  0.406880  0.212230  1.0  0.1328
  C  C155  1  0.355430  0.371930  0.179580  1.0  -0.1228
  C  C156  1  0.383900  0.386820  0.139420  1.0  -0.0843
  C  C157  1  0.309630  0.349950  0.282380  1.0  0.0938
  C  C158  1  0.356110  0.595910  0.933930  1.0  -0.0974
  C  C159  1  0.276590  0.655160  0.903070  1.0  0.1362
  C  C160  1  0.205090  0.680350  0.847620  1.0  0.1076
  C  C161  1  0.325340  0.618840  0.968410  1.0  -0.0826
  C  C162  1  0.286240  0.648190  0.953090  1.0  -0.1118
  C  C163  1  0.346810  0.603270  0.883680  1.0  -0.0846
  C  C164  1  0.307690  0.632950  0.868370  1.0  -0.1174
  C  C165  1  0.049020  0.856300  0.887230  1.0  -0.0988
  C  C166  1  0.079880  0.776790  0.827980  1.0  0.1371
  C  C167  1  0.135330  0.705280  0.802790  1.0  0.1058
  C  C168  1  0.014540  0.825530  0.864300  1.0  -0.0842
  C  C169  1  0.029860  0.786430  0.834950  1.0  -0.1109
  C  C170  1  0.099260  0.847000  0.879870  1.0  -0.0844
  C  C171  1  0.114580  0.807880  0.850190  1.0  -0.1186
  C  C172  1  0.095720  0.549210  0.626840  1.0  -0.0987
  C  C173  1  0.118650  0.514730  0.657610  1.0  -0.0942
  C  C174  1  0.148000  0.530050  0.696700  1.0  -0.1169
  C  C175  1  0.154970  0.580070  0.706350  1.0  0.1358
  C  C176  1  0.132760  0.614770  0.675260  1.0  -0.1205
  C  C177  1  0.103080  0.599460  0.636140  1.0  -0.0884
  C  C178  1  0.180160  0.635520  0.777860  1.0  0.1063
  C  C179  1  0.852380  0.892800  0.046220  1.0  -0.0951
  C  C180  1  0.770710  0.836210  0.076260  1.0  0.133
  C  C181  1  0.700570  0.809820  0.133190  1.0  0.092
  C  C182  1  0.820130  0.872570  0.011450  1.0  -0.0906
  C  C183  1  0.779920  0.844580  0.026360  1.0  -0.1102
  C  C184  1  0.843520  0.884090  0.096320  1.0  -0.079
  C  C185  1  0.803370  0.855630  0.111210  1.0  -0.1191
  C  C186  1  0.549690  0.630690  0.095080  1.0  -0.0944
  C  C187  1  0.579790  0.709330  0.155750  1.0  0.1326
  C  C188  1  0.634180  0.781320  0.180910  1.0  0.0978
  C  C189  1  0.514920  0.660130  0.119300  1.0  -0.0929
  C  C190  1  0.529880  0.698790  0.149410  1.0  -0.1087
  C  C191  1  0.599840  0.640880  0.101850  1.0  -0.0835
  C  C192  1  0.614770  0.679600  0.132190  1.0  -0.113
  C  C193  1  0.595540  0.931720  0.359170  1.0  -0.0855
  C  C194  1  0.575850  0.919130  0.313140  1.0  -0.0934
  C  C195  1  0.606520  0.903750  0.274910  1.0  -0.157
  C  C196  1  0.657500  0.900750  0.281960  1.0  0.1506
  C  C197  1  0.677210  0.913820  0.327600  1.0  -0.0649
  C  C198  1  0.646590  0.928650  0.366000  1.0  -0.0781
  C  C199  1  0.679720  0.850180  0.206860  1.0  0.0969
  C  C200  1  0.623770  0.095730  0.551420  1.0  -0.0865
  C  C201  1  0.700990  0.157690  0.582380  1.0  0.1529
  C  C202  1  0.776080  0.179920  0.632960  1.0  0.0994
  C  C203  1  0.616950  0.146790  0.554490  1.0  -0.0813
  C  C204  1  0.655340  0.177400  0.569330  1.0  -0.0693
  C  C205  1  0.669810  0.076040  0.564010  1.0  -0.0967
  C  C206  1  0.708030  0.106720  0.579390  1.0  -0.1557
  C  C207  1  0.936730  0.352580  0.590340  1.0  -0.0955
  C  C208  1  0.906690  0.270900  0.646930  1.0  0.1338
  C  C209  1  0.849760  0.200760  0.673320  1.0  0.092
  C  C210  1  0.971500  0.320330  0.610570  1.0  -0.0888
  C  C211  1  0.956590  0.280120  0.638560  1.0  -0.1121
  C  C212  1  0.886630  0.343720  0.599050  1.0  -0.0808
  C  C213  1  0.871740  0.303560  0.627510  1.0  -0.129
  C  C214  1  0.887870  0.049880  0.852450  1.0  -0.0948
  C  C215  1  0.863640  0.015120  0.823010  1.0  -0.0982
  C  C216  1  0.833540  0.030070  0.784350  1.0  -0.1125
  C  C217  1  0.827190  0.079980  0.773810  1.0  0.1327
  C  C218  1  0.850750  0.114960  0.803540  1.0  -0.1142
  C  C219  1  0.881100  0.100030  0.842260  1.0  -0.0879
  C  C220  1  0.802030  0.134370  0.701820  1.0  0.0962
  C  C221  1  0.858620  0.595050  0.549620  1.0  -0.0909
  C  C222  1  0.780550  0.655190  0.582000  1.0  0.1552
  C  C223  1  0.705970  0.677120  0.633780  1.0  0.0811
  C  C224  1  0.813740  0.574190  0.564380  1.0  -0.097
  C  C225  1  0.775110  0.603970  0.580540  1.0  -0.1573
  C  C226  1  0.863950  0.646310  0.551470  1.0  -0.0824
  C  C227  1  0.825100  0.676020  0.566960  1.0  -0.075
  C  C228  1  0.546670  0.851020  0.593510  1.0  -0.0937
  C  C229  1  0.576870  0.769440  0.650200  1.0  0.1349
  C  C230  1  0.633920  0.699380  0.676290  1.0  0.1128
  C  C231  1  0.511950  0.819070  0.614330  1.0  -0.0895
  C  C232  1  0.526940  0.778920  0.642400  1.0  -0.115
  C  C233  1  0.596810  0.841860  0.601660  1.0  -0.0845
  C  C234  1  0.611780  0.801730  0.630120  1.0  -0.1254
  C  C235  1  0.598990  0.551890  0.857650  1.0  -0.0911
  C  C236  1  0.649700  0.557610  0.865350  1.0  -0.0815
  C  C237  1  0.680360  0.572890  0.827170  1.0  -0.062
  C  C238  1  0.661040  0.583730  0.780770  1.0  0.1524
  C  C239  1  0.610440  0.577920  0.772780  1.0  -0.1312
  C  C240  1  0.579710  0.562160  0.810860  1.0  -0.0814
  C  C241  1  0.683030  0.634280  0.705410  1.0  0.1112
  C  C242  1  0.628120  0.388910  0.050120  1.0  -0.0904
  C  C243  1  0.705870  0.327740  0.081310  1.0  0.152
  C  C244  1  0.779950  0.304860  0.133280  1.0  0.1147
  C  C245  1  0.673850  0.409080  0.063070  1.0  -0.087
  C  C246  1  0.712350  0.378790  0.078590  1.0  -0.1526
  C  C247  1  0.621850  0.337780  0.052970  1.0  -0.0862
  C  C248  1  0.660520  0.307570  0.067900  1.0  -0.0661
  C  C249  1  0.932830  0.128310  0.094240  1.0  -0.09
  C  C250  1  0.901640  0.206060  0.155400  1.0  0.1514
  C  C251  1  0.849670  0.280150  0.178280  1.0  0.1164
  C  C252  1  0.919880  0.174040  0.074060  1.0  -0.0807
  C  C253  1  0.904360  0.212540  0.104350  1.0  -0.1541
  C  C254  1  0.929980  0.122040  0.145360  1.0  -0.0868
  C  C255  1  0.915050  0.160710  0.175570  1.0  -0.0614
  C  C256  1  0.888710  0.433020  0.354830  1.0  -0.09
  C  C257  1  0.837590  0.430160  0.361100  1.0  -0.0835
  C  C258  1  0.807380  0.415240  0.322430  1.0  -0.063
  C  C259  1  0.827550  0.401830  0.277080  1.0  0.1498
  C  C260  1  0.878600  0.404550  0.270600  1.0  -0.1506
  C  C261  1  0.908890  0.420070  0.309090  1.0  -0.0831
  C  C262  1  0.804670  0.349860  0.202990  1.0  0.1158
  C  C263  1  0.125290  0.099180  0.931250  1.0  -0.0884
  C  C264  1  0.202180  0.161230  0.899410  1.0  0.1524
  C  C265  1  0.277540  0.183220  0.848860  1.0  0.1124
  C  C266  1  0.172080  0.079910  0.920980  1.0  -0.0905
  C  C267  1  0.210160  0.110630  0.905220  1.0  -0.1541
  C  C268  1  0.117600  0.149890  0.925540  1.0  -0.0856
  C  C269  1  0.155780  0.180550  0.910250  1.0  -0.0696
  C  C270  1  0.433330  0.358810  0.888090  1.0  -0.0919
  C  C271  1  0.400950  0.280740  0.827950  1.0  0.1547
  C  C272  1  0.349170  0.206160  0.806020  1.0  0.0781
  C  C273  1  0.418570  0.313930  0.908940  1.0  -0.0929
  C  C274  1  0.402410  0.275300  0.879170  1.0  -0.1573
  C  C275  1  0.431470  0.364140  0.836820  1.0  -0.0867
  C  C276  1  0.415990  0.325290  0.807120  1.0  -0.0717
  C  C277  1  0.389440  0.046850  0.632110  1.0  -0.0954
  C  C278  1  0.368620  0.012130  0.664070  1.0  -0.0951
  C  C279  1  0.340550  0.027130  0.704220  1.0  -0.122
  C  C280  1  0.332750  0.077060  0.713700  1.0  0.135
  C  C281  1  0.352830  0.111970  0.681420  1.0  -0.1281
  C  C282  1  0.381290  0.097000  0.641280  1.0  -0.0883
  C  C283  1  0.306660  0.134110  0.783760  1.0  0.1132
  C  C284  1  0.350830  0.889630  0.436280  1.0  -0.0958
  C  C285  1  0.269240  0.832940  0.406080  1.0  0.1341
  C  C286  1  0.199190  0.806850  0.349030  1.0  0.112
  C  C287  1  0.318880  0.868810  0.471000  1.0  -0.0887
  C  C288  1  0.278730  0.840740  0.456010  1.0  -0.1158
  C  C289  1  0.341670  0.881480  0.386140  1.0  -0.0832
  C  C290  1  0.301530  0.853030  0.371160  1.0  -0.1239
  C  C291  1  0.051700  0.625490  0.383960  1.0  -0.0881
  C  C292  1  0.083530  0.702370  0.321910  1.0  0.1523
  C  C293  1  0.134090  0.777730  0.299920  1.0  0.1114
  C  C294  1  0.061970  0.672280  0.403240  1.0  -0.0858
  C  C295  1  0.077720  0.710360  0.372520  1.0  -0.1334
  C  C296  1  0.057410  0.617790  0.333250  1.0  -0.0876
  C  C297  1  0.072700  0.655980  0.302590  1.0  -0.0651
  C  C298  1  0.094860  0.933520  0.124330  1.0  -0.0925
  C  C299  1  0.146130  0.931670  0.118990  1.0  -0.0793
  C  C300  1  0.175830  0.916180  0.157840  1.0  -0.0828
  C  C301  1  0.155000  0.901140  0.202400  1.0  0.154
  C  C302  1  0.103780  0.902600  0.207840  1.0  -0.1551
  C  C303  1  0.074000  0.918760  0.169210  1.0  -0.0952
  C  C304  1  0.176930  0.849360  0.276970  1.0  0.0781
  C  C305  1  0.084880  0.066940  0.948480  1.0  0.6867
  C  C306  1  0.919140  0.033560  0.893940  1.0  0.6679
  C  C307  1  0.032240  0.898030  0.917970  1.0  0.6885
  C  C308  1  0.894960  0.922520  0.029890  1.0  0.6784
  C  C309  1  0.949960  0.087590  0.062400  1.0  0.6924
  C  C310  1  0.063520  0.951550  0.083630  1.0  0.694
  C  C311  1  0.393470  0.919270  0.452690  1.0  0.6807
  C  C312  1  0.530260  0.893660  0.563870  1.0  0.6811
  C  C313  1  0.563300  0.948800  0.399590  1.0  0.6919
  C  C314  1  0.583360  0.063490  0.534340  1.0  0.691
  C  C315  1  0.419080  0.030450  0.589470  1.0  0.6822
  C  C316  1  0.448610  0.083550  0.419650  1.0  0.6918
  C  C317  1  0.953060  0.395150  0.560620  1.0  0.6799
  C  C318  1  0.089010  0.419340  0.449580  1.0  0.667
  C  C319  1  0.920550  0.450160  0.395550  1.0  0.6934
  C  C320  1  0.034470  0.585070  0.416200  1.0  0.6872
  C  C321  1  0.064980  0.532430  0.585110  1.0  0.6893
  C  C322  1  0.899320  0.563710  0.531590  1.0  0.6917
  C  C323  1  0.451360  0.399510  0.919430  1.0  0.6934
  C  C324  1  0.397840  0.565170  0.950710  1.0  0.6875
  C  C325  1  0.422320  0.453250  0.087990  1.0  0.68
  C  C326  1  0.533370  0.589200  0.063800  1.0  0.6676
  C  C327  1  0.566750  0.534660  0.898060  1.0  0.6876
  C  C328  1  0.587400  0.420740  0.032980  1.0  0.6927
  N  N329  1  0.248230  0.294700  0.389230  1.0  0.1017
  N  N330  1  0.277770  0.342750  0.320010  1.0  -0.4247
  N  N331  1  0.387330  0.240610  0.292950  1.0  0.1413
  N  N332  1  0.317340  0.269100  0.340200  1.0  -0.4117
  N  N333  1  0.305110  0.393440  0.252940  1.0  0.0879
  N  N334  1  0.345890  0.316690  0.274320  1.0  -0.4081
  N  N335  1  0.237040  0.687270  0.888980  1.0  0.0823
  N  N336  1  0.211320  0.642190  0.816190  1.0  -0.4387
  N  N337  1  0.093970  0.737240  0.795860  1.0  0.0828
  N  N338  1  0.166760  0.711510  0.840950  1.0  -0.4388
  N  N339  1  0.187080  0.594160  0.745900  1.0  0.0856
  N  N340  1  0.142000  0.666950  0.771630  1.0  -0.4386
  N  N341  1  0.730010  0.805300  0.089700  1.0  0.0885
  N  N342  1  0.708630  0.846080  0.166450  1.0  -0.4074
  N  N343  1  0.593720  0.748420  0.188440  1.0  0.1017
  N  N344  1  0.662940  0.777960  0.140390  1.0  -0.4271
  N  N345  1  0.690000  0.887520  0.242530  1.0  0.1409
  N  N346  1  0.642740  0.817530  0.214040  1.0  -0.4101
  N  N347  1  0.740410  0.190190  0.595620  1.0  0.1255
  N  N348  1  0.768910  0.142940  0.665610  1.0  -0.4101
  N  N349  1  0.893250  0.230200  0.677830  1.0  0.0919
  N  N350  1  0.816500  0.208820  0.637060  1.0  -0.4099
  N  N351  1  0.794510  0.093910  0.734720  1.0  0.1
  N  N352  1  0.842560  0.163130  0.705180  1.0  -0.4255
  N  N353  1  0.740360  0.686780  0.595080  1.0  0.1252
  N  N354  1  0.714800  0.641620  0.667690  1.0  -0.4281
  N  N355  1  0.590530  0.728890  0.681240  1.0  0.116
  N  N356  1  0.665510  0.705870  0.638290  1.0  -0.4338
  N  N357  1  0.693760  0.597670  0.741740  1.0  0.1262
  N  N358  1  0.642860  0.663470  0.709650  1.0  -0.4103
  N  N359  1  0.745580  0.295580  0.094470  1.0  0.1211
  N  N360  1  0.773220  0.342750  0.164990  1.0  -0.3999
  N  N361  1  0.888480  0.245770  0.187560  1.0  0.1234
  N  N362  1  0.817960  0.273410  0.140390  1.0  -0.3969
  N  N363  1  0.795390  0.388670  0.237370  1.0  0.1218
  N  N364  1  0.842560  0.318150  0.209730  1.0  -0.4134
  N  N365  1  0.241210  0.193950  0.885470  1.0  0.1221
  N  N366  1  0.273300  0.143050  0.819670  1.0  -0.4114
  N  N367  1  0.387870  0.240550  0.796360  1.0  0.1304
  N  N368  1  0.315260  0.214990  0.841520  1.0  -0.4286
  N  N369  1  0.301710  0.090720  0.754250  1.0  0.116
  N  N370  1  0.344660  0.165700  0.777270  1.0  -0.4329
  N  N371  1  0.228700  0.801900  0.392420  1.0  0.1161
  N  N372  1  0.205680  0.844850  0.317440  1.0  -0.4303
  N  N373  1  0.097470  0.741400  0.289190  1.0  0.1268
  N  N374  1  0.163280  0.773490  0.340090  1.0  -0.4117
  N  N375  1  0.186590  0.888060  0.242580  1.0  0.1302
  N  N376  1  0.141430  0.815450  0.268150  1.0  -0.4256
  O  O377  1  0.991070  0.993450  0.989480  1.0  -1.2625
  O  O378  1  0.094040  0.022770  0.960340  1.0  -0.6323
  O  O379  1  0.943280  0.064830  0.918700  1.0  -0.6301
  O  O380  1  0.986790  0.908070  0.919590  1.0  -0.6302
  O  O381  1  0.041630  0.084120  0.951350  1.0  -0.6268
  O  O382  1  0.063200  0.923140  0.942160  1.0  -0.6326
  O  O383  1  0.921110  0.988210  0.904270  1.0  -0.6255
  O  O384  1  0.919750  0.946760  0.061010  1.0  -0.6335
  O  O385  1  0.961150  0.096290  0.017990  1.0  -0.6236
  O  O386  1  0.905850  0.923440  0.984630  1.0  -0.6232
  O  O387  1  0.953430  0.044590  0.080100  1.0  -0.6328
  O  O388  1  0.019210  0.963140  0.092270  1.0  -0.6275
  O  O389  1  0.081510  0.955400  0.040770  1.0  -0.6357
  O  O390  1  0.489760  0.989950  0.493190  1.0  -1.274
  O  O391  1  0.418940  0.942750  0.421490  1.0  -0.6326
  O  O392  1  0.484880  0.904030  0.562330  1.0  -0.6268
  O  O393  1  0.580730  0.952580  0.442660  1.0  -0.6289
  O  O394  1  0.403840  0.920810  0.498070  1.0  -0.626
  O  O395  1  0.518890  0.959740  0.390560  1.0  -0.6271
  O  O396  1  0.561460  0.919130  0.540390  1.0  -0.6311
  O  O397  1  0.540290  0.080920  0.530560  1.0  -0.6293
  O  O398  1  0.420620  0.985070  0.579110  1.0  -0.6279
  O  O399  1  0.592390  0.019080  0.523400  1.0  -0.6301
  O  O400  1  0.442550  0.061650  0.564010  1.0  -0.6283
  O  O401  1  0.459550  0.092580  0.464060  1.0  -0.627
  O  O402  1  0.452390  0.040480  0.402220  1.0  -0.6305
  O  O403  1  0.993470  0.491260  0.489690  1.0  -1.2628
  O  O404  1  0.921940  0.419940  0.536380  1.0  -0.6299
  O  O405  1  0.078680  0.421300  0.494930  1.0  -0.6228
  O  O406  1  0.964960  0.461340  0.386850  1.0  -0.6269
  O  O407  1  0.998320  0.406050  0.559700  1.0  -0.6244
  O  O408  1  0.902850  0.453620  0.438550  1.0  -0.6315
  O  O409  1  0.064250  0.443470  0.418310  1.0  -0.63
  O  O410  1  0.022610  0.594230  0.460370  1.0  -0.6291
  O  O411  1  0.063360  0.486980  0.575060  1.0  -0.631
  O  O412  1  0.031600  0.541820  0.399020  1.0  -0.6267
  O  O413  1  0.040790  0.563390  0.560000  1.0  -0.6329
  O  O414  1  0.942180  0.581700  0.527740  1.0  -0.6354
  O  O415  1  0.890680  0.519400  0.520000  1.0  -0.6296
  O  O416  1  0.493260  0.493660  0.991880  1.0  -1.2625
  O  O417  1  0.462950  0.390870  0.963740  1.0  -0.6272
  O  O418  1  0.422950  0.540980  0.919750  1.0  -0.6337
  O  O419  1  0.423250  0.498510  0.077090  1.0  -0.6255
  O  O420  1  0.455210  0.442370  0.901440  1.0  -0.6385
  O  O421  1  0.446570  0.422130  0.063190  1.0  -0.6318
  O  O422  1  0.407890  0.563550  0.996160  1.0  -0.6297
  O  O423  1  0.564640  0.564440  0.039660  1.0  -0.6291
  O  O424  1  0.522580  0.522800  0.888910  1.0  -0.6299
  O  O425  1  0.488020  0.578870  0.061840  1.0  -0.6234
  O  O426  1  0.583930  0.531790  0.941320  1.0  -0.6265
  O  O427  1  0.596100  0.465150  0.021800  1.0  -0.6283
  O  O428  1  0.544400  0.403040  0.029510  1.0  -0.6308
