# generated using pymatgen
data_GaH4(C3O2)4
_symmetry_space_group_name_H-M   'P 1'
_cell_length_a   17.28680000
_cell_length_b   17.28680000
_cell_length_c   17.28680000
_cell_angle_alpha   109.47100000
_cell_angle_beta   109.47100000
_cell_angle_gamma   109.47100000
_symmetry_Int_Tables_number   1
_chemical_formula_structural   GaH4(C3O2)4
_chemical_formula_sum   'Ga6 H24 C72 O48'
_cell_volume   3976.72426438
_cell_formula_units_Z   6
loop_
 _symmetry_equiv_pos_site_id
 _symmetry_equiv_pos_as_xyz
  1  'x, y, z'
loop_
 _atom_site_type_symbol
 _atom_site_label
 _atom_site_symmetry_multiplicity
 _atom_site_fract_x
 _atom_site_fract_y
 _atom_site_fract_z
 _atom_site_occupancy
 _atom_site_charge
  Ga  Ga1  1  0.375000  0.750000  0.125000  1.0  1.6491
  Ga  Ga2  1  0.125000  0.250000  0.375000  1.0  1.6506
  Ga  Ga3  1  0.750000  0.625000  0.875000  1.0  1.6506
  Ga  Ga4  1  0.625000  0.375000  0.250000  1.0  1.6506
  Ga  Ga5  1  0.250000  0.875000  0.625000  1.0  1.6506
  Ga  Ga6  1  0.875000  0.125000  0.750000  1.0  1.6491
  H  H7  1  0.040900  0.020400  0.673100  1.0  0.1087
  H  H8  1  0.540900  0.673100  0.020400  1.0  0.1083
  H  H9  1  0.959100  0.979500  0.132200  1.0  0.1082
  H  H10  1  0.673100  0.520400  0.040900  1.0  0.1069
  H  H11  1  0.459100  0.132200  0.979500  1.0  0.1084
  H  H12  1  0.152700  0.520500  0.479600  1.0  0.1087
  H  H13  1  0.847300  0.367800  0.826900  1.0  0.1082
  H  H14  1  0.520400  0.540900  0.173100  1.0  0.1083
  H  H15  1  0.479500  0.459100  0.632200  1.0  0.108
  H  H16  1  0.132200  0.479500  0.959100  1.0  0.1087
  H  H17  1  0.347300  0.826900  0.367800  1.0  0.1075
  H  H18  1  0.979600  0.152700  0.020500  1.0  0.1087
  H  H19  1  0.173100  0.040900  0.520400  1.0  0.1079
  H  H20  1  0.020500  0.652700  0.979600  1.0  0.1094
  H  H21  1  0.652700  0.479600  0.520500  1.0  0.1075
  H  H22  1  0.632200  0.959100  0.479500  1.0  0.1079
  H  H23  1  0.979500  0.632200  0.459100  1.0  0.1083
  H  H24  1  0.520500  0.979600  0.652700  1.0  0.1085
  H  H25  1  0.367800  0.326900  0.347300  1.0  0.1082
  H  H26  1  0.326900  0.847300  0.867800  1.0  0.1092
  H  H27  1  0.867800  0.347300  0.326900  1.0  0.1098
  H  H28  1  0.020400  0.173100  0.540900  1.0  0.1076
  H  H29  1  0.826900  0.867800  0.847300  1.0  0.1086
  H  H30  1  0.479600  0.020500  0.152700  1.0  0.1077
  C  C31  1  0.873010  0.021570  0.835340  1.0  0.6729
  C  C32  1  0.164660  0.686230  0.537670  1.0  0.6695
  C  C33  1  0.635680  0.544840  0.057300  1.0  0.0025
  C  C34  1  0.024040  0.102650  0.613690  1.0  -0.1634
  C  C35  1  0.057300  0.044840  0.635680  1.0  -0.0002
  C  C36  1  0.364320  0.909160  0.921620  1.0  0.0032
  C  C37  1  0.864320  0.921620  0.909160  1.0  0.0022
  C  C38  1  0.011040  0.421390  0.397350  1.0  -0.1633
  C  C39  1  0.021570  0.335340  0.373010  1.0  0.6707
  C  C40  1  0.186230  0.664660  0.037670  1.0  0.6706
  C  C41  1  0.335340  0.873010  0.521570  1.0  0.6708
  C  C42  1  0.835340  0.521570  0.873010  1.0  0.672
  C  C43  1  0.037670  0.164660  0.186230  1.0  0.6708
  C  C44  1  0.648560  0.626990  0.962330  1.0  0.6722
  C  C45  1  0.126990  0.148560  0.462330  1.0  0.6718
  C  C46  1  0.975960  0.078610  0.089650  1.0  -0.1602
  C  C47  1  0.537670  0.186230  0.164660  1.0  0.6708
  C  C48  1  0.851440  0.813770  0.978430  1.0  0.671
  C  C49  1  0.921390  0.511040  0.897350  1.0  -0.1633
  C  C50  1  0.386310  0.988960  0.910350  1.0  -0.1658
  C  C51  1  0.462330  0.648560  0.126990  1.0  0.6707
  C  C52  1  0.910350  0.488960  0.386310  1.0  -0.165
  C  C53  1  0.512460  0.955160  0.590840  1.0  0.0037
  C  C54  1  0.148560  0.962330  0.626990  1.0  0.6694
  C  C55  1  0.921620  0.409160  0.364320  1.0  0.0037
  C  C56  1  0.373010  0.835340  0.021570  1.0  0.6709
  C  C57  1  0.078380  0.487540  0.942700  1.0  0.0057
  C  C58  1  0.313770  0.351440  0.478430  1.0  0.6703
  C  C59  1  0.421390  0.897350  0.511040  1.0  -0.1638
  C  C60  1  0.351440  0.978430  0.813770  1.0  0.673
  C  C61  1  0.886310  0.910350  0.988960  1.0  -0.1647
  C  C62  1  0.044840  0.135680  0.557300  1.0  0.003
  C  C63  1  0.978430  0.313770  0.851440  1.0  0.6695
  C  C64  1  0.102650  0.113690  0.524040  1.0  -0.1632
  C  C65  1  0.557300  0.635680  0.044840  1.0  0.0018
  C  C66  1  0.478430  0.851440  0.313770  1.0  0.6715
  C  C67  1  0.113690  0.024040  0.602650  1.0  -0.1621
  C  C68  1  0.544840  0.557300  0.135680  1.0  -1e-04
  C  C69  1  0.397350  0.921390  0.011040  1.0  -0.1629
  C  C70  1  0.455160  0.012460  0.090840  1.0  0.0051
  C  C71  1  0.686230  0.037670  0.664660  1.0  0.6696
  C  C72  1  0.962330  0.126990  0.648560  1.0  0.6708
  C  C73  1  0.475960  0.089650  0.078610  1.0  -0.1603
  C  C74  1  0.613690  0.602650  0.024040  1.0  -0.1631
  C  C75  1  0.626990  0.462330  0.148560  1.0  0.6687
  C  C76  1  0.090840  0.512460  0.455160  1.0  0.0067
  C  C77  1  0.813770  0.478430  0.351440  1.0  0.6717
  C  C78  1  0.487540  0.442700  0.578380  1.0  0.0024
  C  C79  1  0.590840  0.455160  0.512460  1.0  0.0065
  C  C80  1  0.410350  0.386310  0.488960  1.0  -0.1648
  C  C81  1  0.988960  0.410350  0.886310  1.0  -0.1645
  C  C82  1  0.078610  0.589650  0.475960  1.0  -0.1606
  C  C83  1  0.578380  0.942700  0.487540  1.0  0.0045
  C  C84  1  0.897350  0.011040  0.921390  1.0  -0.1641
  C  C85  1  0.942700  0.987540  0.078380  1.0  0.0035
  C  C86  1  0.602650  0.524040  0.113690  1.0  -0.1626
  C  C87  1  0.421620  0.364320  0.409160  1.0  0.0034
  C  C88  1  0.012460  0.590840  0.955160  1.0  0.006
  C  C89  1  0.664660  0.537670  0.686230  1.0  0.6686
  C  C90  1  0.089650  0.578610  0.975960  1.0  -0.1608
  C  C91  1  0.909160  0.421620  0.864320  1.0  0.005
  C  C92  1  0.524040  0.613690  0.102650  1.0  -0.163
  C  C93  1  0.521570  0.373010  0.335340  1.0  0.672
  C  C94  1  0.442700  0.078380  0.987540  1.0  0.0032
  C  C95  1  0.955160  0.090840  0.012460  1.0  0.0058
  C  C96  1  0.589650  0.975960  0.578610  1.0  -0.1608
  C  C97  1  0.488960  0.886310  0.410350  1.0  -0.1653
  C  C98  1  0.409160  0.864320  0.421620  1.0  0.0049
  C  C99  1  0.578610  0.475960  0.589650  1.0  -0.1611
  C  C100  1  0.511040  0.397350  0.421390  1.0  -0.1635
  C  C101  1  0.987540  0.578380  0.442700  1.0  0.0053
  C  C102  1  0.135680  0.057300  0.544840  1.0  0.0019
  O  O103  1  0.904120  0.109430  0.853790  1.0  -0.584
  O  O104  1  0.205310  0.949670  0.595880  1.0  -0.5821
  O  O105  1  0.955380  0.256220  0.329720  1.0  -0.4482
  O  O106  1  0.449670  0.705310  0.095880  1.0  -0.5854
  O  O107  1  0.244360  0.294690  0.390570  1.0  -0.5851
  O  O108  1  0.550330  0.255640  0.146210  1.0  -0.5828
  O  O109  1  0.949670  0.095880  0.705310  1.0  -0.5842
  O  O110  1  0.426500  0.625660  0.170280  1.0  -0.446
  O  O111  1  0.390570  0.794690  0.244360  1.0  -0.5829
  O  O112  1  0.743780  0.573500  0.699160  1.0  -0.4497
  O  O113  1  0.595880  0.449670  0.205310  1.0  -0.584
  O  O114  1  0.109430  0.353790  0.404120  1.0  -0.583
  O  O115  1  0.404120  0.853790  0.109430  1.0  -0.5848
  O  O116  1  0.329720  0.756220  0.955380  1.0  -0.4455
  O  O117  1  0.255640  0.646210  0.050330  1.0  -0.5836
  O  O118  1  0.756220  0.455380  0.829720  1.0  -0.4487
  O  O119  1  0.609430  0.404120  0.353790  1.0  -0.5838
  O  O120  1  0.095880  0.205310  0.449670  1.0  -0.5828
  O  O121  1  0.353790  0.904120  0.609430  1.0  -0.5849
  O  O122  1  0.374340  0.044620  0.800840  1.0  -0.4477
  O  O123  1  0.800840  0.544620  0.374340  1.0  -0.447
  O  O124  1  0.890570  0.244360  0.794690  1.0  -0.5827
  O  O125  1  0.573500  0.199160  0.243780  1.0  -0.4469
  O  O126  1  0.625660  0.670280  0.926500  1.0  -0.4534
  O  O127  1  0.256220  0.829720  0.455380  1.0  -0.4512
  O  O128  1  0.044620  0.300840  0.874340  1.0  -0.4486
  O  O129  1  0.755640  0.050330  0.646210  1.0  -0.5831
  O  O130  1  0.243780  0.699160  0.573500  1.0  -0.4501
  O  O131  1  0.794690  0.744360  0.890570  1.0  -0.5832
  O  O132  1  0.829720  0.955380  0.756220  1.0  -0.449
  O  O133  1  0.125660  0.926500  0.670280  1.0  -0.4473
  O  O134  1  0.670280  0.426500  0.125660  1.0  -0.45
  O  O135  1  0.853790  0.609430  0.904120  1.0  -0.5842
  O  O136  1  0.199160  0.743780  0.073500  1.0  -0.4471
  O  O137  1  0.170280  0.125660  0.426500  1.0  -0.451
  O  O138  1  0.050330  0.146210  0.255640  1.0  -0.5849
  O  O139  1  0.300840  0.374340  0.544620  1.0  -0.4458
  O  O140  1  0.705310  0.595880  0.949670  1.0  -0.584
  O  O141  1  0.646210  0.550330  0.755640  1.0  -0.5844
  O  O142  1  0.744360  0.390570  0.294690  1.0  -0.5834
  O  O143  1  0.874340  0.800840  0.044620  1.0  -0.4466
  O  O144  1  0.699160  0.073500  0.743780  1.0  -0.4477
  O  O145  1  0.294690  0.890570  0.744360  1.0  -0.5838
  O  O146  1  0.146210  0.755640  0.550330  1.0  -0.5823
  O  O147  1  0.455380  0.329720  0.256220  1.0  -0.4539
  O  O148  1  0.073500  0.243780  0.199160  1.0  -0.4437
  O  O149  1  0.926500  0.170280  0.625660  1.0  -0.4514
  O  O150  1  0.544620  0.874340  0.300840  1.0  -0.4506
