# generated using pymatgen
data_CuH12C18N2O5
_symmetry_space_group_name_H-M   'P 1'
_cell_length_a   11.12300000
_cell_length_b   13.06100000
_cell_length_c   21.07300000
_cell_angle_alpha   90.00000000
_cell_angle_beta   90.00000000
_cell_angle_gamma   90.00000000
_symmetry_Int_Tables_number   1
_chemical_formula_structural   CuH12C18N2O5
_chemical_formula_sum   'Cu4 H48 C72 N8 O20'
_cell_volume   3061.43282072
_cell_formula_units_Z   4
loop_
 _symmetry_equiv_pos_site_id
 _symmetry_equiv_pos_as_xyz
  1  'x, y, z'
loop_
 _atom_site_type_symbol
 _atom_site_label
 _atom_site_symmetry_multiplicity
 _atom_site_fract_x
 _atom_site_fract_y
 _atom_site_fract_z
 _atom_site_occupancy
 _atom_site_charge
  Cu  Cu1  1  0.500000  0.644990  0.547350  1.0  0.8236
  Cu  Cu2  1  0.500000  0.855010  0.047350  1.0  0.8239
  Cu  Cu3  1  0.500000  0.355010  0.452650  1.0  0.8238
  Cu  Cu4  1  0.500000  0.144990  0.952650  1.0  0.8238
  H  H5  1  0.298100  0.529100  0.604200  1.0  0.0786
  H  H6  1  0.500000  0.937000  0.658800  1.0  0.348
  H  H7  1  0.093200  0.743500  0.985500  1.0  0.1285
  H  H8  1  0.701900  0.970900  0.104200  1.0  0.0781
  H  H9  1  0.093200  0.756500  0.485500  1.0  0.1292
  H  H10  1  0.500000  0.645500  0.759000  1.0  0.0934
  H  H11  1  0.093200  0.973000  0.107700  1.0  0.1256
  H  H12  1  0.906800  0.756500  0.485500  1.0  0.1294
  H  H13  1  0.500000  0.854500  0.259000  1.0  0.093
  H  H14  1  0.500000  0.514000  0.313900  1.0  0.1122
  H  H15  1  0.703100  0.744600  0.988300  1.0  0.0896
  H  H16  1  0.906800  0.527000  0.607700  1.0  0.1262
  H  H17  1  0.296900  0.744600  0.988300  1.0  0.0897
  H  H18  1  0.500000  0.986000  0.813900  1.0  0.112
  H  H19  1  0.701900  0.529100  0.604200  1.0  0.078
  H  H20  1  0.093200  0.527000  0.607700  1.0  0.1257
  H  H21  1  0.703100  0.755400  0.488300  1.0  0.092
  H  H22  1  0.296900  0.755400  0.488300  1.0  0.0916
  H  H23  1  0.906800  0.743500  0.985500  1.0  0.1287
  H  H24  1  0.500000  0.808300  0.364000  1.0  0.1229
  H  H25  1  0.500000  0.563000  0.158800  1.0  0.3487
  H  H26  1  0.500000  0.691700  0.864000  1.0  0.1233
  H  H27  1  0.298100  0.970900  0.104200  1.0  0.0785
  H  H28  1  0.906800  0.973000  0.107700  1.0  0.1258
  H  H29  1  0.093200  0.243500  0.514500  1.0  0.1288
  H  H30  1  0.500000  0.014000  0.186100  1.0  0.1125
  H  H31  1  0.500000  0.486000  0.686100  1.0  0.1115
  H  H32  1  0.703100  0.255400  0.011700  1.0  0.0907
  H  H33  1  0.296900  0.255400  0.011700  1.0  0.0908
  H  H34  1  0.500000  0.145500  0.741000  1.0  0.0925
  H  H35  1  0.500000  0.437000  0.841200  1.0  0.3496
  H  H36  1  0.500000  0.191700  0.636000  1.0  0.1223
  H  H37  1  0.701900  0.470900  0.395800  1.0  0.077
  H  H38  1  0.500000  0.354500  0.241000  1.0  0.0933
  H  H39  1  0.296900  0.244600  0.511700  1.0  0.0903
  H  H40  1  0.298100  0.470900  0.395800  1.0  0.0771
  H  H41  1  0.703100  0.244600  0.511700  1.0  0.0901
  H  H42  1  0.093200  0.256500  0.014500  1.0  0.1291
  H  H43  1  0.906800  0.256500  0.014500  1.0  0.1292
  H  H44  1  0.906800  0.473000  0.392300  1.0  0.1255
  H  H45  1  0.298100  0.029100  0.895800  1.0  0.0771
  H  H46  1  0.093200  0.027000  0.892300  1.0  0.1249
  H  H47  1  0.701900  0.029100  0.895800  1.0  0.0768
  H  H48  1  0.906800  0.243500  0.514500  1.0  0.1292
  H  H49  1  0.093200  0.473000  0.392300  1.0  0.1256
  H  H50  1  0.500000  0.063000  0.341200  1.0  0.3503
  H  H51  1  0.906800  0.027000  0.892300  1.0  0.1254
  H  H52  1  0.500000  0.308300  0.136000  1.0  0.1221
  C  C53  1  0.132700  0.709300  0.511100  1.0  -0.2118
  C  C54  1  0.067300  0.858200  0.047000  1.0  0.1018
  C  C55  1  0.132300  0.925300  0.082200  1.0  -0.2083
  C  C56  1  0.743900  0.577000  0.580300  1.0  0.1776
  C  C57  1  0.744700  0.707800  0.512700  1.0  0.1671
  C  C58  1  0.132300  0.574700  0.582200  1.0  -0.2089
  C  C59  1  0.867700  0.574700  0.582200  1.0  -0.2085
  C  C60  1  0.500000  0.582900  0.302900  1.0  -0.1134
  C  C61  1  0.500000  0.917100  0.802900  1.0  -0.1143
  C  C62  1  0.932700  0.641800  0.547000  1.0  0.1014
  C  C63  1  0.743900  0.923000  0.080300  1.0  0.1775
  C  C64  1  0.867700  0.925300  0.082200  1.0  -0.2079
  C  C65  1  0.500000  0.620100  0.417700  1.0  0.6556
  C  C66  1  0.500000  0.655400  0.349200  1.0  -0.1437
  C  C67  1  0.500000  0.610900  0.238900  1.0  0.2888
  C  C68  1  0.744700  0.792200  0.012700  1.0  0.1665
  C  C69  1  0.500000  0.744100  0.153900  1.0  0.6963
  C  C70  1  0.500000  0.758200  0.332700  1.0  -0.0645
  C  C71  1  0.500000  0.879900  0.917700  1.0  0.6552
  C  C72  1  0.932700  0.858200  0.047000  1.0  0.1015
  C  C73  1  0.500000  0.714600  0.769600  1.0  -0.0203
  C  C74  1  0.867300  0.709300  0.511100  1.0  -0.2114
  C  C75  1  0.255300  0.707800  0.512700  1.0  0.1674
  C  C76  1  0.256100  0.577000  0.580300  1.0  0.1785
  C  C77  1  0.500000  0.889100  0.738900  1.0  0.2861
  C  C78  1  0.500000  0.755900  0.653900  1.0  0.6971
  C  C79  1  0.500000  0.787000  0.721200  1.0  -0.1584
  C  C80  1  0.132700  0.790700  0.011100  1.0  -0.2099
  C  C81  1  0.500000  0.785400  0.269600  1.0  -0.0204
  C  C82  1  0.255300  0.792200  0.012700  1.0  0.1664
  C  C83  1  0.867300  0.790700  0.011100  1.0  -0.2108
  C  C84  1  0.500000  0.713000  0.221200  1.0  -0.1588
  C  C85  1  0.067300  0.641800  0.547000  1.0  0.1016
  C  C86  1  0.500000  0.741800  0.832700  1.0  -0.0643
  C  C87  1  0.500000  0.844600  0.849200  1.0  -0.1438
  C  C88  1  0.256100  0.923000  0.080300  1.0  0.178
  C  C89  1  0.500000  0.110900  0.261100  1.0  0.2892
  C  C90  1  0.743900  0.077000  0.919700  1.0  0.1793
  C  C91  1  0.867300  0.290700  0.488900  1.0  -0.2116
  C  C92  1  0.744700  0.292200  0.487300  1.0  0.1664
  C  C93  1  0.067300  0.141800  0.953000  1.0  0.1016
  C  C94  1  0.255300  0.207800  0.987300  1.0  0.1671
  C  C95  1  0.500000  0.389100  0.761100  1.0  0.288
  C  C96  1  0.500000  0.417100  0.697100  1.0  -0.1131
  C  C97  1  0.132300  0.425300  0.417800  1.0  -0.2062
  C  C98  1  0.500000  0.213000  0.278800  1.0  -0.1579
  C  C99  1  0.500000  0.379900  0.582300  1.0  0.6554
  C  C100  1  0.500000  0.255900  0.846100  1.0  0.6968
  C  C101  1  0.500000  0.287000  0.778800  1.0  -0.1575
  C  C102  1  0.255300  0.292200  0.487300  1.0  0.1663
  C  C103  1  0.132700  0.209300  0.988900  1.0  -0.212
  C  C104  1  0.932700  0.358200  0.453000  1.0  0.1019
  C  C105  1  0.500000  0.155400  0.150800  1.0  -0.1437
  C  C106  1  0.500000  0.120100  0.082300  1.0  0.6553
  C  C107  1  0.867700  0.425300  0.417800  1.0  -0.2074
  C  C108  1  0.867300  0.209300  0.988900  1.0  -0.211
  C  C109  1  0.744700  0.207800  0.987300  1.0  0.1666
  C  C110  1  0.256100  0.423000  0.419700  1.0  0.1784
  C  C111  1  0.500000  0.082900  0.197100  1.0  -0.113
  C  C112  1  0.132300  0.074700  0.917800  1.0  -0.206
  C  C113  1  0.932700  0.141800  0.953000  1.0  0.1013
  C  C114  1  0.500000  0.241800  0.667300  1.0  -0.064
  C  C115  1  0.132700  0.290700  0.488900  1.0  -0.2109
  C  C116  1  0.743900  0.423000  0.419700  1.0  0.1794
  C  C117  1  0.500000  0.344600  0.650800  1.0  -0.144
  C  C118  1  0.067300  0.358200  0.453000  1.0  0.1022
  C  C119  1  0.256100  0.077000  0.919700  1.0  0.1783
  C  C120  1  0.500000  0.258200  0.167300  1.0  -0.0638
  C  C121  1  0.500000  0.244100  0.346100  1.0  0.6966
  C  C122  1  0.867700  0.074700  0.917800  1.0  -0.2069
  C  C123  1  0.500000  0.214600  0.730400  1.0  -0.0199
  C  C124  1  0.500000  0.285400  0.230400  1.0  -0.0199
  N  N125  1  0.682500  0.642700  0.546870  1.0  -0.2921
  N  N126  1  0.682500  0.857300  0.046870  1.0  -0.2947
  N  N127  1  0.317500  0.642700  0.546870  1.0  -0.293
  N  N128  1  0.317500  0.857300  0.046870  1.0  -0.2939
  N  N129  1  0.682500  0.357300  0.453130  1.0  -0.2951
  N  N130  1  0.317500  0.142700  0.953130  1.0  -0.2934
  N  N131  1  0.317500  0.357300  0.453130  1.0  -0.294
  N  N132  1  0.682500  0.142700  0.953130  1.0  -0.2924
  O  O133  1  0.500000  0.692100  0.459100  1.0  -0.6144
  O  O134  1  0.500000  0.676600  0.111900  1.0  -0.597
  O  O135  1  0.500000  0.963300  0.694100  1.0  -0.5156
  O  O136  1  0.500000  0.837800  0.141000  1.0  -0.5892
  O  O137  1  0.500000  0.823400  0.611900  1.0  -0.5986
  O  O138  1  0.500000  0.968900  0.930100  1.0  -0.6387
  O  O139  1  0.500000  0.531100  0.430100  1.0  -0.6389
  O  O140  1  0.500000  0.662200  0.641000  1.0  -0.5907
  O  O141  1  0.500000  0.807900  0.959100  1.0  -0.6134
  O  O142  1  0.500000  0.536700  0.194100  1.0  -0.5141
  O  O143  1  0.500000  0.323400  0.888100  1.0  -0.6001
  O  O144  1  0.500000  0.468900  0.569900  1.0  -0.6394
  O  O145  1  0.500000  0.031100  0.069900  1.0  -0.6414
  O  O146  1  0.500000  0.192100  0.040900  1.0  -0.6146
  O  O147  1  0.500000  0.337800  0.359000  1.0  -0.59
  O  O148  1  0.500000  0.176600  0.388100  1.0  -0.5986
  O  O149  1  0.500000  0.307900  0.540900  1.0  -0.6128
  O  O150  1  0.500000  0.463300  0.805900  1.0  -0.5127
  O  O151  1  0.500000  0.036700  0.305900  1.0  -0.5123
  O  O152  1  0.500000  0.162200  0.859000  1.0  -0.5906
