# generated using pymatgen
data_CoH8C9NO5
_symmetry_space_group_name_H-M   'P 1'
_cell_length_a   9.97290000
_cell_length_b   10.27750000
_cell_length_c   23.69500000
_cell_angle_alpha   90.00000000
_cell_angle_beta   90.00000000
_cell_angle_gamma   90.00000000
_symmetry_Int_Tables_number   1
_chemical_formula_structural   CoH8C9NO5
_chemical_formula_sum   'Co8 H64 C72 N8 O40'
_cell_volume   2428.65408768
_cell_formula_units_Z   8
loop_
 _symmetry_equiv_pos_site_id
 _symmetry_equiv_pos_as_xyz
  1  'x, y, z'
loop_
 _atom_site_type_symbol
 _atom_site_label
 _atom_site_symmetry_multiplicity
 _atom_site_fract_x
 _atom_site_fract_y
 _atom_site_fract_z
 _atom_site_occupancy
 _atom_site_charge
  Co  Co1  1  0.987570  0.708920  0.213770  1.0  0.9325
  Co  Co2  1  0.512430  0.208920  0.713770  1.0  0.9329
  Co  Co3  1  0.012430  0.291080  0.786230  1.0  0.9341
  Co  Co4  1  0.487570  0.791080  0.286230  1.0  0.9336
  Co  Co5  1  0.512430  0.708920  0.786230  1.0  0.9332
  Co  Co6  1  0.012430  0.791080  0.713770  1.0  0.9333
  Co  Co7  1  0.987570  0.208920  0.286230  1.0  0.9328
  Co  Co8  1  0.487570  0.291080  0.213770  1.0  0.9329
  H  H9  1  0.029300  0.329700  0.998000  1.0  0.1089
  H  H10  1  0.726500  0.600300  0.162000  1.0  0.0738
  H  H11  1  0.386900  0.755900  0.134000  1.0  0.1051
  H  H12  1  0.886900  0.744100  0.366000  1.0  0.1062
  H  H13  1  0.538700  0.891300  0.133000  1.0  0.0997
  H  H14  1  0.376700  0.920000  0.576400  1.0  0.0974
  H  H15  1  0.574900  0.882100  0.656900  1.0  0.1132
  H  H16  1  0.470700  0.329700  0.002000  1.0  0.1089
  H  H17  1  0.335000  0.613500  0.672300  1.0  0.1085
  H  H18  1  0.386900  0.255900  0.366000  1.0  0.1058
  H  H19  1  0.970700  0.670300  0.002000  1.0  0.1093
  H  H20  1  0.435700  0.690600  0.910800  1.0  0.0817
  H  H21  1  0.226500  0.899700  0.338000  1.0  0.0747
  H  H22  1  0.064300  0.190600  0.410800  1.0  0.0809
  H  H23  1  0.165000  0.113500  0.172300  1.0  0.1064
  H  H24  1  0.123300  0.420000  0.076400  1.0  0.0995
  H  H25  1  0.376700  0.420000  0.923600  1.0  0.0975
  H  H26  1  0.538700  0.391300  0.367000  1.0  0.0997
  H  H27  1  0.564300  0.309400  0.089200  1.0  0.0801
  H  H28  1  0.935700  0.809400  0.589200  1.0  0.081
  H  H29  1  0.038700  0.608700  0.367000  1.0  0.1
  H  H30  1  0.564300  0.809400  0.410800  1.0  0.0809
  H  H31  1  0.273500  0.899700  0.662000  1.0  0.0741
  H  H32  1  0.613100  0.244100  0.866000  1.0  0.1056
  H  H33  1  0.226500  0.399700  0.162000  1.0  0.0739
  H  H34  1  0.064300  0.690600  0.089200  1.0  0.0809
  H  H35  1  0.665000  0.886500  0.172300  1.0  0.1058
  H  H36  1  0.335000  0.113500  0.827700  1.0  0.1089
  H  H37  1  0.425100  0.117900  0.343100  1.0  0.1124
  H  H38  1  0.529300  0.170300  0.502000  1.0  0.1089
  H  H39  1  0.029300  0.829700  0.502000  1.0  0.1086
  H  H40  1  0.074900  0.617900  0.843100  1.0  0.1127
  H  H41  1  0.038700  0.108700  0.133000  1.0  0.0994
  H  H42  1  0.273500  0.399700  0.838000  1.0  0.0745
  H  H43  1  0.435700  0.190600  0.589200  1.0  0.0821
  H  H44  1  0.773500  0.100300  0.662000  1.0  0.074
  H  H45  1  0.835000  0.386500  0.672300  1.0  0.1087
  H  H46  1  0.425100  0.617900  0.156900  1.0  0.1126
  H  H47  1  0.113100  0.755900  0.866000  1.0  0.1054
  H  H48  1  0.574900  0.382100  0.843100  1.0  0.113
  H  H49  1  0.773500  0.600300  0.838000  1.0  0.0747
  H  H50  1  0.529300  0.670300  0.998000  1.0  0.1088
  H  H51  1  0.886900  0.244100  0.134000  1.0  0.1051
  H  H52  1  0.623300  0.080000  0.423600  1.0  0.0995
  H  H53  1  0.470700  0.829700  0.498000  1.0  0.1094
  H  H54  1  0.461300  0.608700  0.633000  1.0  0.1001
  H  H55  1  0.613100  0.744100  0.634000  1.0  0.1048
  H  H56  1  0.623300  0.580000  0.076400  1.0  0.0991
  H  H57  1  0.665000  0.386500  0.327700  1.0  0.1051
  H  H58  1  0.123300  0.920000  0.423600  1.0  0.0994
  H  H59  1  0.925100  0.382100  0.156900  1.0  0.1129
  H  H60  1  0.165000  0.613500  0.327700  1.0  0.1059
  H  H61  1  0.113100  0.255900  0.634000  1.0  0.105
  H  H62  1  0.726500  0.100300  0.338000  1.0  0.0747
  H  H63  1  0.961300  0.391300  0.633000  1.0  0.1002
  H  H64  1  0.461300  0.108700  0.867000  1.0  0.1006
  H  H65  1  0.876700  0.580000  0.923600  1.0  0.0989
  H  H66  1  0.835000  0.886500  0.827700  1.0  0.1095
  H  H67  1  0.876700  0.080000  0.576400  1.0  0.0986
  H  H68  1  0.970700  0.170300  0.498000  1.0  0.1094
  H  H69  1  0.961300  0.891300  0.867000  1.0  0.1004
  H  H70  1  0.935700  0.309400  0.910800  1.0  0.0815
  H  H71  1  0.925100  0.882100  0.343100  1.0  0.1126
  H  H72  1  0.074900  0.117900  0.656900  1.0  0.1128
  C  C73  1  0.986600  0.998300  0.794450  1.0  0.7317
  C  C74  1  0.918100  0.157400  0.466040  1.0  -0.1857
  C  C75  1  0.526200  0.169600  0.586480  1.0  0.1652
  C  C76  1  0.486600  0.001700  0.794450  1.0  0.7327
  C  C77  1  0.473800  0.330400  0.086480  1.0  0.1662
  C  C78  1  0.214400  0.208900  0.705870  1.0  0.7134
  C  C79  1  0.081900  0.842600  0.533960  1.0  -0.1834
  C  C80  1  0.513400  0.998300  0.205550  1.0  0.7307
  C  C81  1  0.275600  0.383100  0.129460  1.0  0.1617
  C  C82  1  0.513400  0.498300  0.294450  1.0  0.7316
  C  C83  1  0.581900  0.157400  0.533960  1.0  -0.183
  C  C84  1  0.973800  0.169600  0.413520  1.0  0.1665
  C  C85  1  0.093100  0.707000  0.832050  1.0  -0.1078
  C  C86  1  0.786800  0.103800  0.577880  1.0  -0.1965
  C  C87  1  0.286800  0.396200  0.922120  1.0  -0.1966
  C  C88  1  0.918100  0.657400  0.033960  1.0  -0.1835
  C  C89  1  0.786800  0.603800  0.922120  1.0  -0.1959
  C  C90  1  0.406900  0.707000  0.167950  1.0  -0.1067
  C  C91  1  0.432200  0.116600  0.828090  1.0  -0.0627
  C  C92  1  0.013400  0.001700  0.205550  1.0  0.732
  C  C93  1  0.473800  0.830400  0.413520  1.0  0.1664
  C  C94  1  0.932200  0.883400  0.828090  1.0  -0.0617
  C  C95  1  0.217100  0.374200  0.971960  1.0  0.0846
  C  C96  1  0.217100  0.874200  0.528040  1.0  0.0848
  C  C97  1  0.275600  0.883100  0.370540  1.0  0.1613
  C  C98  1  0.714400  0.791100  0.705870  1.0  0.7136
  C  C99  1  0.785600  0.291100  0.205870  1.0  0.7126
  C  C100  1  0.713200  0.103800  0.422120  1.0  -0.1956
  C  C101  1  0.567800  0.383400  0.328090  1.0  -0.0615
  C  C102  1  0.593100  0.293000  0.832050  1.0  -0.1083
  C  C103  1  0.213200  0.896200  0.422120  1.0  -0.1955
  C  C104  1  0.785600  0.791100  0.294130  1.0  0.7122
  C  C105  1  0.093100  0.207000  0.667950  1.0  -0.1064
  C  C106  1  0.213200  0.396200  0.077880  1.0  -0.196
  C  C107  1  0.418100  0.342600  0.033960  1.0  -0.1838
  C  C108  1  0.286800  0.896200  0.577880  1.0  -0.1966
  C  C109  1  0.285600  0.208900  0.294130  1.0  0.712
  C  C110  1  0.406900  0.207000  0.332050  1.0  -0.1084
  C  C111  1  0.224400  0.383100  0.870540  1.0  0.1612
  C  C112  1  0.285600  0.708900  0.205870  1.0  0.7125
  C  C113  1  0.067800  0.616600  0.328090  1.0  -0.0604
  C  C114  1  0.526200  0.669600  0.913520  1.0  0.1655
  C  C115  1  0.775600  0.616900  0.129460  1.0  0.1615
  C  C116  1  0.418100  0.842600  0.466040  1.0  -0.1846
  C  C117  1  0.026200  0.330400  0.913520  1.0  0.1659
  C  C118  1  0.067800  0.116600  0.171910  1.0  -0.0603
  C  C119  1  0.224400  0.883100  0.629460  1.0  0.1617
  C  C120  1  0.717100  0.125800  0.528040  1.0  0.0851
  C  C121  1  0.932200  0.383400  0.671910  1.0  -0.0639
  C  C122  1  0.081900  0.342600  0.966040  1.0  -0.1833
  C  C123  1  0.782900  0.125800  0.471960  1.0  0.0848
  C  C124  1  0.724400  0.116900  0.629460  1.0  0.1614
  C  C125  1  0.713200  0.603800  0.077880  1.0  -0.196
  C  C126  1  0.973800  0.669600  0.086480  1.0  0.1667
  C  C127  1  0.581900  0.657400  0.966040  1.0  -0.1852
  C  C128  1  0.026200  0.830400  0.586480  1.0  0.165
  C  C129  1  0.775600  0.116900  0.370540  1.0  0.161
  C  C130  1  0.486600  0.501700  0.705550  1.0  0.7323
  C  C131  1  0.593100  0.793000  0.667950  1.0  -0.106
  C  C132  1  0.432200  0.616600  0.671910  1.0  -0.0616
  C  C133  1  0.282900  0.874200  0.471960  1.0  0.0846
  C  C134  1  0.724400  0.616900  0.870540  1.0  0.1609
  C  C135  1  0.906900  0.293000  0.167950  1.0  -0.1063
  C  C136  1  0.986600  0.498300  0.705550  1.0  0.7313
  C  C137  1  0.214400  0.708900  0.794130  1.0  0.7129
  C  C138  1  0.717100  0.625800  0.971960  1.0  0.0848
  C  C139  1  0.714400  0.291100  0.794130  1.0  0.7128
  C  C140  1  0.906900  0.793000  0.332050  1.0  -0.1086
  C  C141  1  0.282900  0.374200  0.028040  1.0  0.0848
  C  C142  1  0.567800  0.883400  0.171910  1.0  -0.0591
  C  C143  1  0.013400  0.501700  0.294450  1.0  0.7322
  C  C144  1  0.782900  0.625800  0.028040  1.0  0.085
  N  N145  1  0.403600  0.847600  0.365540  1.0  -0.3372
  N  N146  1  0.903600  0.152400  0.365540  1.0  -0.3376
  N  N147  1  0.096400  0.347600  0.865540  1.0  -0.3373
  N  N148  1  0.596400  0.652400  0.865540  1.0  -0.3374
  N  N149  1  0.096400  0.847600  0.634460  1.0  -0.3392
  N  N150  1  0.903600  0.652400  0.134460  1.0  -0.3385
  N  N151  1  0.403600  0.347600  0.134460  1.0  -0.338
  N  N152  1  0.596400  0.152400  0.634460  1.0  -0.339
  O  O153  1  0.199900  0.746400  0.743980  1.0  -0.5767
  O  O154  1  0.972400  0.022300  0.254550  1.0  -0.5694
  O  O155  1  0.320200  0.170400  0.683890  1.0  -0.5792
  O  O156  1  0.024900  0.739600  0.306440  1.0  -0.3535
  O  O157  1  0.981700  0.106400  0.818830  1.0  -0.6132
  O  O158  1  0.975100  0.260400  0.693560  1.0  -0.3528
  O  O159  1  0.475100  0.739600  0.693560  1.0  -0.3523
  O  O160  1  0.527600  0.022300  0.745450  1.0  -0.569
  O  O161  1  0.975100  0.760400  0.806440  1.0  -0.3532
  O  O162  1  0.699900  0.253600  0.743980  1.0  -0.5769
  O  O163  1  0.524900  0.760400  0.193560  1.0  -0.3531
  O  O164  1  0.472400  0.477700  0.245450  1.0  -0.5695
  O  O165  1  0.027600  0.977700  0.745450  1.0  -0.569
  O  O166  1  0.481700  0.393600  0.681170  1.0  -0.6138
  O  O167  1  0.518300  0.606400  0.318830  1.0  -0.6125
  O  O168  1  0.679800  0.829600  0.316110  1.0  -0.5782
  O  O169  1  0.024900  0.239600  0.193560  1.0  -0.3522
  O  O170  1  0.481700  0.893600  0.818830  1.0  -0.6137
  O  O171  1  0.518300  0.106400  0.181170  1.0  -0.6132
  O  O172  1  0.320200  0.670400  0.816110  1.0  -0.5791
  O  O173  1  0.699900  0.753600  0.756020  1.0  -0.5782
  O  O174  1  0.018300  0.393600  0.318830  1.0  -0.613
  O  O175  1  0.027600  0.477700  0.754550  1.0  -0.5688
  O  O176  1  0.820200  0.829600  0.683890  1.0  -0.5791
  O  O177  1  0.679800  0.329600  0.183890  1.0  -0.5784
  O  O178  1  0.800100  0.753600  0.243980  1.0  -0.5769
  O  O179  1  0.199900  0.246400  0.756020  1.0  -0.5782
  O  O180  1  0.300100  0.746400  0.256020  1.0  -0.5781
  O  O181  1  0.981700  0.606400  0.681170  1.0  -0.6138
  O  O182  1  0.300100  0.246400  0.243980  1.0  -0.5767
  O  O183  1  0.179800  0.670400  0.183890  1.0  -0.5784
  O  O184  1  0.524900  0.260400  0.306440  1.0  -0.3536
  O  O185  1  0.972400  0.522300  0.245450  1.0  -0.5697
  O  O186  1  0.800100  0.253600  0.256020  1.0  -0.5781
  O  O187  1  0.179800  0.170400  0.316110  1.0  -0.5782
  O  O188  1  0.018300  0.893600  0.181170  1.0  -0.6132
  O  O189  1  0.475100  0.239600  0.806440  1.0  -0.353
  O  O190  1  0.527600  0.522300  0.754550  1.0  -0.5692
  O  O191  1  0.472400  0.977700  0.254550  1.0  -0.5689
  O  O192  1  0.820200  0.329600  0.816110  1.0  -0.5789
