# generated using pymatgen
data_VPH4C3O5
_symmetry_space_group_name_H-M   'P 1'
_cell_length_a   6.38460000
_cell_length_b   8.99960000
_cell_length_c   16.77220000
_cell_angle_alpha   90.00000000
_cell_angle_beta   90.00000000
_cell_angle_gamma   100.12100000
_symmetry_Int_Tables_number   1
_chemical_formula_structural   VPH4C3O5
_chemical_formula_sum   'V4 P4 H16 C12 O20'
_cell_volume   948.71479310
_cell_formula_units_Z   4
loop_
 _symmetry_equiv_pos_site_id
 _symmetry_equiv_pos_as_xyz
  1  'x, y, z'
loop_
 _atom_site_type_symbol
 _atom_site_label
 _atom_site_symmetry_multiplicity
 _atom_site_fract_x
 _atom_site_fract_y
 _atom_site_fract_z
 _atom_site_occupancy
 _atom_site_charge
  V  V1  1  0.727270  0.933740  0.401470  1.0  1.4337
  V  V2  1  0.272730  0.066260  0.598530  1.0  1.4228
  V  V3  1  0.227270  0.433740  0.098530  1.0  1.4334
  V  V4  1  0.772730  0.566260  0.901470  1.0  1.4233
  P  P5  1  0.749000  0.996210  0.592380  1.0  1.6149
  P  P6  1  0.251000  0.003790  0.407620  1.0  1.6149
  P  P7  1  0.751000  0.503790  0.092380  1.0  1.6154
  P  P8  1  0.249000  0.496210  0.907620  1.0  1.6149
  H  H9  1  0.926100  0.976900  0.759700  1.0  0.13
  H  H10  1  0.573900  0.523100  0.259700  1.0  0.129
  H  H11  1  0.426100  0.476900  0.740300  1.0  0.1306
  H  H12  1  0.316100  0.027900  0.224400  1.0  0.1325
  H  H13  1  0.332600  0.293200  0.845100  1.0  0.1811
  H  H14  1  0.816100  0.527900  0.275600  1.0  0.1328
  H  H15  1  0.093800  0.302000  0.831300  1.0  0.1877
  H  H16  1  0.406200  0.198000  0.331300  1.0  0.1849
  H  H17  1  0.073900  0.023100  0.240300  1.0  0.129
  H  H18  1  0.667400  0.706800  0.154900  1.0  0.1815
  H  H19  1  0.683900  0.972100  0.775600  1.0  0.1318
  H  H20  1  0.183900  0.472100  0.724400  1.0  0.1321
  H  H21  1  0.593800  0.802000  0.668700  1.0  0.1873
  H  H22  1  0.832600  0.793200  0.654900  1.0  0.1815
  H  H23  1  0.167400  0.206800  0.345100  1.0  0.1806
  H  H24  1  0.906200  0.698000  0.168700  1.0  0.1855
  C  C25  1  0.789300  0.804200  0.811400  1.0  0.5274
  C  C26  1  0.763700  0.638900  0.169300  1.0  -0.3805
  C  C27  1  0.236300  0.361100  0.830700  1.0  -0.3797
  C  C28  1  0.289300  0.304200  0.688600  1.0  0.5263
  C  C29  1  0.712200  0.588200  0.258700  1.0  -0.2567
  C  C30  1  0.263700  0.138900  0.330700  1.0  -0.379
  C  C31  1  0.787800  0.911800  0.758700  1.0  -0.2561
  C  C32  1  0.710700  0.695800  0.311400  1.0  0.5259
  C  C33  1  0.212200  0.088200  0.241300  1.0  -0.258
  C  C34  1  0.736300  0.861100  0.669300  1.0  -0.3801
  C  C35  1  0.287800  0.411800  0.741300  1.0  -0.2564
  C  C36  1  0.210700  0.195800  0.188600  1.0  0.526
  O  O37  1  0.411500  0.899800  0.392700  1.0  -0.7682
  O  O38  1  0.798400  0.598200  0.016800  1.0  -0.8074
  O  O39  1  0.690400  0.674200  0.388200  1.0  -0.6271
  O  O40  1  0.467100  0.595300  0.909200  1.0  -0.7883
  O  O41  1  0.773000  0.658600  0.790400  1.0  -0.5747
  O  O42  1  0.298400  0.098200  0.483200  1.0  -0.8081
  O  O43  1  0.532900  0.404700  0.090800  1.0  -0.7882
  O  O44  1  0.201600  0.401800  0.983200  1.0  -0.8075
  O  O45  1  0.032900  0.904700  0.409200  1.0  -0.7873
  O  O46  1  0.227000  0.341400  0.209600  1.0  -0.5746
  O  O47  1  0.309600  0.325800  0.611800  1.0  -0.6227
  O  O48  1  0.273000  0.158600  0.709600  1.0  -0.5743
  O  O49  1  0.809600  0.825800  0.888200  1.0  -0.6256
  O  O50  1  0.190400  0.174200  0.111800  1.0  -0.6211
  O  O51  1  0.701600  0.901800  0.516800  1.0  -0.8078
  O  O52  1  0.088500  0.600200  0.892700  1.0  -0.7684
  O  O53  1  0.911500  0.399800  0.107300  1.0  -0.768
  O  O54  1  0.967100  0.095300  0.590800  1.0  -0.7882
  O  O55  1  0.588500  0.100200  0.607300  1.0  -0.7682
  O  O56  1  0.727000  0.841400  0.290400  1.0  -0.5746
