# generated using pymatgen
data_Zn4H12C24O13
_symmetry_space_group_name_H-M   'P 1'
_cell_length_a   18.10650000
_cell_length_b   18.10650000
_cell_length_c   18.10650000
_cell_angle_alpha   60.00000000
_cell_angle_beta   60.00000000
_cell_angle_gamma   60.00000000
_symmetry_Int_Tables_number   1
_chemical_formula_structural   Zn4H12C24O13
_chemical_formula_sum   'Zn8 H24 C48 O26'
_cell_volume   4197.47897163
_cell_formula_units_Z   2
loop_
 _symmetry_equiv_pos_site_id
 _symmetry_equiv_pos_as_xyz
  1  'x, y, z'
loop_
 _atom_site_type_symbol
 _atom_site_label
 _atom_site_symmetry_multiplicity
 _atom_site_fract_x
 _atom_site_fract_y
 _atom_site_fract_z
 _atom_site_occupancy
 _atom_site_charge
  Zn  Zn1  1  0.793540  0.619380  0.793540  1.0  1.0731
  Zn  Zn2  1  0.619380  0.793540  0.793540  1.0  1.0727
  Zn  Zn3  1  0.206460  0.206460  0.380620  1.0  1.0754
  Zn  Zn4  1  0.793540  0.793540  0.793540  1.0  1.0759
  Zn  Zn5  1  0.206460  0.380620  0.206460  1.0  1.0725
  Zn  Zn6  1  0.206460  0.206460  0.206460  1.0  1.0748
  Zn  Zn7  1  0.380620  0.206460  0.206460  1.0  1.0727
  Zn  Zn8  1  0.793540  0.793540  0.619380  1.0  1.0754
  H  H9  1  0.336110  0.569170  0.047360  1.0  0.0882
  H  H10  1  0.954900  0.426850  0.954900  1.0  0.0775
  H  H11  1  0.569170  0.047360  0.047360  1.0  0.0883
  H  H12  1  0.336110  0.047360  0.569170  1.0  0.0851
  H  H13  1  0.430830  0.663890  0.952640  1.0  0.0857
  H  H14  1  0.663350  0.426850  0.954900  1.0  0.086
  H  H15  1  0.047360  0.569170  0.336110  1.0  0.0887
  H  H16  1  0.047360  0.336110  0.047360  1.0  0.0863
  H  H17  1  0.569170  0.336110  0.047360  1.0  0.087
  H  H18  1  0.663890  0.952640  0.952640  1.0  0.0913
  H  H19  1  0.430830  0.952640  0.952640  1.0  0.0835
  H  H20  1  0.047360  0.336110  0.569170  1.0  0.0862
  H  H21  1  0.430830  0.952640  0.663890  1.0  0.082
  H  H22  1  0.336110  0.047360  0.047360  1.0  0.0856
  H  H23  1  0.954900  0.954900  0.426850  1.0  0.0707
  H  H24  1  0.573150  0.045100  0.336650  1.0  0.0805
  H  H25  1  0.954900  0.954900  0.663350  1.0  0.074
  H  H26  1  0.045100  0.573150  0.045100  1.0  0.0798
  H  H27  1  0.047360  0.047360  0.336110  1.0  0.0826
  H  H28  1  0.047360  0.047360  0.569170  1.0  0.082
  H  H29  1  0.954900  0.426850  0.663350  1.0  0.0833
  H  H30  1  0.952640  0.663890  0.430830  1.0  0.0892
  H  H31  1  0.954900  0.663350  0.954900  1.0  0.074
  H  H32  1  0.663890  0.952640  0.430830  1.0  0.0868
  C  C33  1  0.412900  0.536900  0.025100  1.0  -0.0003
  C  C34  1  0.974900  0.463100  0.974900  1.0  -0.0027
  C  C35  1  0.536900  0.025100  0.025100  1.0  0.0108
  C  C36  1  0.946100  0.553900  0.553900  1.0  -0.1044
  C  C37  1  0.412900  0.025100  0.536900  1.0  0.0059
  C  C38  1  0.553900  0.553900  0.946100  1.0  -0.1034
  C  C39  1  0.387300  0.387300  0.112700  1.0  0.6649
  C  C40  1  0.463100  0.587100  0.974900  1.0  -0.0031
  C  C41  1  0.587100  0.463100  0.974900  1.0  -0.0055
  C  C42  1  0.946100  0.946100  0.553900  1.0  -0.1063
  C  C43  1  0.946100  0.553900  0.946100  1.0  -0.112
  C  C44  1  0.025100  0.536900  0.412900  1.0  -0.0026
  C  C45  1  0.025100  0.412900  0.025100  1.0  0.003
  C  C46  1  0.887300  0.612700  0.887300  1.0  0.6613
  C  C47  1  0.612700  0.887300  0.612700  1.0  0.665
  C  C48  1  0.387300  0.112700  0.112700  1.0  0.6648
  C  C49  1  0.612700  0.887300  0.887300  1.0  0.6648
  C  C50  1  0.612700  0.612700  0.887300  1.0  0.6555
  C  C51  1  0.536900  0.412900  0.025100  1.0  0.0036
  C  C52  1  0.587100  0.974900  0.974900  1.0  -0.0049
  C  C53  1  0.112700  0.387300  0.112700  1.0  0.6588
  C  C54  1  0.463100  0.974900  0.974900  1.0  0.0015
  C  C55  1  0.025100  0.412900  0.536900  1.0  0.0049
  C  C56  1  0.887300  0.887300  0.612700  1.0  0.6608
  C  C57  1  0.463100  0.974900  0.587100  1.0  0.0061
  C  C58  1  0.387300  0.112700  0.387300  1.0  0.6593
  C  C59  1  0.053900  0.446100  0.053900  1.0  -0.1112
  C  C60  1  0.412900  0.025100  0.025100  1.0  0.0057
  C  C61  1  0.974900  0.974900  0.463100  1.0  -0.0026
  C  C62  1  0.887300  0.612700  0.612700  1.0  0.6584
  C  C63  1  0.536900  0.025100  0.412900  1.0  -0.0072
  C  C64  1  0.974900  0.974900  0.587100  1.0  -0.0024
  C  C65  1  0.446100  0.053900  0.446100  1.0  -0.1132
  C  C66  1  0.025100  0.536900  0.025100  1.0  -0.0141
  C  C67  1  0.025100  0.025100  0.412900  1.0  0.0079
  C  C68  1  0.112700  0.387300  0.387300  1.0  0.6652
  C  C69  1  0.025100  0.025100  0.536900  1.0  0.0088
  C  C70  1  0.974900  0.463100  0.587100  1.0  -0.0026
  C  C71  1  0.974900  0.587100  0.463100  1.0  0.0034
  C  C72  1  0.553900  0.946100  0.946100  1.0  -0.099
  C  C73  1  0.974900  0.587100  0.974900  1.0  -0.0142
  C  C74  1  0.446100  0.053900  0.053900  1.0  -0.0999
  C  C75  1  0.053900  0.446100  0.446100  1.0  -0.1036
  C  C76  1  0.112700  0.112700  0.387300  1.0  0.6626
  C  C77  1  0.053900  0.053900  0.446100  1.0  -0.099
  C  C78  1  0.553900  0.946100  0.553900  1.0  -0.1028
  C  C79  1  0.587100  0.974900  0.463100  1.0  0.0017
  C  C80  1  0.446100  0.446100  0.053900  1.0  -0.1058
  O  O81  1  0.133600  0.429780  0.133600  1.0  -0.6166
  O  O82  1  0.133600  0.429780  0.303020  1.0  -0.6071
  O  O83  1  0.866400  0.570220  0.866400  1.0  -0.6134
  O  O84  1  0.303020  0.133600  0.429780  1.0  -0.6036
  O  O85  1  0.133600  0.133600  0.429780  1.0  -0.6101
  O  O86  1  0.866400  0.570220  0.696980  1.0  -0.6163
  O  O87  1  0.696980  0.866400  0.570220  1.0  -0.6088
  O  O88  1  0.866400  0.866400  0.570220  1.0  -0.6197
  O  O89  1  0.133600  0.303020  0.133600  1.0  -0.6068
  O  O90  1  0.429780  0.303020  0.133600  1.0  -0.6113
  O  O91  1  0.866400  0.696980  0.866400  1.0  -0.6197
  O  O92  1  0.133600  0.133600  0.303020  1.0  -0.6092
  O  O93  1  0.696980  0.866400  0.866400  1.0  -0.6085
  O  O94  1  0.570220  0.696980  0.866400  1.0  -0.6057
  O  O95  1  0.570220  0.866400  0.866400  1.0  -0.6083
  O  O96  1  0.133600  0.303020  0.429780  1.0  -0.6115
  O  O97  1  0.250000  0.250000  0.250000  1.0  -1.3059
  O  O98  1  0.303020  0.429780  0.133600  1.0  -0.6073
  O  O99  1  0.696980  0.570220  0.866400  1.0  -0.6158
  O  O100  1  0.570220  0.866400  0.696980  1.0  -0.6092
  O  O101  1  0.429780  0.133600  0.133600  1.0  -0.608
  O  O102  1  0.866400  0.866400  0.696980  1.0  -0.6198
  O  O103  1  0.750000  0.750000  0.750000  1.0  -1.3061
  O  O104  1  0.303020  0.133600  0.133600  1.0  -0.6078
  O  O105  1  0.866400  0.696980  0.570220  1.0  -0.6054
  O  O106  1  0.429780  0.133600  0.303020  1.0  -0.6172
