# generated using pymatgen
data_FeH12(CN2)12
_symmetry_space_group_name_H-M   'P 1'
_cell_length_a   8.19010000
_cell_length_b   8.96290000
_cell_length_c   20.18690000
_cell_angle_alpha   90.00000000
_cell_angle_beta   90.00000000
_cell_angle_gamma   90.84560000
_symmetry_Int_Tables_number   1
_chemical_formula_structural   FeH12(CN2)12
_chemical_formula_sum   'Fe2 H24 C24 N48'
_cell_volume   1481.69934127
_cell_formula_units_Z   2
loop_
 _symmetry_equiv_pos_site_id
 _symmetry_equiv_pos_as_xyz
  1  'x, y, z'
loop_
 _atom_site_type_symbol
 _atom_site_label
 _atom_site_symmetry_multiplicity
 _atom_site_fract_x
 _atom_site_fract_y
 _atom_site_fract_z
 _atom_site_occupancy
 _atom_site_charge
  Fe  Fe1  1  0.500000  0.500000  0.500000  1.0  0.4428
  Fe  Fe2  1  0.000000  0.000000  0.000000  1.0  0.4439
  H  H3  1  0.895900  0.647100  0.498100  1.0  0.1093
  H  H4  1  0.989400  0.801000  0.134500  1.0  0.1057
  H  H5  1  0.528300  0.673900  0.356300  1.0  0.1026
  H  H6  1  0.489400  0.301000  0.365500  1.0  0.1067
  H  H7  1  0.032900  0.670000  0.647200  1.0  0.0992
  H  H8  1  0.818400  0.460400  0.999000  1.0  0.1045
  H  H9  1  0.028300  0.173900  0.143700  1.0  0.1027
  H  H10  1  0.395900  0.147100  0.001900  1.0  0.1093
  H  H11  1  0.010600  0.199000  0.865500  1.0  0.1049
  H  H12  1  0.971700  0.826100  0.856300  1.0  0.1039
  H  H13  1  0.318400  0.960400  0.501000  1.0  0.1047
  H  H14  1  0.944100  0.374700  0.665900  1.0  0.097
  H  H15  1  0.532900  0.170000  0.852800  1.0  0.0988
  H  H16  1  0.444100  0.874700  0.834100  1.0  0.0968
  H  H17  1  0.471700  0.326100  0.643700  1.0  0.1038
  H  H18  1  0.604100  0.852900  0.998100  1.0  0.1088
  H  H19  1  0.467100  0.830000  0.147200  1.0  0.0975
  H  H20  1  0.055900  0.625300  0.334100  1.0  0.0975
  H  H21  1  0.510600  0.699000  0.634500  1.0  0.1043
  H  H22  1  0.181600  0.539600  0.001000  1.0  0.1041
  H  H23  1  0.681600  0.039600  0.499000  1.0  0.104
  H  H24  1  0.967100  0.330000  0.352800  1.0  0.0972
  H  H25  1  0.104100  0.352900  0.501900  1.0  0.1088
  H  H26  1  0.555900  0.125300  0.165900  1.0  0.0975
  C  C27  1  0.160300  0.622700  0.352100  1.0  0.156
  C  C28  1  0.183000  0.279300  0.502200  1.0  0.1776
  C  C29  1  0.817000  0.720700  0.497800  1.0  0.1775
  C  C30  1  0.360700  0.837300  0.131500  1.0  0.1498
  C  C31  1  0.639300  0.162700  0.868500  1.0  0.1502
  C  C32  1  0.660300  0.122700  0.147900  1.0  0.1556
  C  C33  1  0.198800  0.437300  0.001600  1.0  0.1468
  C  C34  1  0.301200  0.062700  0.501600  1.0  0.1472
  C  C35  1  0.317000  0.220700  0.002200  1.0  0.1771
  C  C36  1  0.801200  0.562700  0.998400  1.0  0.1475
  C  C37  1  0.839700  0.377300  0.647900  1.0  0.1557
  C  C38  1  0.401400  0.679400  0.624800  1.0  0.1432
  C  C39  1  0.901400  0.179400  0.875200  1.0  0.1447
  C  C40  1  0.598600  0.320600  0.375200  1.0  0.1445
  C  C41  1  0.919200  0.149100  0.136400  1.0  0.1218
  C  C42  1  0.698800  0.937300  0.498400  1.0  0.1467
  C  C43  1  0.580800  0.350900  0.636400  1.0  0.1221
  C  C44  1  0.860700  0.337300  0.368500  1.0  0.1503
  C  C45  1  0.098600  0.820600  0.124800  1.0  0.1435
  C  C46  1  0.339700  0.877300  0.852100  1.0  0.1564
  C  C47  1  0.683000  0.779300  0.997800  1.0  0.178
  C  C48  1  0.419200  0.649100  0.363600  1.0  0.122
  C  C49  1  0.080800  0.850900  0.863600  1.0  0.1217
  C  C50  1  0.139300  0.662700  0.631500  1.0  0.1498
  N  N51  1  0.152200  0.887900  0.072200  1.0  -0.1554
  N  N52  1  0.198000  0.724300  0.227000  1.0  -0.2816
  N  N53  1  0.802000  0.275700  0.773000  1.0  -0.2833
  N  N54  1  0.326100  0.724800  0.256100  1.0  -0.2828
  N  N55  1  0.659600  0.697200  0.496600  1.0  -0.148
  N  N56  1  0.915600  0.666800  0.997100  1.0  -0.2648
  N  N57  1  0.693700  0.076500  0.088800  1.0  -0.2446
  N  N58  1  0.673900  0.275200  0.743900  1.0  -0.2837
  N  N59  1  0.806300  0.423500  0.588800  1.0  -0.2446
  N  N60  1  0.415600  0.166800  0.502900  1.0  -0.2649
  N  N61  1  0.840400  0.802800  0.996600  1.0  -0.1476
  N  N62  1  0.202700  0.833400  0.820100  1.0  0.1075
  N  N63  1  0.496800  0.569300  0.000000  1.0  -0.3322
  N  N64  1  0.847800  0.112100  0.927800  1.0  -0.1549
  N  N65  1  0.173900  0.775200  0.756100  1.0  -0.2833
  N  N66  1  0.859800  0.091900  0.082300  1.0  -0.1548
  N  N67  1  0.584400  0.833200  0.497100  1.0  -0.2635
  N  N68  1  0.346800  0.369900  0.001200  1.0  0.1528
  N  N69  1  0.846800  0.869900  0.498800  1.0  0.1535
  N  N70  1  0.726700  0.283400  0.336700  1.0  0.1177
  N  N71  1  0.306300  0.923500  0.911200  1.0  -0.2463
  N  N72  1  0.996800  0.069300  0.500000  1.0  -0.3322
  N  N73  1  0.297300  0.666667  0.320100  1.0  0.1094
  N  N74  1  0.826100  0.224800  0.243900  1.0  -0.2855
  N  N75  1  0.179200  0.600000  0.576300  1.0  -0.2493
  N  N76  1  0.359800  0.591900  0.417700  1.0  -0.1557
  N  N77  1  0.702700  0.333400  0.679900  1.0  0.1128
  N  N78  1  0.320800  0.900000  0.076300  1.0  -0.2493
  N  N79  1  0.347800  0.612100  0.572200  1.0  -0.1554
  N  N80  1  0.140200  0.908100  0.917700  1.0  -0.1551
  N  N81  1  0.503200  0.430700  0.000000  1.0  -0.3309
  N  N82  1  0.159600  0.197200  0.003400  1.0  -0.1482
  N  N83  1  0.003200  0.930700  0.500000  1.0  -0.3307
  N  N84  1  0.820800  0.400000  0.423700  1.0  -0.2564
  N  N85  1  0.640200  0.408100  0.582300  1.0  -0.1542
  N  N86  1  0.653200  0.630100  0.998800  1.0  0.1548
  N  N87  1  0.084400  0.333200  0.002900  1.0  -0.2637
  N  N88  1  0.340400  0.302800  0.503400  1.0  -0.1476
  N  N89  1  0.302000  0.775700  0.727000  1.0  -0.2845
  N  N90  1  0.193700  0.576500  0.411200  1.0  -0.2466
  N  N91  1  0.797300  0.166600  0.179900  1.0  0.1087
  N  N92  1  0.273300  0.716600  0.663300  1.0  0.1175
  N  N93  1  0.679200  0.100000  0.923700  1.0  -0.2503
  N  N94  1  0.226700  0.783400  0.163300  1.0  0.1192
  N  N95  1  0.652200  0.387900  0.427800  1.0  -0.1553
  N  N96  1  0.773300  0.216600  0.836700  1.0  0.1182
  N  N97  1  0.153200  0.130100  0.501200  1.0  0.1544
  N  N98  1  0.698000  0.224300  0.273000  1.0  -0.2812
