# generated using pymatgen
data_CdH20C26(NO3)2
_symmetry_space_group_name_H-M   'P 1'
_cell_length_a   13.88770000
_cell_length_b   22.56630000
_cell_length_c   22.56630000
_cell_angle_alpha   90.00000000
_cell_angle_beta   90.00000000
_cell_angle_gamma   90.00000000
_symmetry_Int_Tables_number   1
_chemical_formula_structural   CdH20C26(NO3)2
_chemical_formula_sum   'Cd8 H160 C208 N16 O48'
_cell_volume   7072.14312397
_cell_formula_units_Z   8
loop_
 _symmetry_equiv_pos_site_id
 _symmetry_equiv_pos_as_xyz
  1  'x, y, z'
loop_
 _atom_site_type_symbol
 _atom_site_label
 _atom_site_symmetry_multiplicity
 _atom_site_fract_x
 _atom_site_fract_y
 _atom_site_fract_z
 _atom_site_occupancy
 _atom_site_charge
  Cd  Cd1  1  0.937430  0.215940  0.020000  1.0  0.9888
  Cd  Cd2  1  0.812570  0.284060  0.520000  1.0  0.9884
  Cd  Cd3  1  0.687430  0.480000  0.715940  1.0  0.9823
  Cd  Cd4  1  0.562570  0.980000  0.784060  1.0  0.9844
  Cd  Cd5  1  0.437430  0.784060  0.980000  1.0  0.9883
  Cd  Cd6  1  0.312570  0.715940  0.480000  1.0  0.9889
  Cd  Cd7  1  0.187430  0.520000  0.284060  1.0  0.9846
  Cd  Cd8  1  0.062570  0.020000  0.215940  1.0  0.9821
  H  H9  1  0.882900  0.139300  0.906200  1.0  0.0888
  H  H10  1  0.890000  0.149200  0.142800  1.0  0.0899
  H  H11  1  0.850800  0.152800  0.806300  1.0  0.1181
  H  H12  1  0.903700  0.319900  0.111100  1.0  0.0716
  H  H13  1  0.899200  0.332800  0.741000  1.0  0.1058
  H  H14  1  0.850800  0.167200  0.241000  1.0  0.1057
  H  H15  1  0.029600  0.288100  0.913000  1.0  0.0797
  H  H16  1  0.846300  0.180100  0.611100  1.0  0.0714
  H  H17  1  0.720400  0.211900  0.413000  1.0  0.0797
  H  H18  1  0.899200  0.347200  0.306300  1.0  0.1171
  H  H19  1  0.745900  0.195400  0.312900  1.0  0.1108
  H  H20  1  0.860000  0.350800  0.642800  1.0  0.0902
  H  H21  1  0.885500  0.157500  0.707800  1.0  0.1081
  H  H22  1  0.004100  0.304600  0.812900  1.0  0.1103
  H  H23  1  0.864500  0.342500  0.207800  1.0  0.108
  H  H24  1  0.867100  0.360700  0.406200  1.0  0.0888
  H  H25  1  0.596300  0.888900  0.680100  1.0  0.0714
  H  H26  1  0.600800  0.693700  0.652800  1.0  0.1178
  H  H27  1  0.635500  0.792200  0.657500  1.0  0.1075
  H  H28  1  0.495900  0.187100  0.695400  1.0  0.1112
  H  H29  1  0.632900  0.593800  0.639300  1.0  0.0866
  H  H30  1  0.614500  0.292200  0.842500  1.0  0.1073
  H  H31  1  0.649200  0.759000  0.832800  1.0  0.1061
  H  H32  1  0.617100  0.093800  0.860700  1.0  0.0895
  H  H33  1  0.653700  0.388900  0.819900  1.0  0.0718
  H  H34  1  0.779600  0.587000  0.788100  1.0  0.0802
  H  H35  1  0.649200  0.193700  0.847200  1.0  0.1184
  H  H36  1  0.600800  0.259000  0.667200  1.0  0.1062
  H  H37  1  0.754100  0.687100  0.804600  1.0  0.1105
  H  H38  1  0.640000  0.357200  0.649200  1.0  0.0894
  H  H39  1  0.470400  0.087000  0.711900  1.0  0.08
  H  H40  1  0.610000  0.857200  0.850800  1.0  0.0895
  H  H41  1  0.403700  0.680100  0.888900  1.0  0.0717
  H  H42  1  0.245900  0.804600  0.687100  1.0  0.1101
  H  H43  1  0.360000  0.649200  0.357200  1.0  0.0904
  H  H44  1  0.385500  0.842500  0.292200  1.0  0.1087
  H  H45  1  0.367100  0.639300  0.593800  1.0  0.0866
  H  H46  1  0.529600  0.711900  0.087000  1.0  0.0802
  H  H47  1  0.399200  0.652800  0.693700  1.0  0.1181
  H  H48  1  0.220400  0.788100  0.587000  1.0  0.0798
  H  H49  1  0.364500  0.657500  0.792200  1.0  0.1082
  H  H50  1  0.390000  0.850800  0.857200  1.0  0.0906
  H  H51  1  0.350800  0.832800  0.759000  1.0  0.1061
  H  H52  1  0.350800  0.847200  0.193700  1.0  0.1169
  H  H53  1  0.504100  0.695400  0.187100  1.0  0.1104
  H  H54  1  0.382900  0.860700  0.093800  1.0  0.088
  H  H55  1  0.346300  0.819900  0.388900  1.0  0.0715
  H  H56  1  0.399200  0.667200  0.259000  1.0  0.1058
  H  H57  1  0.970400  0.913000  0.288100  1.0  0.0801
  H  H58  1  0.254100  0.312900  0.195400  1.0  0.1113
  H  H59  1  0.149200  0.806300  0.152800  1.0  0.1182
  H  H60  1  0.279600  0.413000  0.211900  1.0  0.0803
  H  H61  1  0.149200  0.241000  0.167200  1.0  0.106
  H  H62  1  0.110000  0.142800  0.149200  1.0  0.0898
  H  H63  1  0.135500  0.207800  0.342500  1.0  0.1072
  H  H64  1  0.117100  0.906200  0.139300  1.0  0.088
  H  H65  1  0.132900  0.406200  0.360700  1.0  0.0875
  H  H66  1  0.153700  0.611100  0.180100  1.0  0.0714
  H  H67  1  0.100800  0.741000  0.332800  1.0  0.1061
  H  H68  1  0.100800  0.306300  0.347200  1.0  0.1174
  H  H69  1  0.140000  0.642800  0.350800  1.0  0.0901
  H  H70  1  0.096300  0.111100  0.319900  1.0  0.0721
  H  H71  1  0.114500  0.707800  0.157500  1.0  0.1066
  H  H72  1  0.995900  0.812900  0.304600  1.0  0.1107
  H  H73  1  0.786500  0.440000  0.102100  1.0  0.1229
  H  H74  1  0.840800  0.471200  0.303700  1.0  0.1071
  H  H75  1  0.289900  0.206500  0.063700  1.0  0.1026
  H  H76  1  0.483300  0.428300  0.057600  1.0  0.0679
  H  H77  1  0.324200  0.411100  0.085500  1.0  0.1245
  H  H78  1  0.438500  0.246200  0.089600  1.0  0.1251
  H  H79  1  0.628300  0.463400  0.088100  1.0  0.0603
  H  H80  1  0.647200  0.393300  0.084800  1.0  0.0783
  H  H81  1  0.688000  0.443000  0.270300  1.0  0.1258
  H  H82  1  0.175800  0.370200  0.059400  1.0  0.102
  H  H83  1  0.939200  0.466200  0.135500  1.0  0.1096
  H  H84  1  0.467100  0.436300  0.127600  1.0  0.0792
  H  H85  1  0.574200  0.129800  0.559400  1.0  0.1021
  H  H86  1  0.062000  0.057000  0.770300  1.0  0.1248
  H  H87  1  0.311500  0.253800  0.589600  1.0  0.1258
  H  H88  1  0.102800  0.106700  0.584800  1.0  0.0786
  H  H89  1  0.810800  0.033800  0.635500  1.0  0.1098
  H  H90  1  0.963500  0.060000  0.602100  1.0  0.1237
  H  H91  1  0.282900  0.063700  0.627600  1.0  0.0792
  H  H92  1  0.121700  0.036600  0.588100  1.0  0.0606
  H  H93  1  0.425800  0.088900  0.585500  1.0  0.1247
  H  H94  1  0.909200  0.028800  0.803700  1.0  0.1074
  H  H95  1  0.460100  0.293500  0.563700  1.0  0.103
  H  H96  1  0.266700  0.071700  0.557600  1.0  0.0673
  H  H97  1  0.689200  0.364500  0.966200  1.0  0.1091
  H  H98  1  0.438000  0.229700  0.943000  1.0  0.1256
  H  H99  1  0.925800  0.440600  0.870200  1.0  0.1025
  H  H100  1  0.233300  0.442400  0.928300  1.0  0.0676
  H  H101  1  0.378300  0.411900  0.963400  1.0  0.0599
  H  H102  1  0.188500  0.410400  0.746200  1.0  0.1253
  H  H103  1  0.039900  0.436300  0.706500  1.0  0.1045
  H  H104  1  0.536500  0.397900  0.940000  1.0  0.123
  H  H105  1  0.217100  0.372400  0.936300  1.0  0.0819
  H  H106  1  0.590800  0.196300  0.971200  1.0  0.1065
  H  H107  1  0.397200  0.415200  0.893300  1.0  0.0739
  H  H108  1  0.074200  0.414500  0.911100  1.0  0.1246
  H  H109  1  0.871700  0.911900  0.536600  1.0  0.0605
  H  H110  1  0.016700  0.942400  0.571700  1.0  0.0678
  H  H111  1  0.032900  0.872400  0.563700  1.0  0.0814
  H  H112  1  0.061500  0.910400  0.753800  1.0  0.1253
  H  H113  1  0.713500  0.897900  0.560000  1.0  0.1234
  H  H114  1  0.175800  0.914500  0.588900  1.0  0.1248
  H  H115  1  0.324200  0.940600  0.629800  1.0  0.1029
  H  H116  1  0.852800  0.915200  0.606700  1.0  0.0752
  H  H117  1  0.812000  0.729700  0.557000  1.0  0.1254
  H  H118  1  0.560800  0.864500  0.533800  1.0  0.1089
  H  H119  1  0.210100  0.936300  0.793500  1.0  0.1038
  H  H120  1  0.659200  0.696300  0.528800  1.0  0.107
  H  H121  1  0.147200  0.606700  0.915200  1.0  0.0775
  H  H122  1  0.789900  0.793500  0.936300  1.0  0.1029
  H  H123  1  0.340800  0.528800  0.696300  1.0  0.1079
  H  H124  1  0.675800  0.629800  0.940600  1.0  0.1017
  H  H125  1  0.286500  0.560000  0.897900  1.0  0.1235
  H  H126  1  0.967100  0.563700  0.872400  1.0  0.0808
  H  H127  1  0.128300  0.536600  0.911900  1.0  0.0613
  H  H128  1  0.983300  0.571700  0.942400  1.0  0.0674
  H  H129  1  0.824200  0.588900  0.914500  1.0  0.1244
  H  H130  1  0.938500  0.753800  0.910400  1.0  0.1257
  H  H131  1  0.188000  0.557000  0.729700  1.0  0.1256
  H  H132  1  0.439200  0.533800  0.864500  1.0  0.1093
  H  H133  1  0.621700  0.963400  0.411900  1.0  0.0597
  H  H134  1  0.310800  0.966200  0.364500  1.0  0.1091
  H  H135  1  0.766700  0.928300  0.442400  1.0  0.0671
  H  H136  1  0.811500  0.746200  0.410400  1.0  0.1251
  H  H137  1  0.602800  0.893300  0.415200  1.0  0.0784
  H  H138  1  0.960100  0.706500  0.436300  1.0  0.1027
  H  H139  1  0.925800  0.911100  0.414500  1.0  0.125
  H  H140  1  0.782900  0.936300  0.372400  1.0  0.08
  H  H141  1  0.562000  0.943000  0.229700  1.0  0.1257
  H  H142  1  0.463500  0.940000  0.397900  1.0  0.124
  H  H143  1  0.409200  0.971200  0.196300  1.0  0.1082
  H  H144  1  0.074200  0.870200  0.440600  1.0  0.1024
  H  H145  1  0.516700  0.057600  0.428300  1.0  0.0676
  H  H146  1  0.159200  0.303700  0.471200  1.0  0.1071
  H  H147  1  0.213500  0.102100  0.440000  1.0  0.1231
  H  H148  1  0.371700  0.088100  0.463400  1.0  0.0602
  H  H149  1  0.561500  0.089600  0.246200  1.0  0.1255
  H  H150  1  0.675800  0.085500  0.411100  1.0  0.1244
  H  H151  1  0.532900  0.127600  0.436300  1.0  0.0805
  H  H152  1  0.312000  0.270300  0.443000  1.0  0.1271
  H  H153  1  0.060800  0.135500  0.466200  1.0  0.1087
  H  H154  1  0.352800  0.084800  0.393300  1.0  0.0743
  H  H155  1  0.710100  0.063700  0.206500  1.0  0.1041
  H  H156  1  0.824200  0.059400  0.370200  1.0  0.103
  H  H157  1  0.036500  0.602100  0.060000  1.0  0.1236
  H  H158  1  0.574200  0.585500  0.088900  1.0  0.1246
  H  H159  1  0.878300  0.588100  0.036600  1.0  0.0602
  H  H160  1  0.938000  0.770300  0.057000  1.0  0.1265
  H  H161  1  0.717100  0.627600  0.063700  1.0  0.0815
  H  H162  1  0.733300  0.557600  0.071700  1.0  0.0677
  H  H163  1  0.688500  0.589600  0.253800  1.0  0.1243
  H  H164  1  0.189200  0.635500  0.033800  1.0  0.1089
  H  H165  1  0.090800  0.803700  0.028800  1.0  0.1072
  H  H166  1  0.539900  0.563700  0.293500  1.0  0.1038
  H  H167  1  0.897200  0.584800  0.106700  1.0  0.0754
  H  H168  1  0.425800  0.559400  0.129800  1.0  0.1024
  C  C169  1  0.861300  0.199540  0.214900  1.0  -0.1791
  C  C170  1  0.892700  0.288320  0.138060  1.0  0.1764
  C  C171  1  0.888700  0.300460  0.714900  1.0  -0.1795
  C  C172  1  0.865000  0.311060  0.656170  1.0  0.1566
  C  C173  1  0.885000  0.188940  0.156170  1.0  0.1556
  C  C174  1  0.976900  0.270700  0.831450  1.0  -0.2151
  C  C175  1  0.853000  0.256600  0.235580  1.0  0.085
  C  C176  1  0.992300  0.260400  0.891000  1.0  0.1672
  C  C177  1  0.828800  0.269150  0.298500  1.0  0.094
  C  C178  1  0.773100  0.229300  0.331450  1.0  -0.2152
  C  C179  1  0.857300  0.211680  0.638060  1.0  0.1763
  C  C180  1  0.869400  0.302300  0.195580  1.0  -0.2125
  C  C181  1  0.906400  0.173880  0.887030  1.0  0.1485
  C  C182  1  0.921200  0.230850  0.798500  1.0  0.0951
  C  C183  1  0.880600  0.197700  0.695580  1.0  -0.2124
  C  C184  1  0.862700  0.318460  0.327270  1.0  -0.1808
  C  C185  1  0.843600  0.326120  0.387030  1.0  0.1478
  C  C186  1  0.757700  0.239600  0.391000  1.0  0.1669
  C  C187  1  0.887300  0.181540  0.827270  1.0  -0.1787
  C  C188  1  0.897000  0.243400  0.735580  1.0  0.0853
  C  C189  1  0.578800  0.201500  0.769150  1.0  0.0947
  C  C190  1  0.523100  0.168550  0.729300  1.0  -0.2158
  C  C191  1  0.615000  0.843830  0.811060  1.0  0.1533
  C  C192  1  0.630600  0.804420  0.697700  1.0  -0.2112
  C  C193  1  0.637300  0.672730  0.681540  1.0  -0.1791
  C  C194  1  0.593600  0.112970  0.826120  1.0  0.1488
  C  C195  1  0.635000  0.343830  0.688940  1.0  0.1553
  C  C196  1  0.507700  0.109000  0.739600  1.0  0.1671
  C  C197  1  0.619400  0.304420  0.802300  1.0  -0.2121
  C  C198  1  0.611300  0.285100  0.699540  1.0  -0.1822
  C  C199  1  0.656400  0.612970  0.673880  1.0  0.1494
  C  C200  1  0.642700  0.361940  0.788320  1.0  0.1753
  C  C201  1  0.726900  0.668550  0.770700  1.0  -0.2155
  C  C202  1  0.671200  0.701500  0.730850  1.0  0.0945
  C  C203  1  0.638700  0.785100  0.800460  1.0  -0.1827
  C  C204  1  0.603000  0.264420  0.756600  1.0  0.0858
  C  C205  1  0.607300  0.861940  0.711680  1.0  0.1763
  C  C206  1  0.742300  0.609000  0.760400  1.0  0.1665
  C  C207  1  0.612700  0.172730  0.818460  1.0  -0.1817
  C  C208  1  0.647000  0.764420  0.743400  1.0  0.0861
  C  C209  1  0.385000  0.811060  0.843830  1.0  0.1551
  C  C210  1  0.257700  0.760400  0.609000  1.0  0.1667
  C  C211  1  0.353000  0.743400  0.764420  1.0  0.0847
  C  C212  1  0.421200  0.769150  0.201500  1.0  0.0947
  C  C213  1  0.387300  0.818460  0.172730  1.0  -0.1788
  C  C214  1  0.397000  0.756600  0.264420  1.0  0.0853
  C  C215  1  0.392700  0.711680  0.861940  1.0  0.1762
  C  C216  1  0.273100  0.770700  0.668550  1.0  -0.2153
  C  C217  1  0.343600  0.673880  0.612970  1.0  0.1474
  C  C218  1  0.406400  0.826120  0.112970  1.0  0.1481
  C  C219  1  0.369400  0.697700  0.804420  1.0  -0.2136
  C  C220  1  0.476900  0.729300  0.168550  1.0  -0.2149
  C  C221  1  0.357300  0.788320  0.361940  1.0  0.1765
  C  C222  1  0.492300  0.739600  0.109000  1.0  0.1667
  C  C223  1  0.362700  0.681540  0.672730  1.0  -0.1803
  C  C224  1  0.388700  0.699540  0.285100  1.0  -0.1799
  C  C225  1  0.365000  0.688940  0.343830  1.0  0.1561
  C  C226  1  0.361300  0.800460  0.785100  1.0  -0.1792
  C  C227  1  0.328800  0.730850  0.701500  1.0  0.0949
  C  C228  1  0.380600  0.802300  0.304420  1.0  -0.2117
  C  C229  1  0.103000  0.735580  0.243400  1.0  0.0855
  C  C230  1  0.171200  0.298500  0.269150  1.0  0.0949
  C  C231  1  0.115000  0.156170  0.188940  1.0  0.152
  C  C232  1  0.242300  0.391000  0.239600  1.0  0.1663
  C  C233  1  0.130600  0.195580  0.302300  1.0  -0.2115
  C  C234  1  0.142700  0.638060  0.211680  1.0  0.1755
  C  C235  1  0.119400  0.695580  0.197700  1.0  -0.2112
  C  C236  1  0.137300  0.327270  0.318460  1.0  -0.1804
  C  C237  1  0.226900  0.331450  0.229300  1.0  -0.2159
  C  C238  1  0.156400  0.387030  0.326120  1.0  0.149
  C  C239  1  0.138700  0.214900  0.199540  1.0  -0.1821
  C  C240  1  0.093600  0.887030  0.173880  1.0  0.1501
  C  C241  1  0.111300  0.714900  0.300460  1.0  -0.1811
  C  C242  1  0.112700  0.827270  0.181540  1.0  -0.1811
  C  C243  1  0.135000  0.656170  0.311060  1.0  0.1527
  C  C244  1  0.023100  0.831450  0.270700  1.0  -0.2159
  C  C245  1  0.107300  0.138060  0.288320  1.0  0.1759
  C  C246  1  0.007700  0.891000  0.260400  1.0  0.1666
  C  C247  1  0.078800  0.798500  0.230850  1.0  0.094
  C  C248  1  0.147000  0.235580  0.256600  1.0  0.0859
  C  C249  1  0.723300  0.438960  0.183400  1.0  0.2715
  C  C250  1  0.797600  0.446130  0.143250  1.0  -0.2418
  C  C251  1  0.739100  0.448100  0.242800  1.0  -0.2436
  C  C252  1  0.830100  0.464900  0.262600  1.0  -0.0666
  C  C253  1  0.610100  0.424700  0.105300  1.0  0.0745
  C  C254  1  0.004000  0.491340  0.243280  1.0  0.6897
  C  C255  1  0.385100  0.271670  0.083000  1.0  -0.2112
  C  C256  1  0.503900  0.414200  0.097200  1.0  0.0785
  C  C257  1  0.296600  0.248220  0.067930  1.0  -0.0348
  C  C258  1  0.888000  0.462190  0.163210  1.0  -0.0407
  C  C259  1  0.229400  0.344770  0.065420  1.0  -0.0395
  C  C260  1  0.395800  0.332800  0.088590  1.0  0.2887
  C  C261  1  0.121400  0.258560  0.042680  1.0  0.6699
  C  C262  1  0.905600  0.472480  0.222550  1.0  -0.1467
  C  C263  1  0.217100  0.284550  0.058860  1.0  -0.0988
  C  C264  1  0.317800  0.369480  0.080640  1.0  -0.2379
  C  C265  1  0.139900  0.075300  0.605300  1.0  0.0748
  C  C266  1  0.628600  0.241440  0.542680  1.0  0.6683
  C  C267  1  0.432200  0.130520  0.580640  1.0  -0.2374
  C  C268  1  0.026700  0.061040  0.683400  1.0  0.2701
  C  C269  1  0.010900  0.051900  0.742800  1.0  -0.2403
  C  C270  1  0.919900  0.035100  0.762600  1.0  -0.0656
  C  C271  1  0.354200  0.167200  0.588590  1.0  0.2866
  C  C272  1  0.862000  0.037810  0.663210  1.0  -0.0457
  C  C273  1  0.246100  0.085800  0.597200  1.0  0.0799
  C  C274  1  0.520600  0.155230  0.565420  1.0  -0.0357
  C  C275  1  0.952400  0.053870  0.643250  1.0  -0.241
  C  C276  1  0.746000  0.008660  0.743280  1.0  0.6874
  C  C277  1  0.364900  0.228330  0.583000  1.0  -0.2149
  C  C278  1  0.532900  0.215450  0.558860  1.0  -0.0941
  C  C279  1  0.453400  0.251780  0.567930  1.0  -0.0315
  C  C280  1  0.844400  0.027520  0.722550  1.0  -0.1488
  C  C281  1  0.655600  0.277450  0.972480  1.0  -0.1474
  C  C282  1  0.979400  0.434580  0.844770  1.0  -0.0353
  C  C283  1  0.473300  0.316600  0.938960  1.0  0.2698
  C  C284  1  0.754000  0.256720  0.991340  1.0  0.6899
  C  C285  1  0.967100  0.441140  0.784550  1.0  -0.0963
  C  C286  1  0.638000  0.336790  0.962190  1.0  -0.0421
  C  C287  1  0.360100  0.394700  0.924700  1.0  0.0721
  C  C288  1  0.489100  0.257200  0.948100  1.0  -0.2382
  C  C289  1  0.145800  0.411410  0.832800  1.0  0.2893
  C  C290  1  0.547600  0.356750  0.946130  1.0  -0.243
  C  C291  1  0.871400  0.457320  0.758560  1.0  0.6696
  C  C292  1  0.580100  0.237400  0.964900  1.0  -0.0649
  C  C293  1  0.135100  0.417000  0.771670  1.0  -0.2132
  C  C294  1  0.253900  0.402800  0.914200  1.0  0.079
  C  C295  1  0.067800  0.419360  0.869480  1.0  -0.2381
  C  C296  1  0.046600  0.432070  0.748220  1.0  -0.0366
  C  C297  1  0.114900  0.917000  0.728330  1.0  -0.2118
  C  C298  1  0.996100  0.902800  0.585800  1.0  0.0798
  C  C299  1  0.378600  0.957320  0.741440  1.0  0.6695
  C  C300  1  0.104200  0.911410  0.667200  1.0  0.289
  C  C301  1  0.270600  0.934580  0.655230  1.0  -0.0394
  C  C302  1  0.702400  0.856750  0.553870  1.0  -0.2395
  C  C303  1  0.760900  0.757200  0.551900  1.0  -0.2387
  C  C304  1  0.776700  0.816600  0.561040  1.0  0.2711
  C  C305  1  0.203400  0.932070  0.751780  1.0  -0.041
  C  C306  1  0.889900  0.894700  0.575300  1.0  0.0742
  C  C307  1  0.496000  0.756720  0.508660  1.0  0.6878
  C  C308  1  0.282900  0.941140  0.715450  1.0  -0.0947
  C  C309  1  0.669900  0.737400  0.535100  1.0  -0.0624
  C  C310  1  0.594400  0.777450  0.527520  1.0  -0.1496
  C  C311  1  0.612000  0.836790  0.537810  1.0  -0.0408
  C  C312  1  0.182200  0.919360  0.630520  1.0  -0.2377
  C  C313  1  0.796600  0.751780  0.932070  1.0  -0.0297
  C  C314  1  0.817800  0.630520  0.919360  1.0  -0.2372
  C  C315  1  0.239100  0.551900  0.757200  1.0  -0.2401
  C  C316  1  0.621400  0.741440  0.957320  1.0  0.6688
  C  C317  1  0.003900  0.585800  0.902800  1.0  0.0793
  C  C318  1  0.729400  0.655230  0.934580  1.0  -0.0338
  C  C319  1  0.330100  0.535100  0.737400  1.0  -0.0631
  C  C320  1  0.504000  0.508660  0.756720  1.0  0.6892
  C  C321  1  0.717100  0.715450  0.941140  1.0  -0.0974
  C  C322  1  0.110100  0.575300  0.894700  1.0  0.0744
  C  C323  1  0.223300  0.561040  0.816600  1.0  0.2707
  C  C324  1  0.388000  0.537810  0.836790  1.0  -0.0465
  C  C325  1  0.405600  0.527520  0.777450  1.0  -0.147
  C  C326  1  0.297600  0.553870  0.856750  1.0  -0.2445
  C  C327  1  0.895800  0.667200  0.911410  1.0  0.2882
  C  C328  1  0.885100  0.728330  0.917000  1.0  -0.2112
  C  C329  1  0.362000  0.962190  0.336790  1.0  -0.0398
  C  C330  1  0.639900  0.924700  0.394700  1.0  0.0741
  C  C331  1  0.246000  0.991340  0.256720  1.0  0.6872
  C  C332  1  0.746100  0.914200  0.402800  1.0  0.0791
  C  C333  1  0.854200  0.832800  0.411410  1.0  0.2872
  C  C334  1  0.864900  0.771670  0.417000  1.0  -0.214
  C  C335  1  0.020600  0.844770  0.434580  1.0  -0.0361
  C  C336  1  0.419900  0.964900  0.237400  1.0  -0.0638
  C  C337  1  0.510900  0.948100  0.257200  1.0  -0.2397
  C  C338  1  0.344400  0.972480  0.277450  1.0  -0.1468
  C  C339  1  0.932200  0.869480  0.419360  1.0  -0.2383
  C  C340  1  0.032900  0.784550  0.441140  1.0  -0.0945
  C  C341  1  0.452400  0.946130  0.356750  1.0  -0.2433
  C  C342  1  0.953400  0.748220  0.432070  1.0  -0.0348
  C  C343  1  0.526700  0.938960  0.316600  1.0  0.2708
  C  C344  1  0.128600  0.758560  0.457320  1.0  0.6693
  C  C345  1  0.604200  0.088590  0.332800  1.0  0.2881
  C  C346  1  0.614900  0.083000  0.271670  1.0  -0.2117
  C  C347  1  0.996000  0.243280  0.491340  1.0  0.6879
  C  C348  1  0.094400  0.222550  0.472480  1.0  -0.1481
  C  C349  1  0.389900  0.105300  0.424700  1.0  0.0713
  C  C350  1  0.112000  0.163210  0.462190  1.0  -0.0404
  C  C351  1  0.703400  0.067930  0.248220  1.0  -0.037
  C  C352  1  0.202400  0.143250  0.446130  1.0  -0.2387
  C  C353  1  0.260900  0.242800  0.448100  1.0  -0.2379
  C  C354  1  0.276700  0.183400  0.438960  1.0  0.2701
  C  C355  1  0.782900  0.058860  0.284550  1.0  -0.0936
  C  C356  1  0.496100  0.097200  0.414200  1.0  0.08
  C  C357  1  0.770600  0.065420  0.344770  1.0  -0.0396
  C  C358  1  0.682200  0.080640  0.369480  1.0  -0.2386
  C  C359  1  0.878600  0.042680  0.258560  1.0  0.6688
  C  C360  1  0.169900  0.262600  0.464900  1.0  -0.064
  C  C361  1  0.973300  0.683400  0.061040  1.0  0.2702
  C  C362  1  0.254000  0.743280  0.008660  1.0  0.6901
  C  C363  1  0.479400  0.565420  0.155230  1.0  -0.0335
  C  C364  1  0.753900  0.597200  0.085800  1.0  0.0798
  C  C365  1  0.546600  0.567930  0.251780  1.0  -0.0408
  C  C366  1  0.138000  0.663210  0.037810  1.0  -0.0416
  C  C367  1  0.645800  0.588590  0.167200  1.0  0.2825
  C  C368  1  0.080100  0.762600  0.035100  1.0  -0.0639
  C  C369  1  0.860100  0.605300  0.075300  1.0  0.0737
  C  C370  1  0.047600  0.643250  0.053870  1.0  -0.2432
  C  C371  1  0.567800  0.580640  0.130520  1.0  -0.238
  C  C372  1  0.371400  0.542680  0.241440  1.0  0.6703
  C  C373  1  0.989100  0.742800  0.051900  1.0  -0.2382
  C  C374  1  0.155600  0.722550  0.027520  1.0  -0.1471
  C  C375  1  0.635100  0.583000  0.228330  1.0  -0.2102
  C  C376  1  0.467100  0.558860  0.215450  1.0  -0.0977
  N  N377  1  0.901000  0.233030  0.117810  1.0  -0.3316
  N  N378  1  0.956800  0.213330  0.918770  1.0  -0.3554
  N  N379  1  0.793200  0.286670  0.418770  1.0  -0.3547
  N  N380  1  0.849000  0.266970  0.617810  1.0  -0.3301
  N  N381  1  0.599000  0.882190  0.766970  1.0  -0.3208
  N  N382  1  0.651000  0.382190  0.733030  1.0  -0.3201
  N  N383  1  0.706800  0.581230  0.713330  1.0  -0.3552
  N  N384  1  0.543200  0.081230  0.786670  1.0  -0.3549
  N  N385  1  0.401000  0.766970  0.882190  1.0  -0.3293
  N  N386  1  0.349000  0.733030  0.382190  1.0  -0.3274
  N  N387  1  0.456800  0.786670  0.081230  1.0  -0.3573
  N  N388  1  0.293200  0.713330  0.581230  1.0  -0.3585
  N  N389  1  0.206800  0.418770  0.286670  1.0  -0.3571
  N  N390  1  0.043200  0.918770  0.213330  1.0  -0.3552
  N  N391  1  0.099000  0.117810  0.233030  1.0  -0.3211
  N  N392  1  0.151000  0.617810  0.266970  1.0  -0.324
  O  O393  1  0.108520  0.203540  0.044450  1.0  -0.6058
  O  O394  1  0.070400  0.497840  0.206160  1.0  -0.6459
  O  O395  1  0.486200  0.352110  0.102720  1.0  -0.2801
  O  O396  1  0.053900  0.293270  0.027850  1.0  -0.6114
  O  O397  1  0.631000  0.423880  0.167470  1.0  -0.2827
  O  O398  1  0.018300  0.500210  0.298040  1.0  -0.6088
  O  O399  1  0.641480  0.296460  0.544450  1.0  -0.6027
  O  O400  1  0.119000  0.076120  0.667470  1.0  -0.283
  O  O401  1  0.679600  0.002160  0.706160  1.0  -0.6459
  O  O402  1  0.731700  0.999790  0.798040  1.0  -0.6089
  O  O403  1  0.696100  0.206730  0.527850  1.0  -0.6128
  O  O404  1  0.263800  0.147890  0.602720  1.0  -0.2793
  O  O405  1  0.820400  0.293840  0.997840  1.0  -0.6441
  O  O406  1  0.768300  0.201960  0.000210  1.0  -0.604
  O  O407  1  0.858520  0.455550  0.703540  1.0  -0.6072
  O  O408  1  0.803900  0.472150  0.793270  1.0  -0.6136
  O  O409  1  0.236200  0.397280  0.852110  1.0  -0.2819
  O  O410  1  0.381000  0.332530  0.923880  1.0  -0.2854
  O  O411  1  0.481700  0.701960  0.499790  1.0  -0.6035
  O  O412  1  0.869000  0.832530  0.576120  1.0  -0.2835
  O  O413  1  0.013800  0.897280  0.647890  1.0  -0.2806
  O  O414  1  0.391480  0.955550  0.796460  1.0  -0.6072
  O  O415  1  0.446100  0.972150  0.706730  1.0  -0.6124
  O  O416  1  0.429600  0.793840  0.502160  1.0  -0.643
  O  O417  1  0.570400  0.502160  0.793840  1.0  -0.6485
  O  O418  1  0.608520  0.796460  0.955550  1.0  -0.6024
  O  O419  1  0.518300  0.499790  0.701960  1.0  -0.6081
  O  O420  1  0.986200  0.647890  0.897280  1.0  -0.2813
  O  O421  1  0.131000  0.576120  0.832530  1.0  -0.2825
  O  O422  1  0.553900  0.706730  0.972150  1.0  -0.6133
  O  O423  1  0.141480  0.703540  0.455550  1.0  -0.6055
  O  O424  1  0.763800  0.852110  0.397280  1.0  -0.2809
  O  O425  1  0.231700  0.000210  0.201960  1.0  -0.6069
  O  O426  1  0.179600  0.997840  0.293840  1.0  -0.6479
  O  O427  1  0.196100  0.793270  0.472150  1.0  -0.6127
  O  O428  1  0.619000  0.923880  0.332530  1.0  -0.2849
  O  O429  1  0.369000  0.167470  0.423880  1.0  -0.286
  O  O430  1  0.513800  0.102720  0.352110  1.0  -0.2795
  O  O431  1  0.929600  0.206160  0.497840  1.0  -0.6452
  O  O432  1  0.946100  0.027850  0.293270  1.0  -0.6132
  O  O433  1  0.981700  0.298040  0.500210  1.0  -0.6054
  O  O434  1  0.891480  0.044450  0.203540  1.0  -0.6049
  O  O435  1  0.358520  0.544450  0.296460  1.0  -0.6103
  O  O436  1  0.736200  0.602720  0.147890  1.0  -0.2789
  O  O437  1  0.303900  0.527850  0.206730  1.0  -0.6134
  O  O438  1  0.268300  0.798040  0.999790  1.0  -0.6071
  O  O439  1  0.320400  0.706160  0.002160  1.0  -0.6453
  O  O440  1  0.881000  0.667470  0.076120  1.0  -0.283
