# generated using pymatgen
data_MnZn2H24C50(NO3)4
_symmetry_space_group_name_H-M   'P 1'
_cell_length_a   14.10180000
_cell_length_b   14.10180000
_cell_length_c   14.10180000
_cell_angle_alpha   107.53500000
_cell_angle_beta   107.53500000
_cell_angle_gamma   113.41700000
_symmetry_Int_Tables_number   1
_chemical_formula_structural   MnZn2H24C50(NO3)4
_chemical_formula_sum   'Mn1 Zn2 H24 C50 N4 O12'
_cell_volume   2151.01746687
_cell_formula_units_Z   1
loop_
 _symmetry_equiv_pos_site_id
 _symmetry_equiv_pos_as_xyz
  1  'x, y, z'
loop_
 _atom_site_type_symbol
 _atom_site_label
 _atom_site_symmetry_multiplicity
 _atom_site_fract_x
 _atom_site_fract_y
 _atom_site_fract_z
 _atom_site_occupancy
 _atom_site_charge
  Mn  Mn1  1  0.500000  0.500000  0.000000  1.0  0.9561
  Zn  Zn2  1  0.904180  0.904180  0.000000  1.0  1.0066
  Zn  Zn3  1  0.095820  0.095820  0.000000  1.0  1.0055
  H  H4  1  0.203000  0.573400  0.776400  1.0  0.1422
  H  H5  1  0.592100  0.152500  0.000000  1.0  0.1261
  H  H6  1  0.573400  0.203000  0.776400  1.0  0.1408
  H  H7  1  0.943900  0.309900  0.000000  1.0  0.1164
  H  H8  1  0.407900  0.847500  0.000000  1.0  0.1266
  H  H9  1  0.056100  0.690100  0.000000  1.0  0.1166
  H  H10  1  0.690100  0.690100  0.634000  1.0  0.1174
  H  H11  1  0.797000  0.573400  0.370400  1.0  0.1367
  H  H12  1  0.426600  0.203000  0.629600  1.0  0.136
  H  H13  1  0.690100  0.056100  0.000000  1.0  0.1161
  H  H14  1  0.152500  0.592100  0.000000  1.0  0.1256
  H  H15  1  0.426600  0.797000  0.223600  1.0  0.1415
  H  H16  1  0.056100  0.056100  0.366000  1.0  0.116
  H  H17  1  0.847500  0.847500  0.439600  1.0  0.1266
  H  H18  1  0.203000  0.426600  0.629600  1.0  0.1372
  H  H19  1  0.573400  0.797000  0.370400  1.0  0.1363
  H  H20  1  0.407900  0.407900  0.560400  1.0  0.1263
  H  H21  1  0.797000  0.426600  0.223600  1.0  0.1418
  H  H22  1  0.152500  0.152500  0.560400  1.0  0.1264
  H  H23  1  0.592100  0.592100  0.439600  1.0  0.1257
  H  H24  1  0.309900  0.309900  0.366000  1.0  0.1174
  H  H25  1  0.309900  0.943900  0.000000  1.0  0.1159
  H  H26  1  0.943900  0.943900  0.634000  1.0  0.1161
  H  H27  1  0.847500  0.407900  0.000000  1.0  0.1262
  C  C28  1  0.127840  0.723160  0.000000  1.0  -0.0045
  C  C29  1  0.663860  0.185740  0.000000  1.0  -0.1571
  C  C30  1  0.712800  0.712800  0.000000  1.0  0.3236
  C  C31  1  0.108600  0.891400  0.000000  1.0  0.7175
  C  C32  1  0.752000  0.459700  0.211700  1.0  -0.1563
  C  C33  1  0.108600  0.108600  0.217200  1.0  0.7195
  C  C34  1  0.891400  0.891400  0.782800  1.0  0.719
  C  C35  1  0.872160  0.276840  0.000000  1.0  -0.0109
  C  C36  1  0.172300  0.172300  0.344600  1.0  -0.0718
  C  C37  1  0.709000  0.291000  0.000000  1.0  0.0943
  C  C38  1  0.723160  0.723160  0.595320  1.0  -0.0088
  C  C39  1  0.185740  0.663860  0.000000  1.0  -0.154
  C  C40  1  0.354500  0.645500  0.000000  1.0  -0.0712
  C  C41  1  0.276840  0.276840  0.404680  1.0  -0.0098
  C  C42  1  0.185740  0.185740  0.521880  1.0  -0.1558
  C  C43  1  0.291000  0.709000  0.000000  1.0  0.0936
  C  C44  1  0.872160  0.872160  0.595320  1.0  -0.0061
  C  C45  1  0.276840  0.872160  0.000000  1.0  -0.0109
  C  C46  1  0.127840  0.127840  0.404680  1.0  -0.0065
  C  C47  1  0.827700  0.172300  0.000000  1.0  -0.0706
  C  C48  1  0.565600  0.670900  0.236500  1.0  0.2069
  C  C49  1  0.663860  0.663860  0.478120  1.0  -0.1565
  C  C50  1  0.752000  0.540300  0.292300  1.0  -0.1544
  C  C51  1  0.336140  0.814260  0.000000  1.0  -0.1568
  C  C52  1  0.814260  0.814260  0.478120  1.0  -0.156
  C  C53  1  0.709000  0.709000  0.418000  1.0  0.0942
  C  C54  1  0.354500  0.354500  0.709000  1.0  -0.0709
  C  C55  1  0.329100  0.434400  0.763500  1.0  0.2063
  C  C56  1  0.336140  0.336140  0.521880  1.0  -0.1604
  C  C57  1  0.434400  0.329100  0.763500  1.0  0.2073
  C  C58  1  0.723160  0.127840  0.000000  1.0  -0.0076
  C  C59  1  0.172300  0.827700  0.000000  1.0  -0.0713
  C  C60  1  0.540300  0.248000  0.788300  1.0  -0.1576
  C  C61  1  0.459700  0.752000  0.211700  1.0  -0.1587
  C  C62  1  0.670900  0.565600  0.236500  1.0  0.2094
  C  C63  1  0.540300  0.752000  0.292300  1.0  -0.1551
  C  C64  1  0.645500  0.645500  0.291000  1.0  -0.0711
  C  C65  1  0.248000  0.540300  0.788300  1.0  -0.1554
  C  C66  1  0.248000  0.459700  0.707700  1.0  -0.1542
  C  C67  1  0.827700  0.827700  0.655400  1.0  -0.073
  C  C68  1  0.814260  0.336140  0.000000  1.0  -0.1536
  C  C69  1  0.645500  0.354500  0.000000  1.0  -0.0704
  C  C70  1  0.459700  0.248000  0.707700  1.0  -0.1542
  C  C71  1  0.670900  0.434400  0.105300  1.0  0.2134
  C  C72  1  0.565600  0.329100  0.894700  1.0  0.2139
  C  C73  1  0.891400  0.108600  0.000000  1.0  0.7171
  C  C74  1  0.329100  0.565600  0.894700  1.0  0.2114
  C  C75  1  0.291000  0.291000  0.582000  1.0  0.0948
  C  C76  1  0.287200  0.287200  0.000000  1.0  0.3241
  C  C77  1  0.434400  0.670900  0.105300  1.0  0.2127
  N  N78  1  0.378100  0.500000  0.878100  1.0  -0.3842
  N  N79  1  0.621900  0.500000  0.121900  1.0  -0.3853
  N  N80  1  0.500000  0.621900  0.121900  1.0  -0.3841
  N  N81  1  0.500000  0.378100  0.878100  1.0  -0.3846
  O  O82  1  0.012240  0.012240  0.168880  1.0  -0.572
  O  O83  1  0.843360  0.843360  0.831120  1.0  -0.5682
  O  O84  1  0.156640  0.987760  0.000000  1.0  -0.5701
  O  O85  1  0.987760  0.987760  0.831120  1.0  -0.5724
  O  O86  1  0.358700  0.358700  0.000000  1.0  -0.5748
  O  O87  1  0.843360  0.012240  0.000000  1.0  -0.5694
  O  O88  1  0.221000  0.221000  0.000000  1.0  -0.6095
  O  O89  1  0.156640  0.156640  0.168880  1.0  -0.5681
  O  O90  1  0.987760  0.156640  0.000000  1.0  -0.5694
  O  O91  1  0.779000  0.779000  0.000000  1.0  -0.6085
  O  O92  1  0.641300  0.641300  0.000000  1.0  -0.5783
  O  O93  1  0.012240  0.843360  0.000000  1.0  -0.5705
