# generated using pymatgen
data_LiH4C6NO2
_symmetry_space_group_name_H-M   'P 1'
_cell_length_a   5.39920000
_cell_length_b   11.14080000
_cell_length_c   13.68110000
_cell_angle_alpha   90.88500000
_cell_angle_beta   94.25000000
_cell_angle_gamma   91.82500000
_symmetry_Int_Tables_number   1
_chemical_formula_structural   LiH4C6NO2
_chemical_formula_sum   'Li4 H16 C24 N4 O8'
_cell_volume   820.12732507
_cell_formula_units_Z   4
loop_
 _symmetry_equiv_pos_site_id
 _symmetry_equiv_pos_as_xyz
  1  'x, y, z'
loop_
 _atom_site_type_symbol
 _atom_site_label
 _atom_site_symmetry_multiplicity
 _atom_site_fract_x
 _atom_site_fract_y
 _atom_site_fract_z
 _atom_site_occupancy
 _atom_site_charge
  Li  Li1  1  0.815200  0.513300  0.064300  1.0  0.8766
  Li  Li2  1  0.196700  0.016200  0.442500  1.0  0.8633
  Li  Li3  1  0.184800  0.486700  0.935700  1.0  0.8769
  Li  Li4  1  0.803300  0.983800  0.557500  1.0  0.863
  H  H5  1  0.554400  0.839500  0.382800  1.0  0.0781
  H  H6  1  0.904400  0.914600  0.254500  1.0  0.0763
  H  H7  1  0.943400  0.771300  0.132100  1.0  0.1234
  H  H8  1  0.620500  0.699800  0.261200  1.0  0.124
  H  H9  1  0.050400  0.157100  0.277400  1.0  0.1285
  H  H10  1  0.094300  0.298100  0.156700  1.0  0.0727
  H  H11  1  0.498700  0.461300  0.227500  1.0  0.08
  H  H12  1  0.425600  0.321100  0.345800  1.0  0.1238
  H  H13  1  0.445600  0.160500  0.617200  1.0  0.0774
  H  H14  1  0.095600  0.085400  0.745500  1.0  0.0763
  H  H15  1  0.056600  0.228700  0.867900  1.0  0.1241
  H  H16  1  0.379500  0.300200  0.738800  1.0  0.124
  H  H17  1  0.949600  0.842900  0.722600  1.0  0.1281
  H  H18  1  0.905700  0.701900  0.843300  1.0  0.0729
  H  H19  1  0.501300  0.538700  0.772500  1.0  0.0806
  H  H20  1  0.574400  0.678900  0.654200  1.0  0.1229
  C  C21  1  0.430400  0.826800  0.330400  1.0  0.1736
  C  C22  1  0.051200  0.869700  0.256200  1.0  0.163
  C  C23  1  0.073900  0.785300  0.181900  1.0  -0.1717
  C  C24  1  0.471000  0.742700  0.258300  1.0  -0.1755
  C  C25  1  0.290500  0.721900  0.181690  1.0  -0.1045
  C  C26  1  0.335100  0.633000  0.099650  1.0  0.6889
  C  C27  1  0.681300  0.131300  0.402810  1.0  0.681
  C  C28  1  0.730100  0.222600  0.324610  1.0  -0.0934
  C  C29  1  0.931900  0.217800  0.267600  1.0  -0.1605
  C  C30  1  0.957400  0.303300  0.196200  1.0  0.1547
  C  C31  1  0.610100  0.397500  0.236700  1.0  0.175
  C  C32  1  0.566000  0.314900  0.308300  1.0  -0.1525
  C  C33  1  0.569600  0.173200  0.669600  1.0  0.1738
  C  C34  1  0.948800  0.130300  0.743800  1.0  0.164
  C  C35  1  0.926100  0.214700  0.818100  1.0  -0.1708
  C  C36  1  0.529000  0.257300  0.741700  1.0  -0.175
  C  C37  1  0.709500  0.278100  0.818310  1.0  -0.1062
  C  C38  1  0.664900  0.367000  0.900350  1.0  0.6886
  C  C39  1  0.318700  0.868700  0.597190  1.0  0.681
  C  C40  1  0.269900  0.777400  0.675390  1.0  -0.0929
  C  C41  1  0.068100  0.782200  0.732400  1.0  -0.1615
  C  C42  1  0.042600  0.696700  0.803800  1.0  0.1546
  C  C43  1  0.389900  0.602500  0.763300  1.0  0.1751
  C  C44  1  0.434000  0.685100  0.691700  1.0  -0.1509
  N  N45  1  0.224200  0.891300  0.329990  1.0  -0.3459
  N  N46  1  0.800700  0.392700  0.179360  1.0  -0.3792
  N  N47  1  0.775800  0.108700  0.670010  1.0  -0.3456
  N  N48  1  0.199300  0.607300  0.820640  1.0  -0.3824
  O  O49  1  0.467400  0.126530  0.431440  1.0  -0.6686
  O  O50  1  0.147600  0.584020  0.054040  1.0  -0.8338
  O  O51  1  0.555500  0.617400  0.084210  1.0  -0.6939
  O  O52  1  0.857300  0.066880  0.432950  1.0  -0.8034
  O  O53  1  0.532600  0.873470  0.568560  1.0  -0.6679
  O  O54  1  0.852400  0.415980  0.945960  1.0  -0.8332
  O  O55  1  0.444500  0.382600  0.915790  1.0  -0.6939
  O  O56  1  0.142700  0.933120  0.567050  1.0  -0.803
