# generated using pymatgen
data_Zn3SiH11C25O18
_symmetry_space_group_name_H-M   'P 1'
_cell_length_a   14.62800000
_cell_length_b   16.47200000
_cell_length_c   21.02900000
_cell_angle_alpha   97.01000000
_cell_angle_beta   90.00000000
_cell_angle_gamma   90.00000000
_symmetry_Int_Tables_number   1
_chemical_formula_structural   Zn3SiH11C25O18
_chemical_formula_sum   'Zn12 Si4 H44 C100 O72'
_cell_volume   5029.11194070
_cell_formula_units_Z   4
loop_
 _symmetry_equiv_pos_site_id
 _symmetry_equiv_pos_as_xyz
  1  'x, y, z'
loop_
 _atom_site_type_symbol
 _atom_site_label
 _atom_site_symmetry_multiplicity
 _atom_site_fract_x
 _atom_site_fract_y
 _atom_site_fract_z
 _atom_site_occupancy
 _atom_site_charge
  Zn  Zn1  1  0.007380  0.055800  0.072700  1.0  0.9685
  Zn  Zn2  1  0.992620  0.944200  0.927300  1.0  0.9692
  Zn  Zn3  1  0.358400  0.794140  0.454830  1.0  1.0257
  Zn  Zn4  1  0.546700  0.747320  0.384900  1.0  1.0794
  Zn  Zn5  1  0.141600  0.794140  0.954830  1.0  1.0261
  Zn  Zn6  1  0.492620  0.055800  0.572700  1.0  0.9695
  Zn  Zn7  1  0.046700  0.252680  0.115100  1.0  1.0804
  Zn  Zn8  1  0.453300  0.252680  0.615100  1.0  1.0813
  Zn  Zn9  1  0.507380  0.944200  0.427300  1.0  0.968
  Zn  Zn10  1  0.953300  0.747320  0.884900  1.0  1.0798
  Zn  Zn11  1  0.858400  0.205860  0.045170  1.0  1.0253
  Zn  Zn12  1  0.641600  0.205860  0.545170  1.0  1.0271
  Si  Si13  1  0.997650  0.213430  0.868890  1.0  1.5792
  Si  Si14  1  0.497650  0.786570  0.631110  1.0  1.5819
  Si  Si15  1  0.002350  0.786570  0.131110  1.0  1.5808
  Si  Si16  1  0.502350  0.213430  0.368890  1.0  1.5786
  H  H17  1  0.809000  0.012900  0.794200  1.0  0.1228
  H  H18  1  0.561300  0.233900  0.801300  1.0  0.1363
  H  H19  1  0.938700  0.233900  0.301300  1.0  0.1365
  H  H20  1  0.304600  0.792500  0.789300  1.0  0.1346
  H  H21  1  0.670300  0.440000  0.495100  1.0  0.1363
  H  H22  1  0.296200  0.954000  0.281900  1.0  0.1103
  H  H23  1  0.208700  0.010400  0.032000  1.0  0.0492
  H  H24  1  0.703800  0.046000  0.718100  1.0  0.1108
  H  H25  1  0.509900  0.479700  0.364700  1.0  0.141
  H  H26  1  0.990100  0.479700  0.864700  1.0  0.1409
  H  H27  1  0.203800  0.954000  0.781900  1.0  0.1106
  H  H28  1  0.791300  0.989600  0.968000  1.0  0.0498
  H  H29  1  0.191000  0.987100  0.205800  1.0  0.1229
  H  H30  1  0.691000  0.012900  0.294200  1.0  0.1226
  H  H31  1  0.634300  0.229500  0.899300  1.0  0.1238
  H  H32  1  0.280600  0.221500  0.229900  1.0  0.1467
  H  H33  1  0.780600  0.778500  0.270100  1.0  0.146
  H  H34  1  0.513400  0.829100  0.485500  1.0  0.4204
  H  H35  1  0.708700  0.989600  0.468000  1.0  0.0486
  H  H36  1  0.865700  0.229500  0.399300  1.0  0.1232
  H  H37  1  0.061300  0.766100  0.698700  1.0  0.1366
  H  H38  1  0.438700  0.766100  0.198700  1.0  0.1369
  H  H39  1  0.312500  0.428100  0.529900  1.0  0.1264
  H  H40  1  0.829700  0.440000  0.995100  1.0  0.1355
  H  H41  1  0.719400  0.778500  0.770100  1.0  0.1459
  H  H42  1  0.695400  0.207500  0.210700  1.0  0.1351
  H  H43  1  0.219400  0.221500  0.729900  1.0  0.147
  H  H44  1  0.986600  0.829100  0.985500  1.0  0.4214
  H  H45  1  0.170300  0.560000  0.004900  1.0  0.1351
  H  H46  1  0.013400  0.170900  0.014500  1.0  0.4196
  H  H47  1  0.009900  0.520300  0.135300  1.0  0.1411
  H  H48  1  0.365700  0.770500  0.100700  1.0  0.1234
  H  H49  1  0.309000  0.987100  0.705800  1.0  0.1233
  H  H50  1  0.687500  0.571900  0.470100  1.0  0.126
  H  H51  1  0.486600  0.170900  0.514500  1.0  0.4211
  H  H52  1  0.291300  0.010400  0.532000  1.0  0.0503
  H  H53  1  0.134300  0.770500  0.600700  1.0  0.1234
  H  H54  1  0.187500  0.428100  0.029900  1.0  0.1263
  H  H55  1  0.195400  0.792500  0.289300  1.0  0.1353
  H  H56  1  0.812500  0.571900  0.970100  1.0  0.1261
  H  H57  1  0.329700  0.560000  0.504900  1.0  0.1358
  H  H58  1  0.796200  0.046000  0.218100  1.0  0.1106
  H  H59  1  0.490100  0.520300  0.635300  1.0  0.1412
  H  H60  1  0.804600  0.207500  0.710700  1.0  0.1352
  C  C61  1  0.863100  0.483520  0.018120  1.0  -0.0632
  C  C62  1  0.215420  0.167020  0.740250  1.0  -0.0674
  C  C63  1  0.145470  0.067000  0.800940  1.0  -0.1127
  C  C64  1  0.269200  0.027780  0.726220  1.0  -0.0527
  C  C65  1  0.041830  0.388060  0.912180  1.0  0.2865
  C  C66  1  0.645470  0.933000  0.699060  1.0  -0.113
  C  C67  1  0.236110  0.780800  0.135460  1.0  -0.1112
  C  C68  1  0.650140  0.852870  0.715200  1.0  0.3319
  C  C69  1  0.684350  0.210420  0.307710  1.0  0.3114
  C  C70  1  0.307510  0.783020  0.572640  1.0  0.6847
  C  C71  1  0.030100  0.468940  0.898220  1.0  -0.055
  C  C72  1  0.230800  0.027780  0.226220  1.0  -0.0529
  C  C73  1  0.150140  0.147130  0.784800  1.0  0.3296
  C  C74  1  0.369600  0.779220  0.316730  1.0  0.6973
  C  C75  1  0.844040  0.868580  0.835140  1.0  0.72
  C  C76  1  0.420470  0.042340  0.348280  1.0  0.7177
  C  C77  1  0.893080  0.709310  0.015030  1.0  0.7031
  C  C78  1  0.852600  0.561740  0.003790  1.0  -0.0137
  C  C79  1  0.606920  0.709310  0.515030  1.0  0.6995
  C  C80  1  0.784580  0.832980  0.259750  1.0  -0.0675
  C  C81  1  0.229770  0.787940  0.250730  1.0  -0.0823
  C  C82  1  0.677200  0.220110  0.746730  1.0  -0.1394
  C  C83  1  0.669500  0.225900  0.861080  1.0  -0.0398
  C  C84  1  0.125800  0.772300  0.697060  1.0  -0.0493
  C  C85  1  0.770230  0.212060  0.749270  1.0  -0.083
  C  C86  1  0.822800  0.220110  0.246730  1.0  -0.1398
  C  C87  1  0.226450  0.108070  0.211500  1.0  -0.1013
  C  C88  1  0.830700  0.025400  0.994060  1.0  0.6969
  C  C89  1  0.854530  0.933000  0.199060  1.0  -0.1124
  C  C90  1  0.184350  0.789580  0.192290  1.0  0.3131
  C  C91  1  0.794000  0.991720  0.228880  1.0  -0.0051
  C  C92  1  0.206000  0.008280  0.771120  1.0  -0.0046
  C  C93  1  0.442900  0.620600  0.421180  1.0  0.6972
  C  C94  1  0.920470  0.957660  0.151720  1.0  0.7183
  C  C95  1  0.763890  0.219200  0.864540  1.0  -0.1113
  C  C96  1  0.773550  0.891930  0.788500  1.0  -0.1005
  C  C97  1  0.155960  0.131420  0.164860  1.0  0.7218
  C  C98  1  0.352600  0.438260  0.496210  1.0  -0.0143
  C  C99  1  0.736110  0.219200  0.364540  1.0  -0.1109
  C  C100  1  0.284580  0.167020  0.240250  1.0  -0.0672
  C  C101  1  0.541830  0.611940  0.587820  1.0  0.2914
  C  C102  1  0.270230  0.787940  0.750730  1.0  -0.0816
  C  C103  1  0.958170  0.611940  0.087820  1.0  0.2911
  C  C104  1  0.374200  0.772300  0.197060  1.0  -0.0483
  C  C105  1  0.349860  0.147130  0.284800  1.0  0.3289
  C  C106  1  0.576200  0.467560  0.567270  1.0  -0.1127
  C  C107  1  0.579530  0.957660  0.651720  1.0  0.7177
  C  C108  1  0.079530  0.042340  0.848280  1.0  0.7173
  C  C109  1  0.706000  0.991720  0.728880  1.0  -0.0052
  C  C110  1  0.655960  0.868580  0.335140  1.0  0.7202
  C  C111  1  0.729770  0.212060  0.249270  1.0  -0.083
  C  C112  1  0.692490  0.216980  0.427360  1.0  0.6859
  C  C113  1  0.130400  0.779220  0.816730  1.0  0.6966
  C  C114  1  0.169300  0.974600  0.005940  1.0  0.6967
  C  C115  1  0.169500  0.774100  0.638920  1.0  -0.0392
  C  C116  1  0.100450  0.373410  0.962500  1.0  -0.1253
  C  C117  1  0.830500  0.225900  0.361080  1.0  -0.0371
  C  C118  1  0.625800  0.227700  0.802940  1.0  -0.0486
  C  C119  1  0.322800  0.779890  0.253270  1.0  -0.1389
  C  C120  1  0.669300  0.025400  0.494060  1.0  0.6962
  C  C121  1  0.263890  0.780800  0.635460  1.0  -0.1109
  C  C122  1  0.636900  0.483520  0.518120  1.0  -0.0632
  C  C123  1  0.726450  0.891930  0.288500  1.0  -0.1014
  C  C124  1  0.849860  0.852870  0.215200  1.0  0.3294
  C  C125  1  0.923800  0.467560  0.067270  1.0  -0.1128
  C  C126  1  0.106920  0.290690  0.984970  1.0  0.7011
  C  C127  1  0.530100  0.531060  0.601780  1.0  -0.0548
  C  C128  1  0.177200  0.779890  0.753270  1.0  -0.1388
  C  C129  1  0.192490  0.783020  0.072640  1.0  0.6847
  C  C130  1  0.600450  0.626590  0.537500  1.0  -0.1253
  C  C131  1  0.458170  0.388060  0.412180  1.0  0.2866
  C  C132  1  0.807510  0.216980  0.927360  1.0  0.6858
  C  C133  1  0.869600  0.220780  0.183270  1.0  0.6968
  C  C134  1  0.354530  0.067000  0.300940  1.0  -0.1119
  C  C135  1  0.393080  0.290690  0.484970  1.0  0.7037
  C  C136  1  0.076200  0.532440  0.932730  1.0  -0.115
  C  C137  1  0.815650  0.210420  0.807710  1.0  0.3154
  C  C138  1  0.147400  0.438260  0.996210  1.0  -0.0185
  C  C139  1  0.344040  0.131420  0.664860  1.0  0.7201
  C  C140  1  0.715420  0.832980  0.759750  1.0  -0.0677
  C  C141  1  0.730800  0.972220  0.273780  1.0  -0.0528
  C  C142  1  0.630400  0.220780  0.683270  1.0  0.6969
  C  C143  1  0.969900  0.531060  0.101780  1.0  -0.0524
  C  C144  1  0.557100  0.379400  0.578820  1.0  0.6955
  C  C145  1  0.330500  0.774100  0.138920  1.0  -0.0379
  C  C146  1  0.399550  0.373410  0.462500  1.0  -0.1259
  C  C147  1  0.315650  0.789580  0.692290  1.0  0.3141
  C  C148  1  0.769200  0.972220  0.773780  1.0  -0.0528
  C  C149  1  0.423800  0.532440  0.432730  1.0  -0.1147
  C  C150  1  0.469900  0.468940  0.398220  1.0  -0.0545
  C  C151  1  0.273550  0.108070  0.711500  1.0  -0.1012
  C  C152  1  0.942900  0.379400  0.078820  1.0  0.6949
  C  C153  1  0.874200  0.227700  0.302940  1.0  -0.0465
  C  C154  1  0.647400  0.561740  0.503790  1.0  -0.0173
  C  C155  1  0.330700  0.974600  0.505940  1.0  0.6971
  C  C156  1  0.899550  0.626590  0.037500  1.0  -0.1238
  C  C157  1  0.136900  0.516480  0.981880  1.0  -0.0633
  C  C158  1  0.057100  0.620600  0.921180  1.0  0.6973
  C  C159  1  0.294000  0.008280  0.271120  1.0  -0.0046
  C  C160  1  0.363100  0.516480  0.481880  1.0  -0.0651
  O  O161  1  0.817760  0.215500  0.135070  1.0  -0.5777
  O  O162  1  0.994870  0.633210  0.883300  1.0  -0.5617
  O  O163  1  0.359110  0.283450  0.537980  1.0  -0.5965
  O  O164  1  0.988280  0.167920  0.050570  1.0  -0.9619
  O  O165  1  0.851540  0.793500  0.841270  1.0  -0.5923
  O  O166  1  0.182240  0.784500  0.864930  1.0  -0.5763
  O  O167  1  0.104500  0.673330  0.953140  1.0  -0.5982
  O  O168  1  0.511720  0.167920  0.550570  1.0  -0.9622
  O  O169  1  0.140890  0.283450  0.037980  1.0  -0.5958
  O  O170  1  0.011720  0.832080  0.949430  1.0  -0.9638
  O  O171  1  0.980270  0.906550  0.126390  1.0  -0.5828
  O  O172  1  0.640890  0.716550  0.462020  1.0  -0.5971
  O  O173  1  0.796760  0.086300  0.024180  1.0  -0.5696
  O  O174  1  0.351540  0.206500  0.658730  1.0  -0.5937
  O  O175  1  0.682240  0.215500  0.635070  1.0  -0.5762
  O  O176  1  0.545200  0.227810  0.684000  1.0  -0.5834
  O  O177  1  0.019730  0.093450  0.873610  1.0  -0.582
  O  O178  1  0.480270  0.093450  0.373610  1.0  -0.5832
  O  O179  1  0.926010  0.771740  0.051140  1.0  -0.6191
  O  O180  1  0.317760  0.784500  0.364930  1.0  -0.5781
  O  O181  1  0.454800  0.772190  0.316000  1.0  -0.5858
  O  O182  1  0.993630  0.328650  0.877880  1.0  -0.6034
  O  O183  1  0.761920  0.228650  0.978060  1.0  -0.5769
  O  O184  1  0.916820  0.029190  0.137120  1.0  -0.5677
  O  O185  1  0.426010  0.228260  0.448860  1.0  -0.6183
  O  O186  1  0.505130  0.633210  0.383300  1.0  -0.5643
  O  O187  1  0.005130  0.366790  0.116700  1.0  -0.5625
  O  O188  1  0.083180  0.970810  0.862880  1.0  -0.5664
  O  O189  1  0.084790  0.993270  0.004760  1.0  -0.6466
  O  O190  1  0.416820  0.970810  0.362880  1.0  -0.5666
  O  O191  1  0.094150  0.797650  0.193450  1.0  -0.5848
  O  O192  1  0.393110  0.799770  0.569350  1.0  -0.6178
  O  O193  1  0.573990  0.771740  0.551140  1.0  -0.6194
  O  O194  1  0.610650  0.926050  0.364230  1.0  -0.5841
  O  O195  1  0.493630  0.671350  0.622120  1.0  -0.6012
  O  O196  1  0.893110  0.200230  0.930650  1.0  -0.6178
  O  O197  1  0.915210  0.006730  0.995240  1.0  -0.6453
  O  O198  1  0.604500  0.326670  0.546860  1.0  -0.5973
  O  O199  1  0.238080  0.771350  0.021940  1.0  -0.5776
  O  O200  1  0.045200  0.772190  0.816000  1.0  -0.5844
  O  O201  1  0.648460  0.793500  0.341270  1.0  -0.5927
  O  O202  1  0.606890  0.200230  0.430650  1.0  -0.6175
  O  O203  1  0.415210  0.993270  0.504760  1.0  -0.6462
  O  O204  1  0.904630  0.793430  0.188680  1.0  -0.5966
  O  O205  1  0.584790  0.006730  0.495240  1.0  -0.6458
  O  O206  1  0.889350  0.926050  0.864230  1.0  -0.5836
  O  O207  1  0.389350  0.073950  0.635770  1.0  -0.5834
  O  O208  1  0.859110  0.716550  0.962020  1.0  -0.5976
  O  O209  1  0.106890  0.799770  0.069350  1.0  -0.6172
  O  O210  1  0.895500  0.326670  0.046860  1.0  -0.5997
  O  O211  1  0.494870  0.366790  0.616700  1.0  -0.5649
  O  O212  1  0.594150  0.202350  0.306550  1.0  -0.5866
  O  O213  1  0.738080  0.228650  0.478060  1.0  -0.5768
  O  O214  1  0.703240  0.086300  0.524180  1.0  -0.5675
  O  O215  1  0.954800  0.227810  0.184000  1.0  -0.5851
  O  O216  1  0.006370  0.671350  0.122120  1.0  -0.6004
  O  O217  1  0.583180  0.029190  0.637120  1.0  -0.5661
  O  O218  1  0.519730  0.906550  0.626390  1.0  -0.5816
  O  O219  1  0.203240  0.913700  0.975820  1.0  -0.5695
  O  O220  1  0.395500  0.673330  0.453140  1.0  -0.5997
  O  O221  1  0.148460  0.206500  0.158730  1.0  -0.591
  O  O222  1  0.905850  0.202350  0.806550  1.0  -0.5838
  O  O223  1  0.110650  0.073950  0.135770  1.0  -0.5842
  O  O224  1  0.488280  0.832080  0.449430  1.0  -0.9628
  O  O225  1  0.296760  0.913700  0.475820  1.0  -0.5699
  O  O226  1  0.405850  0.797650  0.693450  1.0  -0.5831
  O  O227  1  0.595370  0.793430  0.688680  1.0  -0.5967
  O  O228  1  0.073990  0.228260  0.948860  1.0  -0.6175
  O  O229  1  0.261920  0.771350  0.521940  1.0  -0.5781
  O  O230  1  0.506370  0.328650  0.377880  1.0  -0.6031
  O  O231  1  0.095370  0.206570  0.811320  1.0  -0.595
  O  O232  1  0.404630  0.206570  0.311320  1.0  -0.5954
