# generated using pymatgen
data_Eu2H13C35O12
_symmetry_space_group_name_H-M   'P 1'
_cell_length_a   16.30800000
_cell_length_b   16.56050000
_cell_length_c   21.14910000
_cell_angle_alpha   79.05700000
_cell_angle_beta   67.32230000
_cell_angle_gamma   60.50310000
_symmetry_Int_Tables_number   1
_chemical_formula_structural   Eu2H13C35O12
_chemical_formula_sum   'Eu8 H52 C140 O48'
_cell_volume   4587.02474106
_cell_formula_units_Z   4
loop_
 _symmetry_equiv_pos_site_id
 _symmetry_equiv_pos_as_xyz
  1  'x, y, z'
loop_
 _atom_site_type_symbol
 _atom_site_label
 _atom_site_symmetry_multiplicity
 _atom_site_fract_x
 _atom_site_fract_y
 _atom_site_fract_z
 _atom_site_occupancy
 _atom_site_charge
  Eu  Eu1  1  0.994190  0.881960  0.195470  1.0  2.1662
  Eu  Eu2  1  0.005810  0.118040  0.804530  1.0  2.1657
  Eu  Eu3  1  0.571610  0.618050  0.304540  1.0  2.1644
  Eu  Eu4  1  0.376160  0.118040  0.695460  1.0  2.1657
  Eu  Eu5  1  0.310330  0.618050  0.195470  1.0  2.1651
  Eu  Eu6  1  0.623840  0.881960  0.304540  1.0  2.1664
  Eu  Eu7  1  0.689670  0.381950  0.804530  1.0  2.1642
  Eu  Eu8  1  0.428390  0.381950  0.695460  1.0  2.1642
  H  H9  1  0.490300  0.015800  0.109400  1.0  0.1036
  H  H10  1  0.105100  0.289800  0.750000  1.0  0.0924
  H  H11  1  0.638400  0.990600  0.907200  1.0  0.0942
  H  H12  1  0.905900  0.954000  0.383200  1.0  0.0966
  H  H13  1  0.210900  0.546000  0.383200  1.0  0.098
  H  H14  1  0.862400  0.531600  0.747400  1.0  0.1061
  H  H15  1  0.256900  0.454000  0.883200  1.0  0.0976
  H  H16  1  0.421500  0.508000  0.456200  1.0  0.1055
  H  H17  1  0.871000  0.990600  0.592800  1.0  0.094
  H  H18  1  0.006100  0.984200  0.609400  1.0  0.1037
  H  H19  1  0.859100  0.436200  0.930000  1.0  0.0962
  H  H20  1  0.963800  0.490600  0.407200  1.0  0.0949
  H  H21  1  0.359900  0.046000  0.883200  1.0  0.0969
  H  H22  1  0.725300  0.063800  0.570000  1.0  0.0967
  H  H23  1  0.115500  0.484200  0.390600  1.0  0.1009
  H  H24  1  0.137600  0.468400  0.252600  1.0  0.1054
  H  H25  1  0.885700  0.992000  0.043800  1.0  0.1047
  H  H26  1  0.890200  0.968400  0.747400  1.0  0.1067
  H  H27  1  0.045600  0.490600  0.092800  1.0  0.0943
  H  H28  1  0.789100  0.454000  0.616800  1.0  0.0965
  H  H29  1  0.106000  0.531600  0.752600  1.0  0.1054
  H  H30  1  0.509700  0.984200  0.890600  1.0  0.1038
  H  H31  1  0.358600  0.031600  0.247400  1.0  0.1068
  H  H32  1  0.036200  0.509400  0.592800  1.0  0.0946
  H  H33  1  0.429500  0.492000  0.956200  1.0  0.1053
  H  H34  1  0.274700  0.936200  0.430000  1.0  0.0979
  H  H35  1  0.743100  0.546000  0.116800  1.0  0.0965
  H  H36  1  0.377700  0.008000  0.543800  1.0  0.1042
  H  H37  1  0.644900  0.210200  0.750000  1.0  0.0921
  H  H38  1  0.094100  0.046000  0.616800  1.0  0.0956
  H  H39  1  0.289100  0.936200  0.070000  1.0  0.097
  H  H40  1  0.355100  0.789800  0.250000  1.0  0.0923
  H  H41  1  0.622300  0.992000  0.456200  1.0  0.1053
  H  H42  1  0.795300  0.563800  0.430000  1.0  0.0961
  H  H43  1  0.570500  0.508000  0.043800  1.0  0.1067
  H  H44  1  0.099700  0.515800  0.890600  1.0  0.1009
  H  H45  1  0.129000  0.009400  0.407200  1.0  0.0941
  H  H46  1  0.114300  0.008000  0.956200  1.0  0.1054
  H  H47  1  0.710900  0.063800  0.930000  1.0  0.0975
  H  H48  1  0.993900  0.015800  0.390600  1.0  0.1035
  H  H49  1  0.641400  0.968400  0.752600  1.0  0.1068
  H  H50  1  0.361600  0.009400  0.092800  1.0  0.0941
  H  H51  1  0.109800  0.031600  0.252600  1.0  0.1066
  H  H52  1  0.894000  0.468400  0.247400  1.0  0.1055
  H  H53  1  0.204700  0.436200  0.570000  1.0  0.0961
  H  H54  1  0.900300  0.484200  0.109400  1.0  0.1014
  H  H55  1  0.140900  0.563800  0.070000  1.0  0.096
  H  H56  1  0.884500  0.515800  0.609400  1.0  0.1014
  H  H57  1  0.954400  0.509400  0.907200  1.0  0.0951
  H  H58  1  0.578500  0.492000  0.543800  1.0  0.1067
  H  H59  1  0.640100  0.954000  0.116800  1.0  0.0957
  H  H60  1  0.894900  0.710200  0.250000  1.0  0.092
  C  C61  1  0.494630  0.009680  0.065260  1.0  -0.1536
  C  C62  1  0.080390  0.648020  0.251040  1.0  0.6787
  C  C63  1  0.785010  0.929460  0.344320  1.0  0.7851
  C  C64  1  0.355460  0.468880  0.909060  1.0  -0.1724
  C  C65  1  0.441210  0.429460  0.844320  1.0  0.7759
  C  C66  1  0.024460  0.451080  0.250000  1.0  0.0392
  C  C67  1  0.072870  0.354260  0.750000  1.0  0.0303
  C  C68  1  0.923900  0.652200  0.750000  1.0  0.0277
  C  C69  1  0.736490  0.038700  0.529920  1.0  -0.0903
  C  C70  1  0.190000  0.201400  0.286600  1.0  0.0492
  C  C71  1  0.069570  0.490320  0.434740  1.0  -0.1547
  C  C72  1  0.505370  0.990320  0.934740  1.0  -0.1536
  C  C73  1  0.023400  0.298600  0.286600  1.0  0.05
  C  C74  1  0.977770  0.494660  0.444800  1.0  -0.1353
  C  C75  1  0.225540  0.048920  0.250000  1.0  0.0391
  C  C76  1  0.141800  0.297200  0.286600  1.0  0.0453
  C  C77  1  0.675660  0.468880  0.590940  1.0  -0.1724
  C  C78  1  0.175860  0.999440  0.251520  1.0  -0.0537
  C  C79  1  0.940110  0.490320  0.065260  1.0  -0.1541
  C  C80  1  0.776180  0.097260  0.748640  1.0  -0.143
  C  C81  1  0.808060  0.033800  0.978680  1.0  -0.143
  C  C82  1  0.774400  0.797200  0.786600  1.0  0.0425
  C  C83  1  0.071600  0.202800  0.286600  1.0  0.0418
  C  C84  1  0.995690  0.009680  0.434740  1.0  -0.1529
  C  C85  1  0.829150  0.997400  0.038560  1.0  0.0196
  C  C86  1  0.123870  0.934560  0.077500  1.0  0.7226
  C  C87  1  0.298630  0.565440  0.077500  1.0  0.7236
  C  C88  1  0.233590  0.461300  0.529920  1.0  -0.0945
  C  C89  1  0.479450  0.851980  0.248960  1.0  0.6962
  C  C90  1  0.223820  0.902740  0.251360  1.0  -0.1431
  C  C91  1  0.844110  0.973420  0.418260  1.0  -0.0682
  C  C92  1  0.558790  0.570540  0.155680  1.0  0.7768
  C  C93  1  0.635930  0.565440  0.422500  1.0  0.7252
  C  C94  1  0.724810  0.038700  0.970080  1.0  -0.0916
  C  C95  1  0.682470  0.973420  0.081740  1.0  -0.068
  C  C96  1  0.626560  0.097260  0.751360  1.0  -0.1427
  C  C97  1  0.764520  0.968880  0.090940  1.0  -0.1761
  C  C98  1  0.264210  0.473420  0.918260  1.0  -0.0688
  C  C99  1  0.876130  0.065440  0.922500  1.0  0.7223
  C  C100  1  0.077430  0.005340  0.444800  1.0  -0.1322
  C  C101  1  0.975540  0.548920  0.750000  1.0  0.039
  C  C102  1  0.891400  0.798600  0.786600  1.0  0.047
  C  C103  1  0.916750  0.004820  0.490080  1.0  0.0349
  C  C104  1  0.233400  0.031120  0.590940  1.0  -0.1763
  C  C105  1  0.324700  0.999440  0.248480  1.0  -0.0551
  C  C106  1  0.237630  0.526580  0.418260  1.0  -0.0677
  C  C107  1  0.122080  0.402740  0.751360  1.0  -0.1425
  C  C108  1  0.679460  0.533800  0.478680  1.0  -0.1439
  C  C109  1  0.662470  0.006620  0.020640  1.0  0.0217
  C  C110  1  0.822000  0.701400  0.786600  1.0  0.0491
  C  C111  1  0.877920  0.597260  0.248640  1.0  -0.1426
  C  C112  1  0.911650  0.495180  0.009920  1.0  0.034
  C  C113  1  0.766600  0.968880  0.409060  1.0  -0.1753
  C  C114  1  0.785530  0.929460  0.155680  1.0  0.7863
  C  C115  1  0.926820  0.500560  0.248480  1.0  -0.0537
  C  C116  1  0.701370  0.434560  0.922500  1.0  0.7246
  C  C117  1  0.673450  0.997400  0.461440  1.0  0.0175
  C  C118  1  0.578430  0.004820  0.009920  1.0  0.0346
  C  C119  1  0.061000  0.297200  0.213400  1.0  0.0454
  C  C120  1  0.370670  0.570540  0.344320  1.0  0.7772
  C  C121  1  0.059890  0.509680  0.934740  1.0  -0.1536
  C  C122  1  0.073180  0.499440  0.751520  1.0  -0.0543
  C  C123  1  0.337530  0.993380  0.979360  1.0  0.0209
  C  C124  1  0.831430  0.148020  0.748960  1.0  0.6965
  C  C125  1  0.108600  0.201400  0.213400  1.0  0.0502
  C  C126  1  0.317530  0.026580  0.918260  1.0  -0.0677
  C  C127  1  0.582770  0.994660  0.944800  1.0  -0.1325
  C  C128  1  0.658140  0.033800  0.521320  1.0  -0.1428
  C  C129  1  0.093170  0.495180  0.490080  1.0  0.0333
  C  C130  1  0.975180  0.402740  0.748640  1.0  -0.1431
  C  C131  1  0.083250  0.995180  0.509920  1.0  0.0344
  C  C132  1  0.364070  0.434560  0.577500  1.0  0.7249
  C  C133  1  0.320540  0.466200  0.521320  1.0  -0.1444
  C  C134  1  0.263510  0.961300  0.470080  1.0  -0.0927
  C  C135  1  0.928400  0.797200  0.713400  1.0  0.0413
  C  C136  1  0.558430  0.065440  0.577500  1.0  0.721
  C  C137  1  0.189730  0.493380  0.479360  1.0  0.0196
  C  C138  1  0.326550  0.002600  0.538560  1.0  0.0188
  C  C139  1  0.235480  0.031120  0.909060  1.0  -0.1755
  C  C140  1  0.771590  0.648020  0.248960  1.0  0.6977
  C  C141  1  0.373440  0.902740  0.248640  1.0  -0.1429
  C  C142  1  0.735790  0.526580  0.081740  1.0  -0.0686
  C  C143  1  0.816890  0.493380  0.020640  1.0  0.0193
  C  C144  1  0.520550  0.148020  0.751040  1.0  0.6979
  C  C145  1  0.976600  0.701400  0.713400  1.0  0.0536
  C  C146  1  0.155890  0.026580  0.581740  1.0  -0.0683
  C  C147  1  0.634890  0.497400  0.538560  1.0  0.0162
  C  C148  1  0.919610  0.351980  0.748960  1.0  0.6796
  C  C149  1  0.324340  0.531120  0.409060  1.0  -0.1725
  C  C150  1  0.939000  0.702800  0.786600  1.0  0.0418
  C  C151  1  0.275190  0.961300  0.029920  1.0  -0.0917
  C  C152  1  0.930430  0.509680  0.565260  1.0  -0.1533
  C  C153  1  0.927130  0.645740  0.250000  1.0  0.0295
  C  C154  1  0.824140  0.000560  0.748480  1.0  -0.0553
  C  C155  1  0.341860  0.966200  0.478680  1.0  -0.1429
  C  C156  1  0.088350  0.504820  0.990080  1.0  0.0335
  C  C157  1  0.922570  0.994660  0.555200  1.0  -0.1311
  C  C158  1  0.421570  0.995180  0.990080  1.0  0.0347
  C  C159  1  0.004310  0.990320  0.565260  1.0  -0.1537
  C  C160  1  0.022230  0.505340  0.555200  1.0  -0.133
  C  C161  1  0.810270  0.506620  0.520640  1.0  0.0193
  C  C162  1  0.072620  0.500560  0.251520  1.0  -0.0544
  C  C163  1  0.322870  0.854260  0.250000  1.0  0.0301
  C  C164  1  0.191940  0.966200  0.021320  1.0  -0.143
  C  C165  1  0.441570  0.934560  0.422500  1.0  0.7206
  C  C166  1  0.805110  0.461300  0.970080  1.0  -0.0953
  C  C167  1  0.972430  0.505340  0.944800  1.0  -0.1352
  C  C168  1  0.858200  0.702800  0.713400  1.0  0.0441
  C  C169  1  0.225600  0.202800  0.213400  1.0  0.0424
  C  C170  1  0.774460  0.951080  0.750000  1.0  0.0392
  C  C171  1  0.178000  0.298600  0.213400  1.0  0.0526
  C  C172  1  0.713260  0.466200  0.978680  1.0  -0.1444
  C  C173  1  0.675300  0.000560  0.751520  1.0  -0.054
  C  C174  1  0.183110  0.506620  0.979360  1.0  0.0195
  C  C175  1  0.170850  0.002600  0.961440  1.0  0.0182
  C  C176  1  0.367710  0.497400  0.961440  1.0  0.0155
  C  C177  1  0.228410  0.351980  0.751040  1.0  0.6797
  C  C178  1  0.766410  0.538700  0.470080  1.0  -0.0944
  C  C179  1  0.076100  0.347800  0.250000  1.0  0.0279
  C  C180  1  0.168570  0.851980  0.251040  1.0  0.6974
  C  C181  1  0.417230  0.005340  0.055200  1.0  -0.1308
  C  C182  1  0.677130  0.145740  0.750000  1.0  0.0297
  C  C183  1  0.927380  0.499440  0.748480  1.0  -0.0536
  C  C184  1  0.906830  0.504820  0.509920  1.0  0.0343
  C  C185  1  0.762370  0.473420  0.581740  1.0  -0.0677
  C  C186  1  0.810000  0.798600  0.713400  1.0  0.0516
  C  C187  1  0.169090  0.993380  0.520640  1.0  0.0218
  C  C188  1  0.826100  0.847800  0.750000  1.0  0.0279
  C  C189  1  0.644540  0.531120  0.090940  1.0  -0.1725
  C  C190  1  0.214470  0.070540  0.844320  1.0  0.7857
  C  C191  1  0.024820  0.597260  0.251360  1.0  -0.1426
  C  C192  1  0.632290  0.502600  0.038560  1.0  0.0128
  C  C193  1  0.027570  0.494660  0.055200  1.0  -0.1332
  C  C194  1  0.173900  0.152200  0.250000  1.0  0.0277
  C  C195  1  0.629330  0.429460  0.655680  1.0  0.776
  C  C196  1  0.194890  0.538700  0.029920  1.0  -0.0946
  C  C197  1  0.214990  0.070540  0.655680  1.0  0.7867
  C  C198  1  0.365110  0.502600  0.461440  1.0  0.0205
  C  C199  1  0.830910  0.006620  0.479360  1.0  0.0208
  C  C200  1  0.286740  0.533800  0.021320  1.0  -0.1446
  O  O201  1  0.838270  0.397660  0.737660  1.0  -0.6634
  O  O202  1  0.286790  0.071140  0.663100  1.0  -0.7777
  O  O203  1  0.571190  0.602640  0.198020  1.0  -0.7292
  O  O204  1  0.033600  0.969300  0.083420  1.0  -0.6708
  O  O205  1  0.478970  0.571140  0.163100  1.0  -0.7765
  O  O206  1  0.485490  0.232860  0.738920  1.0  -0.7592
  O  O207  1  0.218350  0.767140  0.238920  1.0  -0.759
  O  O208  1  0.735930  0.602340  0.237660  1.0  -0.6642
  O  O209  1  0.966400  0.030700  0.916580  1.0  -0.6706
  O  O210  1  0.514510  0.767140  0.261080  1.0  -0.7607
  O  O211  1  0.533170  0.125860  0.619220  1.0  -0.6579
  O  O212  1  0.161730  0.602340  0.262340  1.0  -0.6644
  O  O213  1  0.617020  0.469300  0.916580  1.0  -0.6735
  O  O214  1  0.466830  0.874140  0.380780  1.0  -0.6556
  O  O215  1  0.502900  0.030700  0.583420  1.0  -0.6698
  O  O216  1  0.269210  0.102640  0.801980  1.0  -0.7288
  O  O217  1  0.428810  0.397360  0.801980  1.0  -0.7278
  O  O218  1  0.275590  0.267140  0.738920  1.0  -0.7614
  O  O219  1  0.075930  0.897660  0.262340  1.0  -0.6631
  O  O220  1  0.526410  0.897660  0.237660  1.0  -0.6639
  O  O221  1  0.497100  0.969300  0.416580  1.0  -0.6714
  O  O222  1  0.840970  0.125860  0.880780  1.0  -0.6552
  O  O223  1  0.473590  0.102340  0.762340  1.0  -0.6651
  O  O224  1  0.857930  0.928860  0.163100  1.0  -0.7779
  O  O225  1  0.326170  0.602640  0.301980  1.0  -0.7283
  O  O226  1  0.652390  0.625860  0.380780  1.0  -0.6575
  O  O227  1  0.382980  0.530700  0.083420  1.0  -0.6736
  O  O228  1  0.730790  0.897360  0.198020  1.0  -0.7276
  O  O229  1  0.724410  0.732860  0.261080  1.0  -0.7595
  O  O230  1  0.159030  0.874140  0.119220  1.0  -0.6567
  O  O231  1  0.778250  0.374140  0.880780  1.0  -0.6569
  O  O232  1  0.871850  0.897360  0.301980  1.0  -0.7285
  O  O233  1  0.347610  0.374140  0.619220  1.0  -0.6575
  O  O234  1  0.142070  0.071140  0.836900  1.0  -0.7784
  O  O235  1  0.413680  0.469300  0.583420  1.0  -0.6738
  O  O236  1  0.449890  0.571140  0.336900  1.0  -0.7767
  O  O237  1  0.673830  0.397360  0.698020  1.0  -0.7291
  O  O238  1  0.957270  0.267140  0.761080  1.0  -0.7596
  O  O239  1  0.521030  0.428860  0.836900  1.0  -0.7782
  O  O240  1  0.042730  0.732860  0.238920  1.0  -0.7615
  O  O241  1  0.781650  0.232860  0.761080  1.0  -0.7606
  O  O242  1  0.586320  0.530700  0.416580  1.0  -0.6726
  O  O243  1  0.128150  0.102640  0.698020  1.0  -0.728
  O  O244  1  0.550110  0.428860  0.663100  1.0  -0.7769
  O  O245  1  0.713210  0.928860  0.336900  1.0  -0.7799
  O  O246  1  0.264070  0.397660  0.762340  1.0  -0.6629
  O  O247  1  0.924070  0.102340  0.737660  1.0  -0.6637
  O  O248  1  0.221750  0.625860  0.119220  1.0  -0.6577
