# generated using pymatgen
data_Zn5H16(C3O2)18
_symmetry_space_group_name_H-M   'P 1'
_cell_length_a   13.87100000
_cell_length_b   15.10200000
_cell_length_c   19.99400000
_cell_angle_alpha   90.00000000
_cell_angle_beta   90.00000000
_cell_angle_gamma   94.69000000
_symmetry_Int_Tables_number   1
_chemical_formula_structural   Zn5H16(C3O2)18
_chemical_formula_sum   'Zn10 H32 C108 O72'
_cell_volume   4174.31602752
_cell_formula_units_Z   2
loop_
 _symmetry_equiv_pos_site_id
 _symmetry_equiv_pos_as_xyz
  1  'x, y, z'
loop_
 _atom_site_type_symbol
 _atom_site_label
 _atom_site_symmetry_multiplicity
 _atom_site_fract_x
 _atom_site_fract_y
 _atom_site_fract_z
 _atom_site_occupancy
 _atom_site_charge
  Zn  Zn1  1  0.067540  0.555340  0.659900  1.0  1.0795
  Zn  Zn2  1  0.553770  0.929920  0.562640  1.0  1.0965
  Zn  Zn3  1  0.932460  0.944660  0.159900  1.0  1.0797
  Zn  Zn4  1  0.932460  0.444660  0.340100  1.0  1.0796
  Zn  Zn5  1  0.446230  0.070080  0.437360  1.0  1.0941
  Zn  Zn6  1  0.067540  0.055340  0.840100  1.0  1.0795
  Zn  Zn7  1  0.000000  0.500000  0.500000  1.0  1.0658
  Zn  Zn8  1  0.553770  0.429920  0.937360  1.0  1.0946
  Zn  Zn9  1  0.000000  0.000000  0.000000  1.0  1.0658
  Zn  Zn10  1  0.446230  0.570080  0.062640  1.0  1.0956
  H  H11  1  0.939000  0.806000  0.947000  1.0  0.1417
  H  H12  1  0.810000  0.473000  0.751000  1.0  0.1336
  H  H13  1  0.546000  0.843000  0.771600  1.0  0.1407
  H  H14  1  0.258000  0.393000  0.114000  1.0  0.1415
  H  H15  1  0.711000  0.225000  0.430000  1.0  0.1417
  H  H16  1  0.498000  0.800000  0.989000  1.0  0.3658
  H  H17  1  0.289000  0.775000  0.570000  1.0  0.1427
  H  H18  1  0.289000  0.275000  0.930000  1.0  0.1416
  H  H19  1  0.190000  0.027000  0.251000  1.0  0.1337
  H  H20  1  0.454000  0.657000  0.271600  1.0  0.1417
  H  H21  1  0.502000  0.700000  0.489000  1.0  0.3647
  H  H22  1  0.742000  0.107000  0.614000  1.0  0.1414
  H  H23  1  0.718000  0.903000  0.934000  1.0  0.132
  H  H24  1  0.711000  0.725000  0.070000  1.0  0.1423
  H  H25  1  0.546000  0.343000  0.728400  1.0  0.141
  H  H26  1  0.718000  0.403000  0.566000  1.0  0.1317
  H  H27  1  0.498000  0.300000  0.511000  1.0  0.3655
  H  H28  1  0.190000  0.527000  0.249000  1.0  0.1336
  H  H29  1  0.939000  0.306000  0.553000  1.0  0.1411
  H  H30  1  0.810000  0.973000  0.749000  1.0  0.1339
  H  H31  1  0.454000  0.157000  0.228400  1.0  0.1419
  H  H32  1  0.031000  0.388000  0.208000  1.0  0.3853
  H  H33  1  0.258000  0.893000  0.386000  1.0  0.1416
  H  H34  1  0.282000  0.597000  0.434000  1.0  0.1309
  H  H35  1  0.282000  0.097000  0.066000  1.0  0.1338
  H  H36  1  0.061000  0.194000  0.053000  1.0  0.1415
  H  H37  1  0.031000  0.888000  0.292000  1.0  0.3868
  H  H38  1  0.742000  0.607000  0.886000  1.0  0.1418
  H  H39  1  0.969000  0.612000  0.792000  1.0  0.3868
  H  H40  1  0.969000  0.112000  0.708000  1.0  0.3865
  H  H41  1  0.061000  0.694000  0.447000  1.0  0.1417
  H  H42  1  0.502000  0.200000  0.011000  1.0  0.3647
  C  C43  1  0.252000  0.277400  0.973290  1.0  -0.0643
  C  C44  1  0.723100  0.793600  0.435330  1.0  -0.0901
  C  C45  1  0.851000  0.204000  0.590650  1.0  -0.064
  C  C46  1  0.168900  0.310600  0.606920  1.0  -0.1186
  C  C47  1  0.122600  0.396600  0.601330  1.0  0.7389
  C  C48  1  0.714300  0.159600  0.521140  1.0  -0.0981
  C  C49  1  0.344400  0.585600  0.177220  1.0  0.7352
  C  C50  1  0.167300  0.225200  0.984280  1.0  -0.0968
  C  C51  1  0.251700  0.648600  0.882590  1.0  0.0902
  C  C52  1  0.326900  0.090800  0.248120  1.0  -0.1062
  C  C53  1  0.186100  0.172900  0.666060  1.0  -0.1024
  C  C54  1  0.619500  0.865200  0.862730  1.0  -0.0912
  C  C55  1  0.831100  0.189400  0.106920  1.0  -0.1174
  C  C56  1  0.837600  0.887000  0.275370  1.0  0.6815
  C  C57  1  0.233600  0.851100  0.420280  1.0  -0.0077
  C  C58  1  0.380500  0.634800  0.362730  1.0  -0.091
  C  C59  1  0.873100  0.481500  0.626580  1.0  0.7241
  C  C60  1  0.285700  0.840400  0.478860  1.0  -0.0973
  C  C61  1  0.765000  0.213300  0.058320  1.0  0.0422
  C  C62  1  0.233600  0.351100  0.079720  1.0  -0.0092
  C  C63  1  0.602900  0.369000  0.706100  1.0  -0.0159
  C  C64  1  0.759400  0.945500  0.778610  1.0  -0.0151
  C  C65  1  0.673100  0.409200  0.748120  1.0  -0.1063
  C  C66  1  0.149000  0.796000  0.409350  1.0  -0.0631
  C  C67  1  0.222900  0.057700  0.153160  1.0  -0.1391
  C  C68  1  0.326900  0.590800  0.251880  1.0  -0.1063
  C  C69  1  0.650300  0.818800  0.486630  1.0  0.7193
  C  C70  1  0.235000  0.286700  0.558320  1.0  0.0399
  C  C71  1  0.222900  0.557700  0.346840  1.0  -0.1389
  C  C72  1  0.837600  0.387000  0.224630  1.0  0.6817
  C  C73  1  0.126900  0.518500  0.373420  1.0  0.7244
  C  C74  1  0.619700  0.605500  0.990140  1.0  0.7077
  C  C75  1  0.650300  0.318800  0.013370  1.0  0.7201
  C  C76  1  0.252000  0.777400  0.526710  1.0  -0.0655
  C  C77  1  0.619700  0.105500  0.509860  1.0  0.7077
  C  C78  1  0.673100  0.909200  0.751880  1.0  -0.1065
  C  C79  1  0.777100  0.942300  0.846840  1.0  -0.1387
  C  C80  1  0.162400  0.613000  0.775370  1.0  0.6813
  C  C81  1  0.867400  0.842300  0.067550  1.0  0.7078
  C  C82  1  0.162400  0.113000  0.724630  1.0  0.6811
  C  C83  1  0.397100  0.131000  0.206100  1.0  -0.0149
  C  C84  1  0.777100  0.442300  0.653160  1.0  -0.1387
  C  C85  1  0.349700  0.681200  0.986630  1.0  0.707
  C  C86  1  0.766400  0.148900  0.579720  1.0  -0.0099
  C  C87  1  0.723100  0.293600  0.064670  1.0  -0.09
  C  C88  1  0.905100  0.201700  0.654740  1.0  0.6932
  C  C89  1  0.397100  0.631000  0.293900  1.0  -0.0144
  C  C90  1  0.186100  0.672900  0.833940  1.0  -0.0991
  C  C91  1  0.276900  0.206400  0.564670  1.0  -0.0893
  C  C92  1  0.115500  0.732800  0.456640  1.0  -0.0789
  C  C93  1  0.380300  0.894500  0.490140  1.0  0.7075
  C  C94  1  0.714300  0.659600  0.978860  1.0  -0.0974
  C  C95  1  0.766400  0.648900  0.920280  1.0  -0.0093
  C  C96  1  0.853800  0.745500  0.338700  1.0  0.0801
  C  C97  1  0.344400  0.085600  0.322780  1.0  0.7337
  C  C98  1  0.285700  0.340400  0.021140  1.0  -0.098
  C  C99  1  0.276900  0.706400  0.935330  1.0  -0.0894
  C  C100  1  0.251700  0.148600  0.617410  1.0  0.0912
  C  C101  1  0.765000  0.713300  0.441680  1.0  0.0425
  C  C102  1  0.873100  0.981500  0.873420  1.0  0.7256
  C  C103  1  0.168900  0.810600  0.893080  1.0  -0.1176
  C  C104  1  0.349700  0.181200  0.513370  1.0  0.7203
  C  C105  1  0.293900  0.098600  0.110410  1.0  0.0302
  C  C106  1  0.115500  0.232800  0.043360  1.0  -0.0796
  C  C107  1  0.706100  0.401400  0.610410  1.0  0.0304
  C  C108  1  0.905100  0.701700  0.845260  1.0  0.6929
  C  C109  1  0.167300  0.725200  0.515720  1.0  -0.0945
  C  C110  1  0.748000  0.222600  0.473290  1.0  -0.0645
  C  C111  1  0.094900  0.298300  0.154740  1.0  0.6882
  C  C112  1  0.853800  0.245500  0.161300  1.0  0.0815
  C  C113  1  0.380300  0.394500  0.009860  1.0  0.7064
  C  C114  1  0.619500  0.365200  0.637270  1.0  -0.092
  C  C115  1  0.877400  0.103400  0.101330  1.0  0.7415
  C  C116  1  0.884500  0.267200  0.543360  1.0  -0.0776
  C  C117  1  0.132600  0.657700  0.567550  1.0  0.7071
  C  C118  1  0.146200  0.754500  0.838700  1.0  0.0814
  C  C119  1  0.126900  0.018500  0.126580  1.0  0.7244
  C  C120  1  0.748300  0.851400  0.382590  1.0  0.0904
  C  C121  1  0.094900  0.798300  0.345260  1.0  0.6925
  C  C122  1  0.832700  0.774800  0.015720  1.0  -0.097
  C  C123  1  0.655600  0.914400  0.677220  1.0  0.7336
  C  C124  1  0.539600  0.818100  0.903540  1.0  0.6663
  C  C125  1  0.706100  0.901400  0.889590  1.0  0.0297
  C  C126  1  0.149000  0.296000  0.090650  1.0  -0.0631
  C  C127  1  0.831100  0.689400  0.393080  1.0  -0.1195
  C  C128  1  0.748300  0.351400  0.117410  1.0  0.0908
  C  C129  1  0.539600  0.318100  0.596460  1.0  0.6671
  C  C130  1  0.884500  0.767200  0.956640  1.0  -0.0794
  C  C131  1  0.460400  0.181900  0.096460  1.0  0.6666
  C  C132  1  0.813900  0.827100  0.333940  1.0  -0.0991
  C  C133  1  0.146200  0.254500  0.661300  1.0  0.0837
  C  C134  1  0.602900  0.869000  0.793900  1.0  -0.0154
  C  C135  1  0.240600  0.054500  0.221390  1.0  -0.0156
  C  C136  1  0.759400  0.445500  0.721390  1.0  -0.0159
  C  C137  1  0.655600  0.414400  0.822780  1.0  0.7342
  C  C138  1  0.235000  0.786700  0.941680  1.0  0.0406
  C  C139  1  0.748000  0.722600  0.026710  1.0  -0.0668
  C  C140  1  0.867400  0.342300  0.432450  1.0  0.7061
  C  C141  1  0.851000  0.704000  0.909350  1.0  -0.0638
  C  C142  1  0.832700  0.274800  0.484280  1.0  -0.0976
  C  C143  1  0.813900  0.327100  0.166060  1.0  -0.1023
  C  C144  1  0.460400  0.681900  0.403540  1.0  0.6656
  C  C145  1  0.380500  0.134800  0.137270  1.0  -0.0907
  C  C146  1  0.132600  0.157700  0.932450  1.0  0.7062
  C  C147  1  0.877400  0.603400  0.398670  1.0  0.7411
  C  C148  1  0.240600  0.554500  0.278610  1.0  -0.0152
  C  C149  1  0.293900  0.598600  0.389590  1.0  0.0283
  C  C150  1  0.122600  0.896600  0.898670  1.0  0.739
  O  O151  1  0.890300  0.563740  0.344350  1.0  -0.5571
  O  O152  1  0.549600  0.827100  0.969170  1.0  -0.4834
  O  O153  1  0.273900  0.073980  0.360940  1.0  -0.5074
  O  O154  1  0.549600  0.327100  0.530830  1.0  -0.4827
  O  O155  1  0.567860  0.906550  0.658370  1.0  -0.5493
  O  O156  1  0.582230  0.610410  0.047100  1.0  -0.5801
  O  O157  1  0.471800  0.277100  0.622370  1.0  -0.4586
  O  O158  1  0.777100  0.436580  0.244900  1.0  -0.4572
  O  O159  1  0.392300  0.238680  0.476620  1.0  -0.5678
  O  O160  1  0.361200  0.598460  0.989620  1.0  -0.5462
  O  O161  1  0.607700  0.761320  0.523380  1.0  -0.5651
  O  O162  1  0.068900  0.731800  0.314140  1.0  -0.4623
  O  O163  1  0.583760  0.561390  0.941210  1.0  -0.5997
  O  O164  1  0.892940  0.465070  0.566990  1.0  -0.596
  O  O165  1  0.607700  0.261320  0.976620  1.0  -0.5672
  O  O166  1  0.068900  0.231800  0.185860  1.0  -0.4628
  O  O167  1  0.638800  0.901540  0.489620  1.0  -0.5457
  O  O168  1  0.416240  0.938610  0.441210  1.0  -0.5988
  O  O169  1  0.817300  0.353400  0.381730  1.0  -0.5508
  O  O170  1  0.417770  0.389590  0.952900  1.0  -0.5794
  O  O171  1  0.182700  0.146600  0.881730  1.0  -0.5523
  O  O172  1  0.817300  0.853400  0.118270  1.0  -0.5502
  O  O173  1  0.924000  0.620400  0.826690  1.0  -0.4972
  O  O174  1  0.182700  0.646600  0.618270  1.0  -0.5512
  O  O175  1  0.074770  0.972300  0.167540  1.0  -0.5662
  O  O176  1  0.921370  0.382500  0.252480  1.0  -0.5872
  O  O177  1  0.050200  0.614810  0.560760  1.0  -0.6527
  O  O178  1  0.416240  0.438610  0.058790  1.0  -0.5992
  O  O179  1  0.777100  0.936580  0.255100  1.0  -0.4566
  O  O180  1  0.100400  0.921900  0.956020  1.0  -0.6009
  O  O181  1  0.273900  0.573980  0.139060  1.0  -0.5048
  O  O182  1  0.109700  0.436260  0.655650  1.0  -0.5581
  O  O183  1  0.899600  0.078100  0.043980  1.0  -0.602
  O  O184  1  0.392300  0.738680  0.023380  1.0  -0.5663
  O  O185  1  0.109700  0.936260  0.844350  1.0  -0.5562
  O  O186  1  0.949800  0.885190  0.060760  1.0  -0.6529
  O  O187  1  0.931100  0.268200  0.685860  1.0  -0.4622
  O  O188  1  0.583760  0.061390  0.558790  1.0  -0.5996
  O  O189  1  0.107060  0.034930  0.066990  1.0  -0.5954
  O  O190  1  0.450400  0.672900  0.469170  1.0  -0.4834
  O  O191  1  0.074770  0.472300  0.332460  1.0  -0.5663
  O  O192  1  0.222900  0.563420  0.755100  1.0  -0.4549
  O  O193  1  0.567860  0.406550  0.841630  1.0  -0.5488
  O  O194  1  0.899600  0.578100  0.456020  1.0  -0.6025
  O  O195  1  0.471800  0.777100  0.877630  1.0  -0.4583
  O  O196  1  0.924000  0.120400  0.673310  1.0  -0.4975
  O  O197  1  0.417770  0.889590  0.547100  1.0  -0.5792
  O  O198  1  0.921370  0.882500  0.247520  1.0  -0.5876
  O  O199  1  0.432140  0.093450  0.341630  1.0  -0.5494
  O  O200  1  0.222900  0.063420  0.744900  1.0  -0.4563
  O  O201  1  0.582230  0.110410  0.452900  1.0  -0.5804
  O  O202  1  0.638800  0.401540  0.010380  1.0  -0.5452
  O  O203  1  0.361200  0.098460  0.510380  1.0  -0.5452
  O  O204  1  0.949800  0.385190  0.439240  1.0  -0.6534
  O  O205  1  0.076000  0.879600  0.326690  1.0  -0.4983
  O  O206  1  0.931100  0.768200  0.814140  1.0  -0.4617
  O  O207  1  0.528200  0.722900  0.377630  1.0  -0.4597
  O  O208  1  0.100400  0.421900  0.543980  1.0  -0.6025
  O  O209  1  0.050200  0.114810  0.939240  1.0  -0.6529
  O  O210  1  0.528200  0.222900  0.122370  1.0  -0.4591
  O  O211  1  0.078630  0.117500  0.752480  1.0  -0.5859
  O  O212  1  0.078630  0.617500  0.747520  1.0  -0.5872
  O  O213  1  0.726100  0.926020  0.639060  1.0  -0.5045
  O  O214  1  0.107060  0.534930  0.433010  1.0  -0.5972
  O  O215  1  0.450400  0.172900  0.030830  1.0  -0.4816
  O  O216  1  0.925230  0.527700  0.667540  1.0  -0.5657
  O  O217  1  0.890300  0.063740  0.155650  1.0  -0.5579
  O  O218  1  0.432140  0.593450  0.158370  1.0  -0.5494
  O  O219  1  0.076000  0.379600  0.173310  1.0  -0.4994
  O  O220  1  0.892940  0.965070  0.933010  1.0  -0.5974
  O  O221  1  0.726100  0.426020  0.860940  1.0  -0.5068
  O  O222  1  0.925230  0.027700  0.832460  1.0  -0.566
