# generated using pymatgen
data_ZnH2(C3O2)2
_symmetry_space_group_name_H-M   'P 1'
_cell_length_a   20.39490000
_cell_length_b   20.39490000
_cell_length_c   20.39490000
_cell_angle_alpha   109.47100000
_cell_angle_beta   109.47100000
_cell_angle_gamma   109.47100000
_symmetry_Int_Tables_number   1
_chemical_formula_structural   ZnH2(C3O2)2
_chemical_formula_sum   'Zn18 H36 C108 O72'
_cell_volume   6530.49945500
_cell_formula_units_Z   18
loop_
 _symmetry_equiv_pos_site_id
 _symmetry_equiv_pos_as_xyz
  1  'x, y, z'
loop_
 _atom_site_type_symbol
 _atom_site_label
 _atom_site_symmetry_multiplicity
 _atom_site_fract_x
 _atom_site_fract_y
 _atom_site_fract_z
 _atom_site_occupancy
 _atom_site_charge
  Zn  Zn1  1  0.476690  0.056190  0.942720  1.0  0.93
  Zn  Zn2  1  0.936630  0.500000  0.436630  1.0  1.1251
  Zn  Zn3  1  0.466030  0.579500  0.523310  1.0  0.931
  Zn  Zn4  1  0.942720  0.476690  0.056190  1.0  0.929
  Zn  Zn5  1  0.533970  0.057280  0.113470  1.0  0.9247
  Zn  Zn6  1  0.056190  0.942720  0.476690  1.0  0.9303
  Zn  Zn7  1  0.523310  0.466030  0.579500  1.0  0.9344
  Zn  Zn8  1  0.579500  0.523310  0.466030  1.0  0.9318
  Zn  Zn9  1  0.063370  0.500000  0.563370  1.0  1.1248
  Zn  Zn10  1  0.057280  0.113470  0.533970  1.0  0.925
  Zn  Zn11  1  0.943810  0.420500  0.886530  1.0  0.9281
  Zn  Zn12  1  0.563370  0.063370  0.500000  1.0  1.123
  Zn  Zn13  1  0.886530  0.943810  0.420500  1.0  0.9302
  Zn  Zn14  1  0.500000  0.436630  0.936630  1.0  1.1229
  Zn  Zn15  1  0.113470  0.533970  0.057280  1.0  0.9251
  Zn  Zn16  1  0.500000  0.563370  0.063370  1.0  1.1236
  Zn  Zn17  1  0.436630  0.936630  0.500000  1.0  1.1238
  Zn  Zn18  1  0.420500  0.886530  0.943810  1.0  0.9249
  H  H19  1  0.312600  0.772500  0.237900  1.0  0.1066
  H  H20  1  0.769200  0.034100  0.293500  1.0  0.1076
  H  H21  1  0.230800  0.524300  0.264900  1.0  0.1068
  H  H22  1  0.687400  0.925300  0.459900  1.0  0.107
  H  H23  1  0.519500  0.547400  0.793100  1.0  0.1114
  H  H24  1  0.264900  0.230800  0.524300  1.0  0.1064
  H  H25  1  0.034100  0.293500  0.769200  1.0  0.1068
  H  H26  1  0.293500  0.769200  0.034100  1.0  0.1067
  H  H27  1  0.762100  0.534600  0.074700  1.0  0.1077
  H  H28  1  0.465400  0.227500  0.540100  1.0  0.1069
  H  H29  1  0.706500  0.740600  0.475700  1.0  0.1064
  H  H30  1  0.227500  0.540100  0.465400  1.0  0.1066
  H  H31  1  0.547400  0.793100  0.519500  1.0  0.112
  H  H32  1  0.273600  0.027900  0.480500  1.0  0.1121
  H  H33  1  0.735100  0.259400  0.965900  1.0  0.107
  H  H34  1  0.480500  0.273600  0.027900  1.0  0.1115
  H  H35  1  0.726400  0.206900  0.754300  1.0  0.1116
  H  H36  1  0.206900  0.754300  0.726400  1.0  0.1122
  H  H37  1  0.475700  0.706500  0.740600  1.0  0.1066
  H  H38  1  0.524300  0.264900  0.230800  1.0  0.107
  H  H39  1  0.925300  0.459900  0.687400  1.0  0.1052
  H  H40  1  0.740600  0.475700  0.706500  1.0  0.1069
  H  H41  1  0.540100  0.465400  0.227500  1.0  0.1074
  H  H42  1  0.965900  0.735100  0.259400  1.0  0.1069
  H  H43  1  0.259400  0.965900  0.735100  1.0  0.1068
  H  H44  1  0.972100  0.245700  0.452600  1.0  0.1115
  H  H45  1  0.459900  0.687400  0.925300  1.0  0.1069
  H  H46  1  0.534600  0.074700  0.762100  1.0  0.106
  H  H47  1  0.793100  0.519500  0.547400  1.0  0.1117
  H  H48  1  0.245700  0.452600  0.972100  1.0  0.1121
  H  H49  1  0.074700  0.762100  0.534600  1.0  0.1068
  H  H50  1  0.237900  0.312600  0.772500  1.0  0.1066
  H  H51  1  0.772500  0.237900  0.312600  1.0  0.1071
  H  H52  1  0.452600  0.972100  0.245700  1.0  0.1125
  H  H53  1  0.027900  0.480500  0.273600  1.0  0.1109
  H  H54  1  0.754300  0.726400  0.206900  1.0  0.1114
  C  C55  1  0.797100  0.089800  0.317300  1.0  0.0309
  C  C56  1  0.375600  0.874700  0.131700  1.0  -0.1509
  C  C57  1  0.412400  0.918600  0.216800  1.0  0.031
  C  C58  1  0.426900  0.924800  0.346500  1.0  0.6871
  C  C59  1  0.388000  0.881200  0.255400  1.0  -0.1162
  C  C60  1  0.867400  0.493200  0.612000  1.0  -0.1162
  C  C61  1  0.506800  0.374200  0.118800  1.0  -0.1164
  C  C62  1  0.129400  0.291800  0.757600  1.0  -0.1383
  C  C63  1  0.201500  0.529100  0.412800  1.0  0.0155
  C  C64  1  0.578300  0.080400  0.653500  1.0  0.6881
  C  C65  1  0.118800  0.506800  0.374200  1.0  -0.1161
  C  C66  1  0.441900  0.772300  0.854000  1.0  0.622
  C  C67  1  0.089800  0.317300  0.797100  1.0  0.0311
  C  C68  1  0.091900  0.406100  0.916200  1.0  0.6992
  C  C69  1  0.493800  0.298200  0.081400  1.0  0.0275
  C  C70  1  0.624400  0.756100  0.499100  1.0  -0.1537
  C  C71  1  0.837600  0.465800  0.708200  1.0  -0.1349
  C  C72  1  0.412100  0.330400  0.558100  1.0  0.6221
  C  C73  1  0.510100  0.593900  0.685800  1.0  0.7119
  C  C74  1  0.587200  0.116300  0.788700  1.0  0.0161
  C  C75  1  0.506200  0.587600  0.804400  1.0  0.0296
  C  C76  1  0.669600  0.081700  0.227700  1.0  0.6217
  C  C77  1  0.195600  0.783200  0.701800  1.0  0.0296
  C  C78  1  0.625800  0.132600  0.744600  1.0  -0.1165
  C  C79  1  0.593900  0.685800  0.510100  1.0  0.7094
  C  C80  1  0.672400  0.883700  0.470900  1.0  0.0157
  C  C81  1  0.080400  0.653500  0.578300  1.0  0.6872
  C  C82  1  0.682700  0.772500  0.479800  1.0  0.0318
  C  C83  1  0.412800  0.201500  0.529100  1.0  0.0165
  C  C84  1  0.573100  0.919600  0.497900  1.0  0.685
  C  C85  1  0.924800  0.346500  0.426900  1.0  0.6877
  C  C86  1  0.502100  0.421700  0.075200  1.0  0.6881
  C  C87  1  0.083800  0.489900  0.175700  1.0  0.7133
  C  C88  1  0.489900  0.175700  0.083800  1.0  0.7081
  C  C89  1  0.125300  0.500900  0.257000  1.0  -0.152
  C  C90  1  0.493200  0.612000  0.867400  1.0  -0.1165
  C  C91  1  0.919600  0.497900  0.573100  1.0  0.6861
  C  C92  1  0.868300  0.743000  0.243900  1.0  -0.1475
  C  C93  1  0.701800  0.195600  0.783200  1.0  0.0272
  C  C94  1  0.227500  0.910200  0.707300  1.0  0.0303
  C  C95  1  0.081400  0.493800  0.298200  1.0  0.027
  C  C96  1  0.131700  0.375600  0.874700  1.0  -0.1516
  C  C97  1  0.202900  0.520200  0.292700  1.0  0.0296
  C  C98  1  0.587600  0.804400  0.506200  1.0  0.0287
  C  C99  1  0.314200  0.908100  0.824300  1.0  0.7039
  C  C100  1  0.292700  0.202900  0.520200  1.0  0.0306
  C  C101  1  0.374200  0.118800  0.506800  1.0  -0.1155
  C  C102  1  0.216800  0.412400  0.918600  1.0  0.0305
  C  C103  1  0.330400  0.558100  0.412100  1.0  0.6216
  C  C104  1  0.421700  0.075200  0.502100  1.0  0.6856
  C  C105  1  0.918300  0.587900  0.146000  1.0  0.6186
  C  C106  1  0.854000  0.441900  0.772300  1.0  0.6178
  C  C107  1  0.346500  0.426900  0.924800  1.0  0.6866
  C  C108  1  0.534200  0.371800  0.242400  1.0  -0.1346
  C  C109  1  0.757600  0.129400  0.291800  1.0  -0.1388
  C  C110  1  0.075200  0.502100  0.421700  1.0  0.6879
  C  C111  1  0.870600  0.628200  0.162400  1.0  -0.1385
  C  C112  1  0.497900  0.573100  0.919600  1.0  0.6884
  C  C113  1  0.470900  0.672400  0.883700  1.0  0.0146
  C  C114  1  0.916200  0.091900  0.406100  1.0  0.7
  C  C115  1  0.255400  0.388000  0.881200  1.0  -0.1147
  C  C116  1  0.772300  0.854000  0.441900  1.0  0.622
  C  C117  1  0.824300  0.314200  0.908100  1.0  0.7058
  C  C118  1  0.772500  0.479800  0.682700  1.0  0.0291
  C  C119  1  0.406100  0.916200  0.091900  1.0  0.7058
  C  C120  1  0.918600  0.216800  0.412400  1.0  0.0295
  C  C121  1  0.291800  0.757600  0.129400  1.0  -0.137
  C  C122  1  0.529100  0.412800  0.201500  1.0  0.0165
  C  C123  1  0.744600  0.625800  0.132600  1.0  -0.1159
  C  C124  1  0.783200  0.701800  0.195600  1.0  0.0283
  C  C125  1  0.116300  0.788700  0.587200  1.0  0.0151
  C  C126  1  0.653500  0.578300  0.080400  1.0  0.6844
  C  C127  1  0.211300  0.327600  0.798500  1.0  0.015
  C  C128  1  0.685800  0.510100  0.593900  1.0  0.7097
  C  C129  1  0.743000  0.243900  0.868300  1.0  -0.1479
  C  C130  1  0.587900  0.146000  0.918300  1.0  0.62
  C  C131  1  0.500900  0.257000  0.125300  1.0  -0.1503
  C  C132  1  0.910200  0.707300  0.227500  1.0  0.0315
  C  C133  1  0.257000  0.125300  0.500900  1.0  -0.1499
  C  C134  1  0.788700  0.587200  0.116300  1.0  0.0169
  C  C135  1  0.465800  0.708200  0.837600  1.0  -0.1389
  C  C136  1  0.327600  0.798500  0.211300  1.0  0.0159
  C  C137  1  0.227700  0.669600  0.081700  1.0  0.6189
  C  C138  1  0.243900  0.868300  0.743000  1.0  -0.1493
  C  C139  1  0.520200  0.292700  0.202900  1.0  0.03
  C  C140  1  0.881200  0.255400  0.388000  1.0  -0.1154
  C  C141  1  0.499100  0.624400  0.756100  1.0  -0.1537
  C  C142  1  0.146000  0.918300  0.587900  1.0  0.6215
  C  C143  1  0.708200  0.837600  0.465800  1.0  -0.139
  C  C144  1  0.298200  0.081400  0.493800  1.0  0.031
  C  C145  1  0.132600  0.744600  0.625800  1.0  -0.1151
  C  C146  1  0.798500  0.211300  0.327600  1.0  0.0157
  C  C147  1  0.317300  0.797100  0.089800  1.0  0.0282
  C  C148  1  0.804400  0.506200  0.587600  1.0  0.0267
  C  C149  1  0.558100  0.412100  0.330400  1.0  0.6195
  C  C150  1  0.242400  0.534200  0.371800  1.0  -0.1388
  C  C151  1  0.479800  0.682700  0.772500  1.0  0.0286
  C  C152  1  0.162400  0.870600  0.628200  1.0  -0.139
  C  C153  1  0.081700  0.227700  0.669600  1.0  0.6196
  C  C154  1  0.612000  0.867400  0.493200  1.0  -0.1153
  C  C155  1  0.756100  0.499100  0.624400  1.0  -0.1523
  C  C156  1  0.371800  0.242400  0.534200  1.0  -0.1356
  C  C157  1  0.707300  0.227500  0.910200  1.0  0.0289
  C  C158  1  0.874700  0.131700  0.375600  1.0  -0.15
  C  C159  1  0.883700  0.470900  0.672400  1.0  0.0154
  C  C160  1  0.175700  0.083800  0.489900  1.0  0.7072
  C  C161  1  0.908100  0.824300  0.314200  1.0  0.7109
  C  C162  1  0.628200  0.162400  0.870600  1.0  -0.1347
  O  O163  1  0.982600  0.855000  0.363600  1.0  -0.6313
  O  O164  1  0.634600  0.005400  0.192200  1.0  -0.5046
  O  O165  1  0.023700  0.620900  0.510000  1.0  -0.5799
  O  O166  1  0.484200  0.996800  0.382600  1.0  -0.6051
  O  O167  1  0.813200  0.442400  0.807800  1.0  -0.5277
  O  O168  1  0.898400  0.512600  0.515800  1.0  -0.6051
  O  O169  1  0.677600  0.535900  0.544900  1.0  -0.6016
  O  O170  1  0.912600  0.430300  0.789700  1.0  -0.5662
  O  O171  1  0.517700  0.087400  0.877100  1.0  -0.5695
  O  O172  1  0.381000  0.872400  0.017400  1.0  -0.6303
  O  O173  1  0.110900  0.513700  0.490000  1.0  -0.5815
  O  O174  1  0.141700  0.009000  0.464100  1.0  -0.6031
  O  O175  1  0.557600  0.370800  0.365400  1.0  -0.5181
  O  O176  1  0.430300  0.789700  0.912600  1.0  -0.5682
  O  O177  1  0.855000  0.363600  0.982600  1.0  -0.6292
  O  O178  1  0.087400  0.877100  0.517700  1.0  -0.5683
  O  O179  1  0.385800  0.003200  0.487400  1.0  -0.6064
  O  O180  1  0.512600  0.515800  0.898400  1.0  -0.607
  O  O181  1  0.145000  0.127600  0.508600  1.0  -0.6314
  O  O182  1  0.807800  0.813200  0.442400  1.0  -0.527
  O  O183  1  0.490000  0.110900  0.513700  1.0  -0.5792
  O  O184  1  0.629200  0.186800  0.994600  1.0  -0.5078
  O  O185  1  0.132700  0.455100  0.991000  1.0  -0.6022
  O  O186  1  0.994600  0.629200  0.186800  1.0  -0.5062
  O  O187  1  0.101600  0.617400  0.614200  1.0  -0.6069
  O  O188  1  0.491400  0.619000  0.636400  1.0  -0.628
  O  O189  1  0.192200  0.634600  0.005400  1.0  -0.5056
  O  O190  1  0.858300  0.322400  0.867300  1.0  -0.6015
  O  O191  1  0.789700  0.912600  0.430300  1.0  -0.5693
  O  O192  1  0.005400  0.192200  0.634600  1.0  -0.5054
  O  O193  1  0.210300  0.640600  0.122900  1.0  -0.5676
  O  O194  1  0.619000  0.636400  0.491400  1.0  -0.6315
  O  O195  1  0.544900  0.677600  0.535900  1.0  -0.6011
  O  O196  1  0.186800  0.994600  0.629200  1.0  -0.5012
  O  O197  1  0.872400  0.017400  0.381000  1.0  -0.6298
  O  O198  1  0.515800  0.898400  0.512600  1.0  -0.6061
  O  O199  1  0.455100  0.991000  0.132700  1.0  -0.602
  O  O200  1  0.370800  0.365400  0.557600  1.0  -0.5205
  O  O201  1  0.976300  0.486300  0.597200  1.0  -0.5814
  O  O202  1  0.636400  0.491400  0.619000  1.0  -0.6291
  O  O203  1  0.991000  0.132700  0.455100  1.0  -0.6016
  O  O204  1  0.122900  0.210300  0.640600  1.0  -0.567
  O  O205  1  0.535900  0.544900  0.677600  1.0  -0.6029
  O  O206  1  0.617400  0.614200  0.101600  1.0  -0.6068
  O  O207  1  0.382600  0.484200  0.996800  1.0  -0.6075
  O  O208  1  0.640600  0.122900  0.210300  1.0  -0.5687
  O  O209  1  0.597200  0.976300  0.486300  1.0  -0.5789
  O  O210  1  0.359400  0.569700  0.482300  1.0  -0.5663
  O  O211  1  0.569700  0.482300  0.359400  1.0  -0.5706
  O  O212  1  0.365400  0.557600  0.370800  1.0  -0.519
  O  O213  1  0.017400  0.381000  0.872400  1.0  -0.632
  O  O214  1  0.508600  0.145000  0.127600  1.0  -0.6296
  O  O215  1  0.889100  0.379100  0.402800  1.0  -0.5794
  O  O216  1  0.486300  0.597200  0.976300  1.0  -0.5799
  O  O217  1  0.510000  0.023700  0.620900  1.0  -0.5808
  O  O218  1  0.009000  0.464100  0.141700  1.0  -0.6045
  O  O219  1  0.614200  0.101600  0.617400  1.0  -0.6062
  O  O220  1  0.482300  0.359400  0.569700  1.0  -0.5671
  O  O221  1  0.464100  0.141700  0.009000  1.0  -0.6056
  O  O222  1  0.487400  0.385800  0.003200  1.0  -0.6062
  O  O223  1  0.877100  0.517700  0.087400  1.0  -0.5695
  O  O224  1  0.867300  0.858300  0.322400  1.0  -0.5999
  O  O225  1  0.003200  0.487400  0.385800  1.0  -0.6052
  O  O226  1  0.379100  0.402800  0.889100  1.0  -0.5797
  O  O227  1  0.513700  0.490000  0.110900  1.0  -0.5802
  O  O228  1  0.996800  0.382600  0.484200  1.0  -0.6065
  O  O229  1  0.127600  0.508600  0.145000  1.0  -0.6297
  O  O230  1  0.322400  0.867300  0.858300  1.0  -0.5992
  O  O231  1  0.620900  0.510000  0.023700  1.0  -0.5797
  O  O232  1  0.402800  0.889100  0.379100  1.0  -0.5798
  O  O233  1  0.442400  0.807800  0.813200  1.0  -0.5273
  O  O234  1  0.363600  0.982600  0.855000  1.0  -0.6314
