# generated using pymatgen
data_CdH10(C3O)6
_symmetry_space_group_name_H-M   'P 1'
_cell_length_a   10.61870000
_cell_length_b   15.77700000
_cell_length_c   18.95800000
_cell_angle_alpha   97.35900000
_cell_angle_beta   90.00000000
_cell_angle_gamma   90.00000000
_symmetry_Int_Tables_number   1
_chemical_formula_structural   CdH10(C3O)6
_chemical_formula_sum   'Cd6 H60 C108 O36'
_cell_volume   3149.89610528
_cell_formula_units_Z   6
loop_
 _symmetry_equiv_pos_site_id
 _symmetry_equiv_pos_as_xyz
  1  'x, y, z'
loop_
 _atom_site_type_symbol
 _atom_site_label
 _atom_site_symmetry_multiplicity
 _atom_site_fract_x
 _atom_site_fract_y
 _atom_site_fract_z
 _atom_site_occupancy
 _atom_site_charge
  Cd  Cd1  1  0.579170  0.958040  0.573730  1.0  1.122
  Cd  Cd2  1  0.420830  0.041960  0.426270  1.0  1.1279
  Cd  Cd3  1  0.579170  0.041960  0.926270  1.0  1.1228
  Cd  Cd4  1  0.485330  0.000000  0.750000  1.0  1.0551
  Cd  Cd5  1  0.514670  0.000000  0.250000  1.0  1.0566
  Cd  Cd6  1  0.420830  0.958040  0.073730  1.0  1.1226
  H  H7  1  0.348100  0.346900  0.761500  1.0  0.1386
  H  H8  1  0.160000  0.814200  0.717800  1.0  0.1149
  H  H9  1  0.872600  0.675900  0.987800  1.0  0.1136
  H  H10  1  0.808000  0.328500  0.066400  1.0  0.1304
  H  H11  1  0.127400  0.324100  0.012200  1.0  0.1132
  H  H12  1  0.700500  0.203500  0.034300  1.0  0.1027
  H  H13  1  0.299500  0.203500  0.534300  1.0  0.1029
  H  H14  1  0.192000  0.671500  0.933600  1.0  0.1321
  H  H15  1  0.651900  0.653100  0.238500  1.0  0.1393
  H  H16  1  0.780300  0.781400  0.877400  1.0  0.1202
  H  H17  1  0.160000  0.185800  0.782200  1.0  0.1144
  H  H18  1  0.004300  0.290000  0.811100  1.0  0.1023
  H  H19  1  0.700500  0.796500  0.465700  1.0  0.1025
  H  H20  1  0.792300  0.516400  0.586500  1.0  0.1381
  H  H21  1  0.988400  0.351100  0.691100  1.0  0.1212
  H  H22  1  0.689700  0.316300  0.858000  1.0  0.1157
  H  H23  1  0.207700  0.483600  0.413500  1.0  0.138
  H  H24  1  0.192000  0.328500  0.566400  1.0  0.1317
  H  H25  1  0.127400  0.675900  0.487800  1.0  0.1139
  H  H26  1  0.722900  0.586500  0.724700  1.0  0.1219
  H  H27  1  0.207700  0.516400  0.086500  1.0  0.1379
  H  H28  1  0.219700  0.218600  0.122600  1.0  0.12
  H  H29  1  0.546900  0.218600  0.228700  1.0  0.0898
  H  H30  1  0.731500  0.786600  0.013800  1.0  0.1076
  H  H31  1  0.277100  0.413500  0.275300  1.0  0.1201
  H  H32  1  0.011600  0.351100  0.191100  1.0  0.121
  H  H33  1  0.741200  0.877800  0.797600  1.0  0.1096
  H  H34  1  0.163700  0.554300  0.625100  1.0  0.1379
  H  H35  1  0.731500  0.213400  0.486200  1.0  0.1078
  H  H36  1  0.546900  0.781400  0.271300  1.0  0.0893
  H  H37  1  0.722900  0.413500  0.775300  1.0  0.1204
  H  H38  1  0.268500  0.213400  0.986200  1.0  0.108
  H  H39  1  0.219700  0.781400  0.377400  1.0  0.1202
  H  H40  1  0.780300  0.218600  0.622600  1.0  0.1201
  H  H41  1  0.808000  0.671500  0.433600  1.0  0.1319
  H  H42  1  0.840000  0.185800  0.282200  1.0  0.1142
  H  H43  1  0.995700  0.290000  0.311100  1.0  0.1022
  H  H44  1  0.258800  0.877800  0.297600  1.0  0.1098
  H  H45  1  0.310300  0.316300  0.358000  1.0  0.1157
  H  H46  1  0.453100  0.781400  0.771300  1.0  0.0888
  H  H47  1  0.836300  0.445700  0.374900  1.0  0.1382
  H  H48  1  0.689700  0.683700  0.642000  1.0  0.1155
  H  H49  1  0.995700  0.710000  0.188900  1.0  0.1022
  H  H50  1  0.299500  0.796500  0.965700  1.0  0.1027
  H  H51  1  0.258800  0.122200  0.202400  1.0  0.1095
  H  H52  1  0.011600  0.648900  0.308900  1.0  0.1209
  H  H53  1  0.163700  0.445700  0.874900  1.0  0.138
  H  H54  1  0.872600  0.324100  0.512200  1.0  0.1154
  H  H55  1  0.348100  0.653100  0.738500  1.0  0.1386
  H  H56  1  0.792300  0.483600  0.913500  1.0  0.138
  H  H57  1  0.310300  0.683700  0.142000  1.0  0.1157
  H  H58  1  0.836300  0.554300  0.125100  1.0  0.138
  H  H59  1  0.988400  0.648900  0.808900  1.0  0.1213
  H  H60  1  0.741200  0.122200  0.702400  1.0  0.1099
  H  H61  1  0.277100  0.586500  0.224700  1.0  0.1211
  H  H62  1  0.004300  0.710000  0.688900  1.0  0.1019
  H  H63  1  0.840000  0.814200  0.217800  1.0  0.1148
  H  H64  1  0.651900  0.346900  0.261500  1.0  0.139
  H  H65  1  0.453100  0.218600  0.728700  1.0  0.0897
  H  H66  1  0.268500  0.786600  0.513800  1.0  0.1079
  C  C67  1  0.050700  0.684300  0.585600  1.0  0.2812
  C  C68  1  0.126000  0.426900  0.139300  1.0  0.2662
  C  C69  1  0.868900  0.294600  0.466500  1.0  -0.209
  C  C70  1  0.708500  0.790200  0.712900  1.0  -0.1231
  C  C71  1  0.050700  0.315700  0.914400  1.0  0.2714
  C  C72  1  0.023200  0.454000  0.397400  1.0  0.2397
  C  C73  1  0.673100  0.851300  0.662100  1.0  0.6274
  C  C74  1  0.326300  0.120300  0.864700  1.0  0.7234
  C  C75  1  0.546000  0.885200  0.391200  1.0  0.7265
  C  C76  1  0.131100  0.705400  0.533500  1.0  -0.2068
  C  C77  1  0.867300  0.499500  0.605900  1.0  -0.2191
  C  C78  1  0.755700  0.693700  0.401200  1.0  -0.2147
  C  C79  1  0.771700  0.188300  0.382800  1.0  -0.1262
  C  C80  1  0.725900  0.645000  0.739200  1.0  -0.1784
  C  C81  1  0.217200  0.229500  0.950400  1.0  -0.0186
  C  C82  1  0.244300  0.693700  0.901200  1.0  -0.2161
  C  C83  1  0.386700  0.195700  0.628200  1.0  -0.1199
  C  C84  1  0.294800  0.703400  0.189600  1.0  -0.0305
  C  C85  1  0.546000  0.114800  0.108800  1.0  0.7268
  C  C86  1  0.259300  0.348300  0.667400  1.0  0.2549
  C  C87  1  0.985600  0.399700  0.668100  1.0  -0.1585
  C  C88  1  0.874000  0.573100  0.860700  1.0  0.267
  C  C89  1  0.708500  0.209800  0.787100  1.0  -0.1222
  C  C90  1  0.337600  0.317300  0.716200  1.0  -0.2108
  C  C91  1  0.705200  0.703400  0.689600  1.0  -0.028
  C  C92  1  0.326900  0.851300  0.162100  1.0  0.628
  C  C93  1  0.662400  0.317300  0.216200  1.0  -0.2121
  C  C94  1  0.228300  0.811700  0.617200  1.0  -0.1265
  C  C95  1  0.740700  0.651700  0.332600  1.0  0.2452
  C  C96  1  0.131100  0.294600  0.966500  1.0  -0.2082
  C  C97  1  0.059000  0.724600  0.654100  1.0  -0.1969
  C  C98  1  0.454000  0.114800  0.608800  1.0  0.7263
  C  C99  1  0.949300  0.684300  0.085600  1.0  0.2819
  C  C100  1  0.750200  0.324400  0.691400  1.0  0.2637
  C  C101  1  0.740700  0.348300  0.167400  1.0  0.2557
  C  C102  1  0.274100  0.355000  0.260800  1.0  -0.1807
  C  C103  1  0.326900  0.148700  0.337900  1.0  0.6281
  C  C104  1  0.240800  0.761800  0.330600  1.0  -0.2044
  C  C105  1  0.976800  0.546000  0.602600  1.0  0.2399
  C  C106  1  0.249800  0.675600  0.308600  1.0  0.2726
  C  C107  1  0.949300  0.315700  0.414400  1.0  0.2727
  C  C108  1  0.326300  0.879700  0.635300  1.0  0.7261
  C  C109  1  0.867300  0.500500  0.894100  1.0  -0.2195
  C  C110  1  0.849100  0.211800  0.328700  1.0  -0.0326
  C  C111  1  0.736900  0.180600  0.717300  1.0  -0.0531
  C  C112  1  0.014400  0.600300  0.331900  1.0  -0.1588
  C  C113  1  0.906800  0.449200  0.160700  1.0  0.3015
  C  C114  1  0.263100  0.180600  0.217300  1.0  -0.052
  C  C115  1  0.599400  0.759500  0.303900  1.0  0.0033
  C  C116  1  0.985600  0.600300  0.831900  1.0  -0.1589
  C  C117  1  0.263100  0.819400  0.282700  1.0  -0.0479
  C  C118  1  0.613300  0.195700  0.128200  1.0  -0.1193
  C  C119  1  0.291500  0.790200  0.212900  1.0  -0.1239
  C  C120  1  0.750200  0.675600  0.808600  1.0  0.2719
  C  C121  1  0.705200  0.296600  0.810400  1.0  -0.0279
  C  C122  1  0.059000  0.275400  0.845900  1.0  -0.1933
  C  C123  1  0.259300  0.651700  0.832600  1.0  0.2543
  C  C124  1  0.228300  0.188300  0.882800  1.0  -0.1259
  C  C125  1  0.249800  0.324400  0.191400  1.0  0.2718
  C  C126  1  0.725900  0.355000  0.760800  1.0  -0.1783
  C  C127  1  0.874000  0.426900  0.639300  1.0  0.2662
  C  C128  1  0.906800  0.550800  0.339300  1.0  0.2963
  C  C129  1  0.091200  0.477900  0.871100  1.0  -0.1805
  C  C130  1  0.673700  0.120300  0.364700  1.0  0.7237
  C  C131  1  0.673700  0.879700  0.135300  1.0  0.7234
  C  C132  1  0.976800  0.454000  0.897400  1.0  0.24
  C  C133  1  0.613300  0.804300  0.371800  1.0  -0.1188
  C  C134  1  0.217200  0.770500  0.549600  1.0  -0.0192
  C  C135  1  0.759200  0.238200  0.669400  1.0  -0.2047
  C  C136  1  0.599400  0.240500  0.196100  1.0  0.0058
  C  C137  1  0.291500  0.209800  0.287100  1.0  -0.1232
  C  C138  1  0.868900  0.705400  0.033500  1.0  -0.2073
  C  C139  1  0.662400  0.682700  0.283800  1.0  -0.2126
  C  C140  1  0.908800  0.477900  0.371100  1.0  -0.1766
  C  C141  1  0.673100  0.148700  0.837900  1.0  0.6281
  C  C142  1  0.849100  0.788200  0.171300  1.0  -0.033
  C  C143  1  0.150900  0.211800  0.828700  1.0  -0.0321
  C  C144  1  0.400600  0.240500  0.696100  1.0  0.0019
  C  C145  1  0.782800  0.770500  0.049600  1.0  -0.0186
  C  C146  1  0.337600  0.682700  0.783800  1.0  -0.2128
  C  C147  1  0.132700  0.499500  0.105900  1.0  -0.2211
  C  C148  1  0.091200  0.522100  0.628900  1.0  -0.1818
  C  C149  1  0.691700  0.768500  0.419700  1.0  -0.0314
  C  C150  1  0.771700  0.811700  0.117200  1.0  -0.1262
  C  C151  1  0.014400  0.399700  0.168100  1.0  -0.1582
  C  C152  1  0.294800  0.296600  0.310400  1.0  -0.027
  C  C153  1  0.308300  0.768500  0.919700  1.0  -0.0322
  C  C154  1  0.150900  0.788200  0.671300  1.0  -0.0324
  C  C155  1  0.132700  0.500500  0.394100  1.0  -0.2206
  C  C156  1  0.274100  0.645000  0.239200  1.0  -0.1804
  C  C157  1  0.782800  0.229500  0.450400  1.0  -0.0185
  C  C158  1  0.240800  0.238200  0.169400  1.0  -0.2044
  C  C159  1  0.755700  0.306300  0.098800  1.0  -0.2146
  C  C160  1  0.759200  0.761800  0.830600  1.0  -0.2028
  C  C161  1  0.126000  0.573100  0.360700  1.0  0.2595
  C  C162  1  0.386700  0.804300  0.871800  1.0  -0.1191
  C  C163  1  0.691700  0.231500  0.080300  1.0  -0.0324
  C  C164  1  0.400600  0.759500  0.803900  1.0  0.0026
  C  C165  1  0.244300  0.306300  0.598800  1.0  -0.2148
  C  C166  1  0.908800  0.522100  0.128900  1.0  -0.1769
  C  C167  1  0.736900  0.819400  0.782700  1.0  -0.0538
  C  C168  1  0.023200  0.546000  0.102600  1.0  0.2323
  C  C169  1  0.454000  0.885200  0.891200  1.0  0.7262
  C  C170  1  0.308300  0.231500  0.580300  1.0  -0.0317
  C  C171  1  0.941000  0.275400  0.345900  1.0  -0.1958
  C  C172  1  0.093200  0.550800  0.839300  1.0  0.2972
  C  C173  1  0.941000  0.724600  0.154100  1.0  -0.1943
  C  C174  1  0.093200  0.449200  0.660700  1.0  0.2975
  O  O175  1  0.346100  0.906500  0.699500  1.0  -0.6183
  O  O176  1  0.205900  0.571900  0.809600  1.0  -0.2544
  O  O177  1  0.542200  0.081500  0.044700  1.0  -0.771
  O  O178  1  0.761200  0.382000  0.641900  1.0  -0.2575
  O  O179  1  0.457800  0.918500  0.955300  1.0  -0.7731
  O  O180  1  0.616400  0.094100  0.417700  1.0  -0.6619
  O  O181  1  0.648300  0.070600  0.812700  1.0  -0.6777
  O  O182  1  0.037700  0.618700  0.068100  1.0  -0.289
  O  O183  1  0.648300  0.929400  0.687300  1.0  -0.6787
  O  O184  1  0.616400  0.905900  0.082300  1.0  -0.6629
  O  O185  1  0.346100  0.093500  0.800500  1.0  -0.6174
  O  O186  1  0.665000  0.172100  0.903300  1.0  -0.6117
  O  O187  1  0.761200  0.618000  0.858100  1.0  -0.2583
  O  O188  1  0.351700  0.929400  0.187300  1.0  -0.6778
  O  O189  1  0.962300  0.381300  0.931900  1.0  -0.2901
  O  O190  1  0.494800  0.077200  0.155700  1.0  -0.6523
  O  O191  1  0.962300  0.618700  0.568100  1.0  -0.2886
  O  O192  1  0.505200  0.077200  0.655700  1.0  -0.6526
  O  O193  1  0.794100  0.428100  0.190400  1.0  -0.2555
  O  O194  1  0.383600  0.094100  0.917700  1.0  -0.6625
  O  O195  1  0.542200  0.918500  0.455300  1.0  -0.7726
  O  O196  1  0.794100  0.571900  0.309600  1.0  -0.2554
  O  O197  1  0.351700  0.070600  0.312700  1.0  -0.6763
  O  O198  1  0.335000  0.172100  0.403300  1.0  -0.612
  O  O199  1  0.665000  0.827900  0.596700  1.0  -0.6105
  O  O200  1  0.205900  0.428100  0.690400  1.0  -0.2559
  O  O201  1  0.494800  0.922800  0.344300  1.0  -0.6511
  O  O202  1  0.653900  0.093500  0.300500  1.0  -0.6173
  O  O203  1  0.335000  0.827900  0.096700  1.0  -0.6098
  O  O204  1  0.457800  0.081500  0.544700  1.0  -0.772
  O  O205  1  0.653900  0.906500  0.199500  1.0  -0.6181
  O  O206  1  0.383600  0.905900  0.582300  1.0  -0.6637
  O  O207  1  0.238800  0.618000  0.358100  1.0  -0.2576
  O  O208  1  0.505200  0.922800  0.844300  1.0  -0.6513
  O  O209  1  0.037700  0.381300  0.431900  1.0  -0.2898
  O  O210  1  0.238800  0.382000  0.141900  1.0  -0.2574
