# generated using pymatgen
data_YH18C30(NO3)3
_symmetry_space_group_name_H-M   'P 1'
_cell_length_a   7.91290000
_cell_length_b   20.41800000
_cell_length_c   33.51580000
_cell_angle_alpha   89.89030000
_cell_angle_beta   90.00000000
_cell_angle_gamma   90.00000000
_symmetry_Int_Tables_number   1
_chemical_formula_structural   YH18C30(NO3)3
_chemical_formula_sum   'Y4 H72 C120 N12 O36'
_cell_volume   5414.99014992
_cell_formula_units_Z   4
loop_
 _symmetry_equiv_pos_site_id
 _symmetry_equiv_pos_as_xyz
  1  'x, y, z'
loop_
 _atom_site_type_symbol
 _atom_site_label
 _atom_site_symmetry_multiplicity
 _atom_site_fract_x
 _atom_site_fract_y
 _atom_site_fract_z
 _atom_site_occupancy
 _atom_site_charge
  Y  Y1  1  0.740070  0.487770  0.016490  1.0  2.086
  Y  Y2  1  0.259930  0.987770  0.516490  1.0  2.0855
  Y  Y3  1  0.740070  0.012230  0.483510  1.0  2.0879
  Y  Y4  1  0.259930  0.512230  0.983510  1.0  2.0868
  H  H5  1  0.825300  0.197600  0.455700  1.0  0.1093
  H  H6  1  0.103000  0.424500  0.309100  1.0  0.1057
  H  H7  1  0.375500  0.991500  0.377600  1.0  0.1172
  H  H8  1  0.961400  0.538500  0.747600  1.0  0.1632
  H  H9  1  0.364100  0.818600  0.486300  1.0  0.111
  H  H10  1  0.880400  0.033000  0.306700  1.0  0.1397
  H  H11  1  0.174700  0.697600  0.955700  1.0  0.1092
  H  H12  1  0.038600  0.038500  0.247600  1.0  0.1626
  H  H13  1  0.897000  0.924500  0.809100  1.0  0.1056
  H  H14  1  0.295700  0.712600  0.462600  1.0  0.1179
  H  H15  1  0.611600  0.336700  0.636800  1.0  0.2208
  H  H16  1  0.825300  0.302400  0.044300  1.0  0.1092
  H  H17  1  0.364100  0.681400  0.013700  1.0  0.1112
  H  H18  1  0.611600  0.163300  0.863200  1.0  0.2203
  H  H19  1  0.388400  0.663300  0.363200  1.0  0.2207
  H  H20  1  0.704300  0.212600  0.962600  1.0  0.1182
  H  H21  1  0.871400  0.209300  0.081500  1.0  0.1362
  H  H22  1  0.707100  0.791700  0.501100  1.0  0.0969
  H  H23  1  0.704300  0.287400  0.537400  1.0  0.1185
  H  H24  1  0.853200  0.003300  0.919300  1.0  0.1232
  H  H25  1  0.626800  0.004900  0.692600  1.0  0.1121
  H  H26  1  0.961400  0.961500  0.752400  1.0  0.1638
  H  H27  1  0.635900  0.181400  0.513700  1.0  0.1111
  H  H28  1  0.624500  0.008500  0.622400  1.0  0.1176
  H  H29  1  0.292900  0.291700  0.001100  1.0  0.0967
  H  H30  1  0.388400  0.836700  0.136800  1.0  0.2204
  H  H31  1  0.515200  0.232300  0.645900  1.0  0.1204
  H  H32  1  0.129200  0.969900  0.626400  1.0  0.1104
  H  H33  1  0.478700  0.370700  0.877100  1.0  0.1209
  H  H34  1  0.795300  0.900900  0.933800  1.0  0.1517
  H  H35  1  0.373200  0.995100  0.307400  1.0  0.1116
  H  H36  1  0.174700  0.802400  0.544300  1.0  0.1092
  H  H37  1  0.707100  0.708300  0.998900  1.0  0.0971
  H  H38  1  0.678400  0.686700  0.528400  1.0  0.1376
  H  H39  1  0.292900  0.208300  0.498900  1.0  0.097
  H  H40  1  0.729700  0.107300  0.819000  1.0  0.1219
  H  H41  1  0.478700  0.129300  0.622900  1.0  0.1202
  H  H42  1  0.321600  0.313300  0.471600  1.0  0.1369
  H  H43  1  0.870800  0.469900  0.126400  1.0  0.11
  H  H44  1  0.870800  0.030100  0.373600  1.0  0.1101
  H  H45  1  0.729700  0.392700  0.681000  1.0  0.1223
  H  H46  1  0.270300  0.892700  0.181000  1.0  0.1214
  H  H47  1  0.795300  0.599100  0.566200  1.0  0.1516
  H  H48  1  0.321600  0.186700  0.028400  1.0  0.1372
  H  H49  1  0.128600  0.790700  0.918500  1.0  0.1363
  H  H50  1  0.270300  0.607300  0.319000  1.0  0.1215
  H  H51  1  0.626800  0.495100  0.807400  1.0  0.1116
  H  H52  1  0.146800  0.503300  0.419300  1.0  0.1232
  H  H53  1  0.129200  0.530100  0.873600  1.0  0.1107
  H  H54  1  0.521300  0.870700  0.377100  1.0  0.1195
  H  H55  1  0.521300  0.629300  0.122900  1.0  0.1198
  H  H56  1  0.897000  0.575500  0.690900  1.0  0.1057
  H  H57  1  0.624500  0.491500  0.877600  1.0  0.1172
  H  H58  1  0.103000  0.075500  0.190900  1.0  0.1055
  H  H59  1  0.635900  0.318600  0.986300  1.0  0.111
  H  H60  1  0.373200  0.504900  0.192600  1.0  0.1121
  H  H61  1  0.119600  0.533000  0.806700  1.0  0.14
  H  H62  1  0.204700  0.099100  0.066200  1.0  0.1527
  H  H63  1  0.119600  0.967000  0.693300  1.0  0.1396
  H  H64  1  0.871400  0.290700  0.418500  1.0  0.1361
  H  H65  1  0.375500  0.508500  0.122400  1.0  0.1177
  H  H66  1  0.484800  0.732300  0.145900  1.0  0.1204
  H  H67  1  0.484800  0.767700  0.354100  1.0  0.1212
  H  H68  1  0.146800  0.996700  0.080700  1.0  0.1242
  H  H69  1  0.515200  0.267700  0.854100  1.0  0.1209
  H  H70  1  0.038600  0.461500  0.252400  1.0  0.1639
  H  H71  1  0.128600  0.709300  0.581500  1.0  0.136
  H  H72  1  0.678400  0.813300  0.971600  1.0  0.1371
  H  H73  1  0.204700  0.400900  0.433800  1.0  0.1519
  H  H74  1  0.295700  0.787400  0.037400  1.0  0.1184
  H  H75  1  0.880400  0.467000  0.193300  1.0  0.14
  H  H76  1  0.853200  0.496700  0.580700  1.0  0.1242
  C  C77  1  0.953400  0.223800  0.063200  1.0  -0.1841
  C  C78  1  0.233300  0.931200  0.168300  1.0  -0.0619
  C  C79  1  0.837800  0.493500  0.608500  1.0  -0.0471
  C  C80  1  0.872800  0.950200  0.866700  1.0  -0.0169
  C  C81  1  0.525700  0.351500  0.936200  1.0  -0.107
  C  C82  1  0.081000  0.385500  0.383100  1.0  0.3663
  C  C83  1  0.837800  0.006500  0.891500  1.0  -0.0464
  C  C84  1  0.807900  0.014800  0.809800  1.0  -0.0126
  C  C85  1  0.875500  0.513200  0.884400  1.0  -0.0567
  C  C86  1  0.053000  0.308200  0.016900  1.0  -0.0186
  C  C87  1  0.457900  0.722500  0.119300  1.0  -0.1147
  C  C88  1  0.201300  0.273300  0.015100  1.0  -0.0511
  C  C89  1  0.619400  0.274800  0.593300  1.0  0.1108
  C  C90  1  0.274900  0.000600  0.363700  1.0  -0.0851
  C  C91  1  0.081000  0.114500  0.116900  1.0  0.365
  C  C92  1  0.607900  0.193000  0.540000  1.0  -0.1056
  C  C93  1  0.511000  0.162600  0.605200  1.0  -0.0939
  C  C94  1  0.755500  0.117800  0.902700  1.0  0.3282
  C  C95  1  0.929700  0.280800  0.041900  1.0  -0.0629
  C  C96  1  0.219300  0.933900  0.125400  1.0  -0.0279
  C  C97  1  0.127200  0.049800  0.133300  1.0  -0.0177
  C  C98  1  0.525700  0.148500  0.563800  1.0  -0.106
  C  C99  1  0.053000  0.191800  0.483100  1.0  -0.0195
  C  C100  1  0.392100  0.807000  0.460000  1.0  -0.1058
  C  C101  1  0.807900  0.485200  0.690200  1.0  -0.0126
  C  C102  1  0.869200  0.987200  0.698300  1.0  0.2851
  C  C103  1  0.953400  0.276200  0.436800  1.0  -0.1831
  C  C104  1  0.511000  0.337400  0.894800  1.0  -0.0928
  C  C105  1  0.947000  0.808200  0.516900  1.0  -0.0189
  C  C106  1  0.652200  0.242900  0.945300  1.0  -0.1176
  C  C107  1  0.347800  0.757100  0.054700  1.0  -0.1168
  C  C108  1  0.097800  0.188900  0.057300  1.0  0.193
  C  C109  1  0.967800  0.625400  0.999000  1.0  0.737
  C  C110  1  0.780400  0.477700  0.734700  1.0  0.504
  C  C111  1  0.947000  0.691800  0.983100  1.0  -0.0199
  C  C112  1  0.473800  0.085500  0.548800  1.0  0.663
  C  C113  1  0.875500  0.986800  0.615600  1.0  -0.0586
  C  C114  1  0.766700  0.068800  0.831700  1.0  -0.061
  C  C115  1  0.798700  0.773300  0.515100  1.0  -0.0517
  C  C116  1  0.902200  0.811100  0.942700  1.0  0.1961
  C  C117  1  0.974800  0.476300  0.139400  1.0  -0.0467
  C  C118  1  0.136600  0.041200  0.174000  1.0  -0.1043
  C  C119  1  0.192100  0.985200  0.190200  1.0  -0.0129
  C  C120  1  0.130800  0.487200  0.198300  1.0  0.2851
  C  C121  1  0.347800  0.742900  0.445300  1.0  -0.1176
  C  C122  1  0.884200  0.990100  0.571200  1.0  0.6996
  C  C123  1  0.652200  0.257100  0.554700  1.0  -0.1149
  C  C124  1  0.798700  0.726700  0.984900  1.0  -0.0493
  C  C125  1  0.233300  0.568800  0.331700  1.0  -0.0603
  C  C126  1  0.863400  0.541200  0.674000  1.0  -0.1039
  C  C127  1  0.457900  0.777500  0.380700  1.0  -0.118
  C  C128  1  0.489000  0.837400  0.394800  1.0  -0.0919
  C  C129  1  0.766700  0.431200  0.668300  1.0  -0.0619
  C  C130  1  0.607900  0.307000  0.960000  1.0  -0.1065
  C  C131  1  0.046600  0.776200  0.936800  1.0  -0.1839
  C  C132  1  0.020700  0.524400  0.821400  1.0  -0.2116
  C  C133  1  0.272300  0.498000  0.178400  1.0  -0.1263
  C  C134  1  0.124500  0.013200  0.384400  1.0  -0.0573
  C  C135  1  0.244500  0.617800  0.402700  1.0  0.3278
  C  C136  1  0.869200  0.512800  0.801700  1.0  0.2862
  C  C137  1  0.727700  0.998000  0.678400  1.0  -0.126
  C  C138  1  0.162200  0.506500  0.391500  1.0  -0.0477
  C  C139  1  0.474300  0.851500  0.436200  1.0  -0.1071
  C  C140  1  0.902200  0.688900  0.557300  1.0  0.1933
  C  C141  1  0.223600  0.288400  0.467000  1.0  -0.1401
  C  C142  1  0.046600  0.723800  0.563200  1.0  -0.1833
  C  C143  1  0.274900  0.499400  0.136300  1.0  -0.0866
  C  C144  1  0.380600  0.774800  0.093300  1.0  0.1102
  C  C145  1  0.979300  0.024400  0.321400  1.0  -0.2109
  C  C146  1  0.526200  0.585500  0.048800  1.0  0.6627
  C  C147  1  0.219600  0.977700  0.234700  1.0  0.5051
  C  C148  1  0.223600  0.211600  0.033000  1.0  -0.141
  C  C149  1  0.392100  0.693000  0.040000  1.0  -0.1059
  C  C150  1  0.919000  0.885500  0.883100  1.0  0.3669
  C  C151  1  0.219300  0.566100  0.374600  1.0  -0.0281
  C  C152  1  0.542100  0.277500  0.880700  1.0  -0.1167
  C  C153  1  0.192100  0.514800  0.309800  1.0  -0.0129
  C  C154  1  0.727700  0.502000  0.821600  1.0  -0.1256
  C  C155  1  0.526200  0.914500  0.451200  1.0  0.6622
  C  C156  1  0.070300  0.780800  0.541900  1.0  -0.0619
  C  C157  1  0.127200  0.450200  0.366700  1.0  -0.0172
  C  C158  1  0.162200  0.993500  0.108500  1.0  -0.0471
  C  C159  1  0.124500  0.486800  0.115600  1.0  -0.0595
  C  C160  1  0.272300  0.002000  0.321600  1.0  -0.1261
  C  C161  1  0.032200  0.125400  0.499000  1.0  0.736
  C  C162  1  0.136600  0.458800  0.326000  1.0  -0.101
  C  C163  1  0.780400  0.022300  0.765300  1.0  0.5028
  C  C164  1  0.974800  0.023700  0.360600  1.0  -0.0469
  C  C165  1  0.201300  0.226700  0.484900  1.0  -0.0508
  C  C166  1  0.244500  0.882200  0.097300  1.0  0.3288
  C  C167  1  0.919000  0.614500  0.616900  1.0  0.3664
  C  C168  1  0.032200  0.374600  0.001000  1.0  0.7365
  C  C169  1  0.115800  0.009900  0.428800  1.0  0.6993
  C  C170  1  0.380600  0.725200  0.406700  1.0  0.1106
  C  C171  1  0.070300  0.719200  0.958100  1.0  -0.0627
  C  C172  1  0.130800  0.012800  0.301700  1.0  0.2853
  C  C173  1  0.473800  0.414500  0.951200  1.0  0.6632
  C  C174  1  0.776400  0.711600  0.533000  1.0  -0.143
  C  C175  1  0.025200  0.976300  0.639400  1.0  -0.0418
  C  C176  1  0.884200  0.509900  0.928800  1.0  0.6993
  C  C177  1  0.863400  0.958800  0.826000  1.0  -0.1029
  C  C178  1  0.020700  0.975600  0.678600  1.0  -0.2112
  C  C179  1  0.776400  0.788400  0.967000  1.0  -0.1438
  C  C180  1  0.115800  0.490100  0.071200  1.0  0.6997
  C  C181  1  0.474300  0.648500  0.063800  1.0  -0.1063
  C  C182  1  0.542100  0.222500  0.619300  1.0  -0.1156
  C  C183  1  0.780700  0.066100  0.874600  1.0  -0.028
  C  C184  1  0.025200  0.523700  0.860600  1.0  -0.0411
  C  C185  1  0.872800  0.549800  0.633300  1.0  -0.0176
  C  C186  1  0.929700  0.219200  0.458100  1.0  -0.0626
  C  C187  1  0.780700  0.433900  0.625400  1.0  -0.0278
  C  C188  1  0.725100  0.500600  0.863700  1.0  -0.0856
  C  C189  1  0.097800  0.311100  0.442700  1.0  0.1961
  C  C190  1  0.219600  0.522300  0.265300  1.0  0.504
  C  C191  1  0.619400  0.225200  0.906700  1.0  0.1108
  C  C192  1  0.489000  0.662600  0.105200  1.0  -0.0914
  C  C193  1  0.755500  0.382200  0.597300  1.0  0.3284
  C  C194  1  0.967800  0.874600  0.501000  1.0  0.7374
  C  C195  1  0.979300  0.475600  0.178600  1.0  -0.207
  C  C196  1  0.725100  0.999400  0.636300  1.0  -0.0868
  N  N197  1  0.343900  0.669100  0.387600  1.0  -0.3082
  N  N198  1  0.138700  0.371300  0.421500  1.0  -0.4578
  N  N199  1  0.118200  0.487000  0.241000  1.0  -0.4202
  N  N200  1  0.656100  0.330900  0.612400  1.0  -0.3068
  N  N201  1  0.861300  0.628700  0.578500  1.0  -0.4557
  N  N202  1  0.881800  0.987000  0.741000  1.0  -0.4205
  N  N203  1  0.138700  0.128700  0.078500  1.0  -0.4578
  N  N204  1  0.656100  0.169100  0.887600  1.0  -0.3079
  N  N205  1  0.881800  0.513000  0.759000  1.0  -0.4198
  N  N206  1  0.118200  0.013000  0.259000  1.0  -0.42
  N  N207  1  0.343900  0.830900  0.112400  1.0  -0.3068
  N  N208  1  0.861300  0.871300  0.921500  1.0  -0.4562
  O  O209  1  0.375700  0.050070  0.569730  1.0  -0.6344
  O  O210  1  0.027700  0.512420  0.944980  1.0  -0.7204
  O  O211  1  0.878600  0.103720  0.502280  1.0  -0.652
  O  O212  1  0.839600  0.594550  0.009550  1.0  -0.6565
  O  O213  1  0.997300  0.650800  0.637400  1.0  -0.412
  O  O214  1  0.624300  0.949930  0.430270  1.0  -0.6371
  O  O215  1  0.878600  0.396280  0.997720  1.0  -0.6522
  O  O216  1  0.330400  0.557900  0.251700  1.0  -0.4597
  O  O217  1  0.972300  0.487580  0.055020  1.0  -0.7217
  O  O218  1  0.002700  0.150800  0.137400  1.0  -0.4132
  O  O219  1  0.839600  0.905450  0.490450  1.0  -0.6557
  O  O220  1  0.504000  0.434720  0.986880  1.0  -0.7796
  O  O221  1  0.997300  0.849200  0.862600  1.0  -0.4137
  O  O222  1  0.002700  0.349200  0.362600  1.0  -0.4124
  O  O223  1  0.160400  0.094550  0.509550  1.0  -0.656
  O  O224  1  0.624300  0.550070  0.069730  1.0  -0.6351
  O  O225  1  0.027700  0.987580  0.555020  1.0  -0.7204
  O  O226  1  0.669600  0.057900  0.751700  1.0  -0.459
  O  O227  1  0.811000  0.382100  0.564600  1.0  -0.4038
  O  O228  1  0.504000  0.065280  0.513120  1.0  -0.7781
  O  O229  1  0.496000  0.565280  0.013120  1.0  -0.7782
  O  O230  1  0.669600  0.442100  0.748300  1.0  -0.461
  O  O231  1  0.496000  0.934720  0.486880  1.0  -0.7793
  O  O232  1  0.972300  0.012420  0.444980  1.0  -0.7216
  O  O233  1  0.330400  0.942100  0.248300  1.0  -0.4609
  O  O234  1  0.121400  0.603720  0.002280  1.0  -0.6516
  O  O235  1  0.749200  0.494140  0.948660  1.0  -0.5984
  O  O236  1  0.160400  0.405450  0.990450  1.0  -0.6554
  O  O237  1  0.121400  0.896280  0.497720  1.0  -0.6517
  O  O238  1  0.250800  0.994140  0.448660  1.0  -0.5982
  O  O239  1  0.189000  0.617900  0.435400  1.0  -0.4015
  O  O240  1  0.250800  0.505860  0.051340  1.0  -0.596
  O  O241  1  0.811000  0.117900  0.935400  1.0  -0.4042
  O  O242  1  0.749200  0.005860  0.551340  1.0  -0.5968
  O  O243  1  0.189000  0.882100  0.064600  1.0  -0.4012
  O  O244  1  0.375700  0.449930  0.930270  1.0  -0.6366
