# generated using pymatgen
data_Zn3H6C18O13
_symmetry_space_group_name_H-M   'P 1'
_cell_length_a   17.14710000
_cell_length_b   17.14710000
_cell_length_c   17.14710000
_cell_angle_alpha   62.05530000
_cell_angle_beta   74.59200000
_cell_angle_gamma   105.40800000
_symmetry_Int_Tables_number   1
_chemical_formula_structural   Zn3H6C18O13
_chemical_formula_sum   'Zn12 H24 C72 O52'
_cell_volume   3816.53281045
_cell_formula_units_Z   4
loop_
 _symmetry_equiv_pos_site_id
 _symmetry_equiv_pos_as_xyz
  1  'x, y, z'
loop_
 _atom_site_type_symbol
 _atom_site_label
 _atom_site_symmetry_multiplicity
 _atom_site_fract_x
 _atom_site_fract_y
 _atom_site_fract_z
 _atom_site_occupancy
 _atom_site_charge
  Zn  Zn1  1  0.128330  0.951840  0.427210  1.0  1.0836
  Zn  Zn2  1  0.871670  0.444460  0.176490  1.0  1.0843
  Zn  Zn3  1  0.500000  0.682900  0.490940  1.0  1.0518
  Zn  Zn4  1  0.826160  0.509060  0.990940  1.0  1.0532
  Zn  Zn5  1  0.620950  0.572790  0.555540  1.0  1.0846
  Zn  Zn6  1  0.379050  0.823510  0.048160  1.0  1.0847
  Zn  Zn7  1  0.620950  0.944460  0.927210  1.0  1.0848
  Zn  Zn8  1  0.871670  0.323510  0.055540  1.0  1.0826
  Zn  Zn9  1  0.379050  0.451840  0.676490  1.0  1.0855
  Zn  Zn10  1  0.500000  0.009060  0.817100  1.0  1.0499
  Zn  Zn11  1  0.128330  0.072790  0.548160  1.0  1.0842
  Zn  Zn12  1  0.173840  0.182900  0.317100  1.0  1.0527
  H  H13  1  0.395700  0.178100  0.864800  1.0  0.1154
  H  H14  1  0.848400  0.841300  0.468100  1.0  0.1199
  H  H15  1  0.690600  0.531900  0.316500  1.0  0.1219
  H  H16  1  0.300700  0.947600  0.739700  1.0  0.1171
  H  H17  1  0.957100  0.239500  0.364800  1.0  0.1174
  H  H18  1  0.848400  0.031900  0.658700  1.0  0.1202
  H  H19  1  0.309400  0.992900  0.158700  1.0  0.1215
  H  H20  1  0.395700  0.635200  0.321900  1.0  0.1145
  H  H21  1  0.699300  0.146900  0.540400  1.0  0.1166
  H  H22  1  0.687300  0.447600  0.853100  1.0  0.1183
  H  H23  1  0.604300  0.739500  0.217600  1.0  0.1165
  H  H24  1  0.042900  0.782400  0.821900  1.0  0.1173
  H  H25  1  0.687300  0.646900  0.052400  1.0  0.1185
  H  H26  1  0.151600  0.492900  0.816500  1.0  0.1204
  H  H27  1  0.312700  0.260300  0.040400  1.0  0.1182
  H  H28  1  0.309400  0.341300  0.507100  1.0  0.121
  H  H29  1  0.957100  0.135200  0.260500  1.0  0.1173
  H  H30  1  0.604300  0.282400  0.760500  1.0  0.1162
  H  H31  1  0.312700  0.459600  0.239700  1.0  0.1186
  H  H32  1  0.699300  0.959600  0.353100  1.0  0.1167
  H  H33  1  0.690600  0.183500  0.968100  1.0  0.122
  H  H34  1  0.151600  0.683500  0.007100  1.0  0.1207
  H  H35  1  0.042900  0.678100  0.717600  1.0  0.1163
  H  H36  1  0.300700  0.760300  0.552400  1.0  0.1171
  C  C37  1  0.677600  0.644400  0.109800  1.0  0.0097
  C  C38  1  0.355400  0.231300  0.941100  1.0  -0.1168
  C  C39  1  0.754200  0.966800  0.355600  1.0  0.007
  C  C40  1  0.172400  0.875900  0.768700  1.0  -0.12
  C  C41  1  0.181200  0.959500  0.672500  1.0  0.7036
  C  C42  1  0.626900  0.698900  0.209000  1.0  0.0007
  C  C43  1  0.621300  0.123000  0.874300  1.0  0.7082
  C  C44  1  0.642500  0.216900  0.867000  1.0  -0.1381
  C  C45  1  0.239200  0.820200  0.876400  1.0  -0.1332
  C  C46  1  0.303400  0.123600  0.115600  1.0  -0.1314
  C  C47  1  0.642500  0.633000  0.283100  1.0  -0.1439
  C  C48  1  0.997300  0.623000  0.998300  1.0  0.71
  C  C49  1  0.092100  0.664100  0.709000  1.0  -0.0014
  C  C50  1  0.827600  0.203500  0.441100  1.0  -0.1204
  C  C51  1  0.002700  0.125700  0.495600  1.0  0.7105
  C  C52  1  0.257700  0.098300  0.218600  1.0  0.7322
  C  C53  1  0.357500  0.074400  0.009500  1.0  -0.1324
  C  C54  1  0.172400  0.731300  0.624100  1.0  -0.119
  C  C55  1  0.818800  0.146300  0.221700  1.0  0.7066
  C  C56  1  0.843100  0.896200  0.425300  1.0  0.0357
  C  C57  1  0.368000  0.646300  0.172500  1.0  0.7114
  C  C58  1  0.378700  0.001700  0.995600  1.0  0.7132
  C  C59  1  0.239200  0.623600  0.679800  1.0  -0.1323
  C  C60  1  0.843100  0.074700  0.603800  1.0  0.0359
  C  C61  1  0.002700  0.004400  0.374300  1.0  0.7097
  C  C62  1  0.181200  0.827500  0.540500  1.0  0.7053
  C  C63  1  0.677600  0.390200  0.855600  1.0  0.0093
  C  C64  1  0.357500  0.490500  0.425600  1.0  -0.1347
  C  C65  1  0.632000  0.778300  0.040500  1.0  0.7056
  C  C66  1  0.321500  0.396200  0.446900  1.0  0.0371
  C  C67  1  0.316900  0.598300  0.659400  1.0  0.7318
  C  C68  1  0.818800  0.278300  0.353700  1.0  0.7046
  C  C69  1  0.156900  0.553100  0.768400  1.0  0.0287
  C  C70  1  0.373100  0.572000  0.335900  1.0  0.0053
  C  C71  1  0.092100  0.791000  0.835900  1.0  0.0006
  C  C72  1  0.368000  0.327500  0.853700  1.0  0.7084
  C  C73  1  0.632000  0.459500  0.721700  1.0  0.7035
  C  C74  1  0.083900  0.574400  0.783100  1.0  -0.1389
  C  C75  1  0.373100  0.164100  0.928000  1.0  0.003
  C  C76  1  0.696600  0.581000  0.179800  1.0  -0.1336
  C  C77  1  0.257700  0.281400  0.401700  1.0  0.7184
  C  C78  1  0.742300  0.523700  0.159400  1.0  0.7273
  C  C79  1  0.678500  0.231600  0.925300  1.0  0.0374
  C  C80  1  0.156900  0.731600  0.946900  1.0  0.0282
  C  C81  1  0.322400  0.466800  0.287400  1.0  0.0072
  C  C82  1  0.378700  0.504400  0.498300  1.0  0.7148
  C  C83  1  0.245800  0.890200  0.787400  1.0  0.0086
  C  C84  1  0.355400  0.558900  0.268700  1.0  -0.1168
  C  C85  1  0.754200  0.144400  0.533200  1.0  0.0081
  C  C86  1  0.907900  0.198900  0.428000  1.0  -0.001
  C  C87  1  0.683100  0.023700  0.718600  1.0  0.7216
  C  C88  1  0.303400  0.384400  0.376400  1.0  -0.1328
  C  C89  1  0.997300  0.501700  0.877000  1.0  0.7092
  C  C90  1  0.760800  0.081000  0.615600  1.0  -0.1324
  C  C91  1  0.907900  0.072000  0.301100  1.0  0.0006
  C  C92  1  0.760800  0.884400  0.419000  1.0  -0.1324
  C  C93  1  0.316900  0.840600  0.901700  1.0  0.7251
  C  C94  1  0.321500  0.053100  0.103800  1.0  0.0374
  C  C95  1  0.742300  0.340600  0.976300  1.0  0.7252
  C  C96  1  0.683100  0.781400  0.476300  1.0  0.7207
  C  C97  1  0.245800  0.712600  0.609800  1.0  0.0076
  C  C98  1  0.322400  0.212600  0.033200  1.0  0.0054
  C  C99  1  0.621300  0.625700  0.377000  1.0  0.711
  C  C100  1  0.916100  0.990500  0.367000  1.0  -0.1396
  C  C101  1  0.916100  0.133000  0.509500  1.0  -0.136
  C  C102  1  0.696600  0.320200  0.919000  1.0  -0.1326
  C  C103  1  0.083900  0.716900  0.925600  1.0  -0.1366
  C  C104  1  0.644600  0.375900  0.796500  1.0  -0.1199
  C  C105  1  0.678500  0.574700  0.268400  1.0  0.037
  C  C106  1  0.644600  0.703500  0.124100  1.0  -0.1194
  C  C107  1  0.827600  0.058900  0.296500  1.0  -0.1188
  C  C108  1  0.626900  0.291000  0.801100  1.0  0.003
  O  O109  1  0.402200  0.590700  0.479900  1.0  -0.6247
  O  O110  1  0.070600  0.188500  0.409300  1.0  -0.6288
  O  O111  1  0.266600  0.277900  0.328700  1.0  -0.6039
  O  O112  1  0.255300  0.898900  0.480000  1.0  -0.4043
  O  O113  1  0.500000  0.890100  0.939100  1.0  -0.7965
  O  O114  1  0.070600  0.090700  0.311500  1.0  -0.6294
  O  O115  1  0.107100  0.963500  0.673600  1.0  -0.5859
  O  O116  1  0.829200  0.390100  0.109900  1.0  -0.7942
  O  O117  1  0.637100  0.463500  0.643600  1.0  -0.5912
  O  O118  1  0.402200  0.020100  0.909300  1.0  -0.6237
  O  O119  1  0.378900  0.643600  0.101100  1.0  -0.4036
  O  O120  1  0.500000  0.560900  0.609900  1.0  -0.7949
  O  O121  1  0.632800  0.563500  0.442500  1.0  -0.562
  O  O122  1  0.597800  0.688500  0.382100  1.0  -0.6209
  O  O123  1  0.367200  0.430700  0.575300  1.0  -0.558
  O  O124  1  0.621100  0.520000  0.735300  1.0  -0.4038
  O  O125  1  0.929400  0.520100  0.882100  1.0  -0.6288
  O  O126  1  0.170800  0.060900  0.439100  1.0  -0.792
  O  O127  1  0.362900  0.326400  0.780700  1.0  -0.591
  O  O128  1  0.787800  0.497600  0.205000  1.0  -0.5743
  O  O129  1  0.637100  0.856400  0.036500  1.0  -0.5914
  O  O130  1  0.702600  0.997600  0.790200  1.0  -0.5755
  O  O131  1  0.107100  0.826400  0.536500  1.0  -0.5869
  O  O132  1  0.393400  0.904700  0.828700  1.0  -0.6045
  O  O133  1  0.255300  0.020000  0.601100  1.0  -0.4059
  O  O134  1  0.297400  0.507200  0.705000  1.0  -0.5775
  O  O135  1  0.929400  0.617900  0.979900  1.0  -0.6294
  O  O136  1  0.006000  0.063500  0.569300  1.0  -0.5614
  O  O137  1  0.393400  0.671300  0.595300  1.0  -0.5995
  O  O138  1  0.733400  0.511300  0.095300  1.0  -0.6088
  O  O139  1  0.892900  0.356400  0.280700  1.0  -0.593
  O  O140  1  0.362900  0.719300  0.173600  1.0  -0.5913
  O  O141  1  0.744700  0.264700  0.356400  1.0  -0.411
  O  O142  1  0.787800  0.295000  0.002400  1.0  -0.5786
  O  O143  1  0.702600  0.709800  0.502400  1.0  -0.5771
  O  O144  1  0.266600  0.171300  0.222100  1.0  -0.6044
  O  O145  1  0.597800  0.117900  0.811500  1.0  -0.6225
  O  O146  1  0.744700  0.143600  0.235300  1.0  -0.4094
  O  O147  1  0.606600  0.777900  0.488700  1.0  -0.6058
  O  O148  1  0.621100  0.764700  0.980000  1.0  -0.4045
  O  O149  1  0.378900  0.398900  0.856400  1.0  -0.4029
  O  O150  1  0.606600  0.011300  0.722100  1.0  -0.6063
  O  O151  1  0.297400  0.795000  0.992800  1.0  -0.5777
  O  O152  1  0.994000  0.424700  0.942500  1.0  -0.5625
  O  O153  1  0.367200  0.924700  0.069300  1.0  -0.5599
  O  O154  1  0.733400  0.404700  0.988700  1.0  -0.6099
  O  O155  1  0.006000  0.930700  0.436500  1.0  -0.5592
  O  O156  1  0.632800  0.057500  0.936500  1.0  -0.5613
  O  O157  1  0.994000  0.557500  0.075300  1.0  -0.561
  O  O158  1  0.212200  0.209800  0.492800  1.0  -0.5756
  O  O159  1  0.212200  0.007200  0.290200  1.0  -0.578
  O  O160  1  0.892900  0.219300  0.143600  1.0  -0.5941
