# generated using pymatgen
data_CdH10(C3O)6
_symmetry_space_group_name_H-M   'P 1'
_cell_length_a   11.07500000
_cell_length_b   15.43800000
_cell_length_c   19.18000000
_cell_angle_alpha   95.79600000
_cell_angle_beta   90.00000000
_cell_angle_gamma   90.00000000
_symmetry_Int_Tables_number   1
_chemical_formula_structural   CdH10(C3O)6
_chemical_formula_sum   'Cd6 H60 C108 O36'
_cell_volume   3262.55215327
_cell_formula_units_Z   6
loop_
 _symmetry_equiv_pos_site_id
 _symmetry_equiv_pos_as_xyz
  1  'x, y, z'
loop_
 _atom_site_type_symbol
 _atom_site_label
 _atom_site_symmetry_multiplicity
 _atom_site_fract_x
 _atom_site_fract_y
 _atom_site_fract_z
 _atom_site_occupancy
 _atom_site_charge
  Cd  Cd1  1  0.454960  0.500000  0.250000  1.0  1.0888
  Cd  Cd2  1  0.442370  0.543950  0.922260  1.0  1.1136
  Cd  Cd3  1  0.557630  0.456050  0.077740  1.0  1.1126
  Cd  Cd4  1  0.545040  0.500000  0.750000  1.0  1.0875
  Cd  Cd5  1  0.442370  0.456050  0.577740  1.0  1.1128
  Cd  Cd6  1  0.557630  0.543950  0.422260  1.0  1.112
  H  H7  1  0.766100  0.906700  0.259900  1.0  0.1204
  H  H8  1  0.192500  0.157600  0.447100  1.0  0.126
  H  H9  1  0.079200  0.807500  0.511800  1.0  0.1131
  H  H10  1  0.137600  0.327500  0.211700  1.0  0.1147
  H  H11  1  0.286900  0.834200  0.253900  1.0  0.1272
  H  H12  1  0.604200  0.707300  0.723400  1.0  0.0928
  H  H13  1  0.871200  0.932400  0.876500  1.0  0.134
  H  H14  1  0.021000  0.842000  0.668000  1.0  0.1327
  H  H15  1  0.233900  0.093300  0.740100  1.0  0.1207
  H  H16  1  0.772600  0.978500  0.415000  1.0  0.136
  H  H17  1  0.718700  0.815400  0.344400  1.0  0.1048
  H  H18  1  0.287000  0.710900  0.609600  1.0  0.1182
  H  H19  1  0.704100  0.713100  0.522600  1.0  0.1095
  H  H20  1  0.079200  0.192500  0.988200  1.0  0.1136
  H  H21  1  0.979000  0.158000  0.332000  1.0  0.1317
  H  H22  1  0.329100  0.618900  0.694200  1.0  0.0983
  H  H23  1  0.862400  0.672500  0.788300  1.0  0.1141
  H  H24  1  0.192500  0.842400  0.052900  1.0  0.1265
  H  H25  1  0.670900  0.618900  0.194200  1.0  0.0986
  H  H26  1  0.329100  0.381100  0.805800  1.0  0.0986
  H  H27  1  0.862400  0.327500  0.711700  1.0  0.1135
  H  H28  1  0.979000  0.842000  0.168000  1.0  0.1325
  H  H29  1  0.015100  0.226100  0.690100  1.0  0.1163
  H  H30  1  0.227400  0.021500  0.585000  1.0  0.1366
  H  H31  1  0.295900  0.286900  0.477400  1.0  0.1087
  H  H32  1  0.713000  0.710900  0.109600  1.0  0.1181
  H  H33  1  0.287000  0.289100  0.890400  1.0  0.1195
  H  H34  1  0.920800  0.807500  0.011800  1.0  0.1137
  H  H35  1  0.233900  0.906700  0.759900  1.0  0.1199
  H  H36  1  0.227400  0.978500  0.915000  1.0  0.1368
  H  H37  1  0.128800  0.932400  0.376500  1.0  0.1339
  H  H38  1  0.713100  0.834200  0.753900  1.0  0.127
  H  H39  1  0.704100  0.286900  0.977400  1.0  0.1088
  H  H40  1  0.984900  0.226100  0.190100  1.0  0.1159
  H  H41  1  0.021000  0.158000  0.832000  1.0  0.1317
  H  H42  1  0.766500  0.706100  0.990000  1.0  0.1139
  H  H43  1  0.920800  0.192500  0.488200  1.0  0.1134
  H  H44  1  0.233500  0.706100  0.490000  1.0  0.114
  H  H45  1  0.871200  0.067600  0.623500  1.0  0.1342
  H  H46  1  0.807500  0.842400  0.552900  1.0  0.1257
  H  H47  1  0.395800  0.707300  0.223400  1.0  0.0929
  H  H48  1  0.281300  0.815400  0.844400  1.0  0.1042
  H  H49  1  0.670900  0.381100  0.305800  1.0  0.0983
  H  H50  1  0.807500  0.157600  0.947100  1.0  0.1258
  H  H51  1  0.281300  0.184600  0.655600  1.0  0.1047
  H  H52  1  0.137600  0.672500  0.288300  1.0  0.1136
  H  H53  1  0.766500  0.293900  0.510000  1.0  0.1137
  H  H54  1  0.766100  0.093300  0.240100  1.0  0.1206
  H  H55  1  0.713000  0.289100  0.390400  1.0  0.1195
  H  H56  1  0.772600  0.021500  0.085000  1.0  0.1361
  H  H57  1  0.015100  0.773900  0.809900  1.0  0.1159
  H  H58  1  0.233500  0.293900  0.010000  1.0  0.114
  H  H59  1  0.718700  0.184600  0.155600  1.0  0.1042
  H  H60  1  0.713100  0.165800  0.746100  1.0  0.1272
  H  H61  1  0.984900  0.773900  0.309900  1.0  0.1148
  H  H62  1  0.128800  0.067600  0.123500  1.0  0.134
  H  H63  1  0.295900  0.713100  0.022600  1.0  0.1093
  H  H64  1  0.604200  0.292700  0.776600  1.0  0.0928
  H  H65  1  0.286900  0.165800  0.246100  1.0  0.127
  H  H66  1  0.395800  0.292700  0.276600  1.0  0.093
  C  C67  1  0.259200  0.181600  0.822700  1.0  0.2978
  C  C68  1  0.704200  0.737700  0.568900  1.0  -0.0484
  C  C69  1  0.354800  0.733900  0.189000  1.0  -0.0124
  C  C70  1  0.861400  0.075200  0.372500  1.0  0.2724
  C  C71  1  0.289900  0.810200  0.207500  1.0  -0.169
  C  C72  1  0.313700  0.292600  0.722200  1.0  -0.1188
  C  C73  1  0.295800  0.262300  0.431100  1.0  -0.0418
  C  C74  1  0.873900  0.300300  0.666667  1.0  -0.0329
  C  C75  1  0.289900  0.189800  0.292500  1.0  -0.1693
  C  C76  1  0.744700  0.150900  0.253300  1.0  -0.18
  C  C77  1  0.687700  0.322800  0.292400  1.0  -0.0268
  C  C78  1  0.861400  0.924800  0.127500  1.0  0.2647
  C  C79  1  0.770100  0.150200  0.844300  1.0  0.2845
  C  C80  1  0.229900  0.150200  0.344300  1.0  0.2931
  C  C81  1  0.938400  0.968500  0.875900  1.0  -0.1431
  C  C82  1  0.255300  0.150900  0.753300  1.0  -0.1796
  C  C83  1  0.800200  0.321000  0.612800  1.0  -0.1325
  C  C84  1  0.572100  0.615000  0.602600  1.0  0.6927
  C  C85  1  0.232600  0.814800  0.087100  1.0  -0.1776
  C  C86  1  0.847000  0.004000  0.101200  1.0  -0.2362
  C  C87  1  0.306000  0.617100  0.371100  1.0  0.7277
  C  C88  1  0.800200  0.679000  0.887200  1.0  -0.1323
  C  C89  1  0.645200  0.733900  0.689000  1.0  -0.0115
  C  C90  1  0.138600  0.075200  0.872500  1.0  0.2659
  C  C91  1  0.286300  0.731800  0.656800  1.0  -0.1915
  C  C92  1  0.352200  0.351500  0.669400  1.0  0.6148
  C  C93  1  0.641000  0.697000  0.619700  1.0  -0.1297
  C  C94  1  0.847000  0.996000  0.398800  1.0  -0.2364
  C  C95  1  0.255300  0.849100  0.746700  1.0  -0.1818
  C  C96  1  0.138600  0.924800  0.627500  1.0  0.265
  C  C97  1  0.050700  0.943300  0.900100  1.0  0.2336
  C  C98  1  0.572100  0.385000  0.897400  1.0  0.6917
  C  C99  1  0.359000  0.697000  0.119700  1.0  -0.1301
  C  C100  1  0.873900  0.699700  0.833300  1.0  -0.0316
  C  C101  1  0.050700  0.056700  0.599900  1.0  0.2277
  C  C102  1  0.126100  0.300300  0.166700  1.0  -0.0315
  C  C103  1  0.199800  0.321000  0.112800  1.0  -0.132
  C  C104  1  0.313700  0.707400  0.777800  1.0  -0.1191
  C  C105  1  0.306000  0.382900  0.128900  1.0  0.7269
  C  C106  1  0.312300  0.677200  0.707600  1.0  -0.0251
  C  C107  1  0.061600  0.968500  0.375900  1.0  -0.1436
  C  C108  1  0.931700  0.951300  0.648700  1.0  0.2714
  C  C109  1  0.091700  0.219200  0.033300  1.0  -0.238
  C  C110  1  0.979700  0.801200  0.912900  1.0  0.2823
  C  C111  1  0.713700  0.268200  0.343200  1.0  -0.1921
  C  C112  1  0.713700  0.731800  0.156800  1.0  -0.1946
  C  C113  1  0.035400  0.239500  0.154000  1.0  -0.216
  C  C114  1  0.964600  0.239500  0.654000  1.0  -0.2195
  C  C115  1  0.686300  0.292600  0.222200  1.0  -0.119
  C  C116  1  0.744700  0.849100  0.246700  1.0  -0.1806
  C  C117  1  0.020300  0.801200  0.412900  1.0  0.2852
  C  C118  1  0.068300  0.048700  0.351300  1.0  0.2729
  C  C119  1  0.687700  0.677200  0.207600  1.0  -0.0257
  C  C120  1  0.645200  0.266100  0.811000  1.0  -0.0105
  C  C121  1  0.641000  0.303000  0.880300  1.0  -0.1283
  C  C122  1  0.427900  0.385000  0.397400  1.0  0.6918
  C  C123  1  0.153000  0.996000  0.898800  1.0  -0.2355
  C  C124  1  0.931700  0.048700  0.851300  1.0  0.2723
  C  C125  1  0.091700  0.780800  0.466700  1.0  -0.2361
  C  C126  1  0.694000  0.617100  0.871100  1.0  0.7281
  C  C127  1  0.283100  0.794200  0.797200  1.0  -0.031
  C  C128  1  0.716900  0.794200  0.297200  1.0  -0.0297
  C  C129  1  0.126100  0.699700  0.333333  1.0  -0.0322
  C  C130  1  0.949300  0.056700  0.099900  1.0  0.2341
  C  C131  1  0.816600  0.719600  0.953700  1.0  -0.0125
  C  C132  1  0.767400  0.185200  0.912900  1.0  -0.175
  C  C133  1  0.816600  0.280400  0.546300  1.0  -0.0112
  C  C134  1  0.359000  0.303000  0.380300  1.0  -0.1286
  C  C135  1  0.259200  0.818400  0.677300  1.0  0.2986
  C  C136  1  0.153000  0.004000  0.601200  1.0  -0.2372
  C  C137  1  0.199800  0.679000  0.387200  1.0  -0.1302
  C  C138  1  0.971300  0.896100  0.151200  1.0  -0.1859
  C  C139  1  0.938400  0.031500  0.624100  1.0  -0.1431
  C  C140  1  0.704200  0.262300  0.931100  1.0  -0.0432
  C  C141  1  0.427900  0.615000  0.102600  1.0  0.6923
  C  C142  1  0.770100  0.849800  0.655700  1.0  0.2846
  C  C143  1  0.061600  0.031500  0.124100  1.0  -0.1434
  C  C144  1  0.716900  0.205800  0.202800  1.0  -0.0315
  C  C145  1  0.908300  0.219200  0.533300  1.0  -0.2358
  C  C146  1  0.035400  0.760500  0.346000  1.0  -0.2184
  C  C147  1  0.229900  0.849800  0.155700  1.0  0.2848
  C  C148  1  0.647800  0.351500  0.169400  1.0  0.6135
  C  C149  1  0.647800  0.648500  0.330600  1.0  0.6134
  C  C150  1  0.686300  0.707400  0.277800  1.0  -0.1195
  C  C151  1  0.028700  0.103900  0.848800  1.0  -0.1863
  C  C152  1  0.232600  0.185200  0.412900  1.0  -0.1796
  C  C153  1  0.740800  0.818400  0.177300  1.0  0.2978
  C  C154  1  0.710100  0.189800  0.792500  1.0  -0.171
  C  C155  1  0.020300  0.198800  0.087100  1.0  0.2899
  C  C156  1  0.286300  0.268200  0.843200  1.0  -0.1955
  C  C157  1  0.028700  0.896100  0.651200  1.0  -0.1858
  C  C158  1  0.312300  0.322800  0.792400  1.0  -0.0255
  C  C159  1  0.908300  0.780800  0.966700  1.0  -0.2349
  C  C160  1  0.694000  0.382900  0.628900  1.0  0.7268
  C  C161  1  0.354800  0.266100  0.311000  1.0  -0.0114
  C  C162  1  0.710100  0.810200  0.707500  1.0  -0.1697
  C  C163  1  0.183400  0.280400  0.046300  1.0  -0.0122
  C  C164  1  0.740800  0.181600  0.322700  1.0  0.2975
  C  C165  1  0.971300  0.103900  0.348800  1.0  -0.186
  C  C166  1  0.964600  0.760500  0.846000  1.0  -0.2155
  C  C167  1  0.767400  0.814800  0.587100  1.0  -0.1802
  C  C168  1  0.283100  0.205800  0.702800  1.0  -0.0312
  C  C169  1  0.068300  0.951300  0.148700  1.0  0.2704
  C  C170  1  0.949300  0.943300  0.400100  1.0  0.2338
  C  C171  1  0.295800  0.737700  0.068900  1.0  -0.0466
  C  C172  1  0.352200  0.648500  0.830600  1.0  0.6154
  C  C173  1  0.979700  0.198800  0.587100  1.0  0.2871
  C  C174  1  0.183400  0.719600  0.453700  1.0  -0.0135
  O  O175  1  0.326600  0.591600  0.308400  1.0  -0.6487
  O  O176  1  0.673400  0.591600  0.808400  1.0  -0.6486
  O  O177  1  0.610800  0.572800  0.309000  1.0  -0.67
  O  O178  1  0.467400  0.426600  0.348700  1.0  -0.6674
  O  O179  1  0.532600  0.573400  0.651300  1.0  -0.6667
  O  O180  1  0.760200  0.871900  0.124300  1.0  -0.2578
  O  O181  1  0.467400  0.573400  0.151300  1.0  -0.6671
  O  O182  1  0.389200  0.572800  0.809000  1.0  -0.6685
  O  O183  1  0.930500  0.863700  0.426800  1.0  -0.2615
  O  O184  1  0.631900  0.401900  0.576000  1.0  -0.6343
  O  O185  1  0.180400  0.069800  0.323700  1.0  -0.2825
  O  O186  1  0.447600  0.413200  0.460200  1.0  -0.7957
  O  O187  1  0.348500  0.672300  0.894600  1.0  -0.5937
  O  O188  1  0.552400  0.586800  0.539800  1.0  -0.7972
  O  O189  1  0.930500  0.136300  0.073200  1.0  -0.261
  O  O190  1  0.447600  0.586800  0.039800  1.0  -0.7963
  O  O191  1  0.368100  0.401900  0.076000  1.0  -0.6335
  O  O192  1  0.552400  0.413200  0.960200  1.0  -0.7959
  O  O193  1  0.326600  0.408400  0.191600  1.0  -0.6493
  O  O194  1  0.760200  0.128100  0.375700  1.0  -0.2579
  O  O195  1  0.348500  0.327700  0.605400  1.0  -0.5922
  O  O196  1  0.069500  0.136300  0.573200  1.0  -0.2619
  O  O197  1  0.651500  0.327700  0.105400  1.0  -0.592
  O  O198  1  0.239800  0.871900  0.624300  1.0  -0.257
  O  O199  1  0.180400  0.930200  0.176300  1.0  -0.2839
  O  O200  1  0.239800  0.128100  0.875700  1.0  -0.2568
  O  O201  1  0.389200  0.427200  0.691000  1.0  -0.6697
  O  O202  1  0.610800  0.427200  0.191000  1.0  -0.6708
  O  O203  1  0.819600  0.069800  0.823700  1.0  -0.2835
  O  O204  1  0.631900  0.598100  0.924000  1.0  -0.6345
  O  O205  1  0.532600  0.426600  0.848700  1.0  -0.6668
  O  O206  1  0.673400  0.408400  0.691600  1.0  -0.6489
  O  O207  1  0.368100  0.598100  0.424000  1.0  -0.6339
  O  O208  1  0.651500  0.672300  0.394600  1.0  -0.5925
  O  O209  1  0.819600  0.930200  0.676300  1.0  -0.284
  O  O210  1  0.069500  0.863700  0.926800  1.0  -0.2615
