# generated using pymatgen
data_Cu20H57C64S3N60O29
_symmetry_space_group_name_H-M   'P 1'
_cell_length_a   16.14910000
_cell_length_b   20.68960000
_cell_length_c   20.75920000
_cell_angle_alpha   113.40800000
_cell_angle_beta   98.04000000
_cell_angle_gamma   90.07700000
_symmetry_Int_Tables_number   1
_chemical_formula_structural   Cu20H57C64S3N60O29
_chemical_formula_sum   'Cu40 H114 C128 S6 N120 O58'
_cell_volume   6290.25195581
_cell_formula_units_Z   2
loop_
 _symmetry_equiv_pos_site_id
 _symmetry_equiv_pos_as_xyz
  1  'x, y, z'
loop_
 _atom_site_type_symbol
 _atom_site_label
 _atom_site_symmetry_multiplicity
 _atom_site_fract_x
 _atom_site_fract_y
 _atom_site_fract_z
 _atom_site_occupancy
 _atom_site_charge
  Cu  Cu1  1  0.684590  0.069550  0.570830  1.0  0.8516
  Cu  Cu2  1  0.829560  0.158420  0.189450  1.0  0.8594
  Cu  Cu3  1  0.933630  0.216380  0.887520  1.0  0.8414
  Cu  Cu4  1  0.670320  0.059220  0.062740  1.0  0.8372
  Cu  Cu5  1  0.559850  0.720860  0.832900  1.0  0.8353
  Cu  Cu6  1  0.329680  0.940780  0.937260  1.0  0.8363
  Cu  Cu7  1  0.617500  0.197040  0.709230  1.0  0.862
  Cu  Cu8  1  0.319010  0.354600  0.558000  1.0  0.8755
  Cu  Cu9  1  0.675910  0.651800  0.942780  1.0  0.8889
  Cu  Cu10  1  0.382500  0.802960  0.290770  1.0  0.8611
  Cu  Cu11  1  0.441240  0.280000  0.654230  1.0  0.758
  Cu  Cu12  1  0.380860  0.810340  0.789990  1.0  0.8697
  Cu  Cu13  1  0.141060  0.280870  0.484290  1.0  0.885
  Cu  Cu14  1  0.680990  0.645400  0.442000  1.0  0.8726
  Cu  Cu15  1  0.821520  0.546380  0.980480  1.0  0.6992
  Cu  Cu16  1  0.889460  0.691310  0.962450  1.0  0.8232
  Cu  Cu17  1  0.324090  0.348200  0.057220  1.0  0.8896
  Cu  Cu18  1  0.858940  0.719130  0.515710  1.0  0.8852
  Cu  Cu19  1  0.178480  0.453620  0.019520  1.0  0.7039
  Cu  Cu20  1  0.504050  0.433040  0.645330  1.0  0.8837
  Cu  Cu21  1  0.001310  0.092590  0.748530  1.0  0.9133
  Cu  Cu22  1  0.042920  0.798820  0.650400  1.0  0.8059
  Cu  Cu23  1  0.826200  0.545290  0.477190  1.0  0.9099
  Cu  Cu24  1  0.495950  0.566960  0.354670  1.0  0.8837
  Cu  Cu25  1  0.619140  0.189660  0.210010  1.0  0.8704
  Cu  Cu26  1  0.173800  0.454710  0.522810  1.0  0.9077
  Cu  Cu27  1  0.315410  0.930450  0.429170  1.0  0.8514
  Cu  Cu28  1  0.170300  0.827110  0.286690  1.0  0.9146
  Cu  Cu29  1  0.957080  0.201180  0.349600  1.0  0.8015
  Cu  Cu30  1  0.991540  0.923460  0.798950  1.0  0.8799
  Cu  Cu31  1  0.502950  0.432620  0.159850  1.0  0.8469
  Cu  Cu32  1  0.066370  0.783620  0.112480  1.0  0.841
  Cu  Cu33  1  0.998690  0.907410  0.251470  1.0  0.9117
  Cu  Cu34  1  0.110540  0.308690  0.037550  1.0  0.8231
  Cu  Cu35  1  0.829700  0.172890  0.713310  1.0  0.9136
  Cu  Cu36  1  0.440150  0.279140  0.167100  1.0  0.8347
  Cu  Cu37  1  0.170440  0.841580  0.810550  1.0  0.8526
  Cu  Cu38  1  0.497050  0.567380  0.840150  1.0  0.8462
  Cu  Cu39  1  0.558760  0.720000  0.345770  1.0  0.7577
  Cu  Cu40  1  0.008460  0.076540  0.201050  1.0  0.8796
  H  H41  1  0.763400  0.275500  0.961200  1.0  0.1095
  H  H42  1  0.404700  0.147300  0.495300  1.0  0.1142
  H  H43  1  0.661100  0.253400  0.386500  1.0  0.1065
  H  H44  1  0.801500  0.891400  0.170300  1.0  0.1118
  H  H45  1  0.217400  0.329700  0.958900  1.0  0.4314
  H  H46  1  0.852800  0.579000  0.732200  1.0  0.1029
  H  H47  1  0.326000  0.346500  0.784600  1.0  0.1096
  H  H48  1  0.059400  0.067600  0.951500  1.0  0.1195
  H  H49  1  0.248600  0.677500  0.759900  1.0  0.1081
  H  H50  1  0.262500  0.168200  0.388900  1.0  0.1072
  H  H51  1  0.805800  0.263700  0.447200  1.0  0.1168
  H  H52  1  0.054500  0.056000  0.400800  1.0  0.1042
  H  H53  1  0.940600  0.932400  0.048500  1.0  0.1193
  H  H54  1  0.236600  0.724500  0.038800  1.0  0.1085
  H  H55  1  0.685500  0.404600  0.913000  1.0  0.0924
  H  H56  1  0.903700  0.355000  0.358700  1.0  0.102
  H  H57  1  0.272000  0.196000  0.187200  1.0  0.1179
  H  H58  1  0.295000  0.576600  0.789000  1.0  0.1165
  H  H59  1  0.343200  0.922300  0.669600  1.0  0.1034
  H  H60  1  0.279600  0.816000  0.883600  1.0  0.4371
  H  H61  1  0.546800  0.409900  0.851900  1.0  0.1275
  H  H62  1  0.600200  0.895700  0.840300  1.0  0.1064
  H  H63  1  0.156800  0.028900  0.657000  1.0  0.1055
  H  H64  1  0.860000  0.992900  0.913700  1.0  0.1059
  H  H65  1  0.734200  0.196700  0.627600  1.0  0.3977
  H  H66  1  0.194200  0.736300  0.552800  1.0  0.1175
  H  H67  1  0.728000  0.804000  0.812800  1.0  0.1171
  H  H68  1  0.507700  0.058300  0.457100  1.0  0.1252
  H  H69  1  0.253200  0.667500  0.255500  1.0  0.1181
  H  H70  1  0.096300  0.645000  0.641300  1.0  0.1016
  H  H71  1  0.614700  0.895100  0.349900  1.0  0.1189
  H  H72  1  0.728500  0.816800  0.342000  1.0  0.1091
  H  H73  1  0.674000  0.653500  0.215400  1.0  0.1087
  H  H74  1  0.314500  0.595400  0.087000  1.0  0.0897
  H  H75  1  0.198500  0.108600  0.829700  1.0  0.1125
  H  H76  1  0.454000  0.589800  0.630600  1.0  0.112
  H  H77  1  0.595300  0.852700  0.504700  1.0  0.1151
  H  H78  1  0.585300  0.900300  0.156100  1.0  0.118
  H  H79  1  0.866700  0.389200  0.575900  1.0  0.1072
  H  H80  1  0.311600  0.597400  0.577700  1.0  0.1035
  H  H81  1  0.995500  0.541900  0.087200  1.0  0.1182
  H  H82  1  0.453200  0.590100  0.148100  1.0  0.1267
  H  H83  1  0.973100  0.213100  0.764400  1.0  0.3705
  H  H84  1  0.395400  0.152900  0.004900  1.0  0.1027
  H  H85  1  0.794300  0.925100  0.991200  1.0  0.1112
  H  H86  1  0.182300  0.382600  0.591900  1.0  0.4172
  H  H87  1  0.295900  0.573300  0.294400  1.0  0.1211
  H  H88  1  0.537600  0.680800  0.458100  1.0  0.3904
  H  H89  1  0.990300  0.463400  0.433700  1.0  0.1239
  H  H90  1  0.656800  0.077700  0.330400  1.0  0.1026
  H  H91  1  0.688400  0.402600  0.422300  1.0  0.1038
  H  H92  1  0.271500  0.183200  0.658000  1.0  0.1103
  H  H93  1  0.205700  0.074900  0.008800  1.0  0.1107
  H  H94  1  0.751400  0.322500  0.240100  1.0  0.1072
  H  H95  1  0.817700  0.617400  0.408100  1.0  0.4194
  H  H96  1  0.646400  0.080200  0.827200  1.0  0.1027
  H  H97  1  0.235600  0.188800  0.956000  1.0  0.1119
  H  H98  1  0.655500  0.527000  0.136600  1.0  0.1177
  H  H99  1  0.811400  0.935900  0.522700  1.0  0.1188
  H  H100  1  0.628600  0.267600  0.884600  1.0  0.1189
  H  H101  1  0.424200  0.092400  0.349700  1.0  0.1093
  H  H102  1  0.604600  0.847100  0.995100  1.0  0.1061
  H  H103  1  0.977100  0.199800  0.219300  1.0  0.3835
  H  H104  1  0.213900  0.090200  0.263100  1.0  0.1138
  H  H105  1  0.004500  0.458100  0.912800  1.0  0.1162
  H  H106  1  0.705000  0.423400  0.211000  1.0  0.1169
  H  H107  1  0.344500  0.473000  0.863400  1.0  0.118
  H  H108  1  0.833000  0.099300  0.393600  1.0  0.1304
  H  H109  1  0.139000  0.179100  0.579300  1.0  0.1216
  H  H110  1  0.786100  0.909800  0.736900  1.0  0.114
  H  H111  1  0.399800  0.104300  0.159700  1.0  0.1061
  H  H112  1  0.737500  0.831800  0.611100  1.0  0.1079
  H  H113  1  0.840900  0.119700  0.957400  1.0  0.1279
  H  H114  1  0.009700  0.536600  0.566300  1.0  0.1236
  H  H115  1  0.167000  0.900700  0.606400  1.0  0.1308
  H  H116  1  0.508700  0.941700  0.040100  1.0  0.1219
  H  H117  1  0.026900  0.786900  0.235600  1.0  0.371
  H  H118  1  0.131300  0.215600  0.137500  1.0  0.1169
  H  H119  1  0.353600  0.919800  0.172800  1.0  0.1031
  H  H120  1  0.764400  0.811200  0.044000  1.0  0.1124
  H  H121  1  0.898300  0.357700  0.866100  1.0  0.1114
  H  H122  1  0.265800  0.803300  0.372400  1.0  0.3971
  H  H123  1  0.491300  0.058300  0.959900  1.0  0.122
  H  H124  1  0.091900  0.589100  0.222000  1.0  0.0979
  H  H125  1  0.843200  0.971100  0.343000  1.0  0.1056
  H  H126  1  0.861000  0.820900  0.420700  1.0  0.1227
  H  H127  1  0.492300  0.941700  0.542900  1.0  0.1247
  H  H128  1  0.669300  0.657000  0.698800  1.0  0.1309
  H  H129  1  0.908100  0.410900  0.778000  1.0  0.0969
  H  H130  1  0.652000  0.529300  0.619900  1.0  0.1161
  H  H131  1  0.467600  0.318500  0.059800  1.0  0.3903
  H  H132  1  0.782600  0.670300  0.041100  1.0  0.43
  H  H133  1  0.371400  0.732400  0.115400  1.0  0.116
  H  H134  1  0.133300  0.610800  0.424100  1.0  0.1061
  H  H135  1  0.188600  0.064100  0.477300  1.0  0.1193
  H  H136  1  0.348000  0.470700  0.380100  1.0  0.1149
  H  H137  1  0.532400  0.681500  0.940200  1.0  0.3898
  H  H138  1  0.720400  0.184000  0.116400  1.0  0.4389
  H  H139  1  0.101700  0.642300  0.133900  1.0  0.1119
  H  H140  1  0.575800  0.907600  0.650300  1.0  0.1089
  H  H141  1  0.746800  0.332500  0.744500  1.0  0.1184
  H  H142  1  0.330700  0.343000  0.301200  1.0  0.1307
  H  H143  1  0.385300  0.104900  0.650100  1.0  0.1177
  H  H144  1  0.868700  0.784400  0.862500  1.0  0.1173
  H  H145  1  0.022900  0.800200  0.780700  1.0  0.385
  H  H146  1  0.140000  0.007100  0.086300  1.0  0.106
  H  H147  1  0.462400  0.319200  0.541900  1.0  0.3899
  H  H148  1  0.147200  0.421000  0.267800  1.0  0.1023
  H  H149  1  0.945500  0.944000  0.599200  1.0  0.104
  H  H150  1  0.546000  0.410200  0.369400  1.0  0.111
  H  H151  1  0.414700  0.099700  0.843900  1.0  0.1177
  H  H152  1  0.159100  0.880300  0.042600  1.0  0.1282
  H  H153  1  0.338900  0.746600  0.613500  1.0  0.1062
  H  H154  1  0.704100  0.426700  0.705600  1.0  0.121
  C  C155  1  0.368900  0.450400  0.822800  1.0  -0.0428
  C  C156  1  0.629200  0.993200  0.846100  1.0  -0.1651
  C  C157  1  0.417500  0.109600  0.259600  1.0  -0.2373
  C  C158  1  0.104700  0.569400  0.255100  1.0  -0.0209
  C  C159  1  0.828700  0.518800  0.591500  1.0  0.6514
  C  C160  1  0.995000  0.580600  0.075000  1.0  -0.0227
  C  C161  1  0.618800  0.995800  0.236500  1.0  -0.1396
  C  C162  1  0.406200  0.112000  0.751200  1.0  -0.2569
  C  C163  1  0.181100  0.119500  0.294900  1.0  -0.0031
  C  C164  1  0.654200  0.029900  0.925200  1.0  0.6591
  C  C165  1  0.402800  0.076100  0.794800  1.0  -0.0325
  C  C166  1  0.865500  0.074000  0.359300  1.0  -0.0171
  C  C167  1  0.412700  0.552900  0.125800  1.0  -0.0199
  C  C168  1  0.998600  0.581900  0.570000  1.0  -0.0595
  C  C169  1  0.371500  0.448400  0.339000  1.0  -0.0179
  C  C170  1  0.736800  0.794700  0.373400  1.0  -0.0256
  C  C171  1  0.005000  0.419400  0.925000  1.0  -0.0231
  C  C172  1  0.853700  0.488300  0.645900  1.0  -0.1244
  C  C173  1  0.263200  0.205300  0.626600  1.0  -0.0241
  C  C174  1  0.637700  0.622600  0.704500  1.0  -0.0354
  C  C175  1  0.244900  0.740400  0.088000  1.0  -0.0051
  C  C176  1  0.510200  0.094500  0.502000  1.0  -0.0237
  C  C177  1  0.867500  0.093300  0.919200  1.0  -0.0237
  C  C178  1  0.412000  0.553700  0.612400  1.0  -0.0279
  C  C179  1  0.118600  0.454500  0.153500  1.0  0.6868
  C  C180  1  0.628500  0.551600  0.661000  1.0  -0.0173
  C  C181  1  0.503000  0.906400  0.994500  1.0  -0.0736
  C  C182  1  0.611000  0.000500  0.732500  1.0  -0.11
  C  C183  1  0.667200  0.442000  0.416300  1.0  -0.0134
  C  C184  1  0.818900  0.880500  0.705100  1.0  -0.0097
  C  C185  1  0.871600  0.003300  0.331500  1.0  -0.0118
  C  C186  1  0.791900  0.837000  0.635000  1.0  0.0058
  C  C187  1  0.368800  0.967800  0.194800  1.0  0.0219
  C  C188  1  0.593800  0.888000  0.248800  1.0  -0.2576
  C  C189  1  0.444000  0.146200  0.030800  1.0  0.0149
  C  C190  1  0.381200  0.004200  0.763500  1.0  -0.1394
  C  C191  1  0.902500  0.967100  0.062400  1.0  -0.0198
  C  C192  1  0.546600  0.856200  0.476800  1.0  0.005
  C  C193  1  0.810400  0.797300  0.417200  1.0  -0.0339
  C  C194  1  0.696700  0.329800  0.224800  1.0  -0.0195
  C  C195  1  0.671000  0.385600  0.207800  1.0  -0.0189
  C  C196  1  0.260100  0.220400  0.158100  1.0  0.0022
  C  C197  1  0.380700  0.961400  0.808300  1.0  0.6699
  C  C198  1  0.946100  0.363600  0.899200  1.0  -0.0116
  C  C199  1  0.097500  0.032900  0.937600  1.0  -0.0208
  C  C200  1  0.881300  0.503100  0.767900  1.0  -0.1295
  C  C201  1  0.582500  0.890400  0.740400  1.0  -0.2377
  C  C202  1  0.816400  0.816900  0.072000  1.0  -0.0634
  C  C203  1  0.396600  0.078000  0.186800  1.0  0.0094
  C  C204  1  0.132500  0.906700  0.080800  1.0  -0.0238
  C  C205  1  0.837200  0.861400  0.142200  1.0  0.0014
  C  C206  1  0.597200  0.923900  0.205200  1.0  -0.0354
  C  C207  1  0.362300  0.377400  0.295500  1.0  -0.0353
  C  C208  1  0.680000  0.255100  0.869400  1.0  -0.0272
  C  C209  1  0.329000  0.614400  0.792200  1.0  -0.018
  C  C210  1  0.641200  0.619700  0.221000  1.0  -0.0482
  C  C211  1  0.211200  0.752500  0.601600  1.0  -0.0384
  C  C212  1  0.674600  0.029800  0.431600  1.0  0.6718
  C  C213  1  0.908400  0.979600  0.605700  1.0  -0.0193
  C  C214  1  0.325400  0.970200  0.568400  1.0  0.6735
  C  C215  1  0.146300  0.511700  0.354100  1.0  -0.1249
  C  C216  1  0.664100  0.444500  0.908400  1.0  0.0157
  C  C217  1  0.834200  0.975100  0.562900  1.0  -0.0111
  C  C218  1  0.412200  0.070600  0.300500  1.0  -0.0143
  C  C219  1  0.183600  0.183100  0.928000  1.0  -0.0617
  C  C220  1  0.182000  0.231400  0.130700  1.0  -0.0143
  C  C221  1  0.128400  0.996700  0.668500  1.0  -0.0129
  C  C222  1  0.138700  0.468900  0.282400  1.0  -0.0105
  C  C223  1  0.643100  0.992200  0.353100  1.0  -0.1559
  C  C224  1  0.587800  0.929400  0.699500  1.0  -0.0141
  C  C225  1  0.497000  0.093600  0.005500  1.0  -0.0731
  C  C226  1  0.708600  0.242000  0.364500  1.0  -0.0039
  C  C227  1  0.356900  0.007800  0.646900  1.0  -0.1561
  C  C228  1  0.358100  0.970500  0.690100  1.0  0.0064
  C  C229  1  0.162800  0.138600  0.857800  1.0  -1e-04
  C  C230  1  0.818000  0.768600  0.869300  1.0  -0.0149
  C  C231  1  0.121100  0.976500  0.104800  1.0  0.0085
  C  C232  1  0.046200  0.642000  0.611700  1.0  -0.0258
  C  C233  1  0.821200  0.963200  0.030500  1.0  0.0181
  C  C234  1  0.616700  0.044900  0.689800  1.0  0.6948
  C  C235  1  0.556000  0.853800  0.969200  1.0  0.0143
  C  C236  1  0.878900  0.023500  0.895200  1.0  0.0077
  C  C237  1  0.693200  0.337300  0.724500  1.0  -0.0416
  C  C238  1  0.345800  0.970100  0.074800  1.0  0.6582
  C  C239  1  0.370800  0.006800  0.153900  1.0  -0.1655
  C  C240  1  0.306800  0.662700  0.275500  1.0  -0.0419
  C  C241  1  0.619300  0.038600  0.191700  1.0  0.6708
  C  C242  1  0.118700  0.496900  0.232100  1.0  -0.1306
  C  C243  1  0.291400  0.758000  0.635500  1.0  -0.0029
  C  C244  1  0.130200  0.582500  0.376000  1.0  0.0171
  C  C245  1  0.895300  0.430600  0.744900  1.0  -0.0207
  C  C246  1  0.383200  0.079400  0.678100  1.0  -0.0196
  C  C247  1  0.489800  0.905500  0.498000  1.0  -0.0219
  C  C248  1  0.303300  0.670200  0.775200  1.0  -0.0197
  C  C249  1  0.189600  0.202700  0.582800  1.0  -0.0339
  C  C250  1  0.134500  0.926000  0.640700  1.0  -0.0173
  C  C251  1  0.389000  0.999500  0.267500  1.0  -0.11
  C  C252  1  0.109800  0.611000  0.326500  1.0  -0.2273
  C  C253  1  0.091600  0.020400  0.394300  1.0  -0.0171
  C  C254  1  0.330400  0.610800  0.297500  1.0  0.0129
  C  C255  1  0.953800  0.358000  0.388300  1.0  -0.0204
  C  C256  1  0.788800  0.247500  0.398400  1.0  -0.038
  C  C257  1  0.881400  0.545500  0.846500  1.0  0.6868
  C  C258  1  0.453400  0.143800  0.523200  1.0  0.0034
  C  C259  1  0.869800  0.417500  0.624000  1.0  0.0165
  C  C260  1  0.383300  0.955100  0.310200  1.0  0.6941
  C  C261  1  0.588000  0.446300  0.387600  1.0  -0.0289
  C  C262  1  0.165800  0.024900  0.437100  1.0  -0.0107
  C  C263  1  0.320000  0.744900  0.130600  1.0  -0.0261
  C  C264  1  0.739900  0.779600  0.841900  1.0  0.0011
  C  C265  1  0.332800  0.558000  0.583700  1.0  -0.0155
  C  C266  1  0.358800  0.380300  0.779000  1.0  -0.0496
  C  C267  1  0.755100  0.259600  0.912000  1.0  -0.0054
  C  C268  1  0.001400  0.418100  0.430000  1.0  -0.0608
  C  C269  1  0.890200  0.389000  0.673500  1.0  -0.2279
  C  C270  1  0.616800  0.920600  0.321900  1.0  -0.0197
  C  C271  1  0.861300  0.531100  0.717600  1.0  -0.0099
  C  C272  1  0.631100  0.549600  0.177200  1.0  -0.042
  C  C273  1  0.208100  0.163000  0.365000  1.0  0.0063
  C  C274  1  0.631200  0.032200  0.805200  1.0  0.0193
  C  C275  1  0.641900  0.029500  0.309900  1.0  0.0048
  C  C276  1  0.178800  0.036800  0.969500  1.0  0.0191
  C  C277  1  0.587300  0.447100  0.874200  1.0  -0.0223
  C  C278  1  0.335900  0.555500  0.091600  1.0  0.0147
  C  C279  1  0.053900  0.636400  0.100800  1.0  -0.0116
  C  C280  1  0.669600  0.389200  0.702500  1.0  0.0114
  C  C281  1  0.603400  0.922000  0.813200  1.0  0.0096
  C  C282  1  0.171300  0.481200  0.408500  1.0  0.6513
  S  S283  1  0.427380  0.205520  0.792020  1.0  1.3805
  S  S284  1  0.907410  0.297490  0.645520  1.0  1.3937
  S  S285  1  0.092590  0.702510  0.354480  1.0  1.3952
  S  S286  1  0.555060  0.798200  0.696140  1.0  1.3649
  S  S287  1  0.572620  0.794480  0.207980  1.0  1.3789
  S  S288  1  0.444940  0.201800  0.303860  1.0  1.3661
  N  N289  1  0.289900  0.496200  0.565200  1.0  -0.2768
  N  N290  1  0.916800  0.030000  0.117200  1.0  -0.2426
  N  N291  1  0.521200  0.813800  0.409500  1.0  -0.1786
  N  N292  1  0.559100  0.568600  0.262400  1.0  -0.1826
  N  N293  1  0.557700  0.570000  0.748500  1.0  -0.1469
  N  N294  1  0.148300  0.922200  0.352800  1.0  -0.099
  N  N295  1  0.709600  0.217700  0.294900  1.0  -0.2262
  N  N296  1  0.725900  0.719100  0.904800  1.0  -0.1659
  N  N297  1  0.917300  0.854300  0.163400  1.0  -0.2478
  N  N298  1  0.902500  0.117100  0.876500  1.0  -0.1694
  N  N299  1  0.885400  0.783100  0.051200  1.0  -0.2095
  N  N300  1  0.205400  0.241100  0.546200  1.0  -0.209
  N  N301  1  0.143100  0.196200  0.392500  1.0  -0.1762
  N  N302  1  0.625500  0.294500  0.712000  1.0  -0.1715
  N  N303  1  0.319700  0.244700  0.616300  1.0  -0.1772
  N  N304  1  0.428700  0.892500  0.442100  1.0  -0.2695
  N  N305  1  0.064600  0.937000  0.171400  1.0  -0.2239
  N  N306  1  0.066600  0.400400  0.464400  1.0  -0.1551
  N  N307  1  0.561700  0.319300  0.682200  1.0  -0.1069
  N  N308  1  0.210000  0.791200  0.714000  1.0  -0.1296
  N  N309  1  0.441200  0.897100  0.940900  1.0  -0.1734
  N  N310  1  0.627800  0.287700  0.215000  1.0  -0.2001
  N  N311  1  0.794600  0.758900  0.453800  1.0  -0.209
  N  N312  1  0.083200  0.970000  0.882800  1.0  -0.2432
  N  N313  1  0.438300  0.680700  0.317800  1.0  -0.1064
  N  N314  1  0.199900  0.962300  0.410300  1.0  -0.2682
  N  N315  1  0.588700  0.375300  0.186100  1.0  -0.2395
  N  N316  1  0.374500  0.705500  0.288000  1.0  -0.1711
  N  N317  1  0.419600  0.485700  0.121400  1.0  -0.3492
  N  N318  1  0.442300  0.430000  0.251500  1.0  -0.1488
  N  N319  1  0.800100  0.037700  0.589700  1.0  -0.2689
  N  N320  1  0.099100  0.127000  0.280800  1.0  -0.2332
  N  N321  1  0.408200  0.367700  0.243100  1.0  -0.198
  N  N322  1  0.710100  0.503800  0.434800  1.0  -0.2767
  N  N323  1  0.715800  0.734200  0.432600  1.0  -0.1165
  N  N324  1  0.440900  0.431400  0.737600  1.0  -0.1841
  N  N325  1  0.960300  0.653600  0.025900  1.0  -0.0905
  N  N326  1  0.411300  0.624700  0.813900  1.0  -0.2404
  N  N327  1  0.579100  0.519500  0.204000  1.0  -0.1453
  N  N328  1  0.473300  0.186700  0.099200  1.0  -0.2115
  N  N329  1  0.580600  0.511500  0.389900  1.0  -0.2911
  N  N330  1  0.921900  0.005400  0.840400  1.0  -0.1518
  N  N331  1  0.682500  0.748500  0.864700  1.0  -0.2352
  N  N332  1  0.457300  0.841800  0.884700  1.0  -0.0656
  N  N333  1  0.589100  0.377000  0.675800  1.0  -0.2272
  N  N334  1  0.212700  0.976200  0.934200  1.0  -0.2358
  N  N335  1  0.815000  0.236800  0.869300  1.0  -0.2416
  N  N336  1  0.846700  0.063500  0.118100  1.0  -0.0654
  N  N337  1  0.344600  0.455300  0.582200  1.0  -0.0461
  N  N338  1  0.082700  0.145700  0.836600  1.0  -0.2479
  N  N339  1  0.591800  0.632300  0.756900  1.0  -0.1999
  N  N340  1  0.838200  0.225400  0.348500  1.0  -0.1493
  N  N341  1  0.048700  0.952000  0.717700  1.0  -0.1808
  N  N342  1  0.097500  0.882900  0.123500  1.0  -0.169
  N  N343  1  0.596100  0.631000  0.273100  1.0  -0.175
  N  N344  1  0.851700  0.077800  0.647200  1.0  -0.0992
  N  N345  1  0.655400  0.544700  0.417800  1.0  -0.0467
  N  N346  1  0.295700  0.491800  0.065600  1.0  -0.2529
  N  N347  1  0.290400  0.782300  0.705100  1.0  -0.2237
  N  N348  1  0.372200  0.712300  0.785000  1.0  -0.1994
  N  N349  1  0.081800  0.956800  0.342000  1.0  -0.2804
  N  N350  1  0.923600  0.826300  0.658800  1.0  -0.1553
  N  N351  1  0.915500  0.101000  0.327800  1.0  -0.1562
  N  N352  1  0.935400  0.063000  0.828600  1.0  -0.2226
  N  N353  1  0.945600  0.806700  0.107200  1.0  -0.0937
  N  N354  1  0.776400  0.219200  0.802500  1.0  -0.1957
  N  N355  1  0.084500  0.899000  0.672200  1.0  -0.1547
  N  N356  1  0.449100  0.836200  0.388400  1.0  -0.1048
  N  N357  1  0.274100  0.280900  0.095200  1.0  -0.1682
  N  N358  1  0.420900  0.480500  0.796000  1.0  -0.1469
  N  N359  1  0.305400  0.770400  0.197500  1.0  -0.154
  N  N360  1  0.009300  0.695600  0.603000  1.0  -0.1681
  N  N361  1  0.704300  0.508200  0.934400  1.0  -0.2528
  N  N362  1  0.900900  0.873000  0.719200  1.0  -0.233
  N  N363  1  0.787300  0.023800  0.065800  1.0  -0.2378
  N  N364  1  0.526700  0.813300  0.900800  1.0  -0.21
  N  N365  1  0.680300  0.755300  0.383700  1.0  -0.1747
  N  N366  1  0.419400  0.488500  0.610100  1.0  -0.2945
  N  N367  1  0.114600  0.216900  0.948800  1.0  -0.21
  N  N368  1  0.063600  0.407700  0.971300  1.0  -0.2414
  N  N369  1  0.652400  0.549200  0.915300  1.0  -0.0543
  N  N370  1  0.054400  0.193300  0.892800  1.0  -0.0935
  N  N371  1  0.936400  0.592300  0.028700  1.0  -0.2409
  N  N372  1  0.790000  0.208800  0.286000  1.0  -0.1279
  N  N373  1  0.185000  0.763200  0.130700  1.0  -0.2415
  N  N374  1  0.060200  0.330700  0.443500  1.0  -0.0837
  N  N375  1  0.284200  0.265800  0.567400  1.0  -0.1166
  N  N376  1  0.542700  0.158200  0.115300  1.0  -0.0645
  N  N377  1  0.403900  0.369000  0.726900  1.0  -0.175
  N  N378  1  0.030700  0.680600  0.070200  1.0  -0.1687
  N  N379  1  0.317500  0.251500  0.135300  1.0  -0.236
  N  N380  1  0.558800  0.102900  0.059100  1.0  -0.173
  N  N381  1  0.933400  0.599600  0.535600  1.0  -0.1554
  N  N382  1  0.410900  0.623000  0.324200  1.0  -0.228
  N  N383  1  0.421500  0.480100  0.310400  1.0  -0.2036
  N  N384  1  0.550900  0.163800  0.611600  1.0  -0.1038
  N  N385  1  0.990700  0.304400  0.397000  1.0  -0.1685
  N  N386  1  0.951300  0.048000  0.282300  1.0  -0.1803
  N  N387  1  0.076400  0.173700  0.341200  1.0  -0.1535
  N  N388  1  0.153300  0.936500  0.881900  1.0  -0.0646
  N  N389  1  0.562500  0.315800  0.191000  1.0  -0.1557
  N  N390  1  0.078100  0.994600  0.159600  1.0  -0.1528
  N  N391  1  0.223600  0.780800  0.197500  1.0  -0.1963
  N  N392  1  0.580400  0.514300  0.878600  1.0  -0.3492
  N  N393  1  0.694600  0.229600  0.802500  1.0  -0.1523
  N  N394  1  0.939800  0.669300  0.556500  1.0  -0.0848
  N  N395  1  0.918200  0.043200  0.658000  1.0  -0.2801
  N  N396  1  0.347600  0.450800  0.084700  1.0  -0.0523
  N  N397  1  0.437500  0.684200  0.809000  1.0  -0.1553
  N  N398  1  0.161800  0.774600  0.651500  1.0  -0.1499
  N  N399  1  0.478800  0.186200  0.590500  1.0  -0.1806
  N  N400  1  0.856900  0.803800  0.607500  1.0  -0.177
  N  N401  1  0.039700  0.346400  0.974100  1.0  -0.0905
  N  N402  1  0.571300  0.107500  0.557900  1.0  -0.2692
  N  N403  1  0.808000  0.730800  0.907900  1.0  -0.1621
  N  N404  1  0.074400  0.012800  0.715700  1.0  -0.2137
  N  N405  1  0.192000  0.269200  0.092100  1.0  -0.1622
  N  N406  1  0.969300  0.319400  0.929800  1.0  -0.1706
  N  N407  1  0.925600  0.987200  0.284300  1.0  -0.2132
  N  N408  1  0.578500  0.519900  0.689600  1.0  -0.2034
  O  O409  1  0.346100  0.234300  0.800100  1.0  -0.6568
  O  O410  1  0.709500  0.089900  0.453600  1.0  -0.597
  O  O411  1  0.053100  0.835310  0.770600  1.0  -0.9426
  O  O412  1  0.996900  0.291300  0.645600  1.0  -0.6451
  O  O413  1  0.896600  0.612000  0.869200  1.0  -0.6253
  O  O414  1  0.604500  0.102200  0.222200  1.0  -0.5966
  O  O415  1  0.727500  0.163760  0.650130  1.0  -0.9224
  O  O416  1  0.290500  0.910100  0.546400  1.0  -0.5982
  O  O417  1  0.637500  0.015400  0.629100  1.0  -0.5777
  O  O418  1  0.521500  0.776600  0.746400  1.0  -0.7822
  O  O419  1  0.493900  0.789600  0.635200  1.0  -0.6649
  O  O420  1  0.137300  0.737100  0.425800  1.0  -0.6563
  O  O421  1  0.135900  0.488700  0.119000  1.0  -0.5996
  O  O422  1  0.468900  0.226400  0.744500  1.0  -0.7663
  O  O423  1  0.478500  0.223400  0.253600  1.0  -0.7828
  O  O424  1  0.436700  0.343740  0.099000  1.0  -0.9101
  O  O425  1  0.362500  0.992100  0.869700  1.0  -0.5905
  O  O426  1  0.506100  0.210400  0.364800  1.0  -0.6669
  O  O427  1  0.795600  0.576900  0.609500  1.0  -0.6006
  O  O428  1  0.653900  0.765700  0.199900  1.0  -0.6583
  O  O429  1  0.395500  0.897800  0.777800  1.0  -0.5977
  O  O430  1  0.216800  0.356920  0.009700  1.0  -0.934
  O  O431  1  0.683300  0.091700  0.952000  1.0  -0.5788
  O  O432  1  0.436900  0.344650  0.584500  1.0  -0.9324
  O  O433  1  0.521300  0.779300  0.140300  1.0  -0.667
  O  O434  1  0.103400  0.388000  0.130800  1.0  -0.6258
  O  O435  1  0.937500  0.178020  0.770300  1.0  -0.9269
  O  O436  1  0.718700  0.151420  0.139980  1.0  -0.905
  O  O437  1  0.337700  0.002000  0.529200  1.0  -0.5837
  O  O438  1  0.531100  0.773600  0.255500  1.0  -0.7655
  O  O439  1  0.356900  0.006100  0.038400  1.0  -0.5881
  O  O440  1  0.204400  0.423100  0.390500  1.0  -0.5999
  O  O441  1  0.563100  0.655350  0.415500  1.0  -0.9343
  O  O442  1  0.316700  0.908300  0.048000  1.0  -0.5782
  O  O443  1  0.946900  0.164690  0.229400  1.0  -0.9397
  O  O444  1  0.365400  0.232700  0.320500  1.0  -0.6581
  O  O445  1  0.800700  0.628880  0.454770  1.0  -0.8835
  O  O446  1  0.398500  0.890700  0.279600  1.0  -0.5983
  O  O447  1  0.062500  0.821980  0.229700  1.0  -0.9285
  O  O448  1  0.478700  0.220700  0.859700  1.0  -0.6667
  O  O449  1  0.643100  0.993900  0.961600  1.0  -0.5876
  O  O450  1  0.842100  0.482400  0.527600  1.0  -0.5892
  O  O451  1  0.003100  0.708700  0.354400  1.0  -0.6441
  O  O452  1  0.157900  0.517600  0.472400  1.0  -0.5888
  O  O453  1  0.362500  0.984600  0.370900  1.0  -0.5761
  O  O454  1  0.199300  0.371120  0.545230  1.0  -0.887
  O  O455  1  0.123500  0.725600  0.303600  1.0  -0.7454
  O  O456  1  0.864100  0.511300  0.881000  1.0  -0.5986
  O  O457  1  0.876500  0.274400  0.696400  1.0  -0.745
  O  O458  1  0.563300  0.656260  0.901000  1.0  -0.9139
  O  O459  1  0.272500  0.836240  0.349870  1.0  -0.9242
  O  O460  1  0.634600  0.767300  0.679500  1.0  -0.6586
  O  O461  1  0.662300  0.998000  0.470800  1.0  -0.5838
  O  O462  1  0.281300  0.848580  0.860020  1.0  -0.9067
  O  O463  1  0.783200  0.643080  0.990300  1.0  -0.9364
  O  O464  1  0.637500  0.007900  0.130300  1.0  -0.5921
  O  O465  1  0.862700  0.262900  0.574200  1.0  -0.6567
  O  O466  1  0.601500  0.109300  0.720400  1.0  -0.5988
