# generated using pymatgen
data_CdH10(C3O)6
_symmetry_space_group_name_H-M   'P 1'
_cell_length_a   11.43910000
_cell_length_b   15.44810000
_cell_length_c   19.11560000
_cell_angle_alpha   94.62500000
_cell_angle_beta   90.00000000
_cell_angle_gamma   90.00000000
_symmetry_Int_Tables_number   1
_chemical_formula_structural   CdH10(C3O)6
_chemical_formula_sum   'Cd6 H60 C108 O36'
_cell_volume   3366.96344677
_cell_formula_units_Z   6
loop_
 _symmetry_equiv_pos_site_id
 _symmetry_equiv_pos_as_xyz
  1  'x, y, z'
loop_
 _atom_site_type_symbol
 _atom_site_label
 _atom_site_symmetry_multiplicity
 _atom_site_fract_x
 _atom_site_fract_y
 _atom_site_fract_z
 _atom_site_occupancy
 _atom_site_charge
  Cd  Cd1  1  0.566370  0.543340  0.422900  1.0  1.1223
  Cd  Cd2  1  0.433630  0.543340  0.922900  1.0  1.1189
  Cd  Cd3  1  0.566370  0.456660  0.077100  1.0  1.122
  Cd  Cd4  1  0.531990  0.500000  0.750000  1.0  1.0811
  Cd  Cd5  1  0.468010  0.500000  0.250000  1.0  1.0795
  Cd  Cd6  1  0.433630  0.456660  0.577100  1.0  1.1185
  H  H7  1  0.001400  0.763700  0.305100  1.0  0.1178
  H  H8  1  0.314800  0.617900  0.692700  1.0  0.1056
  H  H9  1  0.268000  0.720100  0.480400  1.0  0.1058
  H  H10  1  0.681700  0.832800  0.755300  1.0  0.1306
  H  H11  1  0.190200  0.019600  0.588500  1.0  0.1294
  H  H12  1  0.150000  0.933000  0.367000  1.0  0.1341
  H  H13  1  0.738200  0.710700  0.108800  1.0  0.1151
  H  H14  1  0.150000  0.067000  0.133000  1.0  0.1326
  H  H15  1  0.579100  0.706500  0.723200  1.0  0.0929
  H  H16  1  0.119400  0.179000  0.999800  1.0  0.1106
  H  H17  1  0.991900  0.836600  0.670100  1.0  0.1343
  H  H18  1  0.844000  0.336000  0.714000  1.0  0.1011
  H  H19  1  0.008100  0.836600  0.170100  1.0  0.1338
  H  H20  1  0.195600  0.898200  0.761200  1.0  0.1224
  H  H21  1  0.314800  0.382100  0.807300  1.0  0.105
  H  H22  1  0.001400  0.236300  0.194900  1.0  0.1176
  H  H23  1  0.743000  0.806000  0.344000  1.0  0.1041
  H  H24  1  0.008100  0.163400  0.329900  1.0  0.1337
  H  H25  1  0.257000  0.194000  0.656000  1.0  0.1037
  H  H26  1  0.156000  0.664000  0.286000  1.0  0.102
  H  H27  1  0.743000  0.194000  0.156000  1.0  0.1038
  H  H28  1  0.311500  0.285200  0.475100  1.0  0.1087
  H  H29  1  0.681700  0.167200  0.744700  1.0  0.1311
  H  H30  1  0.261800  0.710700  0.608800  1.0  0.1152
  H  H31  1  0.688500  0.714800  0.524900  1.0  0.1086
  H  H32  1  0.791800  0.841300  0.556800  1.0  0.1257
  H  H33  1  0.311500  0.714800  0.024900  1.0  0.1084
  H  H34  1  0.208200  0.158700  0.443200  1.0  0.1254
  H  H35  1  0.318300  0.832800  0.255300  1.0  0.1302
  H  H36  1  0.420900  0.706500  0.223200  1.0  0.0931
  H  H37  1  0.579100  0.293500  0.776800  1.0  0.0931
  H  H38  1  0.738200  0.289300  0.391200  1.0  0.1154
  H  H39  1  0.998600  0.236300  0.694900  1.0  0.1179
  H  H40  1  0.318300  0.167200  0.244700  1.0  0.1309
  H  H41  1  0.685200  0.382100  0.307300  1.0  0.1046
  H  H42  1  0.850000  0.067000  0.633000  1.0  0.1323
  H  H43  1  0.119400  0.821000  0.500200  1.0  0.1107
  H  H44  1  0.732000  0.720100  0.980400  1.0  0.1056
  H  H45  1  0.190200  0.980400  0.911500  1.0  0.1295
  H  H46  1  0.791800  0.158700  0.943200  1.0  0.1252
  H  H47  1  0.685200  0.617900  0.192700  1.0  0.1054
  H  H48  1  0.880600  0.821000  0.000200  1.0  0.1111
  H  H49  1  0.804400  0.101800  0.238800  1.0  0.1226
  H  H50  1  0.804400  0.898200  0.261200  1.0  0.1221
  H  H51  1  0.420900  0.293500  0.276800  1.0  0.0932
  H  H52  1  0.998600  0.763700  0.805100  1.0  0.1179
  H  H53  1  0.732000  0.279900  0.519600  1.0  0.1054
  H  H54  1  0.880600  0.179000  0.499800  1.0  0.1111
  H  H55  1  0.991900  0.163400  0.829900  1.0  0.1335
  H  H56  1  0.809800  0.019600  0.088500  1.0  0.1286
  H  H57  1  0.688500  0.285200  0.975100  1.0  0.1087
  H  H58  1  0.156000  0.336000  0.214000  1.0  0.1013
  H  H59  1  0.261800  0.289300  0.891200  1.0  0.1154
  H  H60  1  0.268000  0.279900  0.019600  1.0  0.1055
  H  H61  1  0.208200  0.841300  0.056800  1.0  0.1257
  H  H62  1  0.809800  0.980400  0.411500  1.0  0.1286
  H  H63  1  0.195600  0.101800  0.738800  1.0  0.1232
  H  H64  1  0.850000  0.933000  0.867000  1.0  0.1339
  H  H65  1  0.257000  0.806000  0.844000  1.0  0.1032
  H  H66  1  0.844000  0.664000  0.786000  1.0  0.1017
  C  C67  1  0.085300  0.030500  0.132200  1.0  -0.1386
  C  C68  1  0.375500  0.697310  0.121080  1.0  -0.1345
  C  C69  1  0.665800  0.644620  0.329900  1.0  0.6847
  C  C70  1  0.055900  0.244600  0.160000  1.0  -0.213
  C  C71  1  0.094500  0.052000  0.345240  1.0  0.2745
  C  C72  1  0.254500  0.786500  0.797340  1.0  -0.0366
  C  C73  1  0.105500  0.079200  0.870240  1.0  0.2739
  C  C74  1  0.873800  0.210400  0.543100  1.0  -0.1864
  C  C75  1  0.854600  0.695800  0.828220  1.0  -0.0693
  C  C76  1  0.779100  0.842200  0.247530  1.0  -0.1771
  C  C77  1  0.905500  0.052000  0.845240  1.0  0.2745
  C  C78  1  0.559900  0.385660  0.898140  1.0  0.6879
  C  C79  1  0.745500  0.213500  0.202660  1.0  -0.0352
  C  C80  1  0.375500  0.302690  0.378920  1.0  -0.1357
  C  C81  1  0.440100  0.614340  0.101860  1.0  0.689
  C  C82  1  0.022000  0.943700  0.892380  1.0  0.2817
  C  C83  1  0.622100  0.266700  0.810250  1.0  -0.0212
  C  C84  1  0.978000  0.943700  0.392380  1.0  0.2819
  C  C85  1  0.000600  0.891800  0.154420  1.0  -0.2001
  C  C86  1  0.048600  0.802300  0.404200  1.0  0.2831
  C  C87  1  0.739800  0.270200  0.343810  1.0  -0.2079
  C  C88  1  0.894500  0.920800  0.129760  1.0  0.2722
  C  C89  1  0.944100  0.244600  0.660000  1.0  -0.2138
  C  C90  1  0.377900  0.733300  0.189750  1.0  -0.0218
  C  C91  1  0.334200  0.355380  0.670100  1.0  0.6847
  C  C92  1  0.253500  0.151900  0.340810  1.0  0.2924
  C  C93  1  0.774500  0.317760  0.619490  1.0  -0.1639
  C  C94  1  0.774200  0.186800  0.322970  1.0  0.2926
  C  C95  1  0.440100  0.385660  0.398140  1.0  0.6884
  C  C96  1  0.085300  0.969500  0.367800  1.0  -0.1382
  C  C97  1  0.944100  0.755400  0.840000  1.0  -0.2125
  C  C98  1  0.779100  0.157800  0.252470  1.0  -0.1774
  C  C99  1  0.785000  0.270800  0.555200  1.0  -0.0248
  C  C100  1  0.260200  0.729800  0.656190  1.0  -0.2066
  C  C101  1  0.325100  0.619690  0.366360  1.0  0.7367
  C  C102  1  0.745500  0.786500  0.297340  1.0  -0.0372
  C  C103  1  0.292400  0.674600  0.706500  1.0  -0.0292
  C  C104  1  0.674900  0.380310  0.633640  1.0  0.7373
  C  C105  1  0.145400  0.695800  0.328220  1.0  -0.0688
  C  C106  1  0.749300  0.813900  0.590110  1.0  -0.1663
  C  C107  1  0.774200  0.813200  0.177030  1.0  0.2843
  C  C108  1  0.624500  0.302690  0.878920  1.0  -0.1345
  C  C109  1  0.316700  0.191200  0.290900  1.0  -0.2166
  C  C110  1  0.377900  0.266700  0.310250  1.0  -0.0212
  C  C111  1  0.622100  0.733300  0.689750  1.0  -0.0219
  C  C112  1  0.118700  0.998100  0.894380  1.0  -0.247
  C  C113  1  0.785000  0.729200  0.944800  1.0  -0.0233
  C  C114  1  0.316700  0.808800  0.209100  1.0  -0.2143
  C  C115  1  0.739800  0.729800  0.156190  1.0  -0.2065
  C  C116  1  0.978000  0.056300  0.107620  1.0  0.2821
  C  C117  1  0.708400  0.297050  0.223030  1.0  -0.1398
  C  C118  1  0.746500  0.151900  0.840810  1.0  0.2822
  C  C119  1  0.225800  0.813200  0.677030  1.0  0.2842
  C  C120  1  0.225800  0.186800  0.822970  1.0  0.2832
  C  C121  1  0.253500  0.848100  0.159190  1.0  0.2934
  C  C122  1  0.250700  0.813900  0.090110  1.0  -0.1698
  C  C123  1  0.126200  0.789600  0.456900  1.0  -0.1838
  C  C124  1  0.022000  0.056300  0.607620  1.0  0.288
  C  C125  1  0.674900  0.619690  0.866360  1.0  0.7377
  C  C126  1  0.055900  0.755400  0.340000  1.0  -0.2132
  C  C127  1  0.687600  0.261800  0.928760  1.0  -0.0415
  C  C128  1  0.118700  0.001900  0.605620  1.0  -0.2467
  C  C129  1  0.854600  0.304200  0.671780  1.0  -0.0701
  C  C130  1  0.220900  0.842200  0.747530  1.0  -0.1785
  C  C131  1  0.291600  0.702950  0.776970  1.0  -0.1385
  C  C132  1  0.687600  0.738200  0.571240  1.0  -0.0431
  C  C133  1  0.254500  0.213500  0.702660  1.0  -0.0365
  C  C134  1  0.094500  0.948000  0.154760  1.0  0.2815
  C  C135  1  0.683300  0.191200  0.790900  1.0  -0.2167
  C  C136  1  0.105500  0.920800  0.629760  1.0  0.2733
  C  C137  1  0.260200  0.270200  0.843810  1.0  -0.2113
  C  C138  1  0.624500  0.697310  0.621080  1.0  -0.1339
  C  C139  1  0.999400  0.108200  0.845580  1.0  -0.2002
  C  C140  1  0.774500  0.682240  0.880510  1.0  -0.1658
  C  C141  1  0.292400  0.325400  0.793500  1.0  -0.0294
  C  C142  1  0.559900  0.614340  0.601860  1.0  0.6885
  C  C143  1  0.749300  0.186100  0.909890  1.0  -0.1687
  C  C144  1  0.325100  0.380310  0.133640  1.0  0.7365
  C  C145  1  0.894500  0.079200  0.370240  1.0  0.2726
  C  C146  1  0.220900  0.157800  0.752470  1.0  -0.1756
  C  C147  1  0.999400  0.891800  0.654420  1.0  -0.2003
  C  C148  1  0.225500  0.317760  0.119490  1.0  -0.1627
  C  C149  1  0.145400  0.304200  0.171780  1.0  -0.069
  C  C150  1  0.881300  0.001900  0.105620  1.0  -0.2448
  C  C151  1  0.312400  0.738200  0.071240  1.0  -0.0426
  C  C152  1  0.291600  0.297050  0.723030  1.0  -0.1386
  C  C153  1  0.873800  0.789600  0.956900  1.0  -0.1847
  C  C154  1  0.225500  0.682240  0.380510  1.0  -0.165
  C  C155  1  0.914700  0.030500  0.632200  1.0  -0.1379
  C  C156  1  0.881300  0.998100  0.394380  1.0  -0.2474
  C  C157  1  0.951400  0.197700  0.595800  1.0  0.282
  C  C158  1  0.914700  0.969500  0.867800  1.0  -0.1376
  C  C159  1  0.905500  0.948000  0.654760  1.0  0.2745
  C  C160  1  0.707600  0.325400  0.293500  1.0  -0.0299
  C  C161  1  0.707600  0.674600  0.206500  1.0  -0.0294
  C  C162  1  0.708400  0.702950  0.276970  1.0  -0.1391
  C  C163  1  0.683300  0.808800  0.709100  1.0  -0.2128
  C  C164  1  0.048600  0.197700  0.095800  1.0  0.2835
  C  C165  1  0.250700  0.186100  0.409890  1.0  -0.1701
  C  C166  1  0.334200  0.644620  0.829900  1.0  0.6841
  C  C167  1  0.746500  0.848100  0.659190  1.0  0.2833
  C  C168  1  0.215000  0.270800  0.055200  1.0  -0.0257
  C  C169  1  0.312400  0.261800  0.428760  1.0  -0.0415
  C  C170  1  0.951400  0.802300  0.904200  1.0  0.2816
  C  C171  1  0.215000  0.729200  0.444800  1.0  -0.0238
  C  C172  1  0.665800  0.355380  0.170100  1.0  0.6865
  C  C173  1  0.126200  0.210400  0.043100  1.0  -0.1859
  C  C174  1  0.000600  0.108200  0.345580  1.0  -0.1982
  O  O175  1  0.040600  0.862890  0.916460  1.0  -0.2542
  O  O176  1  0.386400  0.397010  0.081570  1.0  -0.649
  O  O177  1  0.325300  0.334320  0.605780  1.0  -0.5989
  O  O178  1  0.515400  0.425750  0.849780  1.0  -0.6614
  O  O179  1  0.451700  0.586270  0.039040  1.0  -0.7737
  O  O180  1  0.674700  0.334320  0.105780  1.0  -0.5985
  O  O181  1  0.959400  0.862890  0.416460  1.0  -0.2545
  O  O182  1  0.325300  0.665680  0.894220  1.0  -0.5993
  O  O183  1  0.380700  0.427560  0.691650  1.0  -0.6806
  O  O184  1  0.451700  0.413730  0.460960  1.0  -0.7749
  O  O185  1  0.515400  0.574250  0.650220  1.0  -0.6616
  O  O186  1  0.202600  0.133060  0.876010  1.0  -0.2718
  O  O187  1  0.798600  0.926050  0.682640  1.0  -0.2614
  O  O188  1  0.660600  0.410770  0.695620  1.0  -0.6352
  O  O189  1  0.339400  0.410770  0.195620  1.0  -0.6357
  O  O190  1  0.613600  0.602990  0.918430  1.0  -0.6465
  O  O191  1  0.548300  0.586270  0.539040  1.0  -0.7734
  O  O192  1  0.619300  0.572440  0.308350  1.0  -0.6796
  O  O193  1  0.660600  0.589230  0.804380  1.0  -0.6342
  O  O194  1  0.484600  0.574250  0.150220  1.0  -0.6608
  O  O195  1  0.548300  0.413730  0.960960  1.0  -0.7745
  O  O196  1  0.201400  0.073950  0.317360  1.0  -0.2614
  O  O197  1  0.797400  0.866940  0.123990  1.0  -0.2745
  O  O198  1  0.201400  0.926050  0.182640  1.0  -0.2612
  O  O199  1  0.798600  0.073950  0.817360  1.0  -0.2631
  O  O200  1  0.339400  0.589230  0.304380  1.0  -0.6347
  O  O201  1  0.040600  0.137110  0.583540  1.0  -0.2535
  O  O202  1  0.386400  0.602990  0.418430  1.0  -0.6476
  O  O203  1  0.380700  0.572440  0.808350  1.0  -0.6763
  O  O204  1  0.202600  0.866940  0.623990  1.0  -0.2713
  O  O205  1  0.619300  0.427560  0.191650  1.0  -0.6783
  O  O206  1  0.674700  0.665680  0.394220  1.0  -0.5982
  O  O207  1  0.613600  0.397010  0.581570  1.0  -0.6479
  O  O208  1  0.959400  0.137110  0.083540  1.0  -0.2529
  O  O209  1  0.484600  0.425750  0.349780  1.0  -0.6609
  O  O210  1  0.797400  0.133060  0.376010  1.0  -0.2737
