# generated using pymatgen
data_LaH18C30(NO3)3
_symmetry_space_group_name_H-M   'P 1'
_cell_length_a   16.26800000
_cell_length_b   18.58200000
_cell_length_c   34.58900000
_cell_angle_alpha   90.00000000
_cell_angle_beta   90.00000000
_cell_angle_gamma   103.81000000
_symmetry_Int_Tables_number   1
_chemical_formula_structural   LaH18C30(NO3)3
_chemical_formula_sum   'La8 H144 C240 N24 O72'
_cell_volume   10153.72239066
_cell_formula_units_Z   8
loop_
 _symmetry_equiv_pos_site_id
 _symmetry_equiv_pos_as_xyz
  1  'x, y, z'
loop_
 _atom_site_type_symbol
 _atom_site_label
 _atom_site_symmetry_multiplicity
 _atom_site_fract_x
 _atom_site_fract_y
 _atom_site_fract_z
 _atom_site_occupancy
 _atom_site_charge
  La  La1  1  0.792970  0.295000  0.761860  1.0  2.1623
  La  La2  1  0.956420  0.679390  0.248270  1.0  2.1625
  La  La3  1  0.707030  0.705000  0.261860  1.0  2.1622
  La  La4  1  0.207030  0.705000  0.238140  1.0  2.1632
  La  La5  1  0.043580  0.320610  0.751730  1.0  2.1632
  La  La6  1  0.292970  0.295000  0.738140  1.0  2.1633
  La  La7  1  0.543580  0.320610  0.748270  1.0  2.1618
  La  La8  1  0.456420  0.679390  0.251730  1.0  2.1633
  H  H9  1  0.233200  0.667500  0.932700  1.0  0.117
  H  H10  1  0.044900  0.820200  0.332000  1.0  0.0951
  H  H11  1  0.787500  0.587400  0.704300  1.0  0.1246
  H  H12  1  0.043100  0.243200  0.892900  1.0  0.1049
  H  H13  1  0.955200  0.221800  0.342300  1.0  0.1123
  H  H14  1  0.545200  0.322200  0.868100  1.0  0.1135
  H  H15  1  0.681100  0.863900  0.546100  1.0  0.115
  H  H16  1  0.003000  0.783900  0.045500  1.0  0.1248
  H  H17  1  0.723300  0.173300  0.676600  1.0  0.1123
  H  H18  1  0.746700  0.514200  0.361400  1.0  0.1064
  H  H19  1  0.161700  0.524400  0.742800  1.0  0.1036
  H  H20  1  0.844100  0.500900  0.734800  1.0  0.0953
  H  H21  1  0.138700  0.063400  0.291700  1.0  0.1121
  H  H22  1  0.046300  0.939800  0.808100  1.0  0.1225
  H  H23  1  0.748900  0.072200  0.642900  1.0  0.1083
  H  H24  1  0.174000  0.968600  0.255500  1.0  0.1246
  H  H25  1  0.212500  0.412600  0.295700  1.0  0.1244
  H  H26  1  0.071800  0.427500  0.389200  1.0  0.105
  H  H27  1  0.205300  0.700600  0.067200  1.0  0.1215
  H  H28  1  0.537600  0.713200  0.953100  1.0  0.1063
  H  H29  1  0.300600  0.420100  0.111900  1.0  0.1166
  H  H30  1  0.956900  0.756800  0.107100  1.0  0.1045
  H  H31  1  0.674000  0.968600  0.244500  1.0  0.1241
  H  H32  1  0.838300  0.475600  0.257200  1.0  0.1032
  H  H33  1  0.958300  0.957500  0.618200  1.0  0.208
  H  H34  1  0.955100  0.179800  0.668000  1.0  0.095
  H  H35  1  0.456900  0.756800  0.392900  1.0  0.1045
  H  H36  1  0.335700  0.314800  0.631500  1.0  0.0999
  H  H37  1  0.246100  0.815900  0.846500  1.0  0.1168
  H  H38  1  0.455100  0.179800  0.832000  1.0  0.0948
  H  H39  1  0.360600  0.109300  0.343900  1.0  0.1863
  H  H40  1  0.037600  0.713200  0.546900  1.0  0.1059
  H  H41  1  0.642100  0.163700  0.950800  1.0  0.123
  H  H42  1  0.776700  0.826700  0.176600  1.0  0.1126
  H  H43  1  0.954800  0.677800  0.368100  1.0  0.1134
  H  H44  1  0.294700  0.299400  0.567200  1.0  0.1218
  H  H45  1  0.102800  0.697700  0.666000  1.0  0.2471
  H  H46  1  0.246700  0.514200  0.138600  1.0  0.1061
  H  H47  1  0.541700  0.042500  0.118200  1.0  0.2075
  H  H48  1  0.001300  0.261300  0.507200  1.0  0.2335
  H  H49  1  0.544900  0.820200  0.168000  1.0  0.0951
  H  H50  1  0.142100  0.163700  0.549200  1.0  0.1235
  H  H51  1  0.705300  0.700600  0.432800  1.0  0.1215
  H  H52  1  0.287500  0.587400  0.795700  1.0  0.1246
  H  H53  1  0.516600  0.915100  0.130900  1.0  0.1158
  H  H54  1  0.751100  0.927800  0.142900  1.0  0.1088
  H  H55  1  0.462400  0.286800  0.046900  1.0  0.1063
  H  H56  1  0.753900  0.184100  0.153500  1.0  0.117
  H  H57  1  0.699400  0.579900  0.888100  1.0  0.1163
  H  H58  1  0.483400  0.084900  0.869100  1.0  0.1155
  H  H59  1  0.998800  0.308900  0.568500  1.0  0.1148
  H  H60  1  0.501300  0.261300  0.992800  1.0  0.2328
  H  H61  1  0.655900  0.499100  0.234800  1.0  0.0954
  H  H62  1  0.614600  0.803000  0.500500  1.0  0.1787
  H  H63  1  0.544800  0.778200  0.842300  1.0  0.1139
  H  H64  1  0.181100  0.863900  0.953900  1.0  0.1132
  H  H65  1  0.794700  0.299400  0.932800  1.0  0.1215
  H  H66  1  0.012900  0.512100  0.358300  1.0  0.115
  H  H67  1  0.114600  0.803000  0.999500  1.0  0.1777
  H  H68  1  0.857900  0.836300  0.450800  1.0  0.123
  H  H69  1  0.766800  0.332500  0.067300  1.0  0.1166
  H  H70  1  0.248900  0.072200  0.857100  1.0  0.1088
  H  H71  1  0.826000  0.031400  0.744500  1.0  0.1246
  H  H72  1  0.001200  0.691100  0.431500  1.0  0.1147
  H  H73  1  0.987100  0.487900  0.641700  1.0  0.114
  H  H74  1  0.546300  0.939800  0.691900  1.0  0.1223
  H  H75  1  0.990400  0.957000  0.219000  1.0  0.1003
  H  H76  1  0.453700  0.060200  0.308100  1.0  0.123
  H  H77  1  0.361300  0.936600  0.791700  1.0  0.1121
  H  H78  1  0.498800  0.308900  0.931500  1.0  0.115
  H  H79  1  0.155900  0.499100  0.265200  1.0  0.0956
  H  H80  1  0.746100  0.815900  0.653500  1.0  0.1177
  H  H81  1  0.044800  0.778200  0.657700  1.0  0.1139
  H  H82  1  0.041700  0.042500  0.381800  1.0  0.2083
  H  H83  1  0.860600  0.109300  0.156100  1.0  0.1865
  H  H84  1  0.497000  0.216100  0.545500  1.0  0.125
  H  H85  1  0.045200  0.322200  0.631900  1.0  0.1134
  H  H86  1  0.016600  0.915100  0.369100  1.0  0.1157
  H  H87  1  0.962400  0.286800  0.453100  1.0  0.1067
  H  H88  1  0.139400  0.890700  0.843900  1.0  0.1853
  H  H89  1  0.344100  0.500900  0.765200  1.0  0.0958
  H  H90  1  0.458300  0.957500  0.881800  1.0  0.2076
  H  H91  1  0.487100  0.487900  0.858300  1.0  0.1146
  H  H92  1  0.639400  0.890700  0.656100  1.0  0.1862
  H  H93  1  0.664300  0.685200  0.368500  1.0  0.0994
  H  H94  1  0.338300  0.475600  0.242800  1.0  0.1039
  H  H95  1  0.357900  0.836300  0.049200  1.0  0.1234
  H  H96  1  0.897200  0.302300  0.334000  1.0  0.2474
  H  H97  1  0.276700  0.826700  0.323400  1.0  0.1128
  H  H98  1  0.602800  0.697700  0.834000  1.0  0.2479
  H  H99  1  0.818900  0.136100  0.046100  1.0  0.1122
  H  H100  1  0.490400  0.957000  0.281000  1.0  0.1005
  H  H101  1  0.182600  0.174100  0.613300  1.0  0.1006
  H  H102  1  0.800600  0.420100  0.388100  1.0  0.1168
  H  H103  1  0.266800  0.332500  0.432700  1.0  0.1161
  H  H104  1  0.253300  0.485800  0.638600  1.0  0.1063
  H  H105  1  0.455200  0.221800  0.157700  1.0  0.115
  H  H106  1  0.509600  0.043000  0.719000  1.0  0.1002
  H  H107  1  0.397200  0.302300  0.166000  1.0  0.2495
  H  H108  1  0.385400  0.197000  0.499500  1.0  0.1808
  H  H109  1  0.498700  0.738700  0.007200  1.0  0.2353
  H  H110  1  0.817400  0.825900  0.386700  1.0  0.1011
  H  H111  1  0.501200  0.691100  0.068500  1.0  0.1144
  H  H112  1  0.318900  0.136100  0.453900  1.0  0.1138
  H  H113  1  0.681400  0.366600  0.104000  1.0  0.2337
  H  H114  1  0.712500  0.412600  0.204300  1.0  0.1246
  H  H115  1  0.835700  0.314800  0.868500  1.0  0.1002
  H  H116  1  0.638700  0.063400  0.208300  1.0  0.1123
  H  H117  1  0.454800  0.677800  0.131900  1.0  0.113
  H  H118  1  0.887400  0.379400  0.282600  1.0  0.1318
  H  H119  1  0.983400  0.084900  0.630900  1.0  0.1159
  H  H120  1  0.512900  0.512100  0.141700  1.0  0.1151
  H  H121  1  0.885400  0.197000  0.000500  1.0  0.1784
  H  H122  1  0.317400  0.825900  0.113300  1.0  0.101
  H  H123  1  0.753300  0.485800  0.861400  1.0  0.1058
  H  H124  1  0.164300  0.685200  0.131500  1.0  0.0996
  H  H125  1  0.997000  0.216100  0.954500  1.0  0.1249
  H  H126  1  0.914100  0.867200  0.579200  1.0  0.1086
  H  H127  1  0.253900  0.184100  0.346500  1.0  0.1178
  H  H128  1  0.818600  0.633400  0.604000  1.0  0.2338
  H  H129  1  0.414100  0.867200  0.920800  1.0  0.1079
  H  H130  1  0.661700  0.524400  0.757200  1.0  0.1032
  H  H131  1  0.953700  0.060200  0.191900  1.0  0.1222
  H  H132  1  0.571800  0.427500  0.110800  1.0  0.1045
  H  H133  1  0.543100  0.243200  0.607100  1.0  0.1046
  H  H134  1  0.682600  0.174100  0.886700  1.0  0.1007
  H  H135  1  0.503000  0.783900  0.454500  1.0  0.1247
  H  H136  1  0.112600  0.620600  0.717400  1.0  0.1318
  H  H137  1  0.223300  0.173300  0.823400  1.0  0.1123
  H  H138  1  0.733200  0.667500  0.567300  1.0  0.1158
  H  H139  1  0.861300  0.936600  0.708300  1.0  0.1121
  H  H140  1  0.612600  0.620600  0.782600  1.0  0.1319
  H  H141  1  0.998700  0.738700  0.492800  1.0  0.235
  H  H142  1  0.085900  0.132800  0.420800  1.0  0.1086
  H  H143  1  0.387400  0.379400  0.217400  1.0  0.1324
  H  H144  1  0.251100  0.927800  0.357100  1.0  0.1089
  H  H145  1  0.199400  0.579900  0.611900  1.0  0.1174
  H  H146  1  0.585900  0.132800  0.079200  1.0  0.1079
  H  H147  1  0.928200  0.572500  0.610800  1.0  0.1049
  H  H148  1  0.009600  0.043000  0.781000  1.0  0.1003
  H  H149  1  0.318600  0.633400  0.896000  1.0  0.2337
  H  H150  1  0.428200  0.572500  0.889200  1.0  0.1047
  H  H151  1  0.181400  0.366600  0.396000  1.0  0.2337
  H  H152  1  0.326000  0.031400  0.755500  1.0  0.1244
  C  C153  1  0.021500  0.742600  0.566270  1.0  -0.092
  C  C154  1  0.600200  0.681900  0.889300  1.0  0.4437
  C  C155  1  0.045700  0.574100  0.288640  1.0  0.7283
  C  C156  1  0.028300  0.708400  0.166950  1.0  0.7239
  C  C157  1  0.970700  0.790300  0.555960  1.0  -0.1144
  C  C158  1  0.354600  0.744500  0.170580  1.0  0.7358
  C  C159  1  0.537800  0.282400  0.922900  1.0  -0.1439
  C  C160  1  0.618500  0.247900  0.870960  1.0  -0.126
  C  C161  1  0.831000  0.464600  0.283680  1.0  -0.0454
  C  C162  1  0.439700  0.951200  0.295000  1.0  -0.0548
  C  C163  1  0.847900  0.390700  0.338800  1.0  0.1798
  C  C164  1  0.290500  0.507400  0.193080  1.0  -0.1385
  C  C165  1  0.565100  0.869500  0.176050  1.0  -0.0309
  C  C166  1  0.705300  0.928400  0.613400  1.0  0.6178
  C  C167  1  0.403400  0.816000  0.276920  1.0  0.7148
  C  C168  1  0.545700  0.574100  0.211360  1.0  0.7278
  C  C169  1  0.733800  0.425700  0.791130  1.0  0.678
  C  C170  1  0.478500  0.257400  0.066270  1.0  -0.0929
  C  C171  1  0.647800  0.997200  0.662600  1.0  0.264
  C  C172  1  0.272200  0.286000  0.423900  1.0  -0.0649
  C  C173  1  0.935900  0.710600  0.384730  1.0  -0.1006
  C  C174  1  0.453000  0.073900  0.845900  1.0  -0.1785
  C  C175  1  0.551600  0.165300  0.085310  1.0  -0.1438
  C  C176  1  0.752600  0.264600  0.114700  1.0  -0.0324
  C  C177  1  0.432600  0.762500  0.051330  1.0  0.2165
  C  C178  1  0.720600  0.310700  0.144100  1.0  0.5511
  C  C179  1  0.641200  0.957500  0.221910  1.0  -0.1103
  C  C180  1  0.560300  0.048800  0.705000  1.0  -0.0515
  C  C181  1  0.799700  0.238300  0.051100  1.0  -0.0064
  C  C182  1  0.067400  0.237500  0.551330  1.0  0.2172
  C  C183  1  0.899800  0.318100  0.389300  1.0  0.4441
  C  C184  1  0.379600  0.986000  0.800000  1.0  -0.1059
  C  C185  1  0.360000  0.407400  0.201470  1.0  -0.2189
  C  C186  1  0.473500  0.218700  0.132140  1.0  -0.0084
  C  C187  1  0.314400  0.873400  0.321000  1.0  -0.0472
  C  C188  1  0.747400  0.735400  0.614700  1.0  -0.0324
  C  C189  1  0.195400  0.830200  0.936300  1.0  -0.1049
  C  C190  1  0.567400  0.202800  0.017300  1.0  0.5969
  C  C191  1  0.596600  0.184000  0.723080  1.0  0.7149
  C  C192  1  0.948400  0.834700  0.585310  1.0  -0.1431
  C  C193  1  0.056500  0.721100  0.126490  1.0  -0.1141
  C  C194  1  0.681300  0.733400  0.510700  1.0  0.5068
  C  C195  1  0.535300  0.762100  0.437600  1.0  -0.1231
  C  C196  1  0.115500  0.118500  0.797700  1.0  -0.1021
  C  C197  1  0.365400  0.174900  0.767990  1.0  0.6779
  C  C198  1  0.630800  0.704000  0.386200  1.0  -0.0093
  C  C199  1  0.860000  0.407400  0.298530  1.0  -0.213
  C  C200  1  0.804600  0.169800  0.063700  1.0  -0.106
  C  C201  1  0.211300  0.850500  0.898200  1.0  -0.0178
  C  C202  1  0.049000  0.736700  0.603370  1.0  -0.128
  C  C203  1  0.621900  0.195900  0.934400  1.0  -0.1757
  C  C204  1  0.326800  0.566300  0.808700  1.0  -0.1865
  C  C205  1  0.669000  0.535400  0.783680  1.0  -0.0459
  C  C206  1  0.545000  0.120800  0.154700  1.0  0.5768
  C  C207  1  0.918800  0.482700  0.691940  1.0  -0.1102
  C  C208  1  0.266200  0.574300  0.208870  1.0  0.6782
  C  C209  1  0.343800  0.285900  0.575700  1.0  -0.1435
  C  C210  1  0.470700  0.790300  0.944040  1.0  -0.1158
  C  C211  1  0.350900  0.587400  0.846700  1.0  0.1762
  C  C212  1  0.509100  0.747900  0.400400  1.0  -0.0174
  C  C213  1  0.910500  0.557500  0.636100  1.0  -0.118
  C  C214  1  0.854100  0.797700  0.395890  1.0  -0.0319
  C  C215  1  0.455000  0.879200  0.845300  1.0  0.5796
  C  C216  1  0.298800  0.934200  0.341000  1.0  -0.132
  C  C217  1  0.381500  0.752100  0.129040  1.0  -0.1268
  C  C218  1  0.145400  0.255500  0.670580  1.0  0.7367
  C  C219  1  0.009100  0.747900  0.099600  1.0  -0.0183
  C  C220  1  0.145900  0.202300  0.604110  1.0  -0.0303
  C  C221  1  0.521500  0.742600  0.933730  1.0  -0.0907
  C  C222  1  0.037800  0.282400  0.577100  1.0  -0.1423
  C  C223  1  0.640000  0.592600  0.798530  1.0  -0.2196
  C  C224  1  0.223100  0.511800  0.654300  1.0  -0.0345
  C  C225  1  0.951000  0.263300  0.396630  1.0  -0.1272
  C  C226  1  0.943500  0.278900  0.873510  1.0  -0.1146
  C  C227  1  0.432600  0.797200  0.982700  1.0  0.5962
  C  C228  1  0.060300  0.048800  0.795000  1.0  -0.0539
  C  C229  1  0.709500  0.492600  0.806920  1.0  -0.1394
  C  C230  1  0.843800  0.285900  0.924300  1.0  -0.1441
  C  C231  1  0.288700  0.149500  0.398200  1.0  -0.017
  C  C232  1  0.692300  0.569100  0.861600  1.0  -0.16
  C  C233  1  0.589500  0.442500  0.136100  1.0  -0.1204
  C  C234  1  0.955000  0.879200  0.654700  1.0  0.5776
  C  C235  1  0.788700  0.149500  0.101800  1.0  -0.0173
  C  C236  1  0.418800  0.482700  0.808060  1.0  -0.1102
  C  C237  1  0.858800  0.042500  0.721910  1.0  -0.111
  C  C238  1  0.410500  0.557500  0.863900  1.0  -0.1185
  C  C239  1  0.798800  0.934200  0.159000  1.0  -0.1298
  C  C240  1  0.776900  0.488200  0.345700  1.0  -0.0333
  C  C241  1  0.471700  0.291600  0.666950  1.0  0.7251
  C  C242  1  0.263500  0.197500  0.372600  1.0  -0.0947
  C  C243  1  0.089500  0.442500  0.363900  1.0  -0.1205
  C  C244  1  0.652100  0.609300  0.838800  1.0  0.1801
  C  C245  1  0.865400  0.174900  0.732010  1.0  0.6787
  C  C246  1  0.524100  0.168600  0.122660  1.0  -0.0006
  C  C247  1  0.393400  0.254600  0.549500  1.0  0.2005
  C  C248  1  0.567400  0.237500  0.948670  1.0  0.2175
  C  C249  1  0.354100  0.797700  0.104110  1.0  -0.0287
  C  C250  1  0.727800  0.714000  0.576100  1.0  -0.0637
  C  C251  1  0.766200  0.574300  0.291130  1.0  0.6786
  C  C252  1  0.141200  0.957500  0.278090  1.0  -0.1126
  C  C253  1  0.247400  0.735400  0.885300  1.0  -0.0326
  C  C254  1  0.067400  0.202800  0.482700  1.0  0.5967
  C  C255  1  0.779400  0.689300  0.644100  1.0  0.552
  C  C256  1  0.192300  0.569100  0.638400  1.0  -0.161
  C  C257  1  0.723100  0.511800  0.845700  1.0  -0.0336
  C  C258  1  0.318700  0.266600  0.489300  1.0  0.5035
  C  C259  1  0.209500  0.492600  0.693080  1.0  -0.1398
  C  C260  1  0.454300  0.425900  0.788640  1.0  0.7281
  C  C261  1  0.276900  0.488200  0.154300  1.0  -0.0332
  C  C262  1  0.294700  0.071600  0.386600  1.0  0.6187
  C  C263  1  0.233800  0.425700  0.708870  1.0  0.6784
  C  C264  1  0.878100  0.804100  0.434400  1.0  -0.1757
  C  C265  1  0.384500  0.881500  0.297700  1.0  -0.1025
  C  C266  1  0.826800  0.566300  0.691300  1.0  -0.1869
  C  C267  1  0.152100  0.609300  0.661200  1.0  0.18
  C  C268  1  0.181300  0.733400  0.989300  1.0  0.5092
  C  C269  1  0.549000  0.736700  0.896630  1.0  -0.1273
  C  C270  1  0.881500  0.752100  0.370960  1.0  -0.1259
  C  C271  1  0.794700  0.071600  0.113400  1.0  0.6198
  C  C272  1  0.869200  0.296000  0.886200  1.0  -0.0047
  C  C273  1  0.236500  0.802500  0.872600  1.0  -0.0935
  C  C274  1  0.807700  0.430900  0.361600  1.0  -0.1626
  C  C275  1  0.581200  0.517300  0.191940  1.0  -0.1075
  C  C276  1  0.130800  0.704000  0.113800  1.0  -0.0054
  C  C277  1  0.445400  0.506800  0.845770  1.0  -0.1162
  C  C278  1  0.081200  0.517300  0.308060  1.0  -0.1075
  C  C279  1  0.331000  0.464600  0.216320  1.0  -0.0468
  C  C280  1  0.606600  0.745400  0.450500  1.0  0.1993
  C  C281  1  0.220600  0.310700  0.355900  1.0  0.55
  C  C282  1  0.953000  0.073900  0.654100  1.0  -0.1773
  C  C283  1  0.962200  0.717600  0.422900  1.0  -0.1429
  C  C284  1  0.369200  0.296000  0.613800  1.0  -0.004
  C  C285  1  0.579800  0.987700  0.687100  1.0  -0.1764
  C  C286  1  0.926500  0.001300  0.666320  1.0  0.2169
  C  C287  1  0.173200  0.433700  0.308700  1.0  -0.1873
  C  C288  1  0.888000  0.115900  0.709460  1.0  -0.1258
  C  C289  1  0.634600  0.825100  0.232010  1.0  0.6782
  C  C290  1  0.879600  0.986000  0.700000  1.0  -0.1061
  C  C291  1  0.100200  0.681900  0.610700  1.0  0.4422
  C  C292  1  0.639000  0.485200  0.209400  1.0  -0.0335
  C  C293  1  0.205300  0.928400  0.886600  1.0  0.6183
  C  C294  1  0.434900  0.130500  0.823950  1.0  -0.0292
  C  C295  1  0.147800  0.997200  0.837400  1.0  0.264
  C  C296  1  0.443500  0.278900  0.626490  1.0  -0.1159
  C  C297  1  0.673200  0.433700  0.191300  1.0  -0.1871
  C  C298  1  0.564100  0.289400  0.884730  1.0  -0.1009
  C  C299  1  0.526500  0.781300  0.867860  1.0  -0.0126
  C  C300  1  0.656200  0.714100  0.424300  1.0  -0.145
  C  C301  1  0.420200  0.012300  0.312900  1.0  -0.1752
  C  C302  1  0.945400  0.506800  0.654230  1.0  -0.1165
  C  C303  1  0.612000  0.884100  0.209460  1.0  -0.1256
  C  C304  1  0.378100  0.804100  0.065600  1.0  -0.1754
  C  C305  1  0.064100  0.289400  0.615270  1.0  -0.1011
  C  C306  1  0.047000  0.926100  0.345900  1.0  -0.1791
  C  C307  1  0.352200  0.002800  0.337400  1.0  0.2638
  C  C308  1  0.096600  0.184000  0.776920  1.0  0.7179
  C  C309  1  0.934900  0.130500  0.676050  1.0  -0.034
  C  C310  1  0.149100  0.412600  0.346700  1.0  0.1764
  C  C311  1  0.347900  0.390700  0.161200  1.0  0.1799
  C  C312  1  0.029300  0.209700  0.444040  1.0  -0.114
  C  C313  1  0.920200  0.012300  0.187100  1.0  -0.1758
  C  C314  1  0.399800  0.318100  0.110700  1.0  0.4426
  C  C315  1  0.490900  0.252100  0.599600  1.0  -0.0146
  C  C316  1  0.134600  0.825100  0.267990  1.0  0.6776
  C  C317  1  0.426500  0.001300  0.833680  1.0  0.2171
  C  C318  1  0.620400  0.014000  0.200000  1.0  -0.1071
  C  C319  1  0.893400  0.254600  0.950500  1.0  0.2002
  C  C320  1  0.279400  0.689300  0.855900  1.0  0.5523
  C  C321  1  0.884500  0.881500  0.202300  1.0  -0.1023
  C  C322  1  0.024100  0.168600  0.377340  1.0  -0.0019
  C  C323  1  0.156200  0.714100  0.075700  1.0  -0.1446
  C  C324  1  0.547000  0.926100  0.154100  1.0  -0.1778
  C  C325  1  0.772200  0.286000  0.076100  1.0  -0.0649
  C  C326  1  0.528300  0.708400  0.333050  1.0  0.7242
  C  C327  1  0.118500  0.247900  0.629040  1.0  -0.1271
  C  C328  1  0.932600  0.797200  0.517300  1.0  0.5959
  C  C329  1  0.615500  0.118500  0.702300  1.0  -0.1015
  C  C330  1  0.685600  0.126600  0.679000  1.0  -0.049
  C  C331  1  0.556500  0.721100  0.373510  1.0  -0.1141
  C  C332  1  0.475900  0.831400  0.877340  1.0  -0.0005
  C  C333  1  0.026500  0.781300  0.632140  1.0  -0.008
  C  C334  1  0.464700  0.237900  0.562400  1.0  -0.1225
  C  C335  1  0.954300  0.425900  0.711360  1.0  0.7279
  C  C336  1  0.299700  0.238300  0.448900  1.0  -0.007
  C  C337  1  0.736500  0.802500  0.627400  1.0  -0.0956
  C  C338  1  0.121900  0.195900  0.565600  1.0  -0.1753
  C  C339  1  0.435900  0.710600  0.115270  1.0  -0.1007
  C  C340  1  0.695400  0.830200  0.563700  1.0  -0.1043
  C  C341  1  0.529300  0.209700  0.055960  1.0  -0.1153
  C  C342  1  0.790500  0.507400  0.306920  1.0  -0.1384
  C  C343  1  0.462200  0.717600  0.077100  1.0  -0.1428
  C  C344  1  0.304600  0.169800  0.436300  1.0  -0.1051
  C  C345  1  0.711300  0.850500  0.601800  1.0  -0.0173
  C  C346  1  0.045000  0.120800  0.345300  1.0  0.5801
  C  C347  1  0.814400  0.873400  0.179000  1.0  -0.0478
  C  C348  1  0.701200  0.065800  0.659000  1.0  -0.1301
  C  C349  1  0.065100  0.869500  0.323950  1.0  -0.0354
  C  C350  1  0.106600  0.745400  0.049500  1.0  0.1992
  C  C351  1  0.850900  0.587400  0.653300  1.0  0.1765
  C  C352  1  0.852200  0.002800  0.162600  1.0  0.2642
  C  C353  1  0.361000  0.514800  0.790600  1.0  -0.031
  C  C354  1  0.307700  0.430900  0.138400  1.0  -0.1601
  C  C355  1  0.185600  0.126600  0.821000  1.0  -0.0491
  C  C356  1  0.169000  0.535400  0.716320  1.0  -0.0451
  C  C357  1  0.073500  0.998700  0.333680  1.0  0.219
  C  C358  1  0.358800  0.042500  0.778090  1.0  -0.1129
  C  C359  1  0.227800  0.714000  0.923900  1.0  -0.0644
  C  C360  1  0.978500  0.257400  0.433730  1.0  -0.0908
  C  C361  1  0.112000  0.884100  0.290540  1.0  -0.1276
  C  C362  1  0.448400  0.834700  0.914690  1.0  -0.1439
  C  C363  1  0.903400  0.816000  0.223080  1.0  0.718
  C  C364  1  0.051600  0.165300  0.414690  1.0  -0.1451
  C  C365  1  0.861000  0.514800  0.709400  1.0  -0.0311
  C  C366  1  0.140000  0.592600  0.701470  1.0  -0.2182
  C  C367  1  0.939700  0.951200  0.205000  1.0  -0.0525
  C  C368  1  0.200300  0.761700  0.948900  1.0  -0.0072
  C  C369  1  0.388000  0.115900  0.790540  1.0  -0.1269
  C  C370  1  0.645900  0.202300  0.895890  1.0  -0.0312
  C  C371  1  0.700300  0.761700  0.551100  1.0  -0.0071
  C  C372  1  0.573500  0.998700  0.166320  1.0  0.2188
  C  C373  1  0.990900  0.252100  0.900400  1.0  -0.0216
  C  C374  1  0.201200  0.065800  0.841000  1.0  -0.1331
  C  C375  1  0.932600  0.762500  0.448670  1.0  0.2163
  C  C376  1  0.645400  0.255500  0.829420  1.0  0.7393
  C  C377  1  0.120400  0.014000  0.300000  1.0  -0.1074
  C  C378  1  0.763500  0.197500  0.127400  1.0  -0.0958
  C  C379  1  0.139000  0.485200  0.290600  1.0  -0.0335
  C  C380  1  0.973500  0.218700  0.367860  1.0  -0.0115
  C  C381  1  0.252600  0.264600  0.385300  1.0  -0.0314
  C  C382  1  0.054600  0.493200  0.345770  1.0  -0.1167
  C  C383  1  0.971700  0.291600  0.833050  1.0  0.7258
  C  C384  1  0.451000  0.263300  0.103370  1.0  -0.1282
  C  C385  1  0.818700  0.266600  0.010700  1.0  0.5052
  C  C386  1  0.975900  0.831400  0.622660  1.0  -1e-04
  C  C387  1  0.964700  0.237900  0.937600  1.0  -0.1206
  C  C388  1  0.035300  0.762100  0.062400  1.0  -0.1225
  C  C389  1  0.079800  0.987700  0.812900  1.0  -0.1762
  C  C390  1  0.554600  0.493200  0.154230  1.0  -0.1156
  C  C391  1  0.854600  0.744500  0.329420  1.0  0.7399
  C  C392  1  0.649100  0.412600  0.153300  1.0  0.1765
  N  N393  1  0.867000  0.234300  0.989720  1.0  -0.3817
  N  N394  1  0.315800  0.636800  0.870100  1.0  -0.4137
  N  N395  1  0.684200  0.363200  0.129900  1.0  -0.4098
  N  N396  1  0.367000  0.234300  0.510280  1.0  -0.3812
  N  N397  1  0.884500  0.332600  0.352080  1.0  -0.2993
  N  N398  1  0.633000  0.765700  0.489720  1.0  -0.3797
  N  N399  1  0.115500  0.667400  0.647920  1.0  -0.3016
  N  N400  1  0.541400  0.236800  0.987560  1.0  -0.3632
  N  N401  1  0.958600  0.763200  0.487560  1.0  -0.3616
  N  N402  1  0.615500  0.667400  0.852080  1.0  -0.3008
  N  N403  1  0.837600  0.065900  0.144320  1.0  -0.3989
  N  N404  1  0.337600  0.065900  0.355680  1.0  -0.3997
  N  N405  1  0.458600  0.763200  0.012440  1.0  -0.3594
  N  N406  1  0.052400  0.053900  0.356720  1.0  -0.3138
  N  N407  1  0.447600  0.946100  0.856720  1.0  -0.3145
  N  N408  1  0.947600  0.946100  0.643280  1.0  -0.3142
  N  N409  1  0.133000  0.765700  0.010280  1.0  -0.3823
  N  N410  1  0.162400  0.934100  0.855680  1.0  -0.3976
  N  N411  1  0.552400  0.053900  0.143280  1.0  -0.3151
  N  N412  1  0.041400  0.236800  0.512440  1.0  -0.36
  N  N413  1  0.184200  0.363200  0.370100  1.0  -0.4134
  N  N414  1  0.815800  0.636800  0.629900  1.0  -0.4101
  N  N415  1  0.384500  0.332600  0.147920  1.0  -0.2998
  N  N416  1  0.662400  0.934100  0.644320  1.0  -0.3962
  O  O417  1  0.401700  0.719100  0.193050  1.0  -0.7543
  O  O418  1  0.785800  0.316800  0.998400  1.0  -0.5046
  O  O419  1  0.080100  0.702200  0.193720  1.0  -0.833
  O  O420  1  0.549500  0.296800  0.674170  1.0  -0.6592
  O  O421  1  0.262500  0.016900  0.406500  1.0  -0.5076
  O  O422  1  0.554600  0.144300  0.187400  1.0  -0.4678
  O  O423  1  0.580400  0.603000  0.243170  1.0  -0.8036
  O  O424  1  0.520900  0.181800  0.732790  1.0  -0.6665
  O  O425  1  0.450500  0.703200  0.325830  1.0  -0.6566
  O  O426  1  0.479100  0.818200  0.267210  1.0  -0.666
  O  O427  1  0.714200  0.683200  0.498400  1.0  -0.5032
  O  O428  1  0.049500  0.296800  0.825830  1.0  -0.6583
  O  O429  1  0.598300  0.280900  0.806950  1.0  -0.7532
  O  O430  1  0.699100  0.395300  0.760100  1.0  -0.7587
  O  O431  1  0.098300  0.280900  0.693050  1.0  -0.7539
  O  O432  1  0.627300  0.652600  0.916420  1.0  -0.4683
  O  O433  1  0.985500  0.595800  0.303060  1.0  -0.6586
  O  O434  1  0.883600  0.836100  0.513470  1.0  -0.4878
  O  O435  1  0.307700  0.162100  0.743610  1.0  -0.6662
  O  O436  1  0.616400  0.163900  0.013470  1.0  -0.4885
  O  O437  1  0.210600  0.235700  0.680220  1.0  -0.6314
  O  O438  1  0.229800  0.300700  0.320760  1.0  -0.5135
  O  O439  1  0.116400  0.163900  0.486530  1.0  -0.491
  O  O440  1  0.020900  0.181800  0.767210  1.0  -0.6658
  O  O441  1  0.419600  0.397000  0.756830  1.0  -0.8036
  O  O442  1  0.711100  0.597800  0.308410  1.0  -0.6549
  O  O443  1  0.979100  0.818200  0.232790  1.0  -0.6667
  O  O444  1  0.945400  0.855700  0.687400  1.0  -0.4678
  O  O445  1  0.080400  0.603000  0.256830  1.0  -0.8034
  O  O446  1  0.127300  0.652600  0.583580  1.0  -0.4716
  O  O447  1  0.919900  0.297800  0.806280  1.0  -0.8333
  O  O448  1  0.270200  0.699300  0.820760  1.0  -0.5112
  O  O449  1  0.485500  0.595800  0.196940  1.0  -0.6591
  O  O450  1  0.237500  0.983100  0.906500  1.0  -0.5061
  O  O451  1  0.729800  0.300700  0.179240  1.0  -0.5079
  O  O452  1  0.372700  0.347400  0.083580  1.0  -0.4673
  O  O453  1  0.807700  0.162100  0.756390  1.0  -0.6657
  O  O454  1  0.737500  0.983100  0.593500  1.0  -0.5053
  O  O455  1  0.514500  0.404200  0.803060  1.0  -0.6571
  O  O456  1  0.285800  0.316800  0.501600  1.0  -0.5039
  O  O457  1  0.843800  0.760400  0.230030  1.0  -0.7732
  O  O458  1  0.289400  0.764300  0.180220  1.0  -0.6307
  O  O459  1  0.788900  0.402200  0.808410  1.0  -0.6547
  O  O460  1  0.300900  0.604700  0.239900  1.0  -0.7562
  O  O461  1  0.199100  0.395300  0.739900  1.0  -0.7554
  O  O462  1  0.950500  0.703200  0.174170  1.0  -0.6567
  O  O463  1  0.405500  0.243700  0.774480  1.0  -0.8104
  O  O464  1  0.789400  0.764300  0.319780  1.0  -0.6314
  O  O465  1  0.014500  0.404200  0.696940  1.0  -0.6576
  O  O466  1  0.288900  0.402200  0.691590  1.0  -0.654
  O  O467  1  0.383600  0.836100  0.986530  1.0  -0.487
  O  O468  1  0.692300  0.837900  0.256390  1.0  -0.6645
  O  O469  1  0.710600  0.235700  0.819780  1.0  -0.6298
  O  O470  1  0.905500  0.243700  0.725520  1.0  -0.8107
  O  O471  1  0.419900  0.297800  0.693720  1.0  -0.8337
  O  O472  1  0.445400  0.855700  0.812600  1.0  -0.4696
  O  O473  1  0.580100  0.702200  0.306280  1.0  -0.8328
  O  O474  1  0.872700  0.347400  0.416420  1.0  -0.4628
  O  O475  1  0.901700  0.719100  0.306950  1.0  -0.7547
  O  O476  1  0.594500  0.756300  0.225520  1.0  -0.8102
  O  O477  1  0.800900  0.604700  0.260100  1.0  -0.7584
  O  O478  1  0.656200  0.239600  0.730030  1.0  -0.7736
  O  O479  1  0.770200  0.699300  0.679240  1.0  -0.5064
  O  O480  1  0.192300  0.837900  0.243610  1.0  -0.6669
  O  O481  1  0.094500  0.756300  0.274480  1.0  -0.8102
  O  O482  1  0.919600  0.397000  0.743170  1.0  -0.8035
  O  O483  1  0.054600  0.144300  0.312600  1.0  -0.4709
  O  O484  1  0.762500  0.016900  0.093500  1.0  -0.5057
  O  O485  1  0.214200  0.683200  0.001600  1.0  -0.5028
  O  O486  1  0.156200  0.239600  0.769970  1.0  -0.7739
  O  O487  1  0.343800  0.760400  0.269970  1.0  -0.7734
  O  O488  1  0.211100  0.597800  0.191590  1.0  -0.6555
