# generated using pymatgen
data_Zn9H18(C27O19)2
_symmetry_space_group_name_H-M   'P 1'
_cell_length_a   16.78900000
_cell_length_b   17.15780000
_cell_length_c   23.37490000
_cell_angle_alpha   79.88010000
_cell_angle_beta   68.95320000
_cell_angle_gamma   60.70850000
_symmetry_Int_Tables_number   1
_chemical_formula_structural   Zn9H18(C27O19)2
_chemical_formula_sum   'Zn18 H36 C108 O76'
_cell_volume   5480.73401656
_cell_formula_units_Z   2
loop_
 _symmetry_equiv_pos_site_id
 _symmetry_equiv_pos_as_xyz
  1  'x, y, z'
loop_
 _atom_site_type_symbol
 _atom_site_label
 _atom_site_symmetry_multiplicity
 _atom_site_fract_x
 _atom_site_fract_y
 _atom_site_fract_z
 _atom_site_occupancy
 _atom_site_charge
  Zn  Zn1  1  0.162350  0.725180  0.189760  1.0  1.0349
  Zn  Zn2  1  0.181300  0.591140  0.108280  1.0  1.026
  Zn  Zn3  1  0.955760  0.206960  0.927240  1.0  1.08
  Zn  Zn4  1  0.637530  0.774820  0.689760  1.0  1.0355
  Zn  Zn5  1  0.346590  0.500000  0.500000  1.0  1.1182
  Zn  Zn6  1  0.633000  0.706960  0.572760  1.0  1.0813
  Zn  Zn7  1  0.039580  0.091140  0.391720  1.0  1.0215
  Zn  Zn8  1  0.077290  0.274820  0.810240  1.0  1.0354
  Zn  Zn9  1  0.118150  0.192740  0.443840  1.0  0.988
  Zn  Zn10  1  0.522440  0.908860  0.608280  1.0  1.0263
  Zn  Zn11  1  0.754730  0.807260  0.556160  1.0  0.9851
  Zn  Zn12  1  0.060890  0.307260  0.943840  1.0  0.988
  Zn  Zn13  1  0.596590  0.000000  0.000000  1.0  1.1182
  Zn  Zn14  1  0.311990  0.692740  0.056160  1.0  0.9852
  Zn  Zn15  1  0.880720  0.408860  0.891720  1.0  1.0226
  Zn  Zn16  1  0.912720  0.293040  0.427240  1.0  1.0795
  Zn  Zn17  1  0.089960  0.793040  0.072760  1.0  1.0803
  Zn  Zn18  1  0.102110  0.225180  0.310240  1.0  1.0351
  H  H19  1  0.865300  0.800800  0.030400  1.0  0.1361
  H  H20  1  0.021200  0.514600  0.256800  1.0  0.1275
  H  H21  1  0.442400  0.844000  0.096600  1.0  0.135
  H  H22  1  0.011700  0.041000  0.073400  1.0  0.1046
  H  H23  1  0.507000  0.152200  0.531400  1.0  0.1327
  H  H24  1  0.910400  0.731200  0.359800  1.0  0.1395
  H  H25  1  0.319500  0.965000  0.513000  1.0  0.1317
  H  H26  1  0.835100  0.541000  0.426600  1.0  0.1017
  H  H27  1  0.219300  0.374400  0.251400  1.0  0.1219
  H  H28  1  0.391600  0.768800  0.859800  1.0  0.1382
  H  H29  1  0.600600  0.981600  0.775800  1.0  0.1309
  H  H30  1  0.028000  0.014600  0.243200  1.0  0.1284
  H  H31  1  0.802700  0.459000  0.573400  1.0  0.1045
  H  H32  1  0.582500  0.465000  0.987000  1.0  0.1321
  H  H33  1  0.788400  0.652200  0.968600  1.0  0.1329
  H  H34  1  0.126100  0.959000  0.926600  1.0  0.103
  H  H35  1  0.343700  0.125600  0.751400  1.0  0.1221
  H  H36  1  0.409200  0.347800  0.031400  1.0  0.1326
  H  H37  1  0.383000  0.156000  0.903400  1.0  0.1337
  H  H38  1  0.001400  0.268800  0.640200  1.0  0.1387
  H  H39  1  0.792600  0.485400  0.743200  1.0  0.1284
  H  H40  1  0.696500  0.199200  0.969600  1.0  0.1361
  H  H41  1  0.332200  0.518400  0.275800  1.0  0.1305
  H  H42  1  0.036400  0.656000  0.596600  1.0  0.1349
  H  H43  1  0.126400  0.481600  0.724200  1.0  0.1298
  H  H44  1  0.645700  0.300800  0.469600  1.0  0.1367
  H  H45  1  0.220700  0.874400  0.248600  1.0  0.1208
  H  H46  1  0.034500  0.535000  0.013000  1.0  0.1316
  H  H47  1  0.190600  0.847800  0.468600  1.0  0.133
  H  H48  1  0.285800  0.985400  0.756800  1.0  0.128
  H  H49  1  0.416100  0.699200  0.530400  1.0  0.1358
  H  H50  1  0.020200  0.231200  0.140200  1.0  0.1396
  H  H51  1  0.289000  0.344000  0.403400  1.0  0.1338
  H  H52  1  0.797500  0.035000  0.487000  1.0  0.132
  H  H53  1  0.845100  0.625600  0.748600  1.0  0.1206
  H  H54  1  0.358000  0.018400  0.224200  1.0  0.1293
  C  C55  1  0.373800  0.754600  0.519000  1.0  0.0364
  C  C56  1  0.944500  0.322200  0.645800  1.0  0.0093
  C  C57  1  0.820200  0.452600  0.707400  1.0  -0.0066
  C  C58  1  0.350200  0.975400  0.210800  1.0  0.0245
  C  C59  1  0.407200  0.129600  0.865400  1.0  -0.0143
  C  C60  1  0.201000  0.541800  0.618200  1.0  0.7143
  C  C61  1  0.349420  0.870600  0.797760  1.0  -0.0827
  C  C62  1  0.311000  0.475400  0.289200  1.0  0.0236
  C  C63  1  0.470700  0.343000  0.018400  1.0  0.04
  C  C64  1  0.017780  0.129400  0.202240  1.0  -0.0807
  C  C65  1  0.201400  0.014600  0.299600  1.0  0.6872
  C  C66  1  0.832100  0.657000  0.981600  1.0  0.0417
  C  C67  1  0.025600  0.163200  0.255400  1.0  0.7026
  C  C68  1  0.980200  0.547400  0.292600  1.0  -0.0053
  C  C69  1  0.027400  0.675000  0.050400  1.0  0.7269
  C  C70  1  0.950900  0.306000  0.538800  1.0  0.7237
  C  C71  1  0.878400  0.745400  0.019000  1.0  0.0387
  C  C72  1  0.984900  0.542800  0.743800  1.0  -0.1444
  C  C73  1  0.361000  0.458200  0.381800  1.0  0.7158
  C  C74  1  0.979800  0.586400  0.009200  1.0  0.0553
  C  C75  1  0.075600  0.524600  0.710800  1.0  0.0248
  C  C76  1  0.022800  0.047400  0.207400  1.0  -0.0056
  C  C77  1  0.653900  0.989400  0.531000  1.0  0.7325
  C  C78  1  0.707800  0.580200  0.659000  1.0  0.7142
  C  C79  1  0.031000  0.663200  0.244600  1.0  0.7026
  C  C80  1  0.116800  0.080200  0.841000  1.0  0.7133
  C  C81  1  0.647400  0.245400  0.481000  1.0  0.0379
  C  C82  1  0.652500  0.334000  0.975400  1.0  -0.1489
  C  C83  1  0.006900  0.194000  0.038800  1.0  0.7219
  C  C84  1  0.912500  0.677800  0.354200  1.0  0.0081
  C  C85  1  0.652900  0.080800  0.513000  1.0  -0.1389
  C  C86  1  0.869700  0.563400  0.393800  1.0  0.017
  C  C87  1  0.928100  0.512000  0.341600  1.0  -0.1308
  C  C88  1  0.934900  0.489400  0.969000  1.0  0.7329
  C  C89  1  0.244500  0.219600  0.850000  1.0  0.7419
  C  C90  1  0.174300  0.010600  0.469000  1.0  0.7337
  C  C91  1  0.549300  0.263000  0.004400  1.0  -0.145
  C  C92  1  0.537700  0.179200  0.011400  1.0  0.7201
  C  C93  1  0.970020  0.629400  0.297760  1.0  -0.081
  C  C94  1  0.277600  0.952600  0.792600  1.0  -0.0056
  C  C95  1  0.248200  0.348200  0.329600  1.0  -0.0961
  C  C96  1  0.827800  0.175000  0.449600  1.0  0.7268
  C  C97  1  0.038000  0.919800  0.159000  1.0  0.7163
  C  C98  1  0.253400  0.857000  0.899800  1.0  -0.1107
  C  C99  1  0.739000  0.086400  0.490800  1.0  0.0552
  C  C100  1  0.214100  0.280400  0.350000  1.0  0.7419
  C  C101  1  0.444200  0.836800  0.744600  1.0  0.7015
  C  C102  1  0.016700  0.177800  0.145800  1.0  0.0088
  C  C103  1  0.019700  0.012000  0.158400  1.0  -0.127
  C  C104  1  0.816700  0.737000  0.995600  1.0  -0.1446
  C  C105  1  0.271500  0.457200  0.256200  1.0  -0.1449
  C  C106  1  0.826900  0.436600  0.606200  1.0  0.0152
  C  C107  1  0.515600  0.985400  0.700400  1.0  0.6885
  C  C108  1  0.022600  0.629600  0.634600  1.0  -0.0148
  C  C109  1  0.483700  0.419200  0.013000  1.0  -0.1386
  C  C110  1  0.346400  0.151800  0.829600  1.0  -0.095
  C  C111  1  0.736500  0.166000  0.475400  1.0  -0.149
  C  C112  1  0.239700  0.806000  0.961200  1.0  0.7234
  C  C113  1  0.314100  0.780400  0.150000  1.0  0.7422
  C  C114  1  0.183100  0.936600  0.893800  1.0  0.017
  C  C115  1  0.268400  0.890000  0.224200  1.0  0.0002
  C  C116  1  0.402200  0.870400  0.134600  1.0  -0.0152
  C  C117  1  0.393300  0.510600  0.031000  1.0  0.7327
  C  C118  1  0.903200  0.357000  0.600200  1.0  -0.111
  C  C119  1  0.492800  0.958200  0.118200  1.0  0.7149
  C  C120  1  0.377900  0.834000  0.524600  1.0  -0.1493
  C  C121  1  0.728300  0.820800  0.988600  1.0  0.7208
  C  C122  1  0.795700  0.694000  0.461200  1.0  0.7227
  C  C123  1  0.299100  0.679200  0.488600  1.0  0.7212
  C  C124  1  0.569200  0.041800  0.881800  1.0  0.7159
  C  C125  1  0.010200  0.143000  0.100200  1.0  -0.1106
  C  C126  1  0.242600  0.390000  0.275800  1.0  0.0013
  C  C127  1  0.320100  0.430600  0.343400  1.0  -0.0362
  C  C128  1  0.961900  0.666000  0.024600  1.0  -0.1493
  C  C129  1  0.575400  0.413600  0.990800  1.0  0.0552
  C  C130  1  0.303700  0.763000  0.495600  1.0  -0.1448
  C  C131  1  0.190100  0.988000  0.841600  1.0  -0.1301
  C  C132  1  0.413500  0.930600  0.156600  1.0  -0.034
  C  C133  1  0.926000  0.651800  0.670400  1.0  -0.0942
  C  C134  1  0.500700  0.069400  0.843400  1.0  -0.036
  C  C135  1  0.781700  0.488000  0.658400  1.0  -0.1275
  C  C136  1  0.642800  0.254600  0.981000  1.0  0.0421
  C  C137  1  0.947000  0.419800  0.341000  1.0  0.7128
  C  C138  1  0.966000  0.485400  0.799600  1.0  0.6868
  C  C139  1  0.251000  0.514600  0.200400  1.0  0.6884
  C  C140  1  0.094100  0.569400  0.656600  1.0  -0.0338
  C  C141  1  0.938800  0.336800  0.755400  1.0  0.7035
  C  C142  1  0.752800  0.325000  0.949600  1.0  0.7269
  C  C143  1  0.452400  0.825000  0.550400  1.0  0.7268
  C  C144  1  0.239100  0.843000  0.481600  1.0  0.0419
  C  C145  1  0.340300  0.822200  0.854200  1.0  0.009
  C  C146  1  0.013500  0.063400  0.106200  1.0  0.0154
  C  C147  1  0.908400  0.610000  0.724200  1.0  -0.0
  C  C148  1  0.327800  0.848200  0.170400  1.0  -0.095
  C  C149  1  0.563700  0.157000  0.518400  1.0  0.0398
  C  C150  1  0.915900  0.580800  0.987000  1.0  -0.1392
  C  C151  1  0.316200  0.913600  0.509200  1.0  0.0549
  C  C152  1  0.286800  0.370400  0.365400  1.0  -0.0169
  C  C153  1  0.277700  0.957200  0.243800  1.0  -0.145
  C  C154  1  0.382600  0.110000  0.775800  1.0  0.001
  C  C155  1  0.246700  0.919200  0.487000  1.0  -0.139
  C  C156  1  0.466900  0.320800  0.511400  1.0  0.7201
  C  C157  1  0.844500  0.719600  0.650000  1.0  0.7417
  C  C158  1  0.860400  0.643000  0.399800  1.0  -0.1101
  C  C159  1  0.897180  0.370600  0.702240  1.0  -0.0824
  C  C160  1  0.536400  0.024600  0.789200  1.0  0.0239
  C  C161  1  0.562300  0.237000  0.504400  1.0  -0.1446
  C  C162  1  0.478700  0.042800  0.756200  1.0  -0.1445
  O  O163  1  0.507900  0.968000  0.061400  1.0  -0.566
  O  O164  1  0.032800  0.424200  0.812400  1.0  -0.5888
  O  O165  1  0.313160  0.517800  0.041680  1.0  -0.5856
  O  O166  1  0.906320  0.105200  0.439560  1.0  -0.5809
  O  O167  1  0.815970  0.254000  0.442060  1.0  -0.5913
  O  O168  1  0.022030  0.428200  0.964740  1.0  -0.5624
  O  O169  1  0.200230  0.071800  0.464740  1.0  -0.5626
  O  O170  1  0.151910  0.831400  0.992980  1.0  -0.5904
  O  O171  1  0.541600  0.963600  0.143200  1.0  -0.4202
  O  O172  1  0.076260  0.863800  0.197280  1.0  -0.623
  O  O173  1  0.255200  0.536400  0.643200  1.0  -0.4186
  O  O174  1  0.218100  0.491400  0.168000  1.0  -0.5901
  O  O175  1  0.204510  0.255800  0.808980  1.0  -0.6044
  O  O176  1  0.690060  0.636200  0.697280  1.0  -0.6224
  O  O177  1  0.877500  0.508600  0.832000  1.0  -0.5915
  O  O178  1  0.648400  0.036400  0.856800  1.0  -0.4196
  O  O179  1  0.521970  0.797000  0.759660  1.0  -0.5704
  O  O180  1  0.104840  0.017800  0.458320  1.0  -0.5903
  O  O181  1  0.736770  0.928200  0.535260  1.0  -0.565
  O  O182  1  0.009490  0.901600  0.121420  1.0  -0.5593
  O  O183  1  0.269290  0.744200  0.191020  1.0  -0.6032
  O  O184  1  0.032510  0.098400  0.878580  1.0  -0.5604
  O  O185  1  0.191420  0.259800  0.406360  1.0  -0.5943
  O  O186  1  0.819970  0.246000  0.942060  1.0  -0.5887
  O  O187  1  0.458000  0.187400  0.018800  1.0  -0.4665
  O  O188  1  0.459500  0.008600  0.668000  1.0  -0.591
  O  O189  1  0.857580  0.740200  0.593640  1.0  -0.5934
  O  O190  1  0.664200  0.812600  0.981200  1.0  -0.4647
  O  O191  1  0.207000  0.075800  0.312400  1.0  -0.5895
  O  O192  1  0.512030  0.746000  0.557940  1.0  -0.5885
  O  O193  1  0.761520  0.394800  0.939560  1.0  -0.5834
  O  O194  1  0.414970  0.571800  0.035260  1.0  -0.5656
  O  O195  1  0.872640  0.482200  0.958320  1.0  -0.591
  O  O196  1  0.032320  0.252400  0.028360  1.0  -0.54
  O  O197  1  0.894890  0.331400  0.507020  1.0  -0.5906
  O  O198  1  0.095880  0.605200  0.060440  1.0  -0.5786
  O  O199  1  0.225900  0.532000  0.561400  1.0  -0.5655
  O  O200  1  0.442690  0.849000  0.690820  1.0  -0.6653
  O  O201  1  0.313080  0.747600  0.971640  1.0  -0.5413
  O  O202  1  0.639950  0.797200  0.604500  1.0  -1.1765
  O  O203  1  0.008030  0.754000  0.057940  1.0  -0.5904
  O  O204  1  0.068970  0.703000  0.259660  1.0  -0.5725
  O  O205  1  0.580960  0.982200  0.541680  1.0  -0.5858
  O  O206  1  0.537300  0.032000  0.938600  1.0  -0.5685
  O  O207  1  0.031630  0.297000  0.740340  1.0  -0.5724
  O  O208  1  0.226800  0.687400  0.481200  1.0  -0.4647
  O  O209  1  0.613310  0.104800  0.003180  1.0  -0.5608
  O  O210  1  0.883510  0.349000  0.809180  1.0  -0.6655
  O  O211  1  0.595200  0.924200  0.687600  1.0  -0.589
  O  O212  1  0.434800  0.463600  0.356800  1.0  -0.4184
  O  O213  1  0.319300  0.468000  0.438600  1.0  -0.5692
  O  O214  1  0.721290  0.895200  0.996820  1.0  -0.5627
  O  O215  1  0.137340  0.136200  0.802720  1.0  -0.621
  O  O216  1  0.366490  0.604800  0.496820  1.0  -0.5613
  O  O217  1  0.880910  0.401600  0.378580  1.0  -0.561
  O  O218  1  0.136100  0.991400  0.332000  1.0  -0.5902
  O  O219  1  0.810680  0.752400  0.471640  1.0  -0.5413
  O  O220  1  0.763490  0.755800  0.691020  1.0  -0.6027
  O  O221  1  0.041650  0.202800  0.395500  1.0  -1.1765
  O  O222  1  0.468110  0.395200  0.503180  1.0  -0.5637
  O  O223  1  0.023540  0.363800  0.302720  1.0  -0.6218
  O  O224  1  0.451080  0.894800  0.560440  1.0  -0.5812
  O  O225  1  0.041690  0.651000  0.190820  1.0  -0.6663
  O  O226  1  0.982510  0.151000  0.309180  1.0  -0.6708
  O  O227  1  0.395400  0.312600  0.518800  1.0  -0.4664
  O  O228  1  0.201220  0.240200  0.906360  1.0  -0.5941
  O  O229  1  0.187150  0.702800  0.104500  1.0  -1.1764
  O  O230  1  0.661090  0.598400  0.621420  1.0  -0.5586
  O  O231  1  0.269400  0.575800  0.187600  1.0  -0.5893
  O  O232  1  0.034720  0.247600  0.528360  1.0  -0.5399
  O  O233  1  0.347780  0.759800  0.093640  1.0  -0.5941
  O  O234  1  0.994450  0.297200  0.895500  1.0  -1.1765
  O  O235  1  0.733310  0.668600  0.492980  1.0  -0.5902
  O  O236  1  0.078630  0.203000  0.240340  1.0  -0.5708
  O  O237  1  0.210310  0.244200  0.308980  1.0  -0.6029
  O  O238  1  0.976290  0.168600  0.007020  1.0  -0.5902
