# generated using pymatgen
data_K4ZrH12(C4O3)6
_symmetry_space_group_name_H-M   'P 1'
_cell_length_a   17.15600000
_cell_length_b   20.38700000
_cell_length_c   20.56200000
_cell_angle_alpha   90.00000000
_cell_angle_beta   90.00000000
_cell_angle_gamma   90.00000000
_symmetry_Int_Tables_number   1
_chemical_formula_structural   K4ZrH12(C4O3)6
_chemical_formula_sum   'K32 Zr8 H96 C192 O144'
_cell_volume   7191.75220706
_cell_formula_units_Z   8
loop_
 _symmetry_equiv_pos_site_id
 _symmetry_equiv_pos_as_xyz
  1  'x, y, z'
loop_
 _atom_site_type_symbol
 _atom_site_label
 _atom_site_symmetry_multiplicity
 _atom_site_fract_x
 _atom_site_fract_y
 _atom_site_fract_z
 _atom_site_occupancy
 _atom_site_charge
  K  K1  1  0.696180  0.017430  0.911690  1.0  0.949
  K  K2  1  0.212820  0.918400  0.936860  1.0  0.9362
  K  K3  1  0.056380  0.358760  0.192870  1.0  0.9271
  K  K4  1  0.560740  0.695820  0.161150  1.0  0.9327
  K  K5  1  0.287180  0.418400  0.936860  1.0  0.9362
  K  K6  1  0.943620  0.858760  0.307130  1.0  0.9275
  K  K7  1  0.196180  0.017430  0.588310  1.0  0.9478
  K  K8  1  0.712820  0.918400  0.563140  1.0  0.9353
  K  K9  1  0.060740  0.804180  0.838850  1.0  0.9325
  K  K10  1  0.303820  0.517430  0.588310  1.0  0.9463
  K  K11  1  0.556380  0.358760  0.307130  1.0  0.9275
  K  K12  1  0.056380  0.141240  0.692870  1.0  0.9268
  K  K13  1  0.439260  0.195820  0.338850  1.0  0.9314
  K  K14  1  0.303820  0.982570  0.088310  1.0  0.9486
  K  K15  1  0.439260  0.304180  0.838850  1.0  0.9311
  K  K16  1  0.787180  0.418400  0.563140  1.0  0.9353
  K  K17  1  0.560740  0.804180  0.661150  1.0  0.9333
  K  K18  1  0.443620  0.858760  0.192870  1.0  0.9272
  K  K19  1  0.196180  0.482570  0.088310  1.0  0.9457
  K  K20  1  0.287180  0.081600  0.436860  1.0  0.9362
  K  K21  1  0.443620  0.641240  0.692870  1.0  0.9267
  K  K22  1  0.803820  0.982570  0.411690  1.0  0.949
  K  K23  1  0.696180  0.482570  0.411690  1.0  0.9485
  K  K24  1  0.556380  0.141240  0.807130  1.0  0.9269
  K  K25  1  0.939260  0.195820  0.161150  1.0  0.9316
  K  K26  1  0.060740  0.695820  0.338850  1.0  0.9322
  K  K27  1  0.939260  0.304180  0.661150  1.0  0.9312
  K  K28  1  0.712820  0.581600  0.063140  1.0  0.9354
  K  K29  1  0.212820  0.581600  0.436860  1.0  0.9362
  K  K30  1  0.787180  0.081600  0.063140  1.0  0.9354
  K  K31  1  0.803820  0.517430  0.911690  1.0  0.9481
  K  K32  1  0.943620  0.641240  0.807130  1.0  0.9267
  Zr  Zr33  1  0.130730  0.974600  0.765590  1.0  1.971
  Zr  Zr34  1  0.369270  0.474600  0.765590  1.0  1.9674
  Zr  Zr35  1  0.630730  0.974600  0.734410  1.0  1.9675
  Zr  Zr36  1  0.369270  0.025400  0.265590  1.0  1.9715
  Zr  Zr37  1  0.869270  0.025400  0.234410  1.0  1.9713
  Zr  Zr38  1  0.869270  0.474600  0.734410  1.0  1.9716
  Zr  Zr39  1  0.630730  0.525400  0.234410  1.0  1.9665
  Zr  Zr40  1  0.130730  0.525400  0.265590  1.0  1.9693
  H  H41  1  0.320100  0.427100  0.405400  1.0  0.1002
  H  H42  1  0.097600  0.695900  0.489500  1.0  0.42
  H  H43  1  0.057100  0.627000  0.654600  1.0  0.1155
  H  H44  1  0.984700  0.469800  0.076800  1.0  0.1028
  H  H45  1  0.399100  0.643800  0.546300  1.0  0.4553
  H  H46  1  0.527500  0.082000  0.449300  1.0  0.1103
  H  H47  1  0.600900  0.356200  0.453700  1.0  0.4569
  H  H48  1  0.950000  0.679800  0.176500  1.0  0.1082
  H  H49  1  0.830900  0.881300  0.866200  1.0  0.1021
  H  H50  1  0.177100  0.783300  0.976200  1.0  0.459
  H  H51  1  0.174500  0.169000  0.572200  1.0  0.2515
  H  H52  1  0.050000  0.179800  0.323500  1.0  0.1087
  H  H53  1  0.325500  0.831000  0.072200  1.0  0.2496
  H  H54  1  0.402400  0.304100  0.989500  1.0  0.4201
  H  H55  1  0.822900  0.216700  0.023800  1.0  0.4587
  H  H56  1  0.984700  0.030200  0.576800  1.0  0.1028
  H  H57  1  0.442900  0.373000  0.154600  1.0  0.115
  H  H58  1  0.450000  0.679800  0.323500  1.0  0.1073
  H  H59  1  0.027500  0.082000  0.050700  1.0  0.1103
  H  H60  1  0.330900  0.618700  0.133800  1.0  0.1039
  H  H61  1  0.402400  0.195900  0.489500  1.0  0.4196
  H  H62  1  0.679900  0.927100  0.094600  1.0  0.1005
  H  H63  1  0.749600  0.773700  0.670900  1.0  0.096
  H  H64  1  0.550000  0.320200  0.676500  1.0  0.1079
  H  H65  1  0.783900  0.153900  0.811200  1.0  0.1031
  H  H66  1  0.669100  0.381300  0.866200  1.0  0.1037
  H  H67  1  0.716100  0.846100  0.311200  1.0  0.1036
  H  H68  1  0.527500  0.418000  0.949300  1.0  0.1098
  H  H69  1  0.399100  0.856200  0.046300  1.0  0.4551
  H  H70  1  0.972500  0.582000  0.449300  1.0  0.1106
  H  H71  1  0.169100  0.381300  0.633800  1.0  0.1027
  H  H72  1  0.484700  0.030200  0.923200  1.0  0.1029
  H  H73  1  0.899100  0.856200  0.453700  1.0  0.4568
  H  H74  1  0.830900  0.618700  0.366200  1.0  0.1035
  H  H75  1  0.027500  0.418000  0.550700  1.0  0.1102
  H  H76  1  0.330900  0.881300  0.633800  1.0  0.1038
  H  H77  1  0.322900  0.283300  0.976200  1.0  0.4582
  H  H78  1  0.600900  0.143800  0.953700  1.0  0.4568
  H  H79  1  0.820100  0.427100  0.094600  1.0  0.1002
  H  H80  1  0.942900  0.127000  0.845400  1.0  0.1159
  H  H81  1  0.550000  0.179800  0.176500  1.0  0.1084
  H  H82  1  0.097600  0.804100  0.989500  1.0  0.4201
  H  H83  1  0.716100  0.653900  0.811200  1.0  0.1034
  H  H84  1  0.750400  0.226300  0.170900  1.0  0.0962
  H  H85  1  0.677100  0.716700  0.023800  1.0  0.459
  H  H86  1  0.557100  0.627000  0.845400  1.0  0.1159
  H  H87  1  0.015300  0.969800  0.423200  1.0  0.1028
  H  H88  1  0.679900  0.572900  0.594600  1.0  0.1005
  H  H89  1  0.825500  0.831000  0.427800  1.0  0.2505
  H  H90  1  0.822900  0.283300  0.523800  1.0  0.4586
  H  H91  1  0.050000  0.320200  0.823500  1.0  0.1081
  H  H92  1  0.216100  0.653900  0.688800  1.0  0.1037
  H  H93  1  0.674500  0.331000  0.427800  1.0  0.2524
  H  H94  1  0.674500  0.169000  0.927800  1.0  0.252
  H  H95  1  0.179900  0.572900  0.905400  1.0  0.1004
  H  H96  1  0.450000  0.820200  0.823500  1.0  0.1082
  H  H97  1  0.472500  0.918000  0.550700  1.0  0.1104
  H  H98  1  0.174500  0.331000  0.072200  1.0  0.2516
  H  H99  1  0.597600  0.695900  0.010500  1.0  0.4182
  H  H100  1  0.249600  0.773700  0.829100  1.0  0.0964
  H  H101  1  0.320100  0.072900  0.905400  1.0  0.1001
  H  H102  1  0.015300  0.530200  0.923200  1.0  0.1027
  H  H103  1  0.249600  0.726300  0.329100  1.0  0.0967
  H  H104  1  0.325500  0.669000  0.572200  1.0  0.2499
  H  H105  1  0.825500  0.669000  0.927800  1.0  0.2504
  H  H106  1  0.669100  0.118700  0.366200  1.0  0.1027
  H  H107  1  0.820100  0.072900  0.594600  1.0  0.1002
  H  H108  1  0.749600  0.726300  0.170900  1.0  0.0961
  H  H109  1  0.750400  0.273700  0.670900  1.0  0.0961
  H  H110  1  0.177100  0.716700  0.476200  1.0  0.4588
  H  H111  1  0.057100  0.873000  0.154600  1.0  0.1156
  H  H112  1  0.902400  0.195900  0.010500  1.0  0.4176
  H  H113  1  0.972500  0.918000  0.949300  1.0  0.11
  H  H114  1  0.950000  0.820200  0.676500  1.0  0.1078
  H  H115  1  0.100900  0.356200  0.046300  1.0  0.4561
  H  H116  1  0.179900  0.927100  0.405400  1.0  0.1005
  H  H117  1  0.216100  0.846100  0.188800  1.0  0.1038
  H  H118  1  0.899100  0.643800  0.953700  1.0  0.4557
  H  H119  1  0.484700  0.469800  0.423200  1.0  0.103
  H  H120  1  0.902400  0.304100  0.510500  1.0  0.4184
  H  H121  1  0.169100  0.118700  0.133800  1.0  0.1041
  H  H122  1  0.322900  0.216700  0.476200  1.0  0.4591
  H  H123  1  0.515300  0.969800  0.076800  1.0  0.1027
  H  H124  1  0.442900  0.127000  0.654600  1.0  0.1154
  H  H125  1  0.515300  0.530200  0.576800  1.0  0.1027
  H  H126  1  0.597600  0.804100  0.510500  1.0  0.4189
  H  H127  1  0.250400  0.226300  0.329100  1.0  0.0967
  H  H128  1  0.472500  0.582000  0.050700  1.0  0.1105
  H  H129  1  0.100900  0.143800  0.546300  1.0  0.4566
  H  H130  1  0.783900  0.346100  0.311200  1.0  0.1034
  H  H131  1  0.250400  0.273700  0.829100  1.0  0.0965
  H  H132  1  0.283900  0.346100  0.188800  1.0  0.1038
  H  H133  1  0.677100  0.783300  0.523800  1.0  0.4587
  H  H134  1  0.283900  0.153900  0.688800  1.0  0.1037
  H  H135  1  0.557100  0.873000  0.345400  1.0  0.1157
  H  H136  1  0.942900  0.373000  0.345400  1.0  0.1156
  C  C137  1  0.982100  0.029100  0.351100  1.0  0.2779
  C  C138  1  0.759700  0.438100  0.177300  1.0  0.2883
  C  C139  1  0.900100  0.502400  0.444800  1.0  0.3255
  C  C140  1  0.208000  0.638600  0.730900  1.0  -0.1204
  C  C141  1  0.259700  0.061900  0.822700  1.0  0.287
  C  C142  1  0.352200  0.164800  0.769200  1.0  0.3341
  C  C143  1  0.636300  0.639000  0.660300  1.0  0.3282
  C  C144  1  0.363700  0.361000  0.339700  1.0  0.3302
  C  C145  1  0.255000  0.909800  0.256000  1.0  0.3454
  C  C146  1  0.002300  0.458300  0.345100  1.0  0.2446
  C  C147  1  0.997700  0.958300  0.154900  1.0  0.2464
  C  C148  1  0.767800  0.794700  0.708000  1.0  -0.0947
  C  C149  1  0.817000  0.860500  0.827700  1.0  -0.103
  C  C150  1  0.453600  0.638100  0.341600  1.0  -0.1002
  C  C151  1  0.685200  0.588200  0.636900  1.0  -0.0755
  C  C152  1  0.953600  0.638100  0.158400  1.0  -0.1032
  C  C153  1  0.453600  0.861900  0.841600  1.0  -0.1009
  C  C154  1  0.170500  0.232900  0.255400  1.0  0.3481
  C  C155  1  0.185200  0.911800  0.363100  1.0  -0.0763
  C  C156  1  0.183000  0.360500  0.672300  1.0  -0.101
  C  C157  1  0.945600  0.085500  0.863900  1.0  -0.0845
  C  C158  1  0.994400  0.405900  0.817800  1.0  0.2918
  C  C159  1  0.863700  0.139000  0.660300  1.0  0.3302
  C  C160  1  0.054400  0.585500  0.636100  1.0  -0.0837
  C  C161  1  0.964000  0.957600  0.927900  1.0  -0.0842
  C  C162  1  0.235500  0.647800  0.272200  1.0  0.2889
  C  C163  1  0.329500  0.767100  0.755400  1.0  0.3498
  C  C164  1  0.232200  0.294700  0.792000  1.0  -0.0932
  C  C165  1  0.391500  0.434100  0.087800  1.0  0.3391
  C  C166  1  0.708000  0.638600  0.769100  1.0  -0.1176
  C  C167  1  0.095100  0.380000  0.894300  1.0  0.3328
  C  C168  1  0.745000  0.090200  0.744000  1.0  0.3476
  C  C169  1  0.759500  0.885800  0.789800  1.0  0.2746
  C  C170  1  0.735500  0.852200  0.727800  1.0  0.2915
  C  C171  1  0.525800  0.009400  0.097500  1.0  -0.0844
  C  C172  1  0.264500  0.352200  0.772200  1.0  0.2888
  C  C173  1  0.554400  0.914500  0.363900  1.0  -0.0901
  C  C174  1  0.317000  0.860500  0.672300  1.0  -0.1005
  C  C175  1  0.025800  0.009400  0.402500  1.0  -0.0868
  C  C176  1  0.759500  0.614200  0.289800  1.0  0.2747
  C  C177  1  0.036000  0.457600  0.572100  1.0  -0.0868
  C  C178  1  0.494400  0.094100  0.182200  1.0  0.2897
  C  C179  1  0.517900  0.529100  0.351100  1.0  0.2757
  C  C180  1  0.982100  0.470900  0.851100  1.0  0.2763
  C  C181  1  0.855800  0.802000  0.808000  1.0  0.3444
  C  C182  1  0.546400  0.361900  0.658400  1.0  -0.1034
  C  C183  1  0.683000  0.360500  0.827700  1.0  -0.1037
  C  C184  1  0.732200  0.205300  0.208000  1.0  -0.0945
  C  C185  1  0.317000  0.639500  0.172300  1.0  -0.1002
  C  C186  1  0.792000  0.138600  0.769100  1.0  -0.1174
  C  C187  1  0.740500  0.385800  0.789800  1.0  0.2749
  C  C188  1  0.267800  0.705300  0.292000  1.0  -0.0931
  C  C189  1  0.445600  0.414500  0.136100  1.0  -0.0853
  C  C190  1  0.554400  0.585500  0.863900  1.0  -0.0836
  C  C191  1  0.670500  0.267100  0.744600  1.0  0.3489
  C  C192  1  0.767800  0.705300  0.208000  1.0  -0.0939
  C  C193  1  0.764500  0.352200  0.727800  1.0  0.2918
  C  C194  1  0.005600  0.594100  0.182200  1.0  0.29
  C  C195  1  0.235500  0.852200  0.772200  1.0  0.2884
  C  C196  1  0.904900  0.880000  0.605700  1.0  0.3336
  C  C197  1  0.352200  0.335200  0.269200  1.0  0.3344
  C  C198  1  0.087600  0.450000  0.924300  1.0  0.3474
  C  C199  1  0.863700  0.361000  0.160300  1.0  0.3302
  C  C200  1  0.595100  0.380000  0.605700  1.0  0.3319
  C  C201  1  0.412400  0.550000  0.424300  1.0  0.3484
  C  C202  1  0.255000  0.590200  0.756000  1.0  0.347
  C  C203  1  0.497700  0.541700  0.845100  1.0  0.2476
  C  C204  1  0.259500  0.885800  0.710200  1.0  0.2756
  C  C205  1  0.502300  0.458300  0.154900  1.0  0.2473
  C  C206  1  0.292000  0.361400  0.230900  1.0  -0.1198
  C  C207  1  0.644200  0.198000  0.308000  1.0  0.3425
  C  C208  1  0.240300  0.938100  0.322700  1.0  0.2897
  C  C209  1  0.814800  0.411800  0.136900  1.0  -0.0766
  C  C210  1  0.013500  0.977900  0.879300  1.0  0.3326
  C  C211  1  0.852200  0.335200  0.230800  1.0  0.335
  C  C212  1  0.986500  0.477900  0.620700  1.0  0.3333
  C  C213  1  0.259700  0.438100  0.322700  1.0  0.2875
  C  C214  1  0.829500  0.732900  0.244600  1.0  0.3482
  C  C215  1  0.147800  0.835200  0.269200  1.0  0.3338
  C  C216  1  0.185200  0.588200  0.863100  1.0  -0.0742
  C  C217  1  0.046400  0.138100  0.341600  1.0  -0.1001
  C  C218  1  0.708000  0.861400  0.269100  1.0  -0.1174
  C  C219  1  0.232200  0.205300  0.292000  1.0  -0.0938
  C  C220  1  0.412400  0.950000  0.924300  1.0  0.3484
  C  C221  1  0.683000  0.139500  0.327700  1.0  -0.1049
  C  C222  1  0.314800  0.411800  0.363100  1.0  -0.0766
  C  C223  1  0.891500  0.434100  0.412200  1.0  0.3409
  C  C224  1  0.904900  0.620000  0.105700  1.0  0.3347
  C  C225  1  0.735500  0.647800  0.227800  1.0  0.2916
  C  C226  1  0.486500  0.477900  0.879300  1.0  0.3319
  C  C227  1  0.759700  0.061900  0.677300  1.0  0.2877
  C  C228  1  0.240500  0.114200  0.210200  1.0  0.2747
  C  C229  1  0.355800  0.698000  0.192000  1.0  0.3437
  C  C230  1  0.355800  0.802000  0.692000  1.0  0.3422
  C  C231  1  0.505600  0.594100  0.317800  1.0  0.2905
  C  C232  1  0.595100  0.120000  0.105700  1.0  0.3329
  C  C233  1  0.147800  0.664800  0.769200  1.0  0.334
  C  C234  1  0.017900  0.970900  0.648900  1.0  0.276
  C  C235  1  0.536000  0.042400  0.427900  1.0  -0.0852
  C  C236  1  0.814800  0.088200  0.636900  1.0  -0.0746
  C  C237  1  0.099900  0.002400  0.055200  1.0  0.327
  C  C238  1  0.136300  0.861000  0.339700  1.0  0.3296
  C  C239  1  0.486500  0.022100  0.379300  1.0  0.3321
  C  C240  1  0.144200  0.302000  0.692000  1.0  0.343
  C  C241  1  0.002300  0.041700  0.845100  1.0  0.2475
  C  C242  1  0.817000  0.639500  0.327700  1.0  -0.1037
  C  C243  1  0.208000  0.861400  0.230900  1.0  -0.1204
  C  C244  1  0.513500  0.977900  0.620700  1.0  0.3318
  C  C245  1  0.525800  0.490600  0.597500  1.0  -0.0856
  C  C246  1  0.108500  0.565900  0.587800  1.0  0.3397
  C  C247  1  0.095100  0.120000  0.394300  1.0  0.3333
  C  C248  1  0.608500  0.565900  0.912200  1.0  0.3404
  C  C249  1  0.647800  0.664800  0.730800  1.0  0.3341
  C  C250  1  0.136300  0.639000  0.839700  1.0  0.328
  C  C251  1  0.900100  0.997600  0.944800  1.0  0.3273
  C  C252  1  0.025800  0.490600  0.902500  1.0  -0.0861
  C  C253  1  0.505600  0.905900  0.817800  1.0  0.2925
  C  C254  1  0.994400  0.094100  0.317800  1.0  0.2918
  C  C255  1  0.494400  0.405900  0.682200  1.0  0.2899
  C  C256  1  0.740500  0.114200  0.289800  1.0  0.2738
  C  C257  1  0.445600  0.085500  0.636100  1.0  -0.0885
  C  C258  1  0.986500  0.022100  0.120700  1.0  0.3338
  C  C259  1  0.997700  0.541700  0.654900  1.0  0.2484
  C  C260  1  0.259500  0.614200  0.210200  1.0  0.2742
  C  C261  1  0.755000  0.909800  0.244000  1.0  0.3456
  C  C262  1  0.046400  0.361900  0.841600  1.0  -0.1032
  C  C263  1  0.953600  0.861900  0.658400  1.0  -0.1035
  C  C264  1  0.974200  0.990600  0.597500  1.0  -0.0844
  C  C265  1  0.599900  0.497600  0.944800  1.0  0.3271
  C  C266  1  0.855800  0.698000  0.308000  1.0  0.3444
  C  C267  1  0.245000  0.090200  0.756000  1.0  0.3463
  C  C268  1  0.670500  0.232900  0.244600  1.0  0.3481
  C  C269  1  0.891500  0.065900  0.912200  1.0  0.3403
  C  C270  1  0.964000  0.542400  0.427900  1.0  -0.0841
  C  C271  1  0.036000  0.042400  0.072100  1.0  -0.0864
  C  C272  1  0.745000  0.409800  0.244000  1.0  0.3468
  C  C273  1  0.792000  0.361400  0.269100  1.0  -0.1145
  C  C274  1  0.732200  0.294700  0.708000  1.0  -0.0944
  C  C275  1  0.005600  0.905900  0.682200  1.0  0.29
  C  C276  1  0.482100  0.029100  0.148900  1.0  0.2752
  C  C277  1  0.404900  0.620000  0.394300  1.0  0.3349
  C  C278  1  0.314800  0.088200  0.863100  1.0  -0.0759
  C  C279  1  0.474200  0.509400  0.402500  1.0  -0.0856
  C  C280  1  0.464000  0.957600  0.572100  1.0  -0.0857
  C  C281  1  0.087600  0.050000  0.424300  1.0  0.3483
  C  C282  1  0.170500  0.267100  0.755400  1.0  0.3492
  C  C283  1  0.099900  0.497600  0.555200  1.0  0.3269
  C  C284  1  0.391500  0.065900  0.587800  1.0  0.3395
  C  C285  1  0.829500  0.767100  0.744600  1.0  0.3495
  C  C286  1  0.292000  0.138600  0.730900  1.0  -0.1209
  C  C287  1  0.647800  0.835200  0.230800  1.0  0.3343
  C  C288  1  0.108500  0.934100  0.087800  1.0  0.3401
  C  C289  1  0.546400  0.138100  0.158400  1.0  -0.1027
  C  C290  1  0.400100  0.997600  0.555200  1.0  0.3262
  C  C291  1  0.054400  0.914500  0.136100  1.0  -0.0835
  C  C292  1  0.329500  0.732900  0.255400  1.0  0.3482
  C  C293  1  0.636300  0.861000  0.160300  1.0  0.3286
  C  C294  1  0.267800  0.794700  0.792000  1.0  -0.0932
  C  C295  1  0.685200  0.911800  0.136900  1.0  -0.0734
  C  C296  1  0.264500  0.147800  0.272200  1.0  0.2892
  C  C297  1  0.536000  0.457600  0.927900  1.0  -0.0857
  C  C298  1  0.764500  0.147800  0.227800  1.0  0.2918
  C  C299  1  0.245000  0.409800  0.256000  1.0  0.3466
  C  C300  1  0.502300  0.041700  0.654900  1.0  0.2484
  C  C301  1  0.599900  0.002400  0.444800  1.0  0.3272
  C  C302  1  0.912400  0.950000  0.575700  1.0  0.3485
  C  C303  1  0.240300  0.561900  0.822700  1.0  0.2889
  C  C304  1  0.017900  0.529100  0.148900  1.0  0.2753
  C  C305  1  0.912400  0.550000  0.075700  1.0  0.3495
  C  C306  1  0.852200  0.164800  0.730800  1.0  0.3345
  C  C307  1  0.587600  0.450000  0.575700  1.0  0.3478
  C  C308  1  0.513500  0.522100  0.120700  1.0  0.3327
  C  C309  1  0.183000  0.139500  0.172300  1.0  -0.1003
  C  C310  1  0.644200  0.302000  0.808000  1.0  0.3426
  C  C311  1  0.400100  0.502400  0.055200  1.0  0.326
  C  C312  1  0.755000  0.590200  0.744000  1.0  0.3464
  C  C313  1  0.587600  0.050000  0.075700  1.0  0.3485
  C  C314  1  0.497700  0.958300  0.345100  1.0  0.2466
  C  C315  1  0.608500  0.934100  0.412200  1.0  0.3411
  C  C316  1  0.013500  0.522100  0.379300  1.0  0.3331
  C  C317  1  0.482100  0.470900  0.648900  1.0  0.2758
  C  C318  1  0.517900  0.970900  0.851100  1.0  0.2763
  C  C319  1  0.740300  0.938100  0.177300  1.0  0.2898
  C  C320  1  0.404900  0.880000  0.894300  1.0  0.3322
  C  C321  1  0.945600  0.414500  0.363900  1.0  -0.0855
  C  C322  1  0.464000  0.542400  0.072100  1.0  -0.0872
  C  C323  1  0.144200  0.198000  0.192000  1.0  0.343
  C  C324  1  0.240500  0.385800  0.710200  1.0  0.2749
  C  C325  1  0.740300  0.561900  0.677300  1.0  0.2893
  C  C326  1  0.474200  0.990600  0.902500  1.0  -0.0852
  C  C327  1  0.974200  0.509400  0.097500  1.0  -0.0834
  C  C328  1  0.363700  0.139000  0.839700  1.0  0.3302
  O  O329  1  0.151300  0.017600  0.016000  1.0  -0.6116
  O  O330  1  0.633600  0.217600  0.728000  1.0  -0.6054
  O  O331  1  0.348700  0.982400  0.516000  1.0  -0.6135
  O  O332  1  0.368400  0.639500  0.577500  1.0  -0.8998
  O  O333  1  0.050300  0.448990  0.297050  1.0  -0.6499
  O  O334  1  0.399700  0.292300  0.251000  1.0  -0.6451
  O  O335  1  0.651300  0.482400  0.984000  1.0  -0.6128
  O  O336  1  0.833700  0.401400  0.428700  1.0  -0.6225
  O  O337  1  0.312200  0.936340  0.225900  1.0  -0.7821
  O  O338  1  0.666300  0.598600  0.928700  1.0  -0.624
  O  O339  1  0.074800  0.494740  0.174730  1.0  -0.8144
  O  O340  1  0.646100  0.155900  0.081200  1.0  -0.5887
  O  O341  1  0.571800  0.944030  0.642410  1.0  -0.7622
  O  O342  1  0.220300  0.939280  0.698800  1.0  -0.6686
  O  O343  1  0.428200  0.444030  0.857590  1.0  -0.762
  O  O344  1  0.687800  0.436340  0.274100  1.0  -0.783
  O  O345  1  0.133600  0.282400  0.272000  1.0  -0.605
  O  O346  1  0.133600  0.217600  0.772000  1.0  -0.6038
  O  O347  1  0.600300  0.792300  0.249000  1.0  -0.6431
  O  O348  1  0.917000  0.335200  0.129300  1.0  -0.6235
  O  O349  1  0.779700  0.439280  0.801200  1.0  -0.6677
  O  O350  1  0.866400  0.717600  0.728000  1.0  -0.6058
  O  O351  1  0.138500  0.800700  0.954700  1.0  -0.8272
  O  O352  1  0.949700  0.551010  0.702950  1.0  -0.6495
  O  O353  1  0.853900  0.655900  0.081200  1.0  -0.5896
  O  O354  1  0.720300  0.560720  0.301200  1.0  -0.6682
  O  O355  1  0.449700  0.551010  0.797050  1.0  -0.6494
  O  O356  1  0.714900  0.012280  0.663740  1.0  -0.6715
  O  O357  1  0.785100  0.987720  0.163740  1.0  -0.6701
  O  O358  1  0.049800  0.602340  0.233050  1.0  -0.6484
  O  O359  1  0.363500  0.533800  0.464970  1.0  -0.6379
  O  O360  1  0.861500  0.199300  0.045300  1.0  -0.8268
  O  O361  1  0.817500  0.384280  0.695260  1.0  -0.7642
  O  O362  1  0.050300  0.051010  0.797050  1.0  -0.6486
  O  O363  1  0.589000  0.222900  0.337900  1.0  -0.6148
  O  O364  1  0.411000  0.777100  0.662100  1.0  -0.6166
  O  O365  1  0.666300  0.901400  0.428700  1.0  -0.623
  O  O366  1  0.899700  0.207700  0.749000  1.0  -0.6454
  O  O367  1  0.089000  0.277100  0.662100  1.0  -0.6162
  O  O368  1  0.633600  0.282400  0.228000  1.0  -0.6047
  O  O369  1  0.638500  0.800700  0.545300  1.0  -0.8255
  O  O370  1  0.146100  0.344100  0.918800  1.0  -0.5883
  O  O371  1  0.411000  0.722900  0.162100  1.0  -0.6158
  O  O372  1  0.863500  0.966200  0.535030  1.0  -0.6387
  O  O373  1  0.131600  0.360500  0.077500  1.0  -0.8997
  O  O374  1  0.917000  0.164800  0.629300  1.0  -0.6238
  O  O375  1  0.950200  0.397660  0.766950  1.0  -0.6488
  O  O376  1  0.366400  0.782400  0.272000  1.0  -0.6053
  O  O377  1  0.812200  0.936340  0.274100  1.0  -0.7859
  O  O378  1  0.549800  0.602340  0.266950  1.0  -0.6492
  O  O379  1  0.146100  0.155900  0.418800  1.0  -0.5885
  O  O380  1  0.574800  0.494740  0.325270  1.0  -0.814
  O  O381  1  0.071800  0.944030  0.857590  1.0  -0.7617
  O  O382  1  0.425200  0.505260  0.674730  1.0  -0.8133
  O  O383  1  0.136500  0.033800  0.464970  1.0  -0.6388
  O  O384  1  0.214900  0.012280  0.836260  1.0  -0.6709
  O  O385  1  0.417000  0.164800  0.870700  1.0  -0.6235
  O  O386  1  0.361500  0.199300  0.454700  1.0  -0.8289
  O  O387  1  0.285100  0.512280  0.836260  1.0  -0.6699
  O  O388  1  0.312200  0.563660  0.725900  1.0  -0.7825
  O  O389  1  0.646100  0.344100  0.581200  1.0  -0.5911
  O  O390  1  0.182500  0.615720  0.304740  1.0  -0.7627
  O  O391  1  0.151300  0.482400  0.516000  1.0  -0.6137
  O  O392  1  0.853900  0.844100  0.581200  1.0  -0.5901
  O  O393  1  0.631600  0.360500  0.422500  1.0  -0.9006
  O  O394  1  0.100300  0.707700  0.751000  1.0  -0.6447
  O  O395  1  0.911000  0.722900  0.337900  1.0  -0.6145
  O  O396  1  0.779700  0.060720  0.301200  1.0  -0.6673
  O  O397  1  0.399700  0.207700  0.751000  1.0  -0.6444
  O  O398  1  0.636500  0.033800  0.035030  1.0  -0.6403
  O  O399  1  0.928200  0.444030  0.642410  1.0  -0.7625
  O  O400  1  0.333700  0.098600  0.571300  1.0  -0.623
  O  O401  1  0.868400  0.639500  0.922500  1.0  -0.9012
  O  O402  1  0.600300  0.707700  0.749000  1.0  -0.6453
  O  O403  1  0.131600  0.139500  0.577500  1.0  -0.9004
  O  O404  1  0.317500  0.384280  0.804740  1.0  -0.7646
  O  O405  1  0.279700  0.060720  0.198800  1.0  -0.6687
  O  O406  1  0.450200  0.102340  0.233050  1.0  -0.6485
  O  O407  1  0.687800  0.063660  0.774100  1.0  -0.7821
  O  O408  1  0.571800  0.555970  0.142410  1.0  -0.7622
  O  O409  1  0.450200  0.397660  0.733050  1.0  -0.6476
  O  O410  1  0.417000  0.335200  0.370700  1.0  -0.6204
  O  O411  1  0.651300  0.017600  0.484000  1.0  -0.6168
  O  O412  1  0.049800  0.897660  0.733050  1.0  -0.6479
  O  O413  1  0.863500  0.533800  0.035030  1.0  -0.6385
  O  O414  1  0.720300  0.939280  0.801200  1.0  -0.6686
  O  O415  1  0.333700  0.401400  0.071300  1.0  -0.6232
  O  O416  1  0.848700  0.517600  0.484000  1.0  -0.6142
  O  O417  1  0.911000  0.777100  0.837900  1.0  -0.6148
  O  O418  1  0.949700  0.948990  0.202950  1.0  -0.6495
  O  O419  1  0.071800  0.555970  0.357590  1.0  -0.7623
  O  O420  1  0.866400  0.782400  0.228000  1.0  -0.6051
  O  O421  1  0.428200  0.055970  0.357590  1.0  -0.762
  O  O422  1  0.089000  0.222900  0.162100  1.0  -0.6152
  O  O423  1  0.353900  0.844100  0.918800  1.0  -0.5908
  O  O424  1  0.714900  0.487720  0.163740  1.0  -0.6712
  O  O425  1  0.348700  0.517600  0.016000  1.0  -0.6111
  O  O426  1  0.138500  0.699300  0.454700  1.0  -0.8266
  O  O427  1  0.136500  0.466200  0.964970  1.0  -0.6398
  O  O428  1  0.214900  0.487720  0.336260  1.0  -0.67
  O  O429  1  0.361500  0.300700  0.954700  1.0  -0.8288
  O  O430  1  0.187800  0.063660  0.725900  1.0  -0.7819
  O  O431  1  0.589000  0.277100  0.837900  1.0  -0.615
  O  O432  1  0.861500  0.300700  0.545300  1.0  -0.8263
  O  O433  1  0.363500  0.966200  0.964970  1.0  -0.6391
  O  O434  1  0.285100  0.987720  0.336260  1.0  -0.6688
  O  O435  1  0.449700  0.948990  0.297050  1.0  -0.6504
  O  O436  1  0.682500  0.615720  0.195260  1.0  -0.7629
  O  O437  1  0.785100  0.512280  0.663740  1.0  -0.6706
  O  O438  1  0.182500  0.884280  0.804740  1.0  -0.7623
  O  O439  1  0.638500  0.699300  0.045300  1.0  -0.8255
  O  O440  1  0.636500  0.466200  0.535030  1.0  -0.6406
  O  O441  1  0.550300  0.051010  0.702950  1.0  -0.6493
  O  O442  1  0.550300  0.448990  0.202950  1.0  -0.6495
  O  O443  1  0.549800  0.897660  0.766950  1.0  -0.6487
  O  O444  1  0.928200  0.055970  0.142410  1.0  -0.7623
  O  O445  1  0.353900  0.655900  0.418800  1.0  -0.59
  O  O446  1  0.848700  0.982400  0.984000  1.0  -0.6142
  O  O447  1  0.833700  0.098600  0.928700  1.0  -0.6236
  O  O448  1  0.925200  0.994740  0.325270  1.0  -0.8137
  O  O449  1  0.317500  0.115720  0.304740  1.0  -0.7644
  O  O450  1  0.279700  0.439280  0.698800  1.0  -0.6676
  O  O451  1  0.899700  0.292300  0.249000  1.0  -0.6438
  O  O452  1  0.220300  0.560720  0.198800  1.0  -0.6699
  O  O453  1  0.187800  0.436340  0.225900  1.0  -0.7823
  O  O454  1  0.817500  0.115720  0.195260  1.0  -0.7646
  O  O455  1  0.682500  0.884280  0.695260  1.0  -0.762
  O  O456  1  0.166300  0.901400  0.071300  1.0  -0.6236
  O  O457  1  0.925200  0.505260  0.825270  1.0  -0.8133
  O  O458  1  0.074800  0.005260  0.674730  1.0  -0.8142
  O  O459  1  0.631600  0.139500  0.922500  1.0  -0.9002
  O  O460  1  0.366400  0.717600  0.772000  1.0  -0.6046
  O  O461  1  0.812200  0.563660  0.774100  1.0  -0.7855
  O  O462  1  0.100300  0.792300  0.251000  1.0  -0.6448
  O  O463  1  0.583000  0.664800  0.629300  1.0  -0.6213
  O  O464  1  0.166300  0.598600  0.571300  1.0  -0.6234
  O  O465  1  0.083000  0.835200  0.370700  1.0  -0.6211
  O  O466  1  0.083000  0.664800  0.870700  1.0  -0.6222
  O  O467  1  0.868400  0.860500  0.422500  1.0  -0.9009
  O  O468  1  0.950200  0.102340  0.266950  1.0  -0.6498
  O  O469  1  0.368400  0.860500  0.077500  1.0  -0.8998
  O  O470  1  0.574800  0.005260  0.825270  1.0  -0.8141
  O  O471  1  0.583000  0.835200  0.129300  1.0  -0.6217
  O  O472  1  0.425200  0.994740  0.174730  1.0  -0.8137
