# generated using pymatgen
data_NaCuH12(C3O)8
_symmetry_space_group_name_H-M   'P 1'
_cell_length_a   10.66420000
_cell_length_b   10.66420000
_cell_length_c   23.99800000
_cell_angle_alpha   90.00000000
_cell_angle_beta   90.00000000
_cell_angle_gamma   90.00000000
_symmetry_Int_Tables_number   1
_chemical_formula_structural   NaCuH12(C3O)8
_chemical_formula_sum   'Na4 Cu4 H48 C96 O32'
_cell_volume   2729.17642904
_cell_formula_units_Z   4
loop_
 _symmetry_equiv_pos_site_id
 _symmetry_equiv_pos_as_xyz
  1  'x, y, z'
loop_
 _atom_site_type_symbol
 _atom_site_label
 _atom_site_symmetry_multiplicity
 _atom_site_fract_x
 _atom_site_fract_y
 _atom_site_fract_z
 _atom_site_occupancy
 _atom_site_charge
  Na  Na1  1  0.632000  0.509010  0.484970  1.0  0.9968
  Na  Na2  1  0.509010  0.368000  0.734970  1.0  0.9998
  Na  Na3  1  0.490990  0.632000  0.234970  1.0  0.9997
  Na  Na4  1  0.368000  0.490990  0.984970  1.0  0.9981
  Cu  Cu5  1  0.351580  0.390910  0.851360  1.0  1.0559
  Cu  Cu6  1  0.648420  0.609090  0.351360  1.0  1.0547
  Cu  Cu7  1  0.609090  0.351580  0.601360  1.0  1.0558
  Cu  Cu8  1  0.390910  0.648420  0.101360  1.0  1.055
  H  H9  1  0.954700  0.108400  0.044500  1.0  0.1319
  H  H10  1  0.501600  0.038800  0.089700  1.0  0.1113
  H  H11  1  0.038800  0.498400  0.339700  1.0  0.1114
  H  H12  1  0.133400  0.099400  0.862100  1.0  0.1153
  H  H13  1  0.900600  0.133400  0.612100  1.0  0.1156
  H  H14  1  0.160800  0.668200  0.871800  1.0  0.1102
  H  H15  1  0.232200  0.933800  0.234900  1.0  0.1219
  H  H16  1  0.474200  0.782000  0.748000  1.0  0.1101
  H  H17  1  0.218000  0.474200  0.498000  1.0  0.11
  H  H18  1  0.001200  0.464100  0.494400  1.0  0.1053
  H  H19  1  0.745700  0.490100  0.835000  1.0  0.1104
  H  H20  1  0.891600  0.954700  0.794500  1.0  0.1318
  H  H21  1  0.099400  0.866600  0.112100  1.0  0.1155
  H  H22  1  0.066200  0.232200  0.984900  1.0  0.1232
  H  H23  1  0.933800  0.767800  0.484900  1.0  0.1225
  H  H24  1  0.998800  0.535900  0.994400  1.0  0.1055
  H  H25  1  0.105400  0.259800  0.289900  1.0  0.1066
  H  H26  1  0.778600  0.633000  0.727900  1.0  0.1176
  H  H27  1  0.498400  0.961200  0.589700  1.0  0.1113
  H  H28  1  0.331800  0.160800  0.621800  1.0  0.1123
  H  H29  1  0.740200  0.105400  0.039900  1.0  0.1063
  H  H30  1  0.108400  0.045300  0.294500  1.0  0.1318
  H  H31  1  0.254300  0.509900  0.335000  1.0  0.1105
  H  H32  1  0.992000  0.228300  0.419000  1.0  0.1231
  H  H33  1  0.367000  0.778600  0.477900  1.0  0.12
  H  H34  1  0.668200  0.839200  0.121800  1.0  0.1131
  H  H35  1  0.894600  0.740200  0.789900  1.0  0.1067
  H  H36  1  0.771700  0.992000  0.169000  1.0  0.1242
  H  H37  1  0.011800  0.988300  0.660800  1.0  0.1269
  H  H38  1  0.988200  0.011700  0.160800  1.0  0.1266
  H  H39  1  0.839200  0.331800  0.371800  1.0  0.1099
  H  H40  1  0.509900  0.745700  0.585000  1.0  0.1108
  H  H41  1  0.045300  0.891600  0.544500  1.0  0.1318
  H  H42  1  0.464100  0.998800  0.744400  1.0  0.1053
  H  H43  1  0.490100  0.254300  0.085000  1.0  0.1106
  H  H44  1  0.535900  0.001200  0.244400  1.0  0.1054
  H  H45  1  0.008000  0.771700  0.919000  1.0  0.1235
  H  H46  1  0.525800  0.218000  0.248000  1.0  0.1101
  H  H47  1  0.961200  0.501600  0.839700  1.0  0.1113
  H  H48  1  0.259800  0.894600  0.539900  1.0  0.1064
  H  H49  1  0.633000  0.221400  0.977900  1.0  0.1201
  H  H50  1  0.866600  0.900600  0.362100  1.0  0.1135
  H  H51  1  0.767800  0.066200  0.734900  1.0  0.1222
  H  H52  1  0.228300  0.008000  0.669000  1.0  0.1239
  H  H53  1  0.011700  0.011800  0.410800  1.0  0.1272
  H  H54  1  0.988300  0.988200  0.910800  1.0  0.1263
  H  H55  1  0.782000  0.525800  0.998000  1.0  0.1108
  H  H56  1  0.221400  0.367000  0.227900  1.0  0.1183
  C  C57  1  0.842600  0.913300  0.768200  1.0  -0.0829
  C  C58  1  0.390400  0.874300  0.151400  1.0  0.6906
  C  C59  1  0.819800  0.754000  0.085900  1.0  0.0758
  C  C60  1  0.450500  0.081600  0.114600  1.0  -0.1027
  C  C61  1  0.946300  0.053300  0.393000  1.0  -0.1335
  C  C62  1  0.918400  0.450500  0.864600  1.0  -0.1037
  C  C63  1  0.212300  0.555800  0.362100  1.0  -0.0864
  C  C64  1  0.816500  0.935700  0.147000  1.0  -0.0965
  C  C65  1  0.952500  0.763300  0.082970  1.0  0.0788
  C  C66  1  0.064300  0.816500  0.897000  1.0  -0.0958
  C  C67  1  0.324100  0.020900  0.799300  1.0  -0.1263
  C  C68  1  0.755100  0.843800  0.119200  1.0  -0.1093
  C  C69  1  0.409800  0.955300  0.767800  1.0  -0.0443
  C  C70  1  0.861000  0.987700  0.363000  1.0  -0.0969
  C  C71  1  0.695400  0.918300  0.692100  1.0  0.036
  C  C72  1  0.242500  0.340100  0.555000  1.0  -0.0858
  C  C73  1  0.304600  0.081700  0.192100  1.0  0.0352
  C  C74  1  0.044700  0.409800  0.517800  1.0  -0.0491
  C  C75  1  0.783100  0.301800  0.939300  1.0  0.0319
  C  C76  1  0.224600  0.279800  0.228100  1.0  -0.1066
  C  C77  1  0.279800  0.775400  0.478100  1.0  -0.1044
  C  C78  1  0.843800  0.244900  0.369200  1.0  -0.1072
  C  C79  1  0.824200  0.583400  0.020300  1.0  -0.0428
  C  C80  1  0.639100  0.384900  0.310300  1.0  0.6795
  C  C81  1  0.754000  0.180200  0.335900  1.0  0.0773
  C  C82  1  0.246000  0.819800  0.835900  1.0  0.0771
  C  C83  1  0.627700  0.720000  0.648300  1.0  -0.1149
  C  C84  1  0.384900  0.360900  0.560300  1.0  0.6821
  C  C85  1  0.987700  0.139000  0.613000  1.0  -0.0987
  C  C86  1  0.617400  0.984800  0.653400  1.0  -0.0915
  C  C87  1  0.784400  0.155900  0.015200  1.0  -0.0997
  C  C88  1  0.081600  0.549500  0.364600  1.0  -0.1046
  C  C89  1  0.757500  0.659900  0.055000  1.0  -0.0855
  C  C90  1  0.236700  0.952500  0.832970  1.0  0.0784
  C  C91  1  0.301800  0.216900  0.189300  1.0  0.0286
  C  C92  1  0.053700  0.946700  0.893000  1.0  -0.1349
  C  C93  1  0.139000  0.012300  0.863000  1.0  -0.0998
  C  C94  1  0.216900  0.698200  0.439300  1.0  0.0337
  C  C95  1  0.946700  0.946300  0.143000  1.0  -0.136
  C  C96  1  0.125700  0.390400  0.901400  1.0  0.6879
  C  C97  1  0.775400  0.720200  0.728100  1.0  -0.1064
  C  C98  1  0.244900  0.156200  0.619200  1.0  -0.1084
  C  C99  1  0.837500  0.336300  0.549500  1.0  0.7039
  C  C100  1  0.675900  0.979100  0.299300  1.0  -0.1261
  C  C101  1  0.555800  0.787700  0.612100  1.0  -0.0791
  C  C102  1  0.615100  0.639100  0.060300  1.0  0.6777
  C  C103  1  0.955300  0.590200  0.017800  1.0  -0.0472
  C  C104  1  0.663700  0.837500  0.299500  1.0  0.7082
  C  C105  1  0.020900  0.675900  0.049300  1.0  -0.1267
  C  C106  1  0.844100  0.784400  0.765200  1.0  -0.0985
  C  C107  1  0.015200  0.617400  0.403400  1.0  -0.0904
  C  C108  1  0.416600  0.824200  0.770300  1.0  -0.0416
  C  C109  1  0.230600  0.020800  0.232600  1.0  -0.0865
  C  C110  1  0.382600  0.015200  0.153400  1.0  -0.0917
  C  C111  1  0.373400  0.421100  0.142100  1.0  0.7061
  C  C112  1  0.215600  0.844100  0.515200  1.0  -0.0994
  C  C113  1  0.360900  0.615100  0.810300  1.0  0.6807
  C  C114  1  0.372300  0.280000  0.148300  1.0  -0.1135
  C  C115  1  0.874300  0.609600  0.401400  1.0  0.688
  C  C116  1  0.590200  0.044700  0.267800  1.0  -0.0481
  C  C117  1  0.979100  0.324100  0.549300  1.0  -0.1267
  C  C118  1  0.698200  0.783100  0.689300  1.0  0.0289
  C  C119  1  0.162500  0.663700  0.049500  1.0  0.7051
  C  C120  1  0.336300  0.162500  0.799500  1.0  0.7077
  C  C121  1  0.020800  0.769400  0.482600  1.0  -0.0872
  C  C122  1  0.984800  0.382600  0.903400  1.0  -0.0919
  C  C123  1  0.720000  0.372300  0.898300  1.0  -0.1153
  C  C124  1  0.918300  0.304600  0.942100  1.0  0.0366
  C  C125  1  0.012300  0.861000  0.113000  1.0  -0.0978
  C  C126  1  0.183500  0.064300  0.647000  1.0  -0.0953
  C  C127  1  0.979200  0.230600  0.982600  1.0  -0.087
  C  C128  1  0.155900  0.215600  0.265200  1.0  -0.0993
  C  C129  1  0.935700  0.183500  0.397000  1.0  -0.0956
  C  C130  1  0.081700  0.695400  0.442100  1.0  0.0358
  C  C131  1  0.156200  0.755100  0.869200  1.0  -0.1077
  C  C132  1  0.086700  0.842600  0.518200  1.0  -0.0846
  C  C133  1  0.549500  0.918400  0.614600  1.0  -0.1024
  C  C134  1  0.720200  0.224600  0.978100  1.0  -0.1069
  C  C135  1  0.280000  0.627700  0.398300  1.0  -0.1135
  C  C136  1  0.047500  0.236700  0.582970  1.0  0.0794
  C  C137  1  0.763300  0.047500  0.332970  1.0  0.0788
  C  C138  1  0.053300  0.053700  0.643000  1.0  -0.1335
  C  C139  1  0.769400  0.979200  0.732600  1.0  -0.0864
  C  C140  1  0.609600  0.125700  0.651400  1.0  0.6906
  C  C141  1  0.583400  0.175800  0.270300  1.0  -0.0422
  C  C142  1  0.578900  0.373400  0.892100  1.0  0.7088
  C  C143  1  0.175800  0.416600  0.520300  1.0  -0.0459
  C  C144  1  0.340100  0.757500  0.805000  1.0  -0.086
  C  C145  1  0.157400  0.086700  0.268200  1.0  -0.0835
  C  C146  1  0.913300  0.157400  0.018200  1.0  -0.0844
  C  C147  1  0.787700  0.444200  0.862100  1.0  -0.0851
  C  C148  1  0.180200  0.246000  0.585900  1.0  0.0742
  C  C149  1  0.659900  0.242500  0.305000  1.0  -0.0869
  C  C150  1  0.626600  0.578900  0.642100  1.0  0.7101
  C  C151  1  0.421100  0.626600  0.392100  1.0  0.7097
  C  C152  1  0.444200  0.212300  0.112100  1.0  -0.083
  O  O153  1  0.592400  0.170300  0.602810  1.0  -0.5735
  O  O154  1  0.407600  0.829700  0.102810  1.0  -0.5728
  O  O155  1  0.629200  0.449100  0.267340  1.0  -0.6669
  O  O156  1  0.170300  0.407600  0.852810  1.0  -0.5734
  O  O157  1  0.449100  0.370800  0.517340  1.0  -0.664
  O  O158  1  0.329200  0.211600  0.847430  1.0  -0.5656
  O  O159  1  0.633400  0.427400  0.359250  1.0  -0.6045
  O  O160  1  0.220300  0.646200  0.005900  1.0  -0.5971
  O  O161  1  0.211600  0.670800  0.097430  1.0  -0.5653
  O  O162  1  0.829700  0.592400  0.352810  1.0  -0.5732
  O  O163  1  0.366600  0.572600  0.859250  1.0  -0.6048
  O  O164  1  0.489300  0.624800  0.434360  1.0  -0.6713
  O  O165  1  0.374200  0.464200  0.092540  1.0  -0.6482
  O  O166  1  0.779700  0.353800  0.505900  1.0  -0.5991
  O  O167  1  0.625800  0.535800  0.592540  1.0  -0.6478
  O  O168  1  0.510700  0.375200  0.934360  1.0  -0.6717
  O  O169  1  0.535800  0.374200  0.842540  1.0  -0.6465
  O  O170  1  0.375200  0.489300  0.184360  1.0  -0.6734
  O  O171  1  0.427400  0.366600  0.609250  1.0  -0.6042
  O  O172  1  0.646200  0.779700  0.255900  1.0  -0.5985
  O  O173  1  0.809200  0.617700  0.443900  1.0  -0.6187
  O  O174  1  0.382300  0.809200  0.193900  1.0  -0.6197
  O  O175  1  0.670800  0.788400  0.347430  1.0  -0.5659
  O  O176  1  0.370800  0.550900  0.767340  1.0  -0.6677
  O  O177  1  0.572600  0.633400  0.109250  1.0  -0.6037
  O  O178  1  0.353800  0.220300  0.755900  1.0  -0.5985
  O  O179  1  0.190800  0.382300  0.943900  1.0  -0.6178
  O  O180  1  0.550900  0.629200  0.017340  1.0  -0.6648
  O  O181  1  0.617700  0.190800  0.693900  1.0  -0.6197
  O  O182  1  0.788400  0.329200  0.597430  1.0  -0.5654
  O  O183  1  0.464200  0.625800  0.342540  1.0  -0.6474
  O  O184  1  0.624800  0.510700  0.684360  1.0  -0.6728
