# generated using pymatgen
data_CdH10(C3O)6
_symmetry_space_group_name_H-M   'P 1'
_cell_length_a   15.87000000
_cell_length_b   19.22000000
_cell_length_c   20.43300000
_cell_angle_alpha   90.00000000
_cell_angle_beta   90.00000000
_cell_angle_gamma   98.40900000
_symmetry_Int_Tables_number   1
_chemical_formula_structural   CdH10(C3O)6
_chemical_formula_sum   'Cd12 H120 C216 O72'
_cell_volume   6165.49896585
_cell_formula_units_Z   12
loop_
 _symmetry_equiv_pos_site_id
 _symmetry_equiv_pos_as_xyz
  1  'x, y, z'
loop_
 _atom_site_type_symbol
 _atom_site_label
 _atom_site_symmetry_multiplicity
 _atom_site_fract_x
 _atom_site_fract_y
 _atom_site_fract_z
 _atom_site_occupancy
 _atom_site_charge
  Cd  Cd1  1  0.444200  0.551350  0.222290  1.0  1.0837
  Cd  Cd2  1  0.465280  0.097590  0.792370  1.0  1.0749
  Cd  Cd3  1  0.555800  0.948650  0.722290  1.0  1.0849
  Cd  Cd4  1  0.491820  0.728050  0.267450  1.0  1.115
  Cd  Cd5  1  0.444200  0.051350  0.277710  1.0  1.0823
  Cd  Cd6  1  0.465280  0.597590  0.707630  1.0  1.073
  Cd  Cd7  1  0.534720  0.402410  0.292370  1.0  1.0764
  Cd  Cd8  1  0.534720  0.902410  0.207630  1.0  1.0747
  Cd  Cd9  1  0.508180  0.271950  0.732550  1.0  1.1177
  Cd  Cd10  1  0.555800  0.448650  0.777710  1.0  1.0834
  Cd  Cd11  1  0.491820  0.228050  0.232550  1.0  1.1178
  Cd  Cd12  1  0.508180  0.771950  0.767450  1.0  1.1173
  H  H13  1  0.302000  0.987800  0.863700  1.0  0.1054
  H  H14  1  0.987500  0.395200  0.370300  1.0  0.1327
  H  H15  1  0.675800  0.300200  0.559100  1.0  0.1071
  H  H16  1  0.217700  0.183200  0.979500  1.0  0.1182
  H  H17  1  0.171100  0.255400  0.662200  1.0  0.1281
  H  H18  1  0.286700  0.453800  0.164300  1.0  0.104
  H  H19  1  0.372000  0.776000  0.132300  1.0  0.1149
  H  H20  1  0.275200  0.355600  0.379800  1.0  0.1305
  H  H21  1  0.909200  0.755600  0.155100  1.0  0.108
  H  H22  1  0.012500  0.104800  0.870300  1.0  0.1328
  H  H23  1  0.746200  0.497000  0.621900  1.0  0.1232
  H  H24  1  0.984200  0.421000  0.887800  1.0  0.1344
  H  H25  1  0.698000  0.512200  0.363700  1.0  0.1049
  H  H26  1  0.169600  0.449200  0.587700  1.0  0.1012
  H  H27  1  0.152700  0.310800  0.484000  1.0  0.1207
  H  H28  1  0.746200  0.997000  0.878100  1.0  0.1233
  H  H29  1  0.839000  0.571300  0.894800  1.0  0.1215
  H  H30  1  0.253800  0.003000  0.121900  1.0  0.1231
  H  H31  1  0.171100  0.755400  0.837800  1.0  0.1277
  H  H32  1  0.090800  0.244400  0.844900  1.0  0.1088
  H  H33  1  0.847300  0.189200  0.984000  1.0  0.1214
  H  H34  1  0.150400  0.487900  0.456400  1.0  0.0761
  H  H35  1  0.146400  0.818100  0.516600  1.0  0.1093
  H  H36  1  0.853600  0.181900  0.483400  1.0  0.1089
  H  H37  1  0.286700  0.953800  0.335700  1.0  0.1023
  H  H38  1  0.987500  0.895200  0.129700  1.0  0.1342
  H  H39  1  0.215100  0.188300  0.489200  1.0  0.1109
  H  H40  1  0.275200  0.855600  0.120200  1.0  0.1303
  H  H41  1  0.815200  0.837500  0.167700  1.0  0.1332
  H  H42  1  0.849600  0.512100  0.543600  1.0  0.0768
  H  H43  1  0.305500  0.293200  0.706000  1.0  0.0869
  H  H44  1  0.184800  0.662500  0.667700  1.0  0.134
  H  H45  1  0.044800  0.113500  0.066600  1.0  0.1343
  H  H46  1  0.915000  0.796800  0.663200  1.0  0.1085
  H  H47  1  0.377600  0.322600  0.850600  1.0  0.1105
  H  H48  1  0.830400  0.050800  0.087700  1.0  0.1012
  H  H49  1  0.675300  0.278600  0.063400  1.0  0.1007
  H  H50  1  0.828900  0.744600  0.337800  1.0  0.1275
  H  H51  1  0.675800  0.800200  0.940900  1.0  0.1075
  H  H52  1  0.184800  0.162500  0.832300  1.0  0.1336
  H  H53  1  0.815200  0.337500  0.332300  1.0  0.1329
  H  H54  1  0.941200  0.367300  0.077100  1.0  0.1338
  H  H55  1  0.955200  0.386500  0.566600  1.0  0.1341
  H  H56  1  0.178900  0.994900  0.567400  1.0  0.1025
  H  H57  1  0.622400  0.177400  0.350600  1.0  0.1118
  H  H58  1  0.149700  0.722000  0.343300  1.0  0.137
  H  H59  1  0.282200  0.397900  0.872700  1.0  0.1128
  H  H60  1  0.984200  0.921000  0.612200  1.0  0.1351
  H  H61  1  0.698000  0.012200  0.136300  1.0  0.1051
  H  H62  1  0.717800  0.102100  0.372700  1.0  0.1129
  H  H63  1  0.178900  0.494900  0.932600  1.0  0.1028
  H  H64  1  0.290500  0.028000  0.636400  1.0  0.0933
  H  H65  1  0.717800  0.602100  0.127300  1.0  0.1127
  H  H66  1  0.177800  0.123200  0.329600  1.0  0.1301
  H  H67  1  0.722600  0.249300  0.710900  1.0  0.0876
  H  H68  1  0.372000  0.276000  0.367700  1.0  0.1145
  H  H69  1  0.152700  0.810800  0.016000  1.0  0.1208
  H  H70  1  0.282200  0.897900  0.627300  1.0  0.113
  H  H71  1  0.822200  0.876800  0.670400  1.0  0.1282
  H  H72  1  0.628000  0.224000  0.867700  1.0  0.1152
  H  H73  1  0.694500  0.706800  0.294000  1.0  0.0863
  H  H74  1  0.217700  0.683200  0.520500  1.0  0.1178
  H  H75  1  0.955200  0.886500  0.933400  1.0  0.1346
  H  H76  1  0.085000  0.703200  0.163200  1.0  0.1093
  H  H77  1  0.709500  0.972000  0.363600  1.0  0.0951
  H  H78  1  0.377600  0.822600  0.649400  1.0  0.1111
  H  H79  1  0.853600  0.681900  0.016600  1.0  0.1088
  H  H80  1  0.784900  0.311700  0.989200  1.0  0.111
  H  H81  1  0.146400  0.318100  0.983400  1.0  0.1093
  H  H82  1  0.302000  0.487800  0.636300  1.0  0.106
  H  H83  1  0.085000  0.203200  0.336800  1.0  0.1091
  H  H84  1  0.722600  0.749300  0.789100  1.0  0.088
  H  H85  1  0.044800  0.613500  0.433400  1.0  0.1345
  H  H86  1  0.822200  0.376800  0.829600  1.0  0.1296
  H  H87  1  0.847300  0.689200  0.516000  1.0  0.1211
  H  H88  1  0.012500  0.604800  0.629700  1.0  0.134
  H  H89  1  0.628000  0.724000  0.632300  1.0  0.1166
  H  H90  1  0.782300  0.316800  0.479500  1.0  0.1176
  H  H91  1  0.169600  0.949200  0.912300  1.0  0.1008
  H  H92  1  0.830400  0.550800  0.412300  1.0  0.1009
  H  H93  1  0.622400  0.677400  0.149400  1.0  0.112
  H  H94  1  0.305500  0.793200  0.794000  1.0  0.0866
  H  H95  1  0.675300  0.778600  0.436600  1.0  0.1011
  H  H96  1  0.253800  0.503000  0.378100  1.0  0.123
  H  H97  1  0.694500  0.206800  0.206000  1.0  0.0867
  H  H98  1  0.324200  0.199800  0.059100  1.0  0.1074
  H  H99  1  0.821100  0.005100  0.432600  1.0  0.1039
  H  H100  1  0.161000  0.928700  0.394800  1.0  0.1216
  H  H101  1  0.909200  0.255600  0.344900  1.0  0.1083
  H  H102  1  0.941200  0.867300  0.422900  1.0  0.1338
  H  H103  1  0.782300  0.816800  0.020500  1.0  0.1171
  H  H104  1  0.277400  0.250700  0.210900  1.0  0.0858
  H  H105  1  0.277400  0.750700  0.289100  1.0  0.088
  H  H106  1  0.713300  0.546200  0.835700  1.0  0.102
  H  H107  1  0.161000  0.428700  0.105200  1.0  0.1217
  H  H108  1  0.850300  0.778000  0.843300  1.0  0.1371
  H  H109  1  0.324700  0.221400  0.563400  1.0  0.1013
  H  H110  1  0.724800  0.644400  0.620200  1.0  0.13
  H  H111  1  0.290500  0.528000  0.863600  1.0  0.095
  H  H112  1  0.709500  0.472000  0.136400  1.0  0.0934
  H  H113  1  0.090800  0.744400  0.655100  1.0  0.108
  H  H114  1  0.058800  0.132700  0.577100  1.0  0.1343
  H  H115  1  0.821100  0.505100  0.067400  1.0  0.1037
  H  H116  1  0.784900  0.811700  0.510800  1.0  0.1113
  H  H117  1  0.015800  0.579000  0.112200  1.0  0.135
  H  H118  1  0.713300  0.046200  0.664300  1.0  0.1022
  H  H119  1  0.177800  0.623200  0.170400  1.0  0.1306
  H  H120  1  0.724800  0.144400  0.879800  1.0  0.1308
  H  H121  1  0.839000  0.071300  0.605200  1.0  0.1216
  H  H122  1  0.850300  0.278000  0.656700  1.0  0.1368
  H  H123  1  0.324200  0.699800  0.440900  1.0  0.1073
  H  H124  1  0.058800  0.632700  0.922900  1.0  0.1341
  H  H125  1  0.915000  0.296800  0.836800  1.0  0.1085
  H  H126  1  0.015800  0.079000  0.387800  1.0  0.1343
  H  H127  1  0.149700  0.222000  0.156700  1.0  0.1373
  H  H128  1  0.150400  0.987900  0.043600  1.0  0.0764
  H  H129  1  0.828900  0.244600  0.162200  1.0  0.1275
  H  H130  1  0.324700  0.721400  0.936600  1.0  0.1013
  H  H131  1  0.215100  0.688300  0.010800  1.0  0.1111
  H  H132  1  0.849600  0.012100  0.956400  1.0  0.0762
  C  C133  1  0.318000  0.628600  0.891300  1.0  -0.1464
  C  C134  1  0.706000  0.646000  0.806500  1.0  -0.1218
  C  C135  1  0.376400  0.869100  0.270900  1.0  0.6755
  C  C136  1  0.048300  0.837800  0.462600  1.0  0.3027
  C  C137  1  0.317600  0.394500  0.676400  1.0  -0.0971
  C  C138  1  0.274300  0.061000  0.607500  1.0  -0.0228
  C  C139  1  0.711600  0.342900  0.556300  1.0  -0.022
  C  C140  1  0.184600  0.585500  0.978300  1.0  0.3016
  C  C141  1  0.815400  0.414500  0.021700  1.0  0.3008
  C  C142  1  0.704400  0.324200  0.064100  1.0  0.0036
  C  C143  1  0.855200  0.177400  0.624900  1.0  0.1886
  C  C144  1  0.256600  0.808800  0.131000  1.0  -0.1828
  C  C145  1  0.056900  0.343700  0.532800  1.0  0.3036
  C  C146  1  0.288400  0.157100  0.056300  1.0  -0.022
  C  C147  1  0.262500  0.350900  0.863600  1.0  -0.1995
  C  C148  1  0.826100  0.918500  0.995000  1.0  0.2736
  C  C149  1  0.598800  0.081600  0.207900  1.0  0.521
  C  C150  1  0.295600  0.175800  0.564100  1.0  0.0023
  C  C151  1  0.256600  0.308800  0.369000  1.0  -0.1829
  C  C152  1  0.246600  0.039800  0.093800  1.0  -0.0954
  C  C153  1  0.015100  0.123300  0.029300  1.0  -0.1403
  C  C154  1  0.999800  0.399700  0.926000  1.0  -0.1584
  C  C155  1  0.253000  0.285900  0.190100  1.0  -0.0212
  C  C156  1  0.927500  0.130700  0.428300  1.0  0.3288
  C  C157  1  0.903200  0.161500  0.483100  1.0  -0.1531
  C  C158  1  0.959200  0.394700  0.466500  1.0  0.2803
  C  C159  1  0.225400  0.647300  0.491600  1.0  -0.182
  C  C160  1  0.655600  0.860800  0.668000  1.0  0.6653
  C  C161  1  0.144800  0.322600  0.124900  1.0  0.1892
  C  C162  1  0.015100  0.623300  0.470700  1.0  -0.1402
  C  C163  1  0.177700  0.268000  0.157400  1.0  -0.1951
  C  C164  1  0.185400  0.031000  0.046700  1.0  -0.1883
  C  C165  1  0.715200  0.807500  0.654000  1.0  -0.1316
  C  C166  1  0.795000  0.290200  0.339200  1.0  -0.1127
  C  C167  1  0.225400  0.147300  0.008400  1.0  -0.1817
  C  C168  1  0.004700  0.882300  0.088500  1.0  -0.2184
  C  C169  1  0.184300  0.393400  0.126700  1.0  -0.1673
  C  C170  1  0.840600  0.153100  0.118600  1.0  0.2686
  C  C171  1  0.737500  0.649100  0.136400  1.0  -0.1997
  C  C172  1  0.344400  0.639200  0.168000  1.0  0.6643
  C  C173  1  0.363900  0.613700  0.348300  1.0  0.7297
  C  C174  1  0.753400  0.960200  0.906200  1.0  -0.0948
  C  C175  1  0.246600  0.539800  0.406200  1.0  -0.0952
  C  C176  1  0.072500  0.369300  0.928300  1.0  0.3362
  C  C177  1  0.792100  0.459400  0.065400  1.0  -0.2066
  C  C178  1  0.026300  0.132400  0.539300  1.0  -0.1505
  C  C179  1  0.103500  0.831400  0.020400  1.0  -0.1414
  C  C180  1  0.169900  0.784400  0.140500  1.0  0.2632
  C  C181  1  0.951700  0.662200  0.962600  1.0  0.3032
  C  C182  1  0.680300  0.694300  0.148400  1.0  -0.0539
  C  C183  1  0.792100  0.959400  0.434600  1.0  -0.2058
  C  C184  1  0.896500  0.668600  0.520400  1.0  -0.1395
  C  C185  1  0.857200  0.282400  0.844000  1.0  -0.1267
  C  C186  1  0.048300  0.337800  0.037400  1.0  0.3015
  C  C187  1  0.317600  0.894500  0.823600  1.0  -0.0957
  C  C188  1  0.274300  0.561000  0.892500  1.0  -0.0221
  C  C189  1  0.072500  0.869300  0.571700  1.0  0.3287
  C  C190  1  0.702000  0.395700  0.599500  1.0  -0.1363
  C  C191  1  0.725700  0.939000  0.392500  1.0  -0.0229
  C  C192  1  0.229700  0.656200  0.980300  1.0  -0.2049
  C  C193  1  0.149100  0.259000  0.848400  1.0  -0.1868
  C  C194  1  0.702000  0.895700  0.900500  1.0  -0.1371
  C  C195  1  0.643600  0.312300  0.328900  1.0  0.6991
  C  C196  1  0.821700  0.171700  0.362600  1.0  0.3015
  C  C197  1  0.000200  0.600300  0.074000  1.0  -0.1572
  C  C198  1  0.802100  0.829900  0.661600  1.0  -0.0971
  C  C199  1  0.723100  0.058700  0.140800  1.0  -0.0425
  C  C200  1  0.722200  0.175200  0.182800  1.0  -0.0443
  C  C201  1  0.643600  0.812300  0.171100  1.0  0.6995
  C  C202  1  0.814600  0.469000  0.546700  1.0  -0.1878
  C  C203  1  0.356400  0.687700  0.671100  1.0  0.7006
  C  C204  1  0.004700  0.382300  0.411500  1.0  -0.217
  C  C205  1  0.197200  0.418000  0.611500  1.0  -0.1362
  C  C206  1  0.830100  0.215600  0.859500  1.0  0.2636
  C  C207  1  0.802800  0.082000  0.111500  1.0  -0.1327
  C  C208  1  0.276900  0.941300  0.859200  1.0  -0.043
  C  C209  1  0.276900  0.441300  0.640800  1.0  -0.0427
  C  C210  1  0.826100  0.418500  0.505000  1.0  0.2744
  C  C211  1  0.636100  0.386300  0.651700  1.0  0.7292
  C  C212  1  0.753400  0.460200  0.593800  1.0  -0.0959
  C  C213  1  0.923700  0.149800  0.918800  1.0  0.3163
  C  C214  1  0.284800  0.692500  0.154000  1.0  -0.1319
  C  C215  1  0.197900  0.670100  0.161600  1.0  -0.0975
  C  C216  1  0.857200  0.782400  0.656000  1.0  -0.1273
  C  C217  1  0.770300  0.843800  0.480300  1.0  -0.2071
  C  C218  1  0.686000  0.738600  0.638200  1.0  -0.0386
  C  C219  1  0.314000  0.261400  0.361800  1.0  -0.0364
  C  C220  1  0.611700  0.349000  0.158000  1.0  0.6984
  C  C221  1  0.184600  0.085500  0.521700  1.0  0.302
  C  C222  1  0.927500  0.630700  0.071700  1.0  0.3283
  C  C223  1  0.388300  0.651000  0.842000  1.0  0.6982
  C  C224  1  0.142800  0.217600  0.344000  1.0  -0.1245
  C  C225  1  0.096800  0.838500  0.516900  1.0  -0.1522
  C  C226  1  0.723100  0.558700  0.359200  1.0  -0.0415
  C  C227  1  0.923700  0.649800  0.581200  1.0  0.3109
  C  C228  1  0.178300  0.328300  0.862600  1.0  0.303
  C  C229  1  0.284800  0.192500  0.346000  1.0  -0.1319
  C  C230  1  0.795000  0.790200  0.160800  1.0  -0.1129
  C  C231  1  0.292100  0.234600  0.840700  1.0  -0.1535
  C  C232  1  0.076300  0.350200  0.418800  1.0  0.3123
  C  C233  1  0.318000  0.128600  0.608700  1.0  -0.1471
  C  C234  1  0.743400  0.191200  0.869000  1.0  -0.184
  C  C235  1  0.184300  0.893400  0.373300  1.0  -0.1677
  C  C236  1  0.984900  0.376700  0.529300  1.0  -0.1423
  C  C237  1  0.950200  0.397900  0.981500  1.0  0.2593
  C  C238  1  0.173900  0.081500  0.005000  1.0  0.2756
  C  C239  1  0.903200  0.661500  0.016900  1.0  -0.1532
  C  C240  1  0.999800  0.899700  0.574000  1.0  -0.159
  C  C241  1  0.207900  0.040600  0.565400  1.0  -0.2058
  C  C242  1  0.711600  0.842900  0.943700  1.0  -0.0216
  C  C243  1  0.040800  0.605300  0.533500  1.0  0.28
  C  C244  1  0.636100  0.886300  0.848300  1.0  0.7294
  C  C245  1  0.142800  0.717600  0.156000  1.0  -0.124
  C  C246  1  0.197700  0.301300  0.655400  1.0  -0.1945
  C  C247  1  0.277800  0.824800  0.817200  1.0  -0.0452
  C  C248  1  0.680300  0.194300  0.351600  1.0  -0.0549
  C  C249  1  0.294000  0.854000  0.306500  1.0  -0.1201
  C  C250  1  0.855200  0.677400  0.875100  1.0  0.1764
  C  C251  1  0.049800  0.102100  0.481500  1.0  0.2588
  C  C252  1  0.802800  0.582000  0.388500  1.0  -0.133
  C  C253  1  0.686000  0.238600  0.861800  1.0  -0.0373
  C  C254  1  0.707900  0.265400  0.340700  1.0  -0.1537
  C  C255  1  0.747000  0.214100  0.690100  1.0  -0.0207
  C  C256  1  0.049800  0.602100  0.018500  1.0  0.2594
  C  C257  1  0.774600  0.852700  0.991600  1.0  -0.1815
  C  C258  1  0.262500  0.850900  0.636400  1.0  -0.1989
  C  C259  1  0.259000  0.407800  0.161700  1.0  -0.056
  C  C260  1  0.259000  0.907800  0.338300  1.0  -0.0534
  C  C261  1  0.319700  0.305700  0.851600  1.0  -0.0544
  C  C262  1  0.682000  0.371400  0.108700  1.0  -0.1475
  C  C263  1  0.943100  0.656300  0.467200  1.0  0.3103
  C  C264  1  0.802300  0.698700  0.344600  1.0  -0.1988
  C  C265  1  0.598800  0.581600  0.292100  1.0  0.5209
  C  C266  1  0.682400  0.105500  0.176400  1.0  -0.0965
  C  C267  1  0.169900  0.284400  0.359500  1.0  0.2636
  C  C268  1  0.159400  0.346900  0.618600  1.0  0.2785
  C  C269  1  0.149100  0.759000  0.651600  1.0  -0.1856
  C  C270  1  0.850900  0.241000  0.348400  1.0  -0.1852
  C  C271  1  0.314000  0.761400  0.138200  1.0  -0.0377
  C  C272  1  0.205000  0.209800  0.839200  1.0  -0.1126
  C  C273  1  0.715200  0.307500  0.846000  1.0  -0.1314
  C  C274  1  0.822300  0.232000  0.657400  1.0  -0.1949
  C  C275  1  0.344400  0.139200  0.332000  1.0  0.6643
  C  C276  1  0.682000  0.871400  0.391300  1.0  -0.1479
  C  C277  1  0.840600  0.653100  0.381400  1.0  0.2681
  C  C278  1  0.229700  0.156200  0.519700  1.0  -0.2027
  C  C279  1  0.356400  0.187700  0.828900  1.0  0.703
  C  C280  1  0.896500  0.168600  0.979600  1.0  -0.1415
  C  C281  1  0.950200  0.897900  0.518500  1.0  0.2595
  C  C282  1  0.802100  0.329900  0.838400  1.0  -0.0974
  C  C283  1  0.774600  0.352700  0.508400  1.0  -0.1813
  C  C284  1  0.951700  0.162200  0.537400  1.0  0.3027
  C  C285  1  0.185400  0.531000  0.453300  1.0  -0.1884
  C  C286  1  0.197700  0.801300  0.844600  1.0  -0.1969
  C  C287  1  0.995300  0.117700  0.911500  1.0  -0.2124
  C  C288  1  0.707900  0.765400  0.159300  1.0  -0.154
  C  C289  1  0.363900  0.113700  0.151700  1.0  0.7298
  C  C290  1  0.319700  0.805700  0.648400  1.0  -0.0544
  C  C291  1  0.000200  0.100300  0.426000  1.0  -0.159
  C  C292  1  0.815400  0.914500  0.478300  1.0  0.3
  C  C293  1  0.725700  0.439000  0.107500  1.0  -0.0218
  C  C294  1  0.623600  0.630900  0.770900  1.0  0.6754
  C  C295  1  0.292100  0.734600  0.659300  1.0  -0.1538
  C  C296  1  0.623600  0.130900  0.729100  1.0  0.6764
  C  C297  1  0.096800  0.338500  0.983100  1.0  -0.1521
  C  C298  1  0.830100  0.715600  0.640500  1.0  0.2637
  C  C299  1  0.401200  0.918400  0.792100  1.0  0.5191
  C  C300  1  0.850900  0.741000  0.151600  1.0  -0.1876
  C  C301  1  0.076300  0.850200  0.081200  1.0  0.3159
  C  C302  1  0.298000  0.104300  0.099500  1.0  -0.1372
  C  C303  1  0.973700  0.367600  0.039300  1.0  -0.151
  C  C304  1  0.207900  0.540600  0.934600  1.0  -0.2045
  C  C305  1  0.040800  0.105300  0.966500  1.0  0.2788
  C  C306  1  0.737500  0.149100  0.363600  1.0  -0.2004
  C  C307  1  0.178300  0.828300  0.637400  1.0  0.3029
  C  C308  1  0.943100  0.156300  0.032800  1.0  0.3095
  C  C309  1  0.197200  0.918000  0.888500  1.0  -0.1366
  C  C310  1  0.704400  0.824200  0.435900  1.0  0.0041
  C  C311  1  0.026300  0.632400  0.960700  1.0  -0.1515
  C  C312  1  0.277800  0.324800  0.682800  1.0  -0.0451
  C  C313  1  0.388300  0.151000  0.658000  1.0  0.6997
  C  C314  1  0.159400  0.846900  0.881400  1.0  0.2775
  C  C315  1  0.741000  0.592200  0.838300  1.0  -0.0542
  C  C316  1  0.253000  0.785900  0.309900  1.0  -0.0212
  C  C317  1  0.722200  0.675200  0.317200  1.0  -0.0443
  C  C318  1  0.743400  0.691200  0.631000  1.0  -0.1841
  C  C319  1  0.205000  0.709800  0.660800  1.0  -0.1114
  C  C320  1  0.611700  0.849000  0.342000  1.0  0.6969
  C  C321  1  0.294000  0.354000  0.193500  1.0  -0.1199
  C  C322  1  0.288400  0.657100  0.443700  1.0  -0.0221
  C  C323  1  0.747000  0.714100  0.809900  1.0  -0.0207
  C  C324  1  0.682400  0.605500  0.323600  1.0  -0.0949
  C  C325  1  0.706000  0.146000  0.693500  1.0  -0.1219
  C  C326  1  0.822300  0.732000  0.842600  1.0  -0.1935
  C  C327  1  0.770300  0.343800  0.019700  1.0  -0.2047
  C  C328  1  0.197900  0.170100  0.338400  1.0  -0.0989
  C  C329  1  0.984900  0.876700  0.970700  1.0  -0.1414
  C  C330  1  0.959200  0.894700  0.033500  1.0  0.2824
  C  C331  1  0.802300  0.198700  0.155400  1.0  -0.1989
  C  C332  1  0.298000  0.604300  0.400500  1.0  -0.1366
  C  C333  1  0.655600  0.360800  0.832000  1.0  0.6646
  C  C334  1  0.995300  0.617700  0.588500  1.0  -0.2122
  C  C335  1  0.741000  0.092200  0.661700  1.0  -0.0553
  C  C336  1  0.173900  0.581500  0.495000  1.0  0.2748
  C  C337  1  0.814600  0.969000  0.953300  1.0  -0.1879
  C  C338  1  0.177700  0.768000  0.342600  1.0  -0.1918
  C  C339  1  0.103500  0.331400  0.479600  1.0  -0.1395
  C  C340  1  0.821700  0.671700  0.137400  1.0  0.3026
  C  C341  1  0.815700  0.606600  0.873300  1.0  -0.1664
  C  C342  1  0.401200  0.418400  0.707900  1.0  0.5192
  C  C343  1  0.973700  0.867600  0.460700  1.0  -0.1513
  C  C344  1  0.056900  0.843700  0.967200  1.0  0.3033
  C  C345  1  0.815700  0.106600  0.626700  1.0  -0.1658
  C  C346  1  0.144800  0.822600  0.375100  1.0  0.1884
  C  C347  1  0.376400  0.369100  0.229100  1.0  0.6761
  C  C348  1  0.295600  0.675800  0.935900  1.0  0.0025
  O  O349  1  0.321300  0.576900  0.167100  1.0  -0.5994
  O  O350  1  0.625100  0.935600  0.813300  1.0  -0.6226
  O  O351  1  0.118400  0.373000  0.869500  1.0  -0.2637
  O  O352  1  0.079000  0.823400  0.905200  1.0  -0.2601
  O  O353  1  0.666667  0.878000  0.170500  1.0  -0.632
  O  O354  1  0.414500  0.214300  0.663900  1.0  -0.6103
  O  O355  1  0.577700  0.833400  0.682300  1.0  -0.7197
  O  O356  1  0.065600  0.302900  0.095300  1.0  -0.2746
  O  O357  1  0.934400  0.197100  0.595300  1.0  -0.2732
  O  O358  1  0.921000  0.676600  0.405200  1.0  -0.2583
  O  O359  1  0.568200  0.525900  0.293600  1.0  -0.6942
  O  O360  1  0.431800  0.974100  0.793600  1.0  -0.694
  O  O361  1  0.568200  0.025900  0.206400  1.0  -0.6948
  O  O362  1  0.881600  0.127000  0.369500  1.0  -0.2639
  O  O363  1  0.567900  0.788700  0.184000  1.0  -0.6786
  O  O364  1  0.079000  0.323400  0.594800  1.0  -0.2618
  O  O365  1  0.432100  0.211300  0.816000  1.0  -0.6774
  O  O366  1  0.881600  0.627000  0.130500  1.0  -0.2645
  O  O367  1  0.437500  0.369300  0.737000  1.0  -0.7169
  O  O368  1  0.117300  0.338500  0.360700  1.0  -0.2915
  O  O369  1  0.678700  0.923100  0.667100  1.0  -0.6024
  O  O370  1  0.585500  0.285700  0.163900  1.0  -0.6099
  O  O371  1  0.321300  0.076900  0.332900  1.0  -0.5981
  O  O372  1  0.879800  0.432600  0.976800  1.0  -0.2444
  O  O373  1  0.120200  0.567400  0.023200  1.0  -0.2452
  O  O374  1  0.882700  0.661500  0.639300  1.0  -0.291
  O  O375  1  0.065600  0.802900  0.404700  1.0  -0.273
  O  O376  1  0.882700  0.161500  0.860700  1.0  -0.2919
  O  O377  1  0.110800  0.071600  0.957000  1.0  -0.2601
  O  O378  1  0.432100  0.711300  0.684000  1.0  -0.6773
  O  O379  1  0.431800  0.474100  0.706400  1.0  -0.6944
  O  O380  1  0.422300  0.166600  0.317700  1.0  -0.7183
  O  O381  1  0.374900  0.064400  0.186700  1.0  -0.6235
  O  O382  1  0.120200  0.067400  0.476800  1.0  -0.2438
  O  O383  1  0.586400  0.400400  0.188700  1.0  -0.6733
  O  O384  1  0.413600  0.099600  0.688700  1.0  -0.6744
  O  O385  1  0.374900  0.564400  0.313300  1.0  -0.6233
  O  O386  1  0.583600  0.179500  0.746900  1.0  -0.6539
  O  O387  1  0.678700  0.423100  0.832900  1.0  -0.6022
  O  O388  1  0.889200  0.928400  0.043000  1.0  -0.2608
  O  O389  1  0.562500  0.130700  0.237000  1.0  -0.7162
  O  O390  1  0.921000  0.176600  0.094800  1.0  -0.2595
  O  O391  1  0.583600  0.679500  0.753100  1.0  -0.6532
  O  O392  1  0.333400  0.622000  0.670500  1.0  -0.6317
  O  O393  1  0.586400  0.900400  0.311300  1.0  -0.6738
  O  O394  1  0.117300  0.838500  0.139300  1.0  -0.2914
  O  O395  1  0.577700  0.333400  0.817700  1.0  -0.7185
  O  O396  1  0.562500  0.630700  0.263000  1.0  -0.7157
  O  O397  1  0.879800  0.932600  0.523200  1.0  -0.2451
  O  O398  1  0.589800  0.063600  0.741400  1.0  -0.7073
  O  O399  1  0.597600  0.323300  0.659300  1.0  -0.6608
  O  O400  1  0.333400  0.122000  0.829500  1.0  -0.6312
  O  O401  1  0.402400  0.176700  0.159300  1.0  -0.6608
  O  O402  1  0.410200  0.936400  0.258600  1.0  -0.7075
  O  O403  1  0.567900  0.288700  0.316000  1.0  -0.6791
  O  O404  1  0.414500  0.714300  0.836100  1.0  -0.6098
  O  O405  1  0.437500  0.869300  0.763000  1.0  -0.7164
  O  O406  1  0.118400  0.873000  0.630500  1.0  -0.2658
  O  O407  1  0.410200  0.436400  0.241400  1.0  -0.7076
  O  O408  1  0.589800  0.563600  0.758600  1.0  -0.7074
  O  O409  1  0.402400  0.676700  0.340700  1.0  -0.6614
  O  O410  1  0.934400  0.697100  0.904700  1.0  -0.2731
  O  O411  1  0.416400  0.320500  0.246900  1.0  -0.6544
  O  O412  1  0.666667  0.378000  0.329500  1.0  -0.632
  O  O413  1  0.422300  0.666667  0.182300  1.0  -0.723
  O  O414  1  0.625100  0.435600  0.686700  1.0  -0.6218
  O  O415  1  0.889200  0.428400  0.457000  1.0  -0.2597
  O  O416  1  0.416400  0.820500  0.253100  1.0  -0.6541
  O  O417  1  0.585500  0.785700  0.336100  1.0  -0.6091
  O  O418  1  0.110800  0.571600  0.543000  1.0  -0.2596
  O  O419  1  0.413600  0.599600  0.811300  1.0  -0.6742
  O  O420  1  0.597600  0.823300  0.840700  1.0  -0.6614
