# generated using pymatgen
data_Cd3B2H90C74(NO7)2
_symmetry_space_group_name_H-M   'P 1'
_cell_length_a   14.91560000
_cell_length_b   15.06240000
_cell_length_c   25.55280000
_cell_angle_alpha   90.00000000
_cell_angle_beta   93.60210000
_cell_angle_gamma   90.00000000
_symmetry_Int_Tables_number   1
_chemical_formula_structural   Cd3B2H90C74(NO7)2
_chemical_formula_sum   'Cd6 B4 H180 C148 N4 O28'
_cell_volume   5729.47160184
_cell_formula_units_Z   2
loop_
 _symmetry_equiv_pos_site_id
 _symmetry_equiv_pos_as_xyz
  1  'x, y, z'
loop_
 _atom_site_type_symbol
 _atom_site_label
 _atom_site_symmetry_multiplicity
 _atom_site_fract_x
 _atom_site_fract_y
 _atom_site_fract_z
 _atom_site_occupancy
 _atom_site_charge
  Cd  Cd1  1  0.363200  0.664120  0.069750  1.0  1.0958
  Cd  Cd2  1  0.863200  0.835880  0.569750  1.0  1.0944
  Cd  Cd3  1  0.136800  0.164120  0.430250  1.0  1.0969
  Cd  Cd4  1  0.636800  0.335880  0.930250  1.0  1.0942
  Cd  Cd5  1  0.500000  0.500000  0.000000  1.0  1.1809
  Cd  Cd6  1  0.000000  0.000000  0.500000  1.0  1.1809
  B  B7  1  0.611900  0.192000  0.260100  1.0  0.3982
  B  B8  1  0.388100  0.808000  0.739900  1.0  0.3978
  B  B9  1  0.111900  0.308000  0.760100  1.0  0.3981
  B  B10  1  0.888100  0.692000  0.239900  1.0  0.398
  H  H11  1  0.897500  0.517000  0.152700  1.0  0.1273
  H  H12  1  0.459300  0.213700  0.043600  1.0  0.1236
  H  H13  1  0.970700  0.836000  0.253400  1.0  0.104
  H  H14  1  0.299000  0.917300  0.791100  1.0  0.1199
  H  H15  1  0.617500  0.309600  0.331700  1.0  0.1256
  H  H16  1  0.710800  0.441000  0.125900  1.0  0.1185
  H  H17  1  0.289200  0.559000  0.874100  1.0  0.1185
  H  H18  1  0.757100  0.042700  0.469800  1.0  0.1195
  H  H19  1  0.366700  0.014000  0.397900  1.0  0.1193
  H  H20  1  0.303600  0.401400  0.702500  1.0  0.1265
  H  H21  1  0.028800  0.882900  0.212500  1.0  0.1172
  H  H22  1  0.980300  0.382600  0.564100  1.0  0.124
  H  H23  1  0.033100  0.964500  0.680600  1.0  0.1178
  H  H24  1  0.237600  0.782300  0.428300  1.0  0.1175
  H  H25  1  0.828800  0.086700  0.641500  1.0  0.1056
  H  H26  1  0.705600  0.794500  0.280700  1.0  0.1318
  H  H27  1  0.794400  0.294500  0.219300  1.0  0.133
  H  H28  1  0.385900  0.348900  0.108800  1.0  0.1066
  H  H29  1  0.291000  0.328900  0.282600  1.0  0.1296
  H  H30  1  0.249500  0.612100  0.791300  1.0  0.1127
  H  H31  1  0.247000  0.276100  0.951500  1.0  0.1257
  H  H32  1  0.891800  0.759900  0.115000  1.0  0.1332
  H  H33  1  0.689300  0.795900  0.070400  1.0  0.1199
  H  H34  1  0.271300  0.489700  0.727800  1.0  0.1232
  H  H35  1  0.850700  0.206500  0.452300  1.0  0.1303
  H  H36  1  0.510000  0.940200  0.848500  1.0  0.1066
  H  H37  1  0.649300  0.706500  0.047700  1.0  0.1287
  H  H38  1  0.316500  0.668400  0.619800  1.0  0.1054
  H  H39  1  0.574900  0.558600  0.873400  1.0  0.1323
  H  H40  1  0.959300  0.286300  0.543600  1.0  0.124
  H  H41  1  0.065700  0.949800  0.739400  1.0  0.1212
  H  H42  1  0.719900  0.328900  0.254900  1.0  0.114
  H  H43  1  0.091500  0.675500  0.409500  1.0  0.1177
  H  H44  1  0.008900  0.419000  0.711200  1.0  0.1257
  H  H45  1  0.737700  0.702800  0.662400  1.0  0.126
  H  H46  1  0.683500  0.331600  0.380200  1.0  0.1076
  H  H47  1  0.040700  0.713700  0.456400  1.0  0.1247
  H  H48  1  0.133300  0.514000  0.102100  1.0  0.119
  H  H49  1  0.102500  0.483000  0.847300  1.0  0.126
  H  H50  1  0.633300  0.986000  0.602100  1.0  0.1188
  H  H51  1  0.742900  0.542700  0.030200  1.0  0.1218
  H  H52  1  0.662100  0.068500  0.487900  1.0  0.1276
  H  H53  1  0.816500  0.831600  0.119800  1.0  0.1089
  H  H54  1  0.608200  0.259900  0.385000  1.0  0.1349
  H  H55  1  0.466400  0.031600  0.691700  1.0  0.1108
  H  H56  1  0.925300  0.154200  0.735200  1.0  0.1161
  H  H57  1  0.253000  0.776100  0.548500  1.0  0.1238
  H  H58  1  0.408500  0.175500  0.090500  1.0  0.1182
  H  H59  1  0.074700  0.845800  0.264800  1.0  0.1165
  H  H60  1  0.293900  0.021800  0.494200  1.0  0.1206
  H  H61  1  0.762300  0.202800  0.837600  1.0  0.1256
  H  H62  1  0.789200  0.941000  0.374100  1.0  0.1197
  H  H63  1  0.893000  0.973500  0.292800  1.0  0.1158
  H  H64  1  0.466900  0.464500  0.819400  1.0  0.1164
  H  H65  1  0.206400  0.343200  0.107300  1.0  0.1126
  H  H66  1  0.908500  0.324500  0.590500  1.0  0.1174
  H  H67  1  0.706100  0.978200  0.505800  1.0  0.122
  H  H68  1  0.310700  0.204100  0.929600  1.0  0.1195
  H  H69  1  0.480300  0.117400  0.064100  1.0  0.1227
  H  H70  1  0.833300  0.684900  0.948500  1.0  0.1206
  H  H71  1  0.029300  0.164000  0.746600  1.0  0.1056
  H  H72  1  0.713600  0.868900  0.375700  1.0  0.1187
  H  H73  1  0.262300  0.297200  0.337600  1.0  0.126
  H  H74  1  0.529300  0.336000  0.246600  1.0  0.1058
  H  H75  1  0.337900  0.931500  0.512100  1.0  0.13
  H  H76  1  0.286400  0.131100  0.624300  1.0  0.1176
  H  H77  1  0.531800  0.011200  0.605500  1.0  0.1143
  H  H78  1  0.966400  0.468400  0.191700  1.0  0.1122
  H  H79  1  0.183500  0.168400  0.880200  1.0  0.1069
  H  H80  1  0.614100  0.651100  0.891200  1.0  0.107
  H  H81  1  0.737600  0.717700  0.928300  1.0  0.1181
  H  H82  1  0.103000  0.457800  0.149500  1.0  0.1168
  H  H83  1  0.971200  0.117100  0.787500  1.0  0.1168
  H  H84  1  0.491100  0.919000  0.788800  1.0  0.1264
  H  H85  1  0.508900  0.081000  0.211200  1.0  0.1275
  H  H86  1  0.196400  0.901400  0.797500  1.0  0.1287
  H  H87  1  0.660000  0.633500  0.666000  1.0  0.1188
  H  H88  1  0.219900  0.171100  0.754900  1.0  0.1138
  H  H89  1  0.392700  0.969700  0.713300  1.0  0.113
  H  H90  1  0.991100  0.581000  0.288800  1.0  0.1279
  H  H91  1  0.393000  0.526500  0.792800  1.0  0.116
  H  H92  1  0.786400  0.368900  0.124300  1.0  0.1171
  H  H93  1  0.780100  0.828900  0.245100  1.0  0.1151
  H  H94  1  0.031800  0.488800  0.105500  1.0  0.1144
  H  H95  1  0.470700  0.664000  0.753400  1.0  0.1038
  H  H96  1  0.573400  0.875400  0.820200  1.0  0.1258
  H  H97  1  0.490000  0.059800  0.151500  1.0  0.1074
  H  H98  1  0.209000  0.828900  0.217400  1.0  0.1287
  H  H99  1  0.166700  0.315100  0.051500  1.0  0.1214
  H  H100  1  0.793900  0.478200  0.994200  1.0  0.1225
  H  H101  1  0.171200  0.913300  0.358500  1.0  0.1049
  H  H102  1  0.019700  0.617400  0.435900  1.0  0.1243
  H  H103  1  0.750500  0.387900  0.208700  1.0  0.1146
  H  H104  1  0.391800  0.740100  0.615000  1.0  0.1339
  H  H105  1  0.468200  0.988800  0.394500  1.0  0.1142
  H  H106  1  0.709000  0.671100  0.717400  1.0  0.1282
  H  H107  1  0.201000  0.417300  0.708900  1.0  0.1203
  H  H108  1  0.607000  0.473500  0.207200  1.0  0.1147
  H  H109  1  0.771300  0.010300  0.227800  1.0  0.1241
  H  H110  1  0.397000  0.957800  0.350500  1.0  0.117
  H  H111  1  0.840000  0.133500  0.834000  1.0  0.1203
  H  H112  1  0.753000  0.723900  0.048500  1.0  0.125
  H  H113  1  0.397500  0.983000  0.652700  1.0  0.128
  H  H114  1  0.149300  0.793500  0.547700  1.0  0.1291
  H  H115  1  0.160000  0.866500  0.166000  1.0  0.1198
  H  H116  1  0.228700  0.989700  0.772200  1.0  0.1228
  H  H117  1  0.425300  0.345800  0.235200  1.0  0.1164
  H  H118  1  0.721600  0.385900  0.074600  1.0  0.1216
  H  H119  1  0.540700  0.786300  0.956400  1.0  0.1244
  H  H120  1  0.333333  0.815100  0.448500  1.0  0.1198
  H  H121  1  0.968200  0.511200  0.894500  1.0  0.114
  H  H122  1  0.340000  0.366500  0.334000  1.0  0.1185
  H  H123  1  0.882500  0.809600  0.168300  1.0  0.1267
  H  H124  1  0.607300  0.030300  0.286700  1.0  0.1118
  H  H125  1  0.565700  0.550200  0.239400  1.0  0.1207
  H  H126  1  0.799000  0.582700  0.291100  1.0  0.1206
  H  H127  1  0.294400  0.205500  0.719300  1.0  0.1332
  H  H128  1  0.701000  0.082700  0.208900  1.0  0.1194
  H  H129  1  0.990000  0.440200  0.651500  1.0  0.1082
  H  H130  1  0.189300  0.704100  0.570400  1.0  0.1185
  H  H131  1  0.778400  0.885900  0.425400  1.0  0.1222
  H  H132  1  0.425100  0.441400  0.126600  1.0  0.1344
  H  H133  1  0.210800  0.059000  0.625900  1.0  0.1174
  H  H134  1  0.728700  0.510300  0.272200  1.0  0.1241
  H  H135  1  0.221600  0.114100  0.574600  1.0  0.1217
  H  H136  1  0.117500  0.190400  0.831700  1.0  0.1278
  H  H137  1  0.382500  0.690400  0.668300  1.0  0.1271
  H  H138  1  0.434300  0.449800  0.760600  1.0  0.1193
  H  H139  1  0.114100  0.848900  0.391200  1.0  0.1067
  H  H140  1  0.533100  0.535500  0.180600  1.0  0.1177
  H  H141  1  0.574700  0.654200  0.764800  1.0  0.1165
  H  H142  1  0.471200  0.382900  0.287500  1.0  0.116
  H  H143  1  0.280100  0.671100  0.745100  1.0  0.1149
  H  H144  1  0.793600  0.656800  0.892700  1.0  0.1108
  H  H145  1  0.803600  0.098600  0.202500  1.0  0.1255
  H  H146  1  0.602500  0.017000  0.347300  1.0  0.1268
  H  H147  1  0.262400  0.282300  0.071700  1.0  0.1161
  H  H148  1  0.837900  0.568500  0.012100  1.0  0.1288
  H  H149  1  0.603000  0.042200  0.649500  1.0  0.1169
  H  H150  1  0.519700  0.882600  0.935900  1.0  0.1237
  H  H151  1  0.250500  0.112100  0.708700  1.0  0.1134
  H  H152  1  0.934300  0.050200  0.260600  1.0  0.1198
  H  H153  1  0.213600  0.631100  0.875700  1.0  0.1181
  H  H154  1  0.791000  0.171100  0.782600  1.0  0.1305
  H  H155  1  0.706400  0.156800  0.607300  1.0  0.1121
  H  H156  1  0.033600  0.531600  0.808300  1.0  0.1122
  H  H157  1  0.107300  0.469700  0.786700  1.0  0.1119
  H  H158  1  0.591500  0.824500  0.909500  1.0  0.1168
  H  H159  1  0.074900  0.941400  0.373400  1.0  0.1332
  H  H160  1  0.293600  0.843200  0.392700  1.0  0.1108
  H  H161  1  0.762400  0.217700  0.571700  1.0  0.1183
  H  H162  1  0.897000  0.542200  0.850500  1.0  0.1172
  H  H163  1  0.108200  0.240100  0.885000  1.0  0.1346
  H  H164  1  0.237700  0.797200  0.162400  1.0  0.1265
  H  H165  1  0.671200  0.586700  0.858500  1.0  0.1049
  H  H166  1  0.205600  0.705500  0.780700  1.0  0.1321
  H  H167  1  0.350700  0.293500  0.952300  1.0  0.1307
  H  H168  1  0.926600  0.375400  0.679800  1.0  0.1282
  H  H169  1  0.696400  0.598600  0.297500  1.0  0.1286
  H  H170  1  0.162100  0.431500  0.987900  1.0  0.1289
  H  H171  1  0.866700  0.486000  0.897900  1.0  0.1191
  H  H172  1  0.747000  0.223900  0.451500  1.0  0.1262
  H  H173  1  0.666667  0.184900  0.551500  1.0  0.1218
  H  H174  1  0.107000  0.026500  0.707200  1.0  0.1148
  H  H175  1  0.328800  0.413300  0.141500  1.0  0.1056
  H  H176  1  0.242900  0.957300  0.530200  1.0  0.1206
  H  H177  1  0.810700  0.295900  0.429600  1.0  0.1194
  H  H178  1  0.278400  0.614100  0.925400  1.0  0.1223
  H  H179  1  0.426600  0.124600  0.179800  1.0  0.1281
  H  H180  1  0.892700  0.530300  0.213300  1.0  0.1136
  H  H181  1  0.073400  0.624600  0.320200  1.0  0.1267
  H  H182  1  0.257100  0.457300  0.969800  1.0  0.1211
  H  H183  1  0.533600  0.968400  0.308300  1.0  0.1123
  H  H184  1  0.925100  0.058600  0.626600  1.0  0.1363
  H  H185  1  0.206100  0.521800  0.005800  1.0  0.1222
  H  H186  1  0.528800  0.617100  0.712500  1.0  0.1165
  H  H187  1  0.010000  0.559800  0.348500  1.0  0.1089
  H  H188  1  0.885900  0.151100  0.608800  1.0  0.1067
  H  H189  1  0.749500  0.887900  0.291300  1.0  0.1147
  H  H190  1  0.966900  0.035500  0.319400  1.0  0.1163
  C  C191  1  0.668100  0.286000  0.183100  1.0  -0.0355
  C  C192  1  0.086200  0.504800  0.125400  1.0  -0.3305
  C  C193  1  0.199600  0.766700  0.566900  1.0  -0.3944
  C  C194  1  0.800400  0.233300  0.433100  1.0  -0.3956
  C  C195  1  0.067700  0.478200  0.814500  1.0  -0.3527
  C  C196  1  0.844000  0.095400  0.311200  1.0  0.0227
  C  C197  1  0.648600  0.631500  0.138000  1.0  -0.1638
  C  C198  1  0.404000  0.721100  0.903500  1.0  -0.1528
  C  C199  1  0.671900  0.545300  0.939400  1.0  0.4306
  C  C200  1  0.739900  0.328200  0.219900  1.0  -0.3444
  C  C201  1  0.371500  0.409900  0.115000  1.0  -0.3811
  C  C202  1  0.429100  0.393800  0.898900  1.0  0.6646
  C  C203  1  0.416200  0.467000  0.794500  1.0  -0.3837
  C  C204  1  0.412600  0.690200  0.959100  1.0  0.7021
  C  C205  1  0.087400  0.190200  0.540900  1.0  0.702
  C  C206  1  0.120200  0.740000  0.182500  1.0  0.0322
  C  C207  1  0.211500  0.808800  0.621300  1.0  0.0272
  C  C208  1  0.713600  0.214100  0.345200  1.0  0.0426
  C  C209  1  0.273900  0.616100  0.887800  1.0  -0.3722
  C  C210  1  0.134500  0.661000  0.155700  1.0  -0.1067
  C  C211  1  0.279400  0.830800  0.428100  1.0  -0.2972
  C  C212  1  0.070900  0.590400  0.156100  1.0  0.0517
  C  C213  1  0.851400  0.131500  0.362000  1.0  -0.1635
  C  C214  1  0.716800  0.845900  0.624800  1.0  0.7024
  C  C215  1  0.730700  0.616200  0.221500  1.0  0.0356
  C  C216  1  0.527800  0.663800  0.738000  1.0  -0.3704
  C  C217  1  0.583800  0.533000  0.205500  1.0  -0.3829
  C  C218  1  0.711500  0.691200  0.121300  1.0  0.0255
  C  C219  1  0.230700  0.883800  0.721500  1.0  0.0355
  C  C220  1  0.512500  0.895100  0.822100  1.0  -0.3662
  C  C221  1  0.012500  0.604900  0.322100  1.0  -0.3679
  C  C222  1  0.495100  0.900300  0.683500  1.0  0.0589
  C  C223  1  0.812100  0.185000  0.818000  1.0  -0.3626
  C  C224  1  0.788500  0.191200  0.378700  1.0  0.0262
  C  C225  1  0.662800  0.315400  0.130700  1.0  0.0313
  C  C226  1  0.162800  0.184600  0.630700  1.0  0.0322
  C  C227  1  0.260100  0.671800  0.780100  1.0  -0.3441
  C  C228  1  0.110100  0.280700  0.700800  1.0  -0.0694
  C  C229  1  0.283200  0.154100  0.375200  1.0  0.7012
  C  C230  1  0.634500  0.839000  0.655700  1.0  -0.1064
  C  C231  1  0.962600  0.713200  0.387400  1.0  0.0293
  C  C232  1  0.760500  0.073000  0.224400  1.0  -0.3614
  C  C233  1  0.699600  0.733300  0.066900  1.0  -0.3919
  C  C234  1  0.344000  0.404600  0.811200  1.0  0.0225
  C  C235  1  0.972200  0.163800  0.762000  1.0  -0.3702
  C  C236  1  0.702800  0.173700  0.294700  1.0  -0.0814
  C  C237  1  0.464700  0.176600  0.074200  1.0  -0.3625
  C  C238  1  0.083800  0.967000  0.705500  1.0  -0.381
  C  C239  1  0.586200  0.995200  0.625400  1.0  -0.3303
  C  C240  1  0.504900  0.099700  0.316500  1.0  0.0595
  C  C241  1  0.964700  0.323400  0.574200  1.0  -0.3641
  C  C242  1  0.570900  0.909600  0.656100  1.0  0.0514
  C  C243  1  0.871500  0.090100  0.615000  1.0  -0.3798
  C  C244  1  0.687900  0.685000  0.682000  1.0  -0.3622
  C  C245  1  0.462600  0.786800  0.887400  1.0  0.0295
  C  C246  1  0.128500  0.909900  0.385000  1.0  -0.3797
  C  C247  1  0.786400  0.714100  0.154800  1.0  0.0417
  C  C248  1  0.610100  0.219300  0.200800  1.0  -0.0696
  C  C249  1  0.350100  0.714700  0.637900  1.0  -0.3589
  C  C250  1  0.837200  0.815400  0.369300  1.0  0.0347
  C  C251  1  0.004900  0.400300  0.816500  1.0  0.0588
  C  C252  1  0.429100  0.090400  0.343900  1.0  0.0514
  C  C253  1  0.312100  0.315000  0.318000  1.0  -0.3617
  C  C254  1  0.478700  0.821100  0.711400  1.0  -0.0359
  C  C255  1  0.282400  0.960700  0.502000  1.0  -0.2889
  C  C256  1  0.472200  0.336200  0.262000  1.0  -0.3696
  C  C257  1  0.773900  0.883900  0.387800  1.0  -0.3713
  C  C258  1  0.216800  0.654100  0.124800  1.0  0.7036
  C  C259  1  0.954200  0.682400  0.336000  1.0  0.0592
  C  C260  1  0.957700  0.252900  0.788500  1.0  0.0274
  C  C261  1  0.760100  0.828200  0.280100  1.0  -0.3442
  C  C262  1  0.286400  0.785900  0.654800  1.0  0.0412
  C  C263  1  0.149900  0.214700  0.862100  1.0  -0.356
  C  C264  1  0.567700  0.021800  0.314500  1.0  -0.3546
  C  C265  1  0.769300  0.116200  0.278500  1.0  0.0346
  C  C266  1  0.202800  0.326300  0.794700  1.0  -0.0815
  C  C267  1  0.932300  0.521800  0.185500  1.0  -0.3541
  C  C268  1  0.096000  0.221100  0.596500  1.0  -0.1519
  C  C269  1  0.929100  0.409600  0.843900  1.0  0.0514
  C  C270  1  0.337200  0.684600  0.869300  1.0  0.0336
  C  C271  1  0.171900  0.954700  0.439400  1.0  0.4305
  C  C272  1  0.260500  0.427000  0.724400  1.0  -0.3619
  C  C273  1  0.379800  0.240000  0.317500  1.0  0.0334
  C  C274  1  0.213600  0.285900  0.845200  1.0  0.0433
  C  C275  1  0.432300  0.978200  0.685500  1.0  -0.3541
  C  C276  1  0.570900  0.606200  0.101100  1.0  0.665
  C  C277  1  0.783200  0.345900  0.875200  1.0  0.7009
  C  C278  1  0.156000  0.904600  0.688800  1.0  0.0229
  C  C279  1  0.987500  0.395100  0.677900  1.0  -0.3674
  C  C280  1  0.850100  0.785300  0.137900  1.0  -0.3567
  C  C281  1  0.995100  0.599700  0.183500  1.0  0.0592
  C  C282  1  0.889900  0.719300  0.299200  1.0  -0.0699
  C  C283  1  0.288500  0.308800  0.878700  1.0  0.0267
  C  C284  1  0.487500  0.104900  0.177900  1.0  -0.37
  C  C285  1  0.649900  0.285300  0.362100  1.0  -0.3563
  C  C286  1  0.328100  0.454700  0.060600  1.0  0.4305
  C  C287  1  0.797200  0.673700  0.205300  1.0  -0.0817
  C  C288  1  0.739500  0.573000  0.275600  1.0  -0.3623
  C  C289  1  0.726100  0.383900  0.112200  1.0  -0.3686
  C  C290  1  0.913800  0.495200  0.874600  1.0  -0.3286
  C  C291  1  0.297200  0.826300  0.705300  1.0  -0.0818
  C  C292  1  0.779400  0.669200  0.928100  1.0  -0.2978
  C  C293  1  0.187900  0.815000  0.182000  1.0  -0.3614
  C  C294  1  0.389900  0.780700  0.799200  1.0  -0.07
  C  C295  1  0.217600  0.460700  0.998000  1.0  -0.2863
  C  C296  1  0.717600  0.039300  0.498000  1.0  -0.2867
  C  C297  1  0.413800  0.004800  0.374600  1.0  -0.3289
  C  C298  1  0.239500  0.927000  0.775600  1.0  -0.3629
  C  C299  1  0.587400  0.309800  0.040900  1.0  0.7011
  C  C300  1  0.912600  0.809800  0.459100  1.0  0.7004
  C  C301  1  0.070900  0.893800  0.601100  1.0  0.6632
  C  C302  1  0.300400  0.266700  0.933100  1.0  -0.3981
  C  C303  1  0.831900  0.786000  0.316900  1.0  -0.0318
  C  C304  1  0.929100  0.106200  0.398900  1.0  0.6658
  C  C305  1  0.226100  0.116100  0.612200  1.0  -0.3685
  C  C306  1  0.521300  0.178900  0.288600  1.0  -0.0367
  C  C307  1  0.021300  0.321100  0.788600  1.0  -0.0372
  C  C308  1  0.656000  0.595400  0.188800  1.0  0.0236
  C  C309  1  0.027800  0.836200  0.238000  1.0  -0.3703
  C  C310  1  0.269300  0.383800  0.778500  1.0  0.0345
  C  C311  1  0.351400  0.368500  0.862000  1.0  -0.1636
  C  C312  1  0.331900  0.714000  0.816900  1.0  -0.0317
  C  C313  1  0.628500  0.590100  0.885000  1.0  -0.3803
  C  C314  1  0.168100  0.214000  0.683100  1.0  -0.0318
  C  C315  1  0.535300  0.823400  0.925800  1.0  -0.3651
  C  C316  1  0.596000  0.278900  0.096500  1.0  -0.1518
  C  C317  1  0.457700  0.247100  0.288500  1.0  0.0272
  C  C318  1  0.365500  0.161000  0.344300  1.0  -0.107
  C  C319  1  0.978700  0.678900  0.211400  1.0  -0.0355
  C  C320  1  0.620200  0.760000  0.682500  1.0  0.032
  C  C321  1  0.148600  0.868500  0.638000  1.0  -0.1638
  C  C322  1  0.045800  0.317600  0.664000  1.0  0.062
  C  C323  1  0.042300  0.747100  0.211500  1.0  0.0223
  C  C324  1  0.542300  0.752900  0.711500  1.0  0.0269
  C  C325  1  0.904000  0.778900  0.403500  1.0  -0.1525
  C  C326  1  0.879800  0.260000  0.817500  1.0  0.0335
  C  C327  1  0.454200  0.817600  0.836000  1.0  0.0593
  C  C328  1  0.220600  0.330800  0.071900  1.0  -0.2968
  C  C329  1  0.828100  0.045300  0.560600  1.0  0.4307
  C  C330  1  0.545800  0.182400  0.164000  1.0  0.062
  C  C331  1  0.916200  0.033000  0.294500  1.0  -0.3826
  C  C332  1  0.865500  0.339000  0.844300  1.0  -0.1067
  C  C333  1  0.782400  0.539300  0.002000  1.0  -0.2886
  C  C334  1  0.720600  0.169200  0.571900  1.0  -0.298
  C  C335  1  0.239900  0.171800  0.719900  1.0  -0.3451
  C  C336  1  0.537400  0.213200  0.112600  1.0  0.0316
  C  C337  1  0.035300  0.676600  0.425800  1.0  -0.3649
  C  C338  1  0.037400  0.286800  0.612600  1.0  0.0327
  N  N339  1  0.262900  0.413900  0.048100  1.0  -0.113
  N  N340  1  0.237100  0.913900  0.451900  1.0  -0.1123
  N  N341  1  0.762900  0.086100  0.548100  1.0  -0.1127
  N  N342  1  0.737100  0.586100  0.951900  1.0  -0.1117
  O  O343  1  0.020100  0.140700  0.526600  1.0  -0.6357
  O  O344  1  0.479900  0.640700  0.973400  1.0  -0.638
  O  O345  1  0.289300  0.175600  0.423300  1.0  -0.5875
  O  O346  1  0.364700  0.515400  0.042000  1.0  -0.6257
  O  O347  1  0.999600  0.148700  0.393600  1.0  -0.6854
  O  O348  1  0.000400  0.851300  0.606400  1.0  -0.6852
  O  O349  1  0.500400  0.648700  0.106400  1.0  -0.6844
  O  O350  1  0.145100  0.214700  0.510900  1.0  -0.5846
  O  O351  1  0.854900  0.785300  0.489100  1.0  -0.5873
  O  O352  1  0.864700  0.984600  0.542000  1.0  -0.6247
  O  O353  1  0.354900  0.714700  0.989100  1.0  -0.5837
  O  O354  1  0.979900  0.859300  0.473400  1.0  -0.6376
  O  O355  1  0.499600  0.351300  0.893600  1.0  -0.6849
  O  O356  1  0.288500  0.624300  0.146200  1.0  -0.5865
  O  O357  1  0.417140  0.455600  0.931040  1.0  -0.6132
  O  O358  1  0.788500  0.875700  0.646200  1.0  -0.5862
  O  O359  1  0.917140  0.044400  0.431040  1.0  -0.6132
  O  O360  1  0.789300  0.324400  0.923300  1.0  -0.5917
  O  O361  1  0.635300  0.484600  0.958000  1.0  -0.6235
  O  O362  1  0.082860  0.955600  0.568960  1.0  -0.6143
  O  O363  1  0.711500  0.375700  0.853800  1.0  -0.5848
  O  O364  1  0.210700  0.675600  0.076700  1.0  -0.5836
  O  O365  1  0.135300  0.015400  0.458000  1.0  -0.6246
  O  O366  1  0.520100  0.359300  0.026600  1.0  -0.6368
  O  O367  1  0.710700  0.824400  0.576700  1.0  -0.5818
  O  O368  1  0.211500  0.124300  0.353800  1.0  -0.586
  O  O369  1  0.645100  0.285300  0.010900  1.0  -0.5835
  O  O370  1  0.582860  0.544400  0.068960  1.0  -0.6142
