# generated using pymatgen
data_CoH3(C3O2)3
_symmetry_space_group_name_H-M   'P 1'
_cell_length_a   9.37270000
_cell_length_b   11.98650000
_cell_length_c   16.42760000
_cell_angle_alpha   90.00000000
_cell_angle_beta   90.00000000
_cell_angle_gamma   109.61600000
_symmetry_Int_Tables_number   1
_chemical_formula_structural   CoH3(C3O2)3
_chemical_formula_sum   'Co4 H12 C36 O24'
_cell_volume   1738.46283685
_cell_formula_units_Z   4
loop_
 _symmetry_equiv_pos_site_id
 _symmetry_equiv_pos_as_xyz
  1  'x, y, z'
loop_
 _atom_site_type_symbol
 _atom_site_label
 _atom_site_symmetry_multiplicity
 _atom_site_fract_x
 _atom_site_fract_y
 _atom_site_fract_z
 _atom_site_occupancy
 _atom_site_charge
  Co  Co1  1  0.876110  0.520690  0.412390  1.0  1.0904
  Co  Co2  1  0.623890  0.979310  0.912390  1.0  1.0886
  Co  Co3  1  0.376110  0.020690  0.087610  1.0  1.0909
  Co  Co4  1  0.123890  0.479310  0.587610  1.0  1.0891
  H  H5  1  0.730700  0.266200  0.195700  1.0  0.1251
  H  H6  1  0.230700  0.766200  0.304300  1.0  0.125
  H  H7  1  0.014800  0.879500  0.933600  1.0  0.126
  H  H8  1  0.654400  0.804900  0.232200  1.0  0.1311
  H  H9  1  0.154400  0.304900  0.267800  1.0  0.131
  H  H10  1  0.514800  0.379500  0.566400  1.0  0.1262
  H  H11  1  0.769300  0.233800  0.695700  1.0  0.126
  H  H12  1  0.485200  0.620500  0.433600  1.0  0.1259
  H  H13  1  0.345600  0.195100  0.767800  1.0  0.1312
  H  H14  1  0.985200  0.120500  0.066400  1.0  0.1261
  H  H15  1  0.845600  0.695100  0.732200  1.0  0.1309
  H  H16  1  0.269300  0.733800  0.804300  1.0  0.1258
  C  C17  1  0.765800  0.825300  0.844000  1.0  0.7142
  C  C18  1  0.734200  0.674700  0.344000  1.0  0.7121
  C  C19  1  0.707200  0.127900  0.066100  1.0  0.795
  C  C20  1  0.925200  0.725600  0.768600  1.0  0.0465
  C  C21  1  0.908000  0.793200  0.834400  1.0  -0.1283
  C  C22  1  0.792800  0.372100  0.566100  1.0  0.7938
  C  C23  1  0.425400  0.871200  0.185900  1.0  0.6978
  C  C24  1  0.925400  0.371200  0.314100  1.0  0.6973
  C  C25  1  0.292800  0.872100  0.933900  1.0  0.7933
  C  C26  1  0.425200  0.225600  0.731400  1.0  0.0471
  C  C27  1  0.092000  0.206800  0.165600  1.0  -0.1277
  C  C28  1  0.438600  0.797000  0.256600  1.0  -0.1293
  C  C29  1  0.820900  0.251100  0.188400  1.0  0.0518
  C  C30  1  0.938600  0.297000  0.243400  1.0  -0.1295
  C  C31  1  0.164100  0.817100  0.877500  1.0  -0.1546
  C  C32  1  0.335900  0.682900  0.377500  1.0  -0.1544
  C  C33  1  0.265800  0.325300  0.656000  1.0  0.7143
  C  C34  1  0.574800  0.774400  0.268600  1.0  0.0464
  C  C35  1  0.061400  0.703000  0.756600  1.0  -0.1297
  C  C36  1  0.973200  0.163600  0.111400  1.0  0.0534
  C  C37  1  0.234200  0.174700  0.156000  1.0  0.7113
  C  C38  1  0.408000  0.293200  0.665600  1.0  -0.1286
  C  C39  1  0.664100  0.317100  0.622500  1.0  -0.1534
  C  C40  1  0.835900  0.182900  0.122500  1.0  -0.1535
  C  C41  1  0.207200  0.627900  0.433900  1.0  0.7927
  C  C42  1  0.179100  0.748900  0.811600  1.0  0.0538
  C  C43  1  0.526800  0.336400  0.611400  1.0  0.0526
  C  C44  1  0.074600  0.628800  0.685900  1.0  0.6978
  C  C45  1  0.320900  0.751100  0.311600  1.0  0.0517
  C  C46  1  0.574600  0.128800  0.814100  1.0  0.6975
  C  C47  1  0.473200  0.663600  0.388600  1.0  0.0538
  C  C48  1  0.026800  0.836400  0.888600  1.0  0.0529
  C  C49  1  0.592000  0.706800  0.334400  1.0  -0.1277
  C  C50  1  0.679100  0.248900  0.688400  1.0  0.0539
  C  C51  1  0.561400  0.203000  0.743400  1.0  -0.1293
  C  C52  1  0.074800  0.274400  0.231400  1.0  0.0459
  O  O53  1  0.008600  0.381900  0.374700  1.0  -0.5876
  O  O54  1  0.832100  0.703200  0.290700  1.0  -0.4674
  O  O55  1  0.827100  0.423600  0.310300  1.0  -0.5552
  O  O56  1  0.991400  0.618100  0.625300  1.0  -0.5864
  O  O57  1  0.267600  0.924900  0.994800  1.0  -0.6075
  O  O58  1  0.080400  0.635800  0.414800  1.0  -0.605
  O  O59  1  0.580400  0.135800  0.085200  1.0  -0.6051
  O  O60  1  0.419600  0.864200  0.914800  1.0  -0.6023
  O  O61  1  0.672900  0.076400  0.810300  1.0  -0.5569
  O  O62  1  0.167900  0.296800  0.709300  1.0  -0.4684
  O  O63  1  0.767600  0.424900  0.505200  1.0  -0.6056
  O  O64  1  0.732400  0.075100  0.005200  1.0  -0.6046
  O  O65  1  0.260900  0.383800  0.592100  1.0  -0.5961
  O  O66  1  0.491400  0.118100  0.874700  1.0  -0.5882
  O  O67  1  0.327100  0.923600  0.189700  1.0  -0.5544
  O  O68  1  0.919600  0.364200  0.585200  1.0  -0.6026
  O  O69  1  0.667900  0.796800  0.790700  1.0  -0.4698
  O  O70  1  0.332100  0.203200  0.209300  1.0  -0.4699
  O  O71  1  0.508600  0.881900  0.125300  1.0  -0.5868
  O  O72  1  0.739100  0.616200  0.407900  1.0  -0.5972
  O  O73  1  0.232400  0.575100  0.494800  1.0  -0.6065
  O  O74  1  0.239100  0.116200  0.092100  1.0  -0.5957
  O  O75  1  0.172900  0.576400  0.689700  1.0  -0.5543
  O  O76  1  0.760900  0.883800  0.907900  1.0  -0.5971
