# generated using pymatgen
data_Co4H12C36O25
_symmetry_space_group_name_H-M   'P 1'
_cell_length_a   11.25340000
_cell_length_b   16.21170000
_cell_length_c   33.31160000
_cell_angle_alpha   90.00000000
_cell_angle_beta   96.79740000
_cell_angle_gamma   90.00000000
_symmetry_Int_Tables_number   1
_chemical_formula_structural   Co4H12C36O25
_chemical_formula_sum   'Co16 H48 C144 O100'
_cell_volume   6034.54207906
_cell_formula_units_Z   4
loop_
 _symmetry_equiv_pos_site_id
 _symmetry_equiv_pos_as_xyz
  1  'x, y, z'
loop_
 _atom_site_type_symbol
 _atom_site_label
 _atom_site_symmetry_multiplicity
 _atom_site_fract_x
 _atom_site_fract_y
 _atom_site_fract_z
 _atom_site_occupancy
 _atom_site_charge
  Co  Co1  1  0.165200  0.565900  0.146580  1.0  1.1075
  Co  Co2  1  0.077240  0.540750  0.464060  1.0  1.0543
  Co  Co3  1  0.577240  0.959250  0.964060  1.0  1.0541
  Co  Co4  1  0.878370  0.492860  0.114030  1.0  1.0892
  Co  Co5  1  0.047910  0.420500  0.195030  1.0  1.1209
  Co  Co6  1  0.621630  0.992860  0.385970  1.0  1.088
  Co  Co7  1  0.121630  0.507140  0.885970  1.0  1.088
  Co  Co8  1  0.422760  0.040750  0.035940  1.0  1.0524
  Co  Co9  1  0.547910  0.079500  0.695030  1.0  1.1206
  Co  Co10  1  0.952090  0.579500  0.804970  1.0  1.118
  Co  Co11  1  0.665200  0.934100  0.646580  1.0  1.1079
  Co  Co12  1  0.452090  0.920500  0.304970  1.0  1.1201
  Co  Co13  1  0.922760  0.459250  0.535940  1.0  1.0524
  Co  Co14  1  0.334800  0.065900  0.353420  1.0  1.1078
  Co  Co15  1  0.378370  0.007140  0.614030  1.0  1.0888
  Co  Co16  1  0.834800  0.434100  0.853420  1.0  1.1091
  H  H17  1  0.744000  0.330500  0.242400  1.0  0.1428
  H  H18  1  0.260400  0.682400  0.380800  1.0  0.1363
  H  H19  1  0.839500  0.707600  0.569100  1.0  0.1334
  H  H20  1  0.442300  0.032100  0.194600  1.0  0.1391
  H  H21  1  0.826000  0.728600  0.448300  1.0  0.1434
  H  H22  1  0.739600  0.317600  0.619200  1.0  0.1363
  H  H23  1  0.339500  0.792400  0.069100  1.0  0.1315
  H  H24  1  0.806400  0.409800  0.987400  1.0  0.1444
  H  H25  1  0.430400  0.552900  0.538100  1.0  0.1406
  H  H26  1  0.097800  0.787300  0.117900  1.0  0.1354
  H  H27  1  0.569600  0.447100  0.461900  1.0  0.1405
  H  H28  1  0.279800  0.695500  0.261800  1.0  0.1357
  H  H29  1  0.674000  0.228600  0.051700  1.0  0.1433
  H  H30  1  0.942300  0.467900  0.694600  1.0  0.1394
  H  H31  1  0.193600  0.590200  0.012600  1.0  0.1446
  H  H32  1  0.930400  0.947100  0.038100  1.0  0.1407
  H  H33  1  0.660500  0.207600  0.930900  1.0  0.1314
  H  H34  1  0.174000  0.271400  0.551700  1.0  0.1429
  H  H35  1  0.057700  0.532100  0.305400  1.0  0.1395
  H  H36  1  0.720200  0.304500  0.738200  1.0  0.1361
  H  H37  1  0.326000  0.771400  0.948300  1.0  0.143
  H  H38  1  0.779200  0.728600  0.057600  1.0  0.1391
  H  H39  1  0.244000  0.169500  0.742400  1.0  0.143
  H  H40  1  0.387300  0.340900  0.241700  1.0  0.1266
  H  H41  1  0.953400  0.977700  0.336500  1.0  0.1403
  H  H42  1  0.693600  0.909800  0.512600  1.0  0.1447
  H  H43  1  0.612700  0.659100  0.758300  1.0  0.1261
  H  H44  1  0.160500  0.292400  0.430900  1.0  0.1337
  H  H45  1  0.112700  0.840900  0.258300  1.0  0.1271
  H  H46  1  0.557700  0.967900  0.805400  1.0  0.1398
  H  H47  1  0.220800  0.271400  0.942400  1.0  0.1392
  H  H48  1  0.220200  0.195500  0.238200  1.0  0.136
  H  H49  1  0.756000  0.830500  0.257600  1.0  0.1429
  H  H50  1  0.239600  0.182400  0.119200  1.0  0.1362
  H  H51  1  0.779800  0.804500  0.761800  1.0  0.1359
  H  H52  1  0.887300  0.159100  0.741700  1.0  0.1255
  H  H53  1  0.902200  0.212700  0.882100  1.0  0.1337
  H  H54  1  0.546600  0.477700  0.163500  1.0  0.14
  H  H55  1  0.256000  0.669500  0.757600  1.0  0.1429
  H  H56  1  0.453400  0.522300  0.836500  1.0  0.1401
  H  H57  1  0.306400  0.090200  0.487400  1.0  0.1447
  H  H58  1  0.402200  0.287300  0.382100  1.0  0.1338
  H  H59  1  0.720800  0.228600  0.442400  1.0  0.1389
  H  H60  1  0.760400  0.817600  0.880800  1.0  0.1361
  H  H61  1  0.597800  0.712700  0.617900  1.0  0.1339
  H  H62  1  0.279200  0.771400  0.557600  1.0  0.1392
  H  H63  1  0.069600  0.052900  0.961900  1.0  0.1406
  H  H64  1  0.046600  0.022300  0.663500  1.0  0.1398
  C  C65  1  0.076990  0.233300  0.782090  1.0  0.6871
  C  C66  1  0.402120  0.066000  0.116220  1.0  0.6844
  C  C67  1  0.903910  0.623800  0.505910  1.0  0.7368
  C  C68  1  0.769330  0.358700  0.988430  1.0  0.0633
  C  C69  1  0.841850  0.765800  0.063250  1.0  0.0505
  C  C70  1  0.933790  0.826800  0.252090  1.0  -0.1416
  C  C71  1  0.730670  0.858700  0.511570  1.0  0.0626
  C  C72  1  0.336420  0.591800  0.799620  1.0  -0.1366
  C  C73  1  0.137340  0.275300  0.169540  1.0  0.7179
  C  C74  1  0.288660  0.128400  0.564460  1.0  0.6825
  C  C75  1  0.747570  0.828200  0.783470  1.0  0.0127
  C  C76  1  0.836420  0.908200  0.299620  1.0  -0.1363
  C  C77  1  0.066210  0.173200  0.747910  1.0  -0.1402
  C  C78  1  0.637340  0.224700  0.669540  1.0  0.7175
  C  C79  1  0.764840  0.814700  0.547140  1.0  -0.1148
  C  C80  1  0.097880  0.566000  0.383780  1.0  0.6864
  C  C81  1  0.834730  0.393200  0.723230  1.0  -0.1245
  C  C82  1  0.341850  0.734200  0.563250  1.0  0.0506
  C  C83  1  0.362660  0.775300  0.330460  1.0  0.7194
  C  C84  1  0.230670  0.641300  0.011570  1.0  0.0623
  C  C85  1  0.067450  0.103600  0.948750  1.0  0.0588
  C  C86  1  0.269330  0.141300  0.488430  1.0  0.0633
  C  C87  1  0.343510  0.793800  0.008410  1.0  -0.1117
  C  C88  1  0.637740  0.568800  0.587140  1.0  0.6982
  C  C89  1  0.969140  0.124800  0.921240  1.0  -0.1207
  C  C90  1  0.423010  0.733300  0.717910  1.0  0.6888
  C  C91  1  0.557030  0.162200  0.389330  1.0  0.7229
  C  C92  1  0.252430  0.171800  0.216530  1.0  0.0135
  C  C93  1  0.788660  0.371600  0.064460  1.0  0.6824
  C  C94  1  0.862660  0.724700  0.830460  1.0  0.7196
  C  C95  1  0.235410  0.664600  0.354610  1.0  0.0369
  C  C96  1  0.211340  0.628400  0.935540  1.0  0.6815
  C  C97  1  0.057030  0.337800  0.889330  1.0  0.7217
  C  C98  1  0.633270  0.927200  0.735070  1.0  0.7061
  C  C99  1  0.466950  0.300600  0.400950  1.0  0.0362
  C  C100  1  0.229530  0.638300  0.513930  1.0  0.7222
  C  C101  1  0.735410  0.835400  0.854610  1.0  0.0372
  C  C102  1  0.237650  0.647500  0.086550  1.0  0.696
  C  C103  1  0.662010  0.341600  0.456410  1.0  -0.1201
  C  C104  1  0.247560  0.174300  0.525260  1.0  -0.1151
  C  C105  1  0.781350  0.798900  0.822650  1.0  -0.1135
  C  C106  1  0.747560  0.325700  0.025260  1.0  -0.1155
  C  C107  1  0.433790  0.673200  0.752090  1.0  -0.1405
  C  C108  1  0.551790  0.439800  0.184590  1.0  0.05
  C  C109  1  0.326530  0.448900  0.184930  1.0  0.7306
  C  C110  1  0.658150  0.265800  0.436750  1.0  0.0527
  C  C111  1  0.189970  0.250200  0.526970  1.0  0.0532
  C  C112  1  0.096090  0.376200  0.494090  1.0  0.7372
  C  C113  1  0.115460  0.573200  0.309560  1.0  0.05
  C  C114  1  0.718650  0.298900  0.677350  1.0  -0.1127
  C  C115  1  0.448210  0.560200  0.815410  1.0  0.0501
  C  C116  1  0.723900  0.933500  0.316700  1.0  0.7501
  C  C117  1  0.884540  0.426800  0.690440  1.0  0.0502
  C  C118  1  0.966950  0.199400  0.900950  1.0  0.0421
  C  C119  1  0.270470  0.138300  0.986070  1.0  0.7225
  C  C120  1  0.735160  0.314700  0.952860  1.0  -0.1142
  C  C121  1  0.262350  0.147500  0.413450  1.0  0.6977
  C  C122  1  0.543410  0.641700  0.768510  1.0  0.0593
  C  C123  1  0.942970  0.662200  0.110670  1.0  0.7238
  C  C124  1  0.615460  0.926800  0.809560  1.0  0.0492
  C  C125  1  0.923010  0.766700  0.217910  1.0  0.6887
  C  C126  1  0.162010  0.158400  0.956410  1.0  -0.1203
  C  C127  1  0.158150  0.234200  0.936750  1.0  0.0526
  C  C128  1  0.847740  0.398700  0.651640  1.0  -0.1273
  C  C129  1  0.165270  0.606800  0.276770  1.0  -0.1247
  C  C130  1  0.866730  0.427200  0.764930  1.0  0.706
  C  C131  1  0.652260  0.898700  0.848360  1.0  -0.1276
  C  C132  1  0.173470  0.948900  0.315070  1.0  0.7301
  C  C133  1  0.366730  0.072800  0.264930  1.0  0.7059
  C  C134  1  0.956590  0.141700  0.731490  1.0  0.0594
  C  C135  1  0.264590  0.164600  0.145390  1.0  0.0386
  C  C136  1  0.567450  0.396400  0.448750  1.0  0.0583
  C  C137  1  0.764590  0.335400  0.645390  1.0  0.0389
  C  C138  1  0.552070  0.585500  0.799470  1.0  -0.1494
  C  C139  1  0.862260  0.068800  0.912860  1.0  0.6969
  C  C140  1  0.530860  0.624800  0.578760  1.0  -0.1207
  C  C141  1  0.680650  0.237800  0.954450  1.0  0.0421
  C  C142  1  0.837990  0.841600  0.043590  1.0  -0.1189
  C  C143  1  0.043410  0.858300  0.268510  1.0  0.0598
  C  C144  1  0.770470  0.361700  0.486070  1.0  0.7211
  C  C145  1  0.447930  0.414500  0.200530  1.0  -0.149
  C  C146  1  0.347740  0.101300  0.151640  1.0  -0.1275
  C  C147  1  0.902120  0.434000  0.616220  1.0  0.6838
  C  C148  1  0.737650  0.852500  0.586550  1.0  0.6963
  C  C149  1  0.829850  0.851900  0.268150  1.0  0.0574
  C  C150  1  0.689970  0.249800  0.026970  1.0  0.054
  C  C151  1  0.403910  0.876200  0.005910  1.0  0.7371
  C  C152  1  0.776100  0.433500  0.183300  1.0  0.7392
  C  C153  1  0.810030  0.749800  0.473030  1.0  0.0539
  C  C154  1  0.329850  0.648100  0.768150  1.0  0.0569
  C  C155  1  0.051790  0.060200  0.684590  1.0  0.0499
  C  C156  1  0.711340  0.871600  0.435540  1.0  0.6823
  C  C157  1  0.281350  0.701100  0.322650  1.0  -0.1113
  C  C158  1  0.061590  0.254700  0.908790  1.0  -0.1217
  C  C159  1  0.752440  0.825700  0.474740  1.0  -0.1146
  C  C160  1  0.843510  0.706200  0.508410  1.0  -0.1118
  C  C161  1  0.752430  0.328200  0.716530  1.0  0.0144
  C  C162  1  0.469140  0.375200  0.421240  1.0  -0.1203
  C  C163  1  0.432550  0.603600  0.551250  1.0  0.0583
  C  C164  1  0.561590  0.245300  0.408790  1.0  -0.1216
  C  C165  1  0.947930  0.085500  0.700530  1.0  -0.1494
  C  C166  1  0.052070  0.914500  0.299470  1.0  -0.1494
  C  C167  1  0.152260  0.601300  0.348360  1.0  -0.1273
  C  C168  1  0.235160  0.185300  0.452860  1.0  -0.1147
  C  C169  1  0.670150  0.351900  0.231850  1.0  0.0596
  C  C170  1  0.310030  0.750200  0.973030  1.0  0.0534
  C  C171  1  0.665270  0.893200  0.776770  1.0  -0.124
  C  C172  1  0.948210  0.939800  0.315410  1.0  0.0494
  C  C173  1  0.597880  0.934000  0.883780  1.0  0.6864
  C  C174  1  0.163580  0.091800  0.700380  1.0  -0.1362
  C  C175  1  0.156490  0.293800  0.491590  1.0  -0.1114
  C  C176  1  0.133270  0.572800  0.235070  1.0  0.7059
  C  C177  1  0.596090  0.123800  0.994090  1.0  0.737
  C  C178  1  0.030860  0.875200  0.078760  1.0  -0.1206
  C  C179  1  0.218650  0.201100  0.177350  1.0  -0.1125
  C  C180  1  0.566210  0.326800  0.247910  1.0  -0.1393
  C  C181  1  0.276100  0.066500  0.683300  1.0  0.7393
  C  C182  1  0.247570  0.671800  0.283470  1.0  0.0126
  C  C183  1  0.180650  0.262200  0.454450  1.0  0.0426
  C  C184  1  0.337990  0.658400  0.543590  1.0  -0.1192
  C  C185  1  0.576990  0.266700  0.282090  1.0  0.6875
  C  C186  1  0.819350  0.737800  0.545550  1.0  0.0421
  C  C187  1  0.938410  0.745300  0.091210  1.0  -0.1219
  C  C188  1  0.384540  0.073200  0.190440  1.0  0.051
  C  C189  1  0.170150  0.148100  0.731850  1.0  0.0587
  C  C190  1  0.656490  0.206200  0.991590  1.0  -0.1116
  C  C191  1  0.932550  0.896400  0.051250  1.0  0.0576
  C  C192  1  0.438410  0.754700  0.591210  1.0  -0.1218
  C  C193  1  0.533050  0.699400  0.599050  1.0  0.035
  C  C194  1  0.033050  0.800600  0.099050  1.0  0.0338
  C  C195  1  0.137740  0.931200  0.087140  1.0  0.6985
  C  C196  1  0.319350  0.762200  0.045550  1.0  0.0424
  C  C197  1  0.663580  0.408200  0.200380  1.0  -0.1356
  C  C198  1  0.826530  0.051100  0.684930  1.0  0.7309
  C  C199  1  0.264840  0.685300  0.047140  1.0  -0.1153
  C  C200  1  0.223900  0.566500  0.816700  1.0  0.7493
  C  C201  1  0.762350  0.352500  0.913450  1.0  0.6979
  C  C202  1  0.252440  0.674300  0.974740  1.0  -0.115
  C  C203  1  0.673470  0.551100  0.815070  1.0  0.7307
  C  C204  1  0.729530  0.861700  0.013930  1.0  0.7211
  C  C205  1  0.456590  0.358300  0.231490  1.0  0.0595
  C  C206  1  0.334730  0.106800  0.223230  1.0  -0.1241
  C  C207  1  0.362260  0.431200  0.412860  1.0  0.6976
  C  C208  1  0.442970  0.837800  0.610670  1.0  0.7237
  O  O209  1  0.127920  0.390800  0.905320  1.0  -0.5626
  O  O210  1  0.820660  0.000000  0.655760  1.0  -0.5558
  O  O211  1  0.776550  0.086100  0.889250  1.0  -0.4677
  O  O212  1  0.741720  0.074700  0.702720  1.0  -0.5834
  O  O213  1  0.842150  0.420900  0.581250  1.0  -0.5702
  O  O214  1  0.870590  0.401500  0.199690  1.0  -0.5912
  O  O215  1  0.627920  0.109200  0.405320  1.0  -0.5619
  O  O216  1  0.077600  0.418400  0.462200  1.0  -0.5649
  O  O217  1  0.676720  0.918000  0.585120  1.0  -0.5552
  O  O218  1  0.872080  0.609200  0.094680  1.0  -0.5603
  O  O219  1  0.724590  0.319200  0.880290  1.0  -0.5829
  O  O220  1  0.069320  0.398000  0.528120  1.0  -0.5811
  O  O221  1  0.179340  0.000000  0.344240  1.0  -0.5542
  O  O222  1  0.917290  0.700600  0.800990  1.0  -0.5857
  O  O223  1  0.422400  0.918400  0.037800  1.0  -0.5651
  O  O224  1  0.582710  0.200600  0.699010  1.0  -0.5865
  O  O225  1  0.870380  0.999700  0.934080  1.0  -0.4649
  O  O226  1  0.371050  0.806600  0.364350  1.0  -0.4556
  O  O227  1  0.176720  0.582000  0.085120  1.0  -0.5554
  O  O228  1  0.831900  0.734200  0.204700  1.0  -0.4406
  O  O229  1  0.293320  0.061600  0.991120  1.0  -0.5784
  O  O230  1  0.474630  0.253400  0.295930  1.0  -0.4614
  O  O231  1  0.765740  0.483700  0.154740  1.0  -0.547
  O  O232  1  0.445360  0.015600  0.267560  1.0  -0.5792
  O  O233  1  0.554640  0.984400  0.732440  1.0  -0.5769
  O  O234  1  0.706680  0.938400  0.008880  1.0  -0.5784
  O  O235  1  0.430680  0.898000  0.971880  1.0  -0.5809
  O  O236  1  0.234260  0.516300  0.845260  1.0  -0.547
  O  O237  1  0.082710  0.299400  0.199010  1.0  -0.5856
  O  O238  1  0.017100  0.649800  0.141600  1.0  -0.5926
  O  O239  1  0.775410  0.819200  0.619710  1.0  -0.587
  O  O240  1  0.208790  0.664100  0.902890  1.0  -0.5002
  O  O241  1  0.922400  0.581600  0.537800  1.0  -0.565
  O  O242  1  0.265740  0.016300  0.654740  1.0  -0.5471
  O  O243  1  0.974630  0.246600  0.795930  1.0  -0.4606
  O  O244  1  0.329680  0.195000  0.003580  1.0  -0.4877
  O  O245  1  0.258280  0.925300  0.297280  1.0  -0.5833
  O  O246  1  0.370590  0.098500  0.699690  1.0  -0.5915
  O  O247  1  0.930680  0.602000  0.471880  1.0  -0.5813
  O  O248  1  0.668100  0.234200  0.295300  1.0  -0.4398
  O  O249  1  0.044680  0.468580  0.137880  1.0  -0.7164
  O  O250  1  0.945360  0.484400  0.767560  1.0  -0.5776
  O  O251  1  0.482900  0.149800  0.358400  1.0  -0.5933
  O  O252  1  0.517100  0.850200  0.641600  1.0  -0.5925
  O  O253  1  0.793320  0.438400  0.491120  1.0  -0.5792
  O  O254  1  0.670320  0.805000  0.996420  1.0  -0.4872
  O  O255  1  0.823280  0.418000  0.914880  1.0  -0.5567
  O  O256  1  0.276550  0.413900  0.389250  1.0  -0.4674
  O  O257  1  0.708790  0.835900  0.402890  1.0  -0.5002
  O  O258  1  0.316190  0.100800  0.293390  1.0  -0.5797
  O  O259  1  0.544680  0.031420  0.637880  1.0  -0.7174
  O  O260  1  0.223450  0.913900  0.110750  1.0  -0.4683
  O  O261  1  0.342150  0.079100  0.081250  1.0  -0.5701
  O  O262  1  0.128950  0.306600  0.135650  1.0  -0.4556
  O  O263  1  0.372080  0.890800  0.594680  1.0  -0.5605
  O  O264  1  0.177070  0.555400  0.938770  1.0  -0.5694
  O  O265  1  0.241720  0.425300  0.202720  1.0  -0.583
  O  O266  1  0.157850  0.579100  0.418750  1.0  -0.5735
  O  O267  1  0.025370  0.753400  0.204070  1.0  -0.4604
  O  O268  1  0.628950  0.193400  0.635650  1.0  -0.4564
  O  O269  1  0.170320  0.695000  0.496420  1.0  -0.4876
  O  O270  1  0.417290  0.799400  0.300990  1.0  -0.5861
  O  O271  1  0.955320  0.531420  0.862120  1.0  -0.7166
  O  O272  1  0.183810  0.600800  0.206610  1.0  -0.5805
  O  O273  1  0.455320  0.968580  0.362120  1.0  -0.716
  O  O274  1  0.569320  0.102000  0.028120  1.0  -0.5807
  O  O275  1  0.054640  0.515600  0.232440  1.0  -0.5773
  O  O276  1  0.320660  0.500000  0.155760  1.0  -0.5555
  O  O277  1  0.168100  0.265800  0.795300  1.0  -0.4429
  O  O278  1  0.791210  0.335900  0.097110  1.0  -0.4997
  O  O279  1  0.822930  0.444600  0.061230  1.0  -0.5717
  O  O280  1  0.982900  0.350200  0.858400  1.0  -0.5934
  O  O281  1  0.502160  0.971400  0.879260  1.0  -0.461
  O  O282  1  0.322930  0.055400  0.561230  1.0  -0.5697
  O  O283  1  0.129410  0.598500  0.800310  1.0  -0.5904
  O  O284  1  0.829680  0.305000  0.503580  1.0  -0.4859
  O  O285  1  0.816190  0.399200  0.793390  1.0  -0.5796
  O  O286  1  0.525370  0.746600  0.704070  1.0  -0.4607
  O  O287  1  0.275410  0.680800  0.119710  1.0  -0.5866
  O  O288  1  0.291210  0.164100  0.597110  1.0  -0.5015
  O  O289  1  0.723450  0.586100  0.610750  1.0  -0.4679
  O  O290  1  0.734260  0.983700  0.345260  1.0  -0.5465
  O  O291  1  0.370380  0.500300  0.434080  1.0  -0.4593
  O  O292  1  0.758280  0.574700  0.797280  1.0  -0.5833
  O  O293  1  0.002160  0.528600  0.379260  1.0  -0.463
  O  O294  1  0.871050  0.693400  0.864350  1.0  -0.4557
  O  O295  1  0.683810  0.899200  0.706610  1.0  -0.5807
  O  O296  1  0.129620  0.000300  0.065920  1.0  -0.4631
  O  O297  1  0.206680  0.561600  0.508880  1.0  -0.5781
  O  O298  1  0.224590  0.180800  0.380290  1.0  -0.5815
  O  O299  1  0.323280  0.082000  0.414880  1.0  -0.5577
  O  O300  1  0.577600  0.081600  0.962200  1.0  -0.5649
  O  O301  1  0.629410  0.901500  0.300310  1.0  -0.5904
  O  O302  1  0.657850  0.920900  0.918750  1.0  -0.5733
  O  O303  1  0.497840  0.028600  0.120740  1.0  -0.4647
  O  O304  1  0.997840  0.471400  0.620740  1.0  -0.4623
  O  O305  1  0.677070  0.944600  0.438770  1.0  -0.5699
  O  O306  1  0.331900  0.765800  0.704700  1.0  -0.4421
  O  O307  1  0.629620  0.499700  0.565920  1.0  -0.4653
  O  O308  1  0.679340  0.500000  0.844240  1.0  -0.5551
