# generated using pymatgen
data_CoH8C17(O2F3)2
_symmetry_space_group_name_H-M   'P 1'
_cell_length_a   10.54340000
_cell_length_b   20.72440000
_cell_length_c   20.72440000
_cell_angle_alpha   86.29000000
_cell_angle_beta   75.26360000
_cell_angle_gamma   75.26350000
_symmetry_Int_Tables_number   1
_chemical_formula_structural   CoH8C17(O2F3)2
_chemical_formula_sum   'Co8 H64 C136 O32 F48'
_cell_volume   4235.38487428
_cell_formula_units_Z   8
loop_
 _symmetry_equiv_pos_site_id
 _symmetry_equiv_pos_as_xyz
  1  'x, y, z'
loop_
 _atom_site_type_symbol
 _atom_site_label
 _atom_site_symmetry_multiplicity
 _atom_site_fract_x
 _atom_site_fract_y
 _atom_site_fract_z
 _atom_site_occupancy
 _atom_site_charge
  Co  Co1  1  0.033890  0.689850  0.225550  1.0  1.0004
  Co  Co2  1  0.740560  0.225550  0.810150  1.0  1.0047
  Co  Co3  1  0.276260  0.274450  0.689850  1.0  1.003
  Co  Co4  1  0.449290  0.810150  0.274450  1.0  0.9995
  Co  Co5  1  0.259440  0.774450  0.189850  1.0  1.0037
  Co  Co6  1  0.550710  0.189850  0.725550  1.0  0.9996
  Co  Co7  1  0.966110  0.310150  0.774450  1.0  0.9994
  Co  Co8  1  0.723740  0.725550  0.310150  1.0  1.0043
  H  H9  1  0.004600  0.918500  0.204700  1.0  0.1098
  H  H10  1  0.381300  0.131900  0.871900  1.0  0.1071
  H  H11  1  0.426100  0.002000  0.202200  1.0  0.1127
  H  H12  1  0.746800  0.871900  0.368100  1.0  0.1082
  H  H13  1  0.995400  0.081500  0.795300  1.0  0.1095
  H  H14  1  0.923100  0.704700  0.081500  1.0  0.1094
  H  H15  1  0.437900  0.168400  0.389000  1.0  0.1189
  H  H16  1  0.253200  0.128100  0.631900  1.0  0.1076
  H  H17  1  0.513600  0.516400  0.112800  1.0  0.1084
  H  H18  1  0.562100  0.831600  0.611000  1.0  0.119
  H  H19  1  0.098600  0.970100  0.776700  1.0  0.1071
  H  H20  1  0.875300  0.223300  0.470100  1.0  0.1071
  H  H21  1  0.504700  0.668400  0.889000  1.0  0.1192
  H  H22  1  0.513200  0.371900  0.868100  1.0  0.1077
  H  H23  1  0.076900  0.295300  0.918500  1.0  0.1096
  H  H24  1  0.826900  0.611000  0.668400  1.0  0.1192
  H  H25  1  0.495300  0.331600  0.111000  1.0  0.1189
  H  H26  1  0.628300  0.797800  0.502000  1.0  0.1111
  H  H27  1  0.172000  0.973000  0.100400  1.0  0.1172
  H  H28  1  0.130300  0.498000  0.297800  1.0  0.1121
  H  H29  1  0.393700  0.111000  0.168400  1.0  0.1182
  H  H30  1  0.727600  0.100400  0.527000  1.0  0.1173
  H  H31  1  0.618700  0.868100  0.128100  1.0  0.1072
  H  H32  1  0.777500  0.435700  0.081500  1.0  0.1198
  H  H33  1  0.114900  0.631900  0.371900  1.0  0.1075
  H  H34  1  0.642800  0.983600  0.387200  1.0  0.1104
  H  H35  1  0.345400  0.529900  0.723300  1.0  0.1083
  H  H36  1  0.571900  0.297800  0.002000  1.0  0.1111
  H  H37  1  0.254600  0.473000  0.600400  1.0  0.1179
  H  H38  1  0.573900  0.998000  0.797800  1.0  0.113
  H  H39  1  0.885100  0.368100  0.628100  1.0  0.1067
  H  H40  1  0.373600  0.112800  0.983600  1.0  0.1083
  H  H41  1  0.209300  0.795300  0.418500  1.0  0.1094
  H  H42  1  0.901400  0.029900  0.223300  1.0  0.1068
  H  H43  1  0.357200  0.016400  0.612800  1.0  0.11
  H  H44  1  0.794700  0.064300  0.418500  1.0  0.1219
  H  H45  1  0.124700  0.776700  0.529900  1.0  0.1068
  H  H46  1  0.627800  0.581500  0.295300  1.0  0.1098
  H  H47  1  0.213200  0.581500  0.564300  1.0  0.1199
  H  H48  1  0.371700  0.202200  0.498000  1.0  0.1111
  H  H49  1  0.855000  0.399600  0.973000  1.0  0.1171
  H  H50  1  0.606300  0.889000  0.831600  1.0  0.1185
  H  H51  1  0.970000  0.387200  0.516400  1.0  0.1087
  H  H52  1  0.372200  0.418500  0.704700  1.0  0.1099
  H  H53  1  0.859000  0.918500  0.935700  1.0  0.1204
  H  H54  1  0.786800  0.418500  0.435700  1.0  0.1206
  H  H55  1  0.745400  0.527000  0.399600  1.0  0.1171
  H  H56  1  0.205300  0.935700  0.581500  1.0  0.1216
  H  H57  1  0.141000  0.081500  0.064300  1.0  0.1206
  H  H58  1  0.272400  0.899600  0.473000  1.0  0.1179
  H  H59  1  0.828000  0.027000  0.899600  1.0  0.1172
  H  H60  1  0.145000  0.600400  0.027000  1.0  0.1165
  H  H61  1  0.030000  0.612800  0.483600  1.0  0.1087
  H  H62  1  0.486400  0.483600  0.887200  1.0  0.1088
  H  H63  1  0.626400  0.887200  0.016400  1.0  0.1083
  H  H64  1  0.931300  0.723300  0.970100  1.0  0.107
  H  H65  1  0.173100  0.389000  0.331600  1.0  0.1195
  H  H66  1  0.222500  0.564300  0.918500  1.0  0.1199
  H  H67  1  0.790700  0.204700  0.581500  1.0  0.109
  H  H68  1  0.654600  0.470100  0.276700  1.0  0.1079
  H  H69  1  0.486800  0.628100  0.131900  1.0  0.1072
  H  H70  1  0.428100  0.702200  0.998000  1.0  0.1107
  H  H71  1  0.068700  0.276700  0.029900  1.0  0.1073
  H  H72  1  0.869700  0.502000  0.702200  1.0  0.1117
  C  C73  1  0.371970  0.612160  0.891500  1.0  0.0979
  C  C74  1  0.091960  0.406600  0.681680  1.0  0.7185
  C  C75  1  0.828530  0.240880  0.568460  1.0  -0.033
  C  C76  1  0.060330  0.481890  0.325250  1.0  -0.0084
  C  C77  1  0.862130  0.740880  0.068460  1.0  -0.0356
  C  C78  1  0.709270  0.092530  0.434130  1.0  -0.1189
  C  C79  1  0.226360  0.681680  0.093400  1.0  0.7209
  C  C80  1  0.239950  0.980510  0.693590  1.0  0.1083
  C  C81  1  0.089510  0.215970  0.141210  1.0  0.6216
  C  C82  1  0.651010  0.916600  0.845780  1.0  -0.158
  C  C83  1  0.501440  0.818320  0.406600  1.0  0.722
  C  C84  1  0.885000  0.338530  0.596270  1.0  -0.0384
  C  C85  1  0.482750  0.311870  0.765630  1.0  0.6435
  C  C86  1  0.517250  0.688130  0.234370  1.0  0.6435
  C  C87  1  0.143400  0.565870  0.592530  1.0  -0.1175
  C  C88  1  0.934960  0.350120  0.529360  1.0  -0.1046
  C  C89  1  0.869040  0.998340  0.252380  1.0  -0.1248
  C  C90  1  0.385580  0.674750  0.981890  1.0  -0.0101
  C  C91  1  0.535680  0.529360  0.149880  1.0  -0.0989
  C  C92  1  0.434190  0.899110  0.718910  1.0  0.7105
  C  C93  1  0.603010  0.568460  0.259120  1.0  -0.0395
  C  C94  1  0.794620  0.265630  0.688130  1.0  0.6449
  C  C95  1  0.714920  0.970640  0.350120  1.0  -0.0971
  C  C96  1  0.198200  0.065870  0.092530  1.0  -0.1165
  C  C97  1  0.984130  0.391500  0.387840  1.0  0.0989
  C  C98  1  0.496790  0.154220  0.416600  1.0  -0.1599
  C  C99  1  0.680240  0.093400  0.818320  1.0  0.7201
  C  C100  1  0.086610  0.416600  0.345780  1.0  -0.1598
  C  C101  1  0.867380  0.752380  0.001660  1.0  -0.1276
  C  C102  1  0.549240  0.616120  0.217200  1.0  -0.1278
  C  C103  1  0.248380  0.234370  0.811870  1.0  0.6446
  C  C104  1  0.498560  0.181680  0.593400  1.0  0.7226
  C  C105  1  0.698110  0.024030  0.843950  1.0  -0.1076
  C  C106  1  0.587440  0.407190  0.182930  1.0  -0.3056
  C  C107  1  0.939750  0.811870  0.265630  1.0  0.6434
  C  C108  1  0.735930  0.407470  0.065870  1.0  -0.1182
  C  C109  1  0.005370  0.317070  0.407190  1.0  -0.3051
  C  C110  1  0.432390  0.654220  0.916600  1.0  -0.1614
  C  C111  1  0.783050  0.999180  0.885920  1.0  -0.0306
  C  C112  1  0.908040  0.593400  0.318320  1.0  0.7199
  C  C113  1  0.015870  0.608500  0.612160  1.0  0.0986
  C  C114  1  0.319800  0.161470  0.903730  1.0  -0.0392
  C  C115  1  0.694520  0.358790  0.215970  1.0  0.6229
  C  C116  1  0.060250  0.188130  0.734370  1.0  0.6438
  C  C117  1  0.171470  0.759120  0.431540  1.0  -0.0341
  C  C118  1  0.277860  0.656050  0.024030  1.0  -0.11
  C  C119  1  0.305480  0.641210  0.784030  1.0  0.606
  C  C120  1  0.770370  0.817070  0.907190  1.0  -0.3048
  C  C121  1  0.685560  0.850120  0.029360  1.0  -0.1023
  C  C122  1  0.314440  0.149880  0.970640  1.0  -0.1044
  C  C123  1  0.782230  0.385920  0.000820  1.0  -0.0281
  C  C124  1  0.760050  0.019490  0.306410  1.0  0.108
  C  C125  1  0.552210  0.600890  0.781090  1.0  0.7051
  C  C126  1  0.331030  0.885920  0.500820  1.0  -0.0283
  C  C127  1  0.567610  0.345780  0.083400  1.0  -0.1596
  C  C128  1  0.367470  0.018110  0.174750  1.0  -0.0109
  C  C129  1  0.263470  0.108500  0.112160  1.0  0.0987
  C  C130  1  0.585950  0.480510  0.193590  1.0  0.1087
  C  C131  1  0.946690  0.284030  0.358790  1.0  0.6222
  C  C132  1  0.680200  0.838530  0.096270  1.0  -0.0378
  C  C133  1  0.856600  0.434130  0.407470  1.0  -0.117
  C  C134  1  0.301890  0.975970  0.156050  1.0  -0.1078
  C  C135  1  0.165360  0.717200  0.383880  1.0  -0.1292
  C  C136  1  0.220460  0.193590  0.019490  1.0  0.1078
  C  C137  1  0.115000  0.661470  0.403730  1.0  -0.0383
  C  C138  1  0.319760  0.906600  0.181680  1.0  0.7188
  C  C139  1  0.619760  0.501660  0.247620  1.0  -0.1292
  C  C140  1  0.503210  0.845780  0.583400  1.0  -0.1596
  C  C141  1  0.834640  0.282800  0.616120  1.0  -0.1291
  C  C142  1  0.751620  0.765630  0.188130  1.0  0.6445
  C  C143  1  0.053310  0.715970  0.641210  1.0  0.6223
  C  C144  1  0.069410  0.068460  0.759120  1.0  -0.0376
  C  C145  1  0.930590  0.931540  0.240880  1.0  -0.0373
  C  C146  1  0.831850  0.499180  0.385920  1.0  -0.0256
  C  C147  1  0.769280  0.141210  0.284030  1.0  0.6192
  C  C148  1  0.464320  0.470640  0.850120  1.0  -0.0994
  C  C149  1  0.447790  0.399110  0.218910  1.0  0.7115
  C  C150  1  0.801800  0.934130  0.907470  1.0  -0.1169
  C  C151  1  0.414050  0.519490  0.806410  1.0  0.1079
  C  C152  1  0.933910  0.524030  0.343950  1.0  -0.1082
  C  C153  1  0.677560  0.092810  0.317070  1.0  -0.3052
  C  C154  1  0.216950  0.000820  0.114080  1.0  -0.0268
  C  C155  1  0.457780  0.174750  0.481890  1.0  -0.0075
  C  C156  1  0.518730  0.596270  0.161470  1.0  -0.043
  C  C157  1  0.285080  0.029360  0.649880  1.0  -0.0995
  C  C158  1  0.229630  0.182930  0.092810  1.0  -0.3045
  C  C159  1  0.882560  0.883880  0.282800  1.0  -0.1284
  C  C160  1  0.542060  0.156050  0.524030  1.0  -0.1083
  C  C161  1  0.322440  0.907190  0.682930  1.0  -0.3049
  C  C162  1  0.994630  0.682930  0.592810  1.0  -0.3053
  C  C163  1  0.628030  0.387840  0.108500  1.0  0.0985
  C  C164  1  0.913390  0.583400  0.654220  1.0  -0.1589
  C  C165  1  0.939670  0.518110  0.674750  1.0  -0.0086
  C  C166  1  0.776470  0.903730  0.338530  1.0  -0.0387
  C  C167  1  0.217770  0.614080  0.999180  1.0  -0.0265
  C  C168  1  0.632530  0.981890  0.825250  1.0  -0.0113
  C  C169  1  0.614420  0.325250  0.018110  1.0  -0.009
  C  C170  1  0.624370  0.112160  0.391500  1.0  0.0968
  C  C171  1  0.481270  0.403730  0.838530  1.0  -0.0413
  C  C172  1  0.233560  0.217200  0.883880  1.0  -0.1283
  C  C173  1  0.722140  0.343950  0.975970  1.0  -0.1102
  C  C174  1  0.066090  0.475970  0.656050  1.0  -0.1072
  C  C175  1  0.565810  0.100890  0.281090  1.0  0.713
  C  C176  1  0.846900  0.718910  0.600890  1.0  0.7122
  C  C177  1  0.450760  0.383880  0.782800  1.0  -0.1285
  C  C178  1  0.153100  0.281090  0.399110  1.0  0.7109
  C  C179  1  0.396990  0.431540  0.740880  1.0  -0.0378
  C  C180  1  0.333333  0.218910  0.100890  1.0  0.7078
  C  C181  1  0.290730  0.907470  0.565870  1.0  -0.1201
  C  C182  1  0.264070  0.592530  0.934130  1.0  -0.1179
  C  C183  1  0.910490  0.784030  0.858790  1.0  0.619
  C  C184  1  0.132620  0.247620  0.998340  1.0  -0.1286
  C  C185  1  0.223530  0.096270  0.661470  1.0  -0.0389
  C  C186  1  0.666667  0.781090  0.899110  1.0  0.7135
  C  C187  1  0.137870  0.259120  0.931540  1.0  -0.0338
  C  C188  1  0.779540  0.806410  0.980510  1.0  0.1083
  C  C189  1  0.736530  0.891500  0.887840  1.0  0.0988
  C  C190  1  0.121420  0.747620  0.498340  1.0  -0.1284
  C  C191  1  0.168150  0.500820  0.614080  1.0  -0.0282
  C  C192  1  0.380240  0.498340  0.752380  1.0  -0.1292
  C  C193  1  0.348990  0.083400  0.154220  1.0  -0.1577
  C  C194  1  0.412560  0.592810  0.817070  1.0  -0.3053
  C  C195  1  0.066460  0.693590  0.519490  1.0  0.1076
  C  C196  1  0.065040  0.649880  0.470640  1.0  -0.1024
  C  C197  1  0.457940  0.843950  0.475970  1.0  -0.1089
  C  C198  1  0.205380  0.734370  0.311870  1.0  0.6451
  C  C199  1  0.668970  0.114080  0.499180  1.0  -0.0283
  C  C200  1  0.230720  0.858790  0.715970  1.0  0.6206
  C  C201  1  0.878580  0.252380  0.501660  1.0  -0.1294
  C  C202  1  0.542220  0.825250  0.518110  1.0  -0.0079
  C  C203  1  0.130960  0.001660  0.747620  1.0  -0.1234
  C  C204  1  0.766440  0.782800  0.116120  1.0  -0.1282
  C  C205  1  0.773640  0.318320  0.906600  1.0  0.7206
  C  C206  1  0.117440  0.116120  0.717200  1.0  -0.128
  C  C207  1  0.933540  0.306410  0.480510  1.0  0.1071
  C  C208  1  0.375630  0.887840  0.608500  1.0  0.0978
  O  O209  1  0.240260  0.788860  0.295220  1.0  -0.6556
  O  O210  1  0.901610  0.767260  0.304120  1.0  -0.6433
  O  O211  1  0.794270  0.304120  0.732740  1.0  -0.6433
  O  O212  1  0.574430  0.160270  0.632070  1.0  -0.5916
  O  O213  1  0.282080  0.723750  0.109090  1.0  -0.601
  O  O214  1  0.994170  0.390910  0.723750  1.0  -0.6007
  O  O215  1  0.029120  0.795220  0.211140  1.0  -0.6535
  O  O216  1  0.098390  0.232740  0.695880  1.0  -0.6427
  O  O217  1  0.265300  0.867930  0.160270  1.0  -0.5914
  O  O218  1  0.472990  0.732740  0.195880  1.0  -0.6417
  O  O219  1  0.133230  0.660270  0.132070  1.0  -0.5908
  O  O220  1  0.759740  0.211140  0.704780  1.0  -0.6563
  O  O221  1  0.717920  0.276250  0.890910  1.0  -0.6003
  O  O222  1  0.527010  0.267260  0.804120  1.0  -0.6429
  O  O223  1  0.005830  0.609090  0.276250  1.0  -0.6005
  O  O224  1  0.866770  0.339730  0.867930  1.0  -0.5918
  O  O225  1  0.464520  0.295220  0.711140  1.0  -0.6541
  O  O226  1  0.391170  0.890910  0.223750  1.0  -0.6027
  O  O227  1  0.425570  0.839730  0.367930  1.0  -0.5919
  O  O228  1  0.793500  0.632070  0.339730  1.0  -0.5909
  O  O229  1  0.668870  0.804120  0.232740  1.0  -0.6441
  O  O230  1  0.535480  0.704780  0.288860  1.0  -0.6544
  O  O231  1  0.970880  0.204780  0.788860  1.0  -0.6555
  O  O232  1  0.206500  0.367930  0.660270  1.0  -0.5904
  O  O233  1  0.385080  0.223750  0.609090  1.0  -0.6015
  O  O234  1  0.205730  0.695880  0.267260  1.0  -0.6438
  O  O235  1  0.824340  0.711140  0.204780  1.0  -0.6564
  O  O236  1  0.331130  0.195880  0.767260  1.0  -0.6442
  O  O237  1  0.614920  0.776250  0.390910  1.0  -0.5999
  O  O238  1  0.608830  0.109090  0.776250  1.0  -0.6013
  O  O239  1  0.175660  0.288860  0.795220  1.0  -0.6565
  O  O240  1  0.734700  0.132070  0.839730  1.0  -0.5926
  F  F241  1  0.793720  0.141960  0.218000  1.0  -0.1867
  F  F242  1  0.406190  0.426110  0.280310  1.0  -0.1979
  F  F243  1  0.334010  0.227020  0.164360  1.0  -0.1973
  F  F244  1  0.225390  0.272980  0.335640  1.0  -0.1923
  F  F245  1  0.812350  0.301500  0.375600  1.0  -0.1789
  F  F246  1  0.458100  0.186400  0.070000  1.0  -0.1974
  F  F247  1  0.064320  0.282000  0.141960  1.0  -0.1887
  F  F248  1  0.010550  0.801500  0.875600  1.0  -0.1794
  F  F249  1  0.501630  0.164360  0.272980  1.0  -0.1934
  F  F250  1  0.113850  0.875600  0.698500  1.0  -0.1809
  F  F251  1  0.283270  0.703360  0.805300  1.0  -0.1955
  F  F252  1  0.214500  0.313600  0.430000  1.0  -0.2002
  F  F253  1  0.785500  0.686400  0.570000  1.0  -0.1994
  F  F254  1  0.011720  0.782000  0.641960  1.0  -0.1883
  F  F255  1  0.812050  0.375600  0.198500  1.0  -0.179
  F  F256  1  0.989450  0.198500  0.124400  1.0  -0.1804
  F  F257  1  0.167700  0.219690  0.426110  1.0  -0.1954
  F  F258  1  0.665990  0.772980  0.835640  1.0  -0.1953
  F  F259  1  0.832300  0.780310  0.573890  1.0  -0.1978
  F  F260  1  0.498370  0.835640  0.727020  1.0  -0.1926
  F  F261  1  0.561030  0.664360  0.772980  1.0  -0.1916
  F  F262  1  0.986630  0.305300  0.296640  1.0  -0.195
  F  F263  1  0.593810  0.573890  0.719690  1.0  -0.1992
  F  F264  1  0.206280  0.858040  0.782000  1.0  -0.1884
  F  F265  1  0.187950  0.624400  0.801500  1.0  -0.1782
  F  F266  1  0.013370  0.694700  0.703360  1.0  -0.1952
  F  F267  1  0.291930  0.796640  0.694700  1.0  -0.1948
  F  F268  1  0.911430  0.805300  0.796640  1.0  -0.1939
  F  F269  1  0.886150  0.124400  0.301500  1.0  -0.1798
  F  F270  1  0.355500  0.430000  0.186400  1.0  -0.1996
  F  F271  1  0.438970  0.335640  0.227020  1.0  -0.1929
  F  F272  1  0.387390  0.926110  0.780310  1.0  -0.1989
  F  F273  1  0.774610  0.727020  0.664360  1.0  -0.1958
  F  F274  1  0.708070  0.203360  0.305300  1.0  -0.1959
  F  F275  1  0.686500  0.719690  0.926110  1.0  -0.1945
  F  F276  1  0.644500  0.570000  0.813600  1.0  -0.201
  F  F277  1  0.088570  0.194700  0.203360  1.0  -0.1939
  F  F278  1  0.612610  0.073890  0.219690  1.0  -0.1996
  F  F279  1  0.988280  0.218000  0.358040  1.0  -0.1879
  F  F280  1  0.528100  0.930000  0.686400  1.0  -0.1977
  F  F281  1  0.541900  0.813600  0.930000  1.0  -0.1971
  F  F282  1  0.346320  0.641960  0.718000  1.0  -0.1872
  F  F283  1  0.653680  0.358040  0.282000  1.0  -0.1896
  F  F284  1  0.313500  0.280310  0.073890  1.0  -0.1971
  F  F285  1  0.471900  0.070000  0.313600  1.0  -0.1971
  F  F286  1  0.716730  0.296640  0.194700  1.0  -0.1946
  F  F287  1  0.187650  0.698500  0.624400  1.0  -0.1792
  F  F288  1  0.935680  0.718000  0.858040  1.0  -0.1887
