# generated using pymatgen
data_Zn4H19C38N2O17
_symmetry_space_group_name_H-M   'P 1'
_cell_length_a   10.29800000
_cell_length_b   31.35110000
_cell_length_c   31.46900000
_cell_angle_alpha   90.00000000
_cell_angle_beta   90.00000000
_cell_angle_gamma   91.61590000
_symmetry_Int_Tables_number   1
_chemical_formula_structural   Zn4H19C38N2O17
_chemical_formula_sum   'Zn16 H76 C152 N8 O68'
_cell_volume   10155.84051403
_cell_formula_units_Z   4
loop_
 _symmetry_equiv_pos_site_id
 _symmetry_equiv_pos_as_xyz
  1  'x, y, z'
loop_
 _atom_site_type_symbol
 _atom_site_label
 _atom_site_symmetry_multiplicity
 _atom_site_fract_x
 _atom_site_fract_y
 _atom_site_fract_z
 _atom_site_occupancy
 _atom_site_charge
  Zn  Zn1  1  0.474350  0.182840  0.893740  1.0  0.9924
  Zn  Zn2  1  0.030220  0.388430  0.321150  1.0  1.0961
  Zn  Zn3  1  0.025650  0.317160  0.393740  1.0  0.9938
  Zn  Zn4  1  0.623760  0.201300  0.809040  1.0  0.9817
  Zn  Zn5  1  0.669200  0.801570  0.194270  1.0  0.9817
  Zn  Zn6  1  0.530220  0.888430  0.178850  1.0  1.0967
  Zn  Zn7  1  0.974350  0.682840  0.606260  1.0  0.9941
  Zn  Zn8  1  0.830800  0.698430  0.694270  1.0  0.9816
  Zn  Zn9  1  0.525650  0.817160  0.106260  1.0  0.9942
  Zn  Zn10  1  0.330800  0.198430  0.805730  1.0  0.983
  Zn  Zn11  1  0.469780  0.111570  0.821150  1.0  1.0956
  Zn  Zn12  1  0.376240  0.798700  0.190960  1.0  0.9813
  Zn  Zn13  1  0.169200  0.301570  0.305730  1.0  0.9834
  Zn  Zn14  1  0.123760  0.701300  0.690960  1.0  0.9817
  Zn  Zn15  1  0.876240  0.298700  0.309040  1.0  0.9811
  Zn  Zn16  1  0.969780  0.611570  0.678850  1.0  1.0965
  H  H17  1  0.533100  0.019500  0.894200  1.0  0.1444
  H  H18  1  0.340700  0.469500  0.270900  1.0  0.1292
  H  H19  1  0.448400  0.250000  0.535900  1.0  0.2951
  H  H20  1  0.186500  0.895700  0.702400  1.0  0.1177
  H  H21  1  0.279200  0.334900  0.768000  1.0  0.1253
  H  H22  1  0.818100  0.907800  0.742100  1.0  0.1215
  H  H23  1  0.159300  0.030500  0.770900  1.0  0.1291
  H  H24  1  0.313500  0.604300  0.202400  1.0  0.1177
  H  H25  1  0.852700  0.176500  0.308600  1.0  0.1216
  H  H26  1  0.674800  0.733000  0.523600  1.0  0.1337
  H  H27  1  0.110300  0.277400  0.095600  1.0  0.1039
  H  H28  1  0.840700  0.969500  0.229100  1.0  0.1291
  H  H29  1  0.779200  0.834900  0.732000  1.0  0.1252
  H  H30  1  0.966900  0.480500  0.394200  1.0  0.1437
  H  H31  1  0.051600  0.250000  0.035900  1.0  0.2909
  H  H32  1  0.430900  0.042700  0.067100  1.0  0.1232
  H  H33  1  0.231000  0.970000  0.230800  1.0  0.1274
  H  H34  1  0.813500  0.104300  0.297600  1.0  0.1178
  H  H35  1  0.466900  0.980500  0.105800  1.0  0.1418
  H  H36  1  0.356200  0.206700  0.665900  1.0  0.1299
  H  H37  1  0.896500  0.966700  0.767200  1.0  0.3057
  H  H38  1  0.143800  0.293300  0.165900  1.0  0.1306
  H  H39  1  0.741300  0.226400  0.683600  1.0  0.1245
  H  H40  1  0.720800  0.665100  0.232000  1.0  0.1243
  H  H41  1  0.643800  0.793300  0.334100  1.0  0.1307
  H  H42  1  0.241300  0.726400  0.816400  1.0  0.125
  H  H43  1  0.485700  0.719000  0.633600  1.0  0.1238
  H  H44  1  0.181900  0.092200  0.257900  1.0  0.1216
  H  H45  1  0.469900  0.639100  0.708400  1.0  0.1202
  H  H46  1  0.396500  0.466700  0.732800  1.0  0.3064
  H  H47  1  0.610300  0.777400  0.404400  1.0  0.1048
  H  H48  1  0.985700  0.219000  0.866400  1.0  0.1238
  H  H49  1  0.318100  0.407800  0.757900  1.0  0.1229
  H  H50  1  0.530100  0.360900  0.291600  1.0  0.1202
  H  H51  1  0.389700  0.222600  0.595600  1.0  0.1048
  H  H52  1  0.569100  0.957300  0.932900  1.0  0.1232
  H  H53  1  0.731000  0.470000  0.269200  1.0  0.1271
  H  H54  1  0.147300  0.823500  0.691400  1.0  0.1213
  H  H55  1  0.930900  0.542700  0.432900  1.0  0.1237
  H  H56  1  0.771200  0.244200  0.612200  1.0  0.1383
  H  H57  1  0.728800  0.255800  0.112200  1.0  0.1375
  H  H58  1  0.769000  0.030000  0.769200  1.0  0.1261
  H  H59  1  0.945100  0.579800  0.496800  1.0  0.131
  H  H60  1  0.948400  0.750000  0.964100  1.0  0.2914
  H  H61  1  0.825200  0.767000  0.023600  1.0  0.1328
  H  H62  1  0.758700  0.273600  0.183600  1.0  0.1245
  H  H63  1  0.856200  0.706700  0.834100  1.0  0.13
  H  H64  1  0.681900  0.592200  0.242100  1.0  0.1224
  H  H65  1  0.069100  0.457300  0.567100  1.0  0.1237
  H  H66  1  0.514300  0.281000  0.366400  1.0  0.1239
  H  H67  1  0.174800  0.233000  0.976400  1.0  0.1326
  H  H68  1  0.445100  0.079800  0.003200  1.0  0.131
  H  H69  1  0.269000  0.530000  0.730800  1.0  0.1265
  H  H70  1  0.220800  0.165100  0.268000  1.0  0.1246
  H  H71  1  0.782600  0.236600  0.973800  1.0  0.1282
  H  H72  1  0.054900  0.420200  0.503200  1.0  0.1313
  H  H73  1  0.030100  0.860900  0.208400  1.0  0.1205
  H  H74  1  0.103500  0.033300  0.232800  1.0  0.3075
  H  H75  1  0.889700  0.722600  0.904400  1.0  0.1038
  H  H76  1  0.551600  0.750000  0.464100  1.0  0.2961
  H  H77  1  0.228800  0.755800  0.387800  1.0  0.1372
  H  H78  1  0.033100  0.519500  0.605800  1.0  0.1423
  H  H79  1  0.014300  0.781000  0.133600  1.0  0.1234
  H  H80  1  0.717400  0.263400  0.473800  1.0  0.1283
  H  H81  1  0.686500  0.395700  0.797600  1.0  0.1179
  H  H82  1  0.659300  0.530500  0.729100  1.0  0.1283
  H  H83  1  0.217400  0.763400  0.026200  1.0  0.1291
  H  H84  1  0.325200  0.267000  0.476400  1.0  0.1323
  H  H85  1  0.647300  0.323500  0.808600  1.0  0.1212
  H  H86  1  0.271200  0.744200  0.887800  1.0  0.1377
  H  H87  1  0.282600  0.736600  0.526200  1.0  0.1281
  H  H88  1  0.352700  0.676500  0.191400  1.0  0.1218
  H  H89  1  0.258700  0.773600  0.316400  1.0  0.1252
  H  H90  1  0.554900  0.920200  0.996800  1.0  0.1308
  H  H91  1  0.969900  0.139100  0.791600  1.0  0.1198
  H  H92  1  0.603500  0.533300  0.267200  1.0  0.307
  C  C93  1  0.975390  0.518790  0.490250  1.0  0.1654
  C  C94  1  0.045790  0.716090  0.819760  1.0  -0.0781
  C  C95  1  0.978760  0.236760  0.982650  1.0  0.2028
  C  C96  1  0.036070  0.976670  0.232050  1.0  0.2806
  C  C97  1  0.515560  0.944060  0.054740  1.0  -0.1641
  C  C98  1  0.023670  0.408870  0.412700  1.0  0.7106
  C  C99  1  0.493580  0.590580  0.222760  1.0  0.0863
  C  C100  1  0.635900  0.274900  0.417220  1.0  -0.1225
  C  C101  1  0.921860  0.264260  0.095750  1.0  -0.0807
  C  C102  1  0.484440  0.055940  0.945260  1.0  -0.1627
  C  C103  1  0.417970  0.454970  0.273040  1.0  -0.0886
  C  C104  1  0.506420  0.409420  0.777240  1.0  0.0882
  C  C105  1  0.438290  0.214090  0.655430  1.0  -0.0994
  C  C106  1  0.719640  0.714640  0.604730  1.0  0.7185
  C  C107  1  0.040100  0.178000  0.289110  1.0  0.0808
  C  C108  1  0.061710  0.285910  0.155430  1.0  -0.0998
  C  C109  1  0.351210  0.588010  0.719230  1.0  -0.1531
  C  C110  1  0.596460  0.722760  0.581410  1.0  -0.1215
  C  C111  1  0.170860  0.726460  0.834810  1.0  -0.0759
  C  C112  1  0.542900  0.981800  0.946820  1.0  -0.1259
  C  C113  1  0.113640  0.746740  0.949670  1.0  0.4303
  C  C114  1  0.548220  0.718020  0.200900  1.0  0.6443
  C  C115  1  0.210670  0.112970  0.789150  1.0  0.7687
  C  C116  1  0.280360  0.285360  0.395270  1.0  0.7197
  C  C117  1  0.861410  0.233310  0.959950  1.0  -0.1053
  C  C118  1  0.403540  0.277240  0.418590  1.0  -0.1215
  C  C119  1  0.886360  0.253260  0.050330  1.0  0.434
  C  C120  1  0.219640  0.214640  0.895270  1.0  0.718
  C  C121  1  0.578140  0.235740  0.595750  1.0  -0.0819
  C  C122  1  0.310800  0.763200  0.377320  1.0  -0.0792
  C  C123  1  0.954210  0.283910  0.180240  1.0  -0.0792
  C  C124  1  0.096800  0.231100  0.961540  1.0  -0.1147
  C  C125  1  0.478760  0.736760  0.517350  1.0  0.2033
  C  C126  1  0.115940  0.109140  0.268040  1.0  -0.1175
  C  C127  1  0.976330  0.591130  0.587300  1.0  0.7118
  C  C128  1  0.461070  0.223970  0.613670  1.0  -0.0591
  C  C129  1  0.022100  0.519100  0.576480  1.0  -0.1429
  C  C130  1  0.864100  0.225100  0.917220  1.0  -0.1216
  C  C131  1  0.361410  0.733310  0.540050  1.0  -0.1051
  C  C132  1  0.151890  0.955290  0.227820  1.0  -0.0957
  C  C133  1  0.006420  0.909420  0.722760  1.0  0.0858
  C  C134  1  0.246610  0.717410  0.606240  1.0  0.7628
  C  C135  1  0.461350  0.544350  0.231320  1.0  0.4223
  C  C136  1  0.526750  0.205650  0.724260  1.0  0.6772
  C  C137  1  0.384060  0.390860  0.768040  1.0  -0.1171
  C  C138  1  0.968600  0.110000  0.785560  1.0  0.0057
  C  C139  1  0.963930  0.023330  0.767950  1.0  0.2805
  C  C140  1  0.596800  0.731100  0.538460  1.0  -0.114
  C  C141  1  0.253390  0.782590  0.106240  1.0  0.7622
  C  C142  1  0.984440  0.555940  0.554740  1.0  -0.1629
  C  C143  1  0.476330  0.091130  0.912700  1.0  0.7119
  C  C144  1  0.024610  0.481210  0.509750  1.0  0.1655
  C  C145  1  0.078140  0.735740  0.904250  1.0  -0.0823
  C  C146  1  0.769250  0.388850  0.292870  1.0  0.7302
  C  C147  1  0.545790  0.216090  0.680240  1.0  -0.0755
  C  C148  1  0.463930  0.523330  0.732050  1.0  0.2751
  C  C149  1  0.418550  0.659650  0.201770  1.0  -0.1789
  C  C150  1  0.016290  0.778190  0.104140  1.0  -0.0452
  C  C151  1  0.523670  0.908870  0.087300  1.0  0.7107
  C  C152  1  0.015560  0.444060  0.445260  1.0  -0.1645
  C  C153  1  0.973250  0.294350  0.224260  1.0  0.6761
  C  C154  1  0.468600  0.610000  0.714440  1.0  0.006
  C  C155  1  0.457100  0.018200  0.053180  1.0  -0.1279
  C  C156  1  0.884060  0.890860  0.731960  1.0  -0.1164
  C  C157  1  0.538650  0.455650  0.768680  1.0  0.4233
  C  C158  1  0.965190  0.554990  0.511240  1.0  -0.0678
  C  C159  1  0.983710  0.221810  0.895860  1.0  -0.0438
  C  C160  1  0.082030  0.045030  0.773040  1.0  -0.0866
  C  C161  1  0.269250  0.888850  0.207130  1.0  0.7303
  C  C162  1  0.521240  0.263240  0.482650  1.0  0.2037
  C  C163  1  0.638590  0.266690  0.459950  1.0  -0.1034
  C  C164  1  0.903540  0.777240  0.081410  1.0  -0.121
  C  C165  1  0.615940  0.609140  0.231960  1.0  -0.117
  C  C166  1  0.415320  0.411120  0.281450  1.0  -0.1692
  C  C167  1  0.689200  0.236800  0.622680  1.0  -0.0823
  C  C168  1  0.957100  0.518200  0.446820  1.0  -0.1258
  C  C169  1  0.026750  0.705650  0.775740  1.0  0.6795
  C  C170  1  0.139470  0.152870  0.274020  1.0  -0.0956
  C  C171  1  0.582030  0.545030  0.726960  1.0  -0.0865
  C  C172  1  0.395380  0.616280  0.208080  1.0  -0.0493
  C  C173  1  0.959900  0.822000  0.710890  1.0  0.0825
  C  C174  1  0.148790  0.911990  0.219230  1.0  -0.1531
  C  C175  1  0.961350  0.044350  0.268680  1.0  0.4158
  C  C176  1  0.829140  0.273540  0.165190  1.0  -0.0772
  C  C177  1  0.048220  0.218020  0.299100  1.0  0.6455
  C  C178  1  0.951780  0.781980  0.700900  1.0  0.6441
  C  C179  1  0.584680  0.588880  0.718550  1.0  -0.1694
  C  C180  1  0.421860  0.764260  0.404250  1.0  -0.0804
  C  C181  1  0.364100  0.725100  0.582780  1.0  -0.1213
  C  C182  1  0.104620  0.883720  0.708080  1.0  -0.0478
  C  C183  1  0.477900  0.980900  0.076480  1.0  -0.1446
  C  C184  1  0.604620  0.383720  0.791920  1.0  -0.0484
  C  C185  1  0.895380  0.116280  0.291920  1.0  -0.0494
  C  C186  1  0.289330  0.387030  0.289150  1.0  0.7696
  C  C187  1  0.531400  0.390000  0.285560  1.0  0.0063
  C  C188  1  0.938290  0.714090  0.844570  1.0  -0.0988
  C  C189  1  0.473250  0.794350  0.275740  1.0  0.6779
  C  C190  1  0.021240  0.763240  0.017350  1.0  0.2043
  C  C191  1  0.360530  0.347130  0.774020  1.0  -0.0922
  C  C192  1  0.042900  0.481800  0.553180  1.0  -0.127
  C  C193  1  0.031400  0.890000  0.214440  1.0  0.0064
  C  C194  1  0.459900  0.322000  0.789110  1.0  0.0826
  C  C195  1  0.329140  0.773540  0.334810  1.0  -0.0795
  C  C196  1  0.534810  0.945010  0.011240  1.0  -0.0625
  C  C197  1  0.451780  0.281980  0.799100  1.0  0.6452
  C  C198  1  0.848110  0.044710  0.772180  1.0  -0.0965
  C  C199  1  0.648790  0.411990  0.280770  1.0  -0.1532
  C  C200  1  0.670860  0.226460  0.665190  1.0  -0.0742
  C  C201  1  0.135900  0.774900  0.082780  1.0  -0.1224
  C  C202  1  0.710670  0.612970  0.710850  1.0  0.7689
  C  C203  1  0.753390  0.282590  0.393760  1.0  0.7622
  C  C204  1  0.851210  0.088010  0.780770  1.0  -0.1534
  C  C205  1  0.084680  0.088880  0.781450  1.0  -0.169
  C  C206  1  0.581450  0.340350  0.798230  1.0  -0.1723
  C  C207  1  0.516290  0.278190  0.395860  1.0  -0.0437
  C  C208  1  0.536070  0.476670  0.267950  1.0  0.2759
  C  C209  1  0.917970  0.954970  0.226960  1.0  -0.0885
  C  C210  1  0.483710  0.721810  0.604140  1.0  -0.045
  C  C211  1  0.403200  0.268900  0.461540  1.0  -0.1167
  C  C212  1  0.780360  0.785360  0.104730  1.0  0.7193
  C  C213  1  0.810800  0.263200  0.122680  1.0  -0.0791
  C  C214  1  0.961070  0.723970  0.886330  1.0  -0.059
  C  C215  1  0.475390  0.018790  0.009750  1.0  0.1677
  C  C216  1  0.977900  0.480900  0.423520  1.0  -0.1464
  C  C217  1  0.538930  0.776030  0.386330  1.0  -0.0589
  C  C218  1  0.993580  0.090580  0.277240  1.0  0.0852
  C  C219  1  0.386360  0.753260  0.449670  1.0  0.434
  C  C220  1  0.613640  0.246740  0.550330  1.0  0.429
  C  C221  1  0.540100  0.678000  0.210890  1.0  0.0809
  C  C222  1  0.789330  0.887030  0.210850  1.0  0.7694
  C  C223  1  0.651890  0.455290  0.272180  1.0  -0.0961
  C  C224  1  0.915320  0.911120  0.218550  1.0  -0.1693
  C  C225  1  0.038650  0.955650  0.731320  1.0  0.4191
  C  C226  1  0.730750  0.111150  0.792870  1.0  0.73
  C  C227  1  0.189200  0.736800  0.877320  1.0  -0.081
  C  C228  1  0.524610  0.981210  0.990250  1.0  0.1683
  C  C229  1  0.860530  0.847130  0.725980  1.0  -0.0983
  C  C230  1  0.465190  0.054990  0.988760  1.0  -0.0656
  C  C231  1  0.081450  0.840350  0.701770  1.0  -0.1735
  C  C232  1  0.903200  0.768900  0.038460  1.0  -0.1172
  C  C233  1  0.230750  0.611150  0.707130  1.0  0.7308
  C  C234  1  0.348110  0.544710  0.727820  1.0  -0.0963
  C  C235  1  0.561710  0.785910  0.344570  1.0  -0.1
  C  C236  1  0.034810  0.445010  0.488760  1.0  -0.0646
  C  C237  1  0.038930  0.276030  0.113670  1.0  -0.0592
  C  C238  1  0.918550  0.159650  0.298230  1.0  -0.1758
  C  C239  1  0.096460  0.222760  0.918590  1.0  -0.1216
  C  C240  1  0.639470  0.652870  0.225980  1.0  -0.0896
  C  C241  1  0.522100  0.019100  0.923520  1.0  -0.146
  C  C242  1  0.746610  0.217410  0.893760  1.0  0.7628
  C  C243  1  0.138590  0.766690  0.040050  1.0  -0.1034
  C  C244  1  0.454210  0.783910  0.319760  1.0  -0.0792
  N  N245  1  0.961270  0.980860  0.756340  1.0  -0.3317
  N  N246  1  0.975600  0.247100  0.024750  1.0  -0.3471
  N  N247  1  0.475600  0.747100  0.475250  1.0  -0.3466
  N  N248  1  0.461270  0.480860  0.743660  1.0  -0.3302
  N  N249  1  0.038730  0.019140  0.243660  1.0  -0.3312
  N  N250  1  0.538730  0.519140  0.256340  1.0  -0.3321
  N  N251  1  0.024400  0.752900  0.975250  1.0  -0.349
  N  N252  1  0.524400  0.252900  0.524750  1.0  -0.3498
  O  O253  1  0.820190  0.709040  0.582020  1.0  -0.5881
  O  O254  1  0.785570  0.791550  0.142850  1.0  -0.5906
  O  O255  1  0.179810  0.290960  0.417980  1.0  -0.5898
  O  O256  1  0.167070  0.243360  0.288450  1.0  -0.7159
  O  O257  1  0.768670  0.251280  0.043470  1.0  -0.463
  O  O258  1  0.456510  0.734130  0.184320  1.0  -0.5168
  O  O259  1  0.980850  0.628890  0.575590  1.0  -0.6067
  O  O260  1  0.372580  0.784040  0.254150  1.0  -0.5869
  O  O261  1  0.525530  0.921270  0.126730  1.0  -0.591
  O  O262  1  0.251040  0.719330  0.645190  1.0  -0.5916
  O  O263  1  0.474900  0.170380  0.833160  1.0  -1.2216
  O  O264  1  0.421660  0.188600  0.734230  1.0  -0.6158
  O  O265  1  0.748960  0.280670  0.354810  1.0  -0.5919
  O  O266  1  0.332930  0.256640  0.788450  1.0  -0.7187
  O  O267  1  0.025530  0.421270  0.373270  1.0  -0.5903
  O  O268  1  0.706550  0.651740  0.711720  1.0  -0.5819
  O  O269  1  0.268670  0.751280  0.456530  1.0  -0.4648
  O  O270  1  0.285570  0.291550  0.357150  1.0  -0.5892
  O  O271  1  0.262450  0.851190  0.200090  1.0  -0.5957
  O  O272  1  0.737550  0.148810  0.799910  1.0  -0.5981
  O  O273  1  0.875080  0.410490  0.293410  1.0  -0.5888
  O  O274  1  0.124920  0.589510  0.706590  1.0  -0.5872
  O  O275  1  0.474470  0.078730  0.873270  1.0  -0.5919
  O  O276  1  0.206550  0.151740  0.788280  1.0  -0.5821
  O  O277  1  0.667070  0.743360  0.211550  1.0  -0.7165
  O  O278  1  0.631990  0.468740  0.785030  1.0  -0.3616
  O  O279  1  0.692540  0.908780  0.205490  1.0  -0.5665
  O  O280  1  0.624920  0.089510  0.793410  1.0  -0.5869
  O  O281  1  0.307460  0.091220  0.794510  1.0  -0.5678
  O  O282  1  0.868010  0.031260  0.285030  1.0  -0.3578
  O  O283  1  0.974470  0.578730  0.626730  1.0  -0.5921
  O  O284  1  0.127420  0.715960  0.754150  1.0  -0.5885
  O  O285  1  0.237550  0.648810  0.700090  1.0  -0.5977
  O  O286  1  0.974900  0.670380  0.666840  1.0  -1.2215
  O  O287  1  0.793450  0.848260  0.211720  1.0  -0.5809
  O  O288  1  0.192540  0.408780  0.294510  1.0  -0.5668
  O  O289  1  0.762450  0.351190  0.299910  1.0  -0.5959
  O  O290  1  0.714430  0.708450  0.642850  1.0  -0.5912
  O  O291  1  0.320190  0.209040  0.917980  1.0  -0.5892
  O  O292  1  0.043490  0.765870  0.684320  1.0  -0.5175
  O  O293  1  0.375080  0.910490  0.206590  1.0  -0.5889
  O  O294  1  0.368010  0.531260  0.214970  1.0  -0.3625
  O  O295  1  0.832930  0.756640  0.711550  1.0  -0.718
  O  O296  1  0.807460  0.591220  0.705490  1.0  -0.5674
  O  O297  1  0.956510  0.234130  0.315680  1.0  -0.5164
  O  O298  1  0.293450  0.348260  0.288280  1.0  -0.5813
  O  O299  1  0.627420  0.215960  0.745850  1.0  -0.5905
  O  O300  1  0.731330  0.248720  0.543470  1.0  -0.4669
  O  O301  1  0.480850  0.128890  0.924410  1.0  -0.6065
  O  O302  1  0.025100  0.329620  0.333160  1.0  -1.2219
  O  O303  1  0.679810  0.790960  0.082020  1.0  -0.5875
  O  O304  1  0.355240  0.788920  0.085630  1.0  -0.5945
  O  O305  1  0.543490  0.265870  0.815680  1.0  -0.5169
  O  O306  1  0.131990  0.968740  0.714970  1.0  -0.3583
  O  O307  1  0.519150  0.871110  0.075590  1.0  -0.6051
  O  O308  1  0.644760  0.211080  0.914370  1.0  -0.5934
  O  O309  1  0.078340  0.311400  0.234230  1.0  -0.6157
  O  O310  1  0.855240  0.288920  0.414370  1.0  -0.5931
  O  O311  1  0.578340  0.811400  0.265770  1.0  -0.6179
  O  O312  1  0.751040  0.219330  0.854810  1.0  -0.5914
  O  O313  1  0.921660  0.688600  0.765770  1.0  -0.6177
  O  O314  1  0.248960  0.780670  0.145190  1.0  -0.5925
  O  O315  1  0.872580  0.284040  0.245850  1.0  -0.5867
  O  O316  1  0.019150  0.371110  0.424410  1.0  -0.606
  O  O317  1  0.144760  0.711080  0.585630  1.0  -0.5942
  O  O318  1  0.525100  0.829620  0.166840  1.0  -1.2217
  O  O319  1  0.214430  0.208450  0.857150  1.0  -0.5899
  O  O320  1  0.231330  0.748720  0.956530  1.0  -0.4646
