# generated using pymatgen
data_VH5C8O5
_symmetry_space_group_name_H-M   'P 1'
_cell_length_a   12.60110000
_cell_length_b   13.73640000
_cell_length_c   17.28740000
_cell_angle_alpha   90.00000000
_cell_angle_beta   90.00000000
_cell_angle_gamma   90.00000000
_symmetry_Int_Tables_number   1
_chemical_formula_structural   VH5C8O5
_chemical_formula_sum   'V8 H40 C64 O40'
_cell_volume   2992.34089444
_cell_formula_units_Z   8
loop_
 _symmetry_equiv_pos_site_id
 _symmetry_equiv_pos_as_xyz
  1  'x, y, z'
loop_
 _atom_site_type_symbol
 _atom_site_label
 _atom_site_symmetry_multiplicity
 _atom_site_fract_x
 _atom_site_fract_y
 _atom_site_fract_z
 _atom_site_occupancy
 _atom_site_charge
  V  V1  1  0.750240  0.124830  0.750610  1.0  1.7502
  V  V2  1  0.249760  0.124830  0.250610  1.0  1.7503
  V  V3  1  0.750240  0.375170  0.750610  1.0  1.7503
  V  V4  1  0.750240  0.875170  0.749390  1.0  1.7508
  V  V5  1  0.750240  0.624830  0.749390  1.0  1.7508
  V  V6  1  0.249760  0.624830  0.249390  1.0  1.7509
  V  V7  1  0.249760  0.875170  0.249390  1.0  1.751
  V  V8  1  0.249760  0.375170  0.250610  1.0  1.7504
  H  H9  1  0.068500  0.103700  0.454500  1.0  0.1022
  H  H10  1  0.553100  0.853600  0.946900  1.0  0.1051
  H  H11  1  0.547600  0.644800  0.558400  1.0  0.1033
  H  H12  1  0.553100  0.146400  0.553100  1.0  0.1051
  H  H13  1  0.446900  0.353600  0.053100  1.0  0.1051
  H  H14  1  0.968100  0.104300  0.566700  1.0  0.1033
  H  H15  1  0.446900  0.853600  0.446900  1.0  0.1049
  H  H16  1  0.031900  0.604300  0.433300  1.0  0.1031
  H  H17  1  0.111600  0.500000  0.250000  1.0  0.4811
  H  H18  1  0.446900  0.146400  0.053100  1.0  0.1051
  H  H19  1  0.068500  0.896300  0.045500  1.0  0.1023
  H  H20  1  0.068500  0.603700  0.045500  1.0  0.1023
  H  H21  1  0.386000  0.750000  0.268000  1.0  0.4698
  H  H22  1  0.553100  0.353600  0.553100  1.0  0.1052
  H  H23  1  0.968100  0.604300  0.933300  1.0  0.1032
  H  H24  1  0.068500  0.396300  0.454500  1.0  0.1024
  H  H25  1  0.888400  0.500000  0.750000  1.0  0.4815
  H  H26  1  0.547600  0.855200  0.558400  1.0  0.1033
  H  H27  1  0.968100  0.895700  0.933300  1.0  0.1035
  H  H28  1  0.931500  0.896300  0.545500  1.0  0.1024
  H  H29  1  0.031900  0.395700  0.066700  1.0  0.1032
  H  H30  1  0.452400  0.644800  0.058400  1.0  0.1037
  H  H31  1  0.386000  0.250000  0.232000  1.0  0.4709
  H  H32  1  0.614000  0.250000  0.732000  1.0  0.4705
  H  H33  1  0.931500  0.396300  0.954500  1.0  0.1025
  H  H34  1  0.452400  0.144800  0.441600  1.0  0.1037
  H  H35  1  0.547600  0.355200  0.941600  1.0  0.1033
  H  H36  1  0.446900  0.646400  0.446900  1.0  0.105
  H  H37  1  0.031900  0.895700  0.433300  1.0  0.1034
  H  H38  1  0.931500  0.603700  0.545500  1.0  0.1022
  H  H39  1  0.888400  0.000000  0.750000  1.0  0.4815
  H  H40  1  0.968100  0.395700  0.566700  1.0  0.1033
  H  H41  1  0.111600  0.000000  0.250000  1.0  0.4811
  H  H42  1  0.614000  0.750000  0.768000  1.0  0.47
  H  H43  1  0.547600  0.144800  0.941600  1.0  0.1033
  H  H44  1  0.452400  0.855200  0.058400  1.0  0.1035
  H  H45  1  0.452400  0.355200  0.441600  1.0  0.1036
  H  H46  1  0.931500  0.103700  0.954500  1.0  0.1021
  H  H47  1  0.031900  0.104300  0.066700  1.0  0.1032
  H  H48  1  0.553100  0.646400  0.946900  1.0  0.1051
  C  C49  1  0.924000  0.750000  0.557800  1.0  -0.146
  C  C50  1  0.076000  0.750000  0.057800  1.0  -0.1464
  C  C51  1  0.468500  0.912500  0.468160  1.0  -0.0507
  C  C52  1  0.559500  0.999310  0.932750  1.0  -0.1403
  C  C53  1  0.471700  0.586500  0.035000  1.0  -0.0418
  C  C54  1  0.952500  0.837600  0.523430  1.0  -0.0578
  C  C55  1  0.471700  0.086500  0.465000  1.0  -0.0415
  C  C56  1  0.440500  0.500690  0.432750  1.0  -0.1398
  C  C57  1  0.863500  0.750000  0.632100  1.0  0.7217
  C  C58  1  0.886300  0.750000  0.853300  1.0  0.7345
  C  C59  1  0.531500  0.912500  0.968160  1.0  -0.0498
  C  C60  1  0.559500  0.499310  0.567250  1.0  -0.1396
  C  C61  1  0.531500  0.412500  0.531840  1.0  -0.0498
  C  C62  1  0.625300  0.502050  0.860730  1.0  0.7221
  C  C63  1  0.136500  0.250000  0.367900  1.0  0.7218
  C  C64  1  0.468500  0.412500  0.031840  1.0  -0.0507
  C  C65  1  0.559500  0.500690  0.932750  1.0  -0.1403
  C  C66  1  0.531500  0.087500  0.531840  1.0  -0.0509
  C  C67  1  0.559500  0.000690  0.567250  1.0  -0.1396
  C  C68  1  0.047500  0.837600  0.023430  1.0  -0.0575
  C  C69  1  0.987800  0.662800  0.956200  1.0  -0.0518
  C  C70  1  0.113700  0.750000  0.353300  1.0  0.734
  C  C71  1  0.374700  0.997950  0.360730  1.0  0.7224
  C  C72  1  0.136500  0.750000  0.132100  1.0  0.7211
  C  C73  1  0.471700  0.413500  0.465000  1.0  -0.0405
  C  C74  1  0.012200  0.662800  0.456200  1.0  -0.0513
  C  C75  1  0.957400  0.250000  0.576900  1.0  -0.1332
  C  C76  1  0.625300  0.997950  0.860730  1.0  0.7222
  C  C77  1  0.952500  0.662400  0.523430  1.0  -0.057
  C  C78  1  0.528300  0.586500  0.535000  1.0  -0.0416
  C  C79  1  0.047500  0.162400  0.476570  1.0  -0.0568
  C  C80  1  0.952500  0.337600  0.976570  1.0  -0.058
  C  C81  1  0.468500  0.587500  0.468160  1.0  -0.0514
  C  C82  1  0.374700  0.497950  0.139270  1.0  0.7225
  C  C83  1  0.886300  0.250000  0.646700  1.0  0.7344
  C  C84  1  0.012200  0.337200  0.043800  1.0  -0.052
  C  C85  1  0.987800  0.337200  0.543800  1.0  -0.052
  C  C86  1  0.528300  0.086500  0.965000  1.0  -0.0411
  C  C87  1  0.987800  0.837200  0.956200  1.0  -0.052
  C  C88  1  0.113700  0.250000  0.146700  1.0  0.7334
  C  C89  1  0.468500  0.087500  0.031840  1.0  -0.0514
  C  C90  1  0.076000  0.250000  0.442200  1.0  -0.1467
  C  C91  1  0.012200  0.837200  0.456200  1.0  -0.0519
  C  C92  1  0.440500  0.000690  0.067250  1.0  -0.1392
  C  C93  1  0.957400  0.750000  0.923100  1.0  -0.1337
  C  C94  1  0.625300  0.497950  0.639270  1.0  0.7217
  C  C95  1  0.042600  0.250000  0.076900  1.0  -0.1343
  C  C96  1  0.625300  0.002050  0.639270  1.0  0.7217
  C  C97  1  0.924000  0.250000  0.942200  1.0  -0.1465
  C  C98  1  0.440500  0.499310  0.067250  1.0  -0.1392
  C  C99  1  0.531500  0.587500  0.968160  1.0  -0.0508
  C  C100  1  0.374700  0.502050  0.360730  1.0  0.7224
  C  C101  1  0.042600  0.750000  0.423100  1.0  -0.135
  C  C102  1  0.471700  0.913500  0.035000  1.0  -0.0408
  C  C103  1  0.528300  0.413500  0.965000  1.0  -0.0402
  C  C104  1  0.440500  0.999310  0.432750  1.0  -0.1399
  C  C105  1  0.987800  0.162800  0.543800  1.0  -0.0517
  C  C106  1  0.012200  0.162800  0.043800  1.0  -0.0512
  C  C107  1  0.863500  0.250000  0.867900  1.0  0.7219
  C  C108  1  0.528300  0.913500  0.535000  1.0  -0.0405
  C  C109  1  0.374700  0.002050  0.139270  1.0  0.7225
  C  C110  1  0.952500  0.162400  0.976570  1.0  -0.0573
  C  C111  1  0.047500  0.662400  0.023430  1.0  -0.0564
  C  C112  1  0.047500  0.337600  0.476570  1.0  -0.0579
  O  O113  1  0.159570  0.331210  0.339330  1.0  -0.6309
  O  O114  1  0.178100  0.500000  0.250000  1.0  -1.0644
  O  O115  1  0.656610  0.583410  0.837340  1.0  -0.6362
  O  O116  1  0.859210  0.831240  0.826890  1.0  -0.6273
  O  O117  1  0.140790  0.668760  0.326890  1.0  -0.6284
  O  O118  1  0.840430  0.831210  0.660670  1.0  -0.6296
  O  O119  1  0.356260  0.078220  0.328630  1.0  -0.6336
  O  O120  1  0.656610  0.416590  0.662660  1.0  -0.6364
  O  O121  1  0.343390  0.916590  0.337340  1.0  -0.6355
  O  O122  1  0.343390  0.416590  0.162660  1.0  -0.636
  O  O123  1  0.140790  0.168760  0.173110  1.0  -0.628
  O  O124  1  0.140790  0.331240  0.173110  1.0  -0.6276
  O  O125  1  0.343390  0.083410  0.162660  1.0  -0.6357
  O  O126  1  0.656610  0.083410  0.662660  1.0  -0.6366
  O  O127  1  0.656610  0.916590  0.837340  1.0  -0.636
  O  O128  1  0.159570  0.668790  0.160670  1.0  -0.6303
  O  O129  1  0.356260  0.421780  0.328630  1.0  -0.6333
  O  O130  1  0.821900  0.500000  0.750000  1.0  -1.0638
  O  O131  1  0.643740  0.578220  0.671370  1.0  -0.6354
  O  O132  1  0.343390  0.583410  0.337340  1.0  -0.6352
  O  O133  1  0.140790  0.831240  0.326890  1.0  -0.6281
  O  O134  1  0.859210  0.668760  0.826890  1.0  -0.628
  O  O135  1  0.643740  0.921780  0.671370  1.0  -0.6342
  O  O136  1  0.159570  0.168790  0.339330  1.0  -0.6308
  O  O137  1  0.643740  0.078220  0.828630  1.0  -0.6355
  O  O138  1  0.840430  0.331210  0.839330  1.0  -0.6303
  O  O139  1  0.859210  0.168760  0.673110  1.0  -0.628
  O  O140  1  0.840430  0.668790  0.660670  1.0  -0.63
  O  O141  1  0.356260  0.921780  0.171370  1.0  -0.6339
  O  O142  1  0.159570  0.831210  0.160670  1.0  -0.6302
  O  O143  1  0.356260  0.578220  0.171370  1.0  -0.6338
  O  O144  1  0.821900  0.000000  0.750000  1.0  -1.0638
  O  O145  1  0.679100  0.750000  0.753420  1.0  -1.0996
  O  O146  1  0.320900  0.250000  0.246580  1.0  -1.0979
  O  O147  1  0.178100  0.000000  0.250000  1.0  -1.0644
  O  O148  1  0.679100  0.250000  0.746580  1.0  -1.0994
  O  O149  1  0.320900  0.750000  0.253420  1.0  -1.0982
  O  O150  1  0.859210  0.331240  0.673110  1.0  -0.6272
  O  O151  1  0.643740  0.421780  0.828630  1.0  -0.6347
  O  O152  1  0.840430  0.168790  0.839330  1.0  -0.6302
