# generated using pymatgen
data_ZnH22C16(N5O)2
_symmetry_space_group_name_H-M   'P 1'
_cell_length_a   18.02080000
_cell_length_b   18.02080000
_cell_length_c   18.36840000
_cell_angle_alpha   69.51970000
_cell_angle_beta   62.02870000
_cell_angle_gamma   99.51400000
_symmetry_Int_Tables_number   1
_chemical_formula_structural   ZnH22C16(N5O)2
_chemical_formula_sum   'Zn4 H88 C64 N40 O8'
_cell_volume   4527.29591184
_cell_formula_units_Z   4
loop_
 _symmetry_equiv_pos_site_id
 _symmetry_equiv_pos_as_xyz
  1  'x, y, z'
loop_
 _atom_site_type_symbol
 _atom_site_label
 _atom_site_symmetry_multiplicity
 _atom_site_fract_x
 _atom_site_fract_y
 _atom_site_fract_z
 _atom_site_occupancy
 _atom_site_charge
  Zn  Zn1  1  0.961890  0.819810  0.488080  1.0  0.8278
  Zn  Zn2  1  0.192110  0.550030  0.988080  1.0  0.8274
  Zn  Zn3  1  0.807890  0.449970  0.011920  1.0  0.8268
  Zn  Zn4  1  0.038110  0.180190  0.511920  1.0  0.8292
  H  H5  1  0.104200  0.662800  0.758800  1.0  0.1166
  H  H6  1  0.389100  0.804900  0.151800  1.0  0.1366
  H  H7  1  0.629900  0.538700  0.558600  1.0  0.1139
  H  H8  1  0.531700  0.532700  0.586400  1.0  0.1203
  H  H9  1  0.543300  0.459100  0.651800  1.0  0.137
  H  H10  1  0.031000  0.291400  0.052200  1.0  0.3057
  H  H11  1  0.957100  0.668600  0.597100  1.0  0.1115
  H  H12  1  0.282900  0.896300  0.213800  1.0  0.1274
  H  H13  1  0.113200  0.321000  0.171800  1.0  0.2849
  H  H14  1  0.258600  0.499700  0.832700  1.0  0.0767
  H  H15  1  0.289000  0.840300  0.731900  1.0  0.1215
  H  H16  1  0.234300  0.445800  0.097100  1.0  0.1109
  H  H17  1  0.402700  0.811500  0.058600  1.0  0.1139
  H  H18  1  0.729200  0.618000  0.545000  1.0  0.2928
  H  H19  1  0.048300  0.523600  0.149300  1.0  0.1306
  H  H20  1  0.318900  0.924500  0.578400  1.0  0.1179
  H  H21  1  0.102500  0.667400  0.311300  1.0  0.0894
  H  H22  1  0.827100  0.802400  0.649300  1.0  0.1291
  H  H23  1  0.389900  0.503300  0.713800  1.0  0.1291
  H  H24  1  0.167600  0.908700  0.332700  1.0  0.0734
  H  H25  1  0.078400  0.137000  0.258800  1.0  0.1174
  H  H26  1  0.337000  0.725800  0.045000  1.0  0.2948
  H  H27  1  0.156400  0.916800  0.552200  1.0  0.3048
  H  H28  1  0.380900  0.881900  0.086400  1.0  0.1203
  H  H29  1  0.284200  0.735900  0.848300  1.0  0.0659
  H  H30  1  0.386800  0.571000  0.933600  1.0  0.1016
  H  H31  1  0.144200  0.451700  0.166300  1.0  0.107
  H  H32  1  0.997100  0.102700  0.078400  1.0  0.1179
  H  H33  1  0.927800  0.979100  0.231900  1.0  0.122
  H  H34  1  0.245200  0.942700  0.651700  1.0  0.1225
  H  H35  1  0.826400  0.868800  0.566800  1.0  0.1179
  H  H36  1  0.705300  0.730200  0.652500  1.0  0.2586
  H  H37  1  0.521300  0.586200  0.811300  1.0  0.0905
  H  H38  1  0.982100  0.189000  0.058300  1.0  0.1049
  H  H39  1  0.905600  0.103100  0.151700  1.0  0.1217
  H  H40  1  0.007200  0.715000  0.671800  1.0  0.286
  H  H41  1  0.995400  0.679600  0.433600  1.0  0.1048
  H  H42  1  0.097900  0.560700  0.883000  1.0  0.0751
  H  H43  1  0.882000  0.689500  0.666300  1.0  0.107
  H  H44  1  0.117300  0.642200  0.152500  1.0  0.2622
  H  H45  1  0.252700  0.959600  0.558300  1.0  0.1026
  H  H46  1  0.056300  0.019100  0.383000  1.0  0.0763
  H  H47  1  0.064400  0.606800  0.066800  1.0  0.1153
  H  H48  1  0.915800  0.867500  0.348300  1.0  0.0683
  H  H49  1  0.172900  0.197600  0.350700  1.0  0.1308
  H  H50  1  0.943700  0.980900  0.617000  1.0  0.078
  H  H51  1  0.017900  0.811000  0.941700  1.0  0.1045
  H  H52  1  0.969000  0.708600  0.947800  1.0  0.3042
  H  H53  1  0.717100  0.103700  0.786200  1.0  0.1274
  H  H54  1  0.832400  0.091300  0.667300  1.0  0.0745
  H  H55  1  0.597300  0.188500  0.941400  1.0  0.1138
  H  H56  1  0.002900  0.897300  0.921600  1.0  0.1184
  H  H57  1  0.855800  0.548300  0.833700  1.0  0.1058
  H  H58  1  0.897500  0.332600  0.688700  1.0  0.0899
  H  H59  1  0.072200  0.020900  0.768100  1.0  0.1224
  H  H60  1  0.004600  0.320400  0.566400  1.0  0.1054
  H  H61  1  0.094400  0.896900  0.848300  1.0  0.115
  H  H62  1  0.468300  0.467300  0.413600  1.0  0.1218
  H  H63  1  0.613200  0.429000  0.066400  1.0  0.1032
  H  H64  1  0.747300  0.040400  0.441700  1.0  0.1027
  H  H65  1  0.935600  0.393200  0.933200  1.0  0.1161
  H  H66  1  0.951700  0.476400  0.850700  1.0  0.1299
  H  H67  1  0.610900  0.195100  0.848200  1.0  0.1352
  H  H68  1  0.042900  0.331400  0.402900  1.0  0.112
  H  H69  1  0.084200  0.132500  0.651700  1.0  0.068
  H  H70  1  0.843600  0.083200  0.447800  1.0  0.3035
  H  H71  1  0.992800  0.285000  0.328200  1.0  0.2857
  H  H72  1  0.886800  0.679000  0.828200  1.0  0.2854
  H  H73  1  0.895800  0.337200  0.241200  1.0  0.1165
  H  H74  1  0.741400  0.500300  0.167300  1.0  0.0773
  H  H75  1  0.370100  0.461300  0.441400  1.0  0.1138
  H  H76  1  0.118000  0.310500  0.333700  1.0  0.1069
  H  H77  1  0.882700  0.357800  0.847500  1.0  0.2628
  H  H78  1  0.270800  0.382000  0.455000  1.0  0.2934
  H  H79  1  0.294700  0.269800  0.347500  1.0  0.261
  H  H80  1  0.711000  0.159700  0.268100  1.0  0.1216
  H  H81  1  0.754800  0.057300  0.348300  1.0  0.1227
  H  H82  1  0.456700  0.540900  0.348200  1.0  0.1361
  H  H83  1  0.715800  0.264100  0.151700  1.0  0.0662
  H  H84  1  0.681100  0.075500  0.421600  1.0  0.1181
  H  H85  1  0.765700  0.554200  0.902900  1.0  0.1129
  H  H86  1  0.173600  0.131200  0.433200  1.0  0.1189
  H  H87  1  0.478700  0.413800  0.188700  1.0  0.0894
  H  H88  1  0.921600  0.863000  0.741200  1.0  0.1164
  H  H89  1  0.902100  0.439300  0.117000  1.0  0.0768
  H  H90  1  0.663000  0.274200  0.955000  1.0  0.2932
  H  H91  1  0.610100  0.496700  0.286200  1.0  0.1307
  H  H92  1  0.619100  0.118100  0.913600  1.0  0.1167
  C  C93  1  0.567900  0.520100  0.610400  1.0  -0.3854
  C  C94  1  0.999900  0.069600  0.238100  1.0  -0.0059
  C  C95  1  0.947800  0.923300  0.331700  1.0  0.1716
  C  C96  1  0.236200  0.658100  0.051100  1.0  0.3926
  C  C97  1  0.054800  0.833600  0.572600  1.0  0.5847
  C  C98  1  0.139500  0.679400  0.778900  1.0  -0.1074
  C  C99  1  0.566000  0.569600  0.667200  1.0  0.2135
  C  C100  1  0.192300  0.762000  0.738100  1.0  -0.0048
  C  C101  1  0.245000  0.720500  0.831700  1.0  0.177
  C  C102  1  0.224200  0.852700  0.256100  1.0  -0.2042
  C  C103  1  0.093800  0.372600  0.072600  1.0  0.5856
  C  C104  1  0.029900  0.010200  0.352100  1.0  0.1456
  C  C105  1  0.790800  0.712700  0.551100  1.0  0.3938
  C  C106  1  0.154200  0.858900  0.328500  1.0  0.1734
  C  C107  1  0.202000  0.777100  0.250100  1.0  0.041
  C  C108  1  0.954200  0.989100  0.262300  1.0  -0.2862
  C  C109  1  0.137700  0.618000  0.852100  1.0  0.1396
  C  C110  1  0.970500  0.135500  0.106600  1.0  -0.3904
  C  C111  1  0.312600  0.517300  0.828500  1.0  0.1696
  C  C112  1  0.041700  0.081600  0.278900  1.0  -0.1173
  C  C113  1  0.472800  0.547900  0.750100  1.0  0.0408
  C  C114  1  0.012300  0.153800  0.155900  1.0  0.16
  C  C115  1  0.263200  0.766800  0.167200  1.0  0.2154
  C  C116  1  0.052300  0.725300  0.387400  1.0  0.1119
  C  C117  1  0.387300  0.560300  0.887400  1.0  0.1172
  C  C118  1  0.118200  0.717300  0.314700  1.0  -0.071
  C  C119  1  0.391200  0.519700  0.756100  1.0  -0.2012
  C  C120  1  0.257900  0.922900  0.606600  1.0  -0.3927
  C  C121  1  0.248600  0.783500  0.762300  1.0  -0.2906
  C  C122  1  0.468000  0.567100  0.814700  1.0  -0.0719
  C  C123  1  0.369500  0.821700  0.110400  1.0  -0.383
  C  C124  1  0.190300  0.831800  0.655900  1.0  0.1617
  C  C125  1  0.532000  0.432900  0.185300  1.0  -0.0725
  C  C126  1  0.608800  0.480300  0.243900  1.0  -0.2002
  C  C127  1  0.052200  0.076700  0.668300  1.0  0.1713
  C  C128  1  0.809700  0.168200  0.344100  1.0  0.1608
  C  C129  1  0.798000  0.222900  0.749900  1.0  0.0381
  C  C130  1  0.630500  0.178300  0.889600  1.0  -0.3826
  C  C131  1  0.763800  0.341900  0.948900  1.0  0.3938
  C  C132  1  0.775800  0.147300  0.743900  1.0  -0.2031
  C  C133  1  0.045800  0.010900  0.737700  1.0  -0.2848
  C  C134  1  0.906200  0.627400  0.927400  1.0  0.5854
  C  C135  1  0.751400  0.216500  0.237700  1.0  -0.2889
  C  C136  1  0.958300  0.918400  0.721100  1.0  -0.111
  C  C137  1  0.970100  0.989800  0.647900  1.0  0.145
  C  C138  1  0.029500  0.864500  0.893400  1.0  -0.3917
  C  C139  1  0.687400  0.482700  0.171500  1.0  0.1687
  C  C140  1  0.987700  0.846200  0.844100  1.0  0.1587
  C  C141  1  0.807700  0.238000  0.261900  1.0  -0.0075
  C  C142  1  0.845800  0.141100  0.671500  1.0  0.1722
  C  C143  1  0.945200  0.166400  0.427400  1.0  0.5859
  C  C144  1  0.881800  0.282700  0.685300  1.0  -0.0714
  C  C145  1  0.434000  0.430400  0.332800  1.0  0.2155
  C  C146  1  0.527200  0.452100  0.249900  1.0  0.0399
  C  C147  1  0.000100  0.930400  0.761900  1.0  -0.0059
  C  C148  1  0.862300  0.382000  0.147900  1.0  0.1392
  C  C149  1  0.947700  0.274700  0.612600  1.0  0.1131
  C  C150  1  0.755000  0.279500  0.168300  1.0  0.175
  C  C151  1  0.860500  0.320600  0.221100  1.0  -0.1012
  C  C152  1  0.612700  0.439700  0.112600  1.0  0.1183
  C  C153  1  0.742100  0.077100  0.393400  1.0  -0.3919
  C  C154  1  0.209200  0.287300  0.448900  1.0  0.3926
  C  C155  1  0.432100  0.479900  0.389600  1.0  -0.386
  C  C156  1  0.736800  0.233200  0.832800  1.0  0.2155
  N  N157  1  0.628400  0.620800  0.653200  1.0  -0.237
  N  N158  1  0.047400  0.224300  0.151700  1.0  -0.2643
  N  N159  1  0.278200  0.704600  0.076200  1.0  -0.2398
  N  N160  1  0.143800  0.629400  0.108600  1.0  -0.2855
  N  N161  1  0.174900  0.444400  0.111100  1.0  -0.5771
  N  N162  1  0.002800  0.746900  0.627900  1.0  -0.2326
  N  N163  1  0.309700  0.538400  0.891900  1.0  -0.3277
  N  N164  1  0.944500  0.714000  0.611100  1.0  -0.5735
  N  N165  1  0.119900  0.863300  0.584200  1.0  -0.3091
  N  N166  1  0.189300  0.637600  0.878500  1.0  -0.324
  N  N167  1  0.983900  0.932200  0.378500  1.0  -0.3229
  N  N168  1  0.069700  0.798400  0.391900  1.0  -0.3309
  N  N169  1  0.125200  0.369300  0.127900  1.0  -0.23
  N  N170  1  0.719200  0.645600  0.576200  1.0  -0.2397
  N  N171  1  0.094600  0.577000  0.091200  1.0  -0.568
  N  N172  1  0.052500  0.295900  0.084200  1.0  -0.3076
  N  N173  1  0.124000  0.800900  0.651700  1.0  -0.2651
  N  N174  1  0.762000  0.747600  0.608600  1.0  -0.2866
  N  N175  1  0.226000  0.718400  0.153200  1.0  -0.2374
  N  N176  1  0.831800  0.814200  0.591200  1.0  -0.5707
  N  N177  1  0.905400  0.423000  0.908800  1.0  -0.5684
  N  N178  1  0.690300  0.461600  0.108100  1.0  -0.3292
  N  N179  1  0.238000  0.252400  0.391400  1.0  -0.2851
  N  N180  1  0.874800  0.630700  0.872100  1.0  -0.2288
  N  N181  1  0.810700  0.362400  0.121500  1.0  -0.3239
  N  N182  1  0.721800  0.295400  0.923800  1.0  -0.2394
  N  N183  1  0.880100  0.136700  0.415800  1.0  -0.3079
  N  N184  1  0.168200  0.185800  0.408800  1.0  -0.5692
  N  N185  1  0.371600  0.379200  0.346800  1.0  -0.2384
  N  N186  1  0.930300  0.201600  0.608100  1.0  -0.3304
  N  N187  1  0.016100  0.067800  0.621500  1.0  -0.3245
  N  N188  1  0.876000  0.199100  0.348300  1.0  -0.2635
  N  N189  1  0.952600  0.775700  0.848300  1.0  -0.2651
  N  N190  1  0.280800  0.354400  0.423800  1.0  -0.2426
  N  N191  1  0.825100  0.555600  0.888900  1.0  -0.5744
  N  N192  1  0.774000  0.281600  0.846800  1.0  -0.2367
  N  N193  1  0.856200  0.370600  0.891400  1.0  -0.2827
  N  N194  1  0.947500  0.704100  0.915800  1.0  -0.3081
  N  N195  1  0.997200  0.253100  0.372100  1.0  -0.231
  N  N196  1  0.055500  0.286000  0.388900  1.0  -0.5764
  O  O197  1  0.043700  0.883400  0.514700  1.0  -0.5602
  O  O198  1  0.279000  0.643300  0.987300  1.0  -0.549
  O  O199  1  0.101900  0.441600  0.014700  1.0  -0.5616
  O  O200  1  0.869400  0.733700  0.487300  1.0  -0.5489
  O  O201  1  0.956300  0.116600  0.485300  1.0  -0.5602
  O  O202  1  0.721000  0.356700  0.012700  1.0  -0.5492
  O  O203  1  0.898100  0.558400  0.985300  1.0  -0.5628
  O  O204  1  0.130600  0.266300  0.512700  1.0  -0.547
