# generated using pymatgen
data_FeH8PtC14SeN6
_symmetry_space_group_name_H-M   'P 1'
_cell_length_a   11.31270000
_cell_length_b   14.68700000
_cell_length_c   14.76600000
_cell_angle_alpha   85.88100000
_cell_angle_beta   79.81100000
_cell_angle_gamma   70.30000000
_symmetry_Int_Tables_number   1
_chemical_formula_structural   FeH8PtC14SeN6
_chemical_formula_sum   'Fe4 H32 Pt4 C56 Se4 N24'
_cell_volume   2273.14821432
_cell_formula_units_Z   4
loop_
 _symmetry_equiv_pos_site_id
 _symmetry_equiv_pos_as_xyz
  1  'x, y, z'
loop_
 _atom_site_type_symbol
 _atom_site_label
 _atom_site_symmetry_multiplicity
 _atom_site_fract_x
 _atom_site_fract_y
 _atom_site_fract_z
 _atom_site_occupancy
 _atom_site_charge
  Fe  Fe1  1  0.541800  0.506710  0.252000  1.0  0.6609
  Fe  Fe2  1  0.105760  0.021260  0.252360  1.0  0.9553
  Fe  Fe3  1  0.458200  0.493290  0.748000  1.0  0.6619
  Fe  Fe4  1  0.894240  0.978740  0.747640  1.0  0.9531
  H  H5  1  0.689600  0.565200  0.068100  1.0  0.0706
  H  H6  1  0.869800  0.607300  0.010800  1.0  0.1035
  H  H7  1  0.941600  0.595600  0.269600  1.0  0.0902
  H  H8  1  0.761800  0.551900  0.319800  1.0  0.0688
  H  H9  1  0.951500  0.845800  0.080500  1.0  0.0972
  H  H10  1  0.888900  0.957200  0.964400  1.0  0.0724
  H  H11  1  0.025000  0.753900  0.778200  1.0  0.0733
  H  H12  1  0.088600  0.637200  0.890500  1.0  0.0953
  H  H13  1  0.389400  0.440500  0.433700  1.0  0.0598
  H  H14  1  0.210200  0.397700  0.486500  1.0  0.1077
  H  H15  1  0.147800  0.418300  0.222200  1.0  0.1019
  H  H16  1  0.325300  0.461500  0.179500  1.0  0.073
  H  H17  1  0.894600  0.382700  0.591400  1.0  0.0971
  H  H18  1  0.922000  0.270500  0.711600  1.0  0.0592
  H  H19  1  0.205300  0.083700  0.557500  1.0  0.0931
  H  H20  1  0.179700  0.187800  0.430900  1.0  0.1121
  H  H21  1  0.310400  0.434800  0.931900  1.0  0.071
  H  H22  1  0.130200  0.392700  0.989200  1.0  0.1061
  H  H23  1  0.058400  0.404400  0.730400  1.0  0.0903
  H  H24  1  0.238200  0.448100  0.680200  1.0  0.0689
  H  H25  1  0.048500  0.154200  0.919500  1.0  0.0965
  H  H26  1  0.111100  0.042800  0.035600  1.0  0.0731
  H  H27  1  0.975000  0.246100  0.221800  1.0  0.0737
  H  H28  1  0.911400  0.362800  0.109500  1.0  0.0955
  H  H29  1  0.610600  0.559500  0.566300  1.0  0.0594
  H  H30  1  0.789800  0.602300  0.513500  1.0  0.1079
  H  H31  1  0.852200  0.581700  0.777800  1.0  0.1028
  H  H32  1  0.674700  0.538500  0.820500  1.0  0.0733
  H  H33  1  0.105400  0.617300  0.408600  1.0  0.0967
  H  H34  1  0.078000  0.729500  0.288400  1.0  0.0619
  H  H35  1  0.794700  0.916300  0.442500  1.0  0.0924
  H  H36  1  0.820300  0.812200  0.569100  1.0  0.1143
  Pt  Pt37  1  0.257200  0.752760  0.504980  1.0  0.3644
  Pt  Pt38  1  0.330020  0.757550  0.005650  1.0  0.236
  Pt  Pt39  1  0.742800  0.247240  0.495020  1.0  0.3666
  Pt  Pt40  1  0.669980  0.242450  0.994350  1.0  0.2388
  C  C41  1  0.741500  0.570800  0.109200  1.0  0.1418
  C  C42  1  0.849400  0.596600  0.074300  1.0  -0.0721
  C  C43  1  0.926700  0.606400  0.135100  1.0  -0.0428
  C  C44  1  0.892300  0.589500  0.226800  1.0  -0.0632
  C  C45  1  0.783700  0.563400  0.256600  1.0  0.1361
  C  C46  1  0.022500  0.729400  0.999000  1.0  -0.0233
  C  C47  1  0.965800  0.825100  0.019600  1.0  -0.1064
  C  C48  1  0.929500  0.891800  0.949000  1.0  0.1492
  C  C49  1  0.008700  0.773000  0.839900  1.0  0.1331
  C  C50  1  0.046900  0.702300  0.907000  1.0  -0.0917
  C  C51  1  0.338800  0.436900  0.390900  1.0  0.1417
  C  C52  1  0.231400  0.410900  0.423700  1.0  -0.144
  C  C53  1  0.156000  0.404800  0.360300  1.0  -0.0537
  C  C54  1  0.194900  0.423400  0.267000  1.0  -0.0962
  C  C55  1  0.301400  0.448900  0.242100  1.0  0.1477
  C  C56  1  0.034100  0.299600  0.500500  1.0  0.0359
  C  C57  1  0.959200  0.322300  0.582800  1.0  -0.1073
  C  C58  1  0.978200  0.255100  0.655600  1.0  0.1141
  C  C59  1  0.143400  0.145500  0.564500  1.0  0.1292
  C  C60  1  0.128800  0.206900  0.488400  1.0  -0.1129
  C  C61  1  0.390200  0.667800  0.411200  1.0  0.1012
  C  C62  1  0.313300  0.651600  0.601500  1.0  0.0944
  C  C63  1  0.119800  0.836400  0.597900  1.0  0.0917
  C  C64  1  0.201300  0.856000  0.410100  1.0  0.0858
  C  C65  1  0.276700  0.861000  0.099000  1.0  0.0777
  C  C66  1  0.267100  0.858200  0.911500  1.0  0.0847
  C  C67  1  0.374300  0.656000  0.910800  1.0  0.1009
  C  C68  1  0.396900  0.660600  0.100600  1.0  0.1067
  C  C69  1  0.258500  0.429200  0.890800  1.0  0.1424
  C  C70  1  0.150600  0.403400  0.925700  1.0  -0.0724
  C  C71  1  0.073300  0.393600  0.864900  1.0  -0.0435
  C  C72  1  0.107700  0.410500  0.773200  1.0  -0.0645
  C  C73  1  0.216300  0.436600  0.743400  1.0  0.1364
  C  C74  1  0.977500  0.270600  0.001000  1.0  -0.023
  C  C75  1  0.034200  0.174900  0.980400  1.0  -0.109
  C  C76  1  0.070500  0.108200  0.051000  1.0  0.1492
  C  C77  1  0.991300  0.227000  0.160100  1.0  0.1337
  C  C78  1  0.953100  0.297700  0.093000  1.0  -0.0904
  C  C79  1  0.661200  0.563100  0.609100  1.0  0.1433
  C  C80  1  0.768600  0.589100  0.576300  1.0  -0.143
  C  C81  1  0.844000  0.595200  0.639700  1.0  -0.0536
  C  C82  1  0.805100  0.576600  0.733000  1.0  -0.0923
  C  C83  1  0.698600  0.551100  0.757900  1.0  0.1469
  C  C84  1  0.965900  0.700400  0.499500  1.0  0.0344
  C  C85  1  0.040800  0.677700  0.417200  1.0  -0.109
  C  C86  1  0.021800  0.744900  0.344400  1.0  0.1134
  C  C87  1  0.856600  0.854500  0.435500  1.0  0.1297
  C  C88  1  0.871200  0.793100  0.511600  1.0  -0.1112
  C  C89  1  0.609800  0.332200  0.588800  1.0  0.1015
  C  C90  1  0.686700  0.348400  0.398500  1.0  0.0941
  C  C91  1  0.880200  0.163600  0.402100  1.0  0.0939
  C  C92  1  0.798700  0.144000  0.589900  1.0  0.0857
  C  C93  1  0.723300  0.139000  0.901000  1.0  0.0767
  C  C94  1  0.732900  0.141800  0.088500  1.0  0.0824
  C  C95  1  0.625700  0.344000  0.089200  1.0  0.1011
  C  C96  1  0.603100  0.339400  0.899400  1.0  0.1061
  Se  Se97  1  0.081010  0.636850  0.094210  1.0  0.09
  Se  Se98  1  0.999170  0.378940  0.392890  1.0  0.1158
  Se  Se99  1  0.918990  0.363150  0.905790  1.0  0.0903
  Se  Se100  1  0.000830  0.621060  0.607110  1.0  0.117
  N  N101  1  0.709400  0.553900  0.199200  1.0  -0.3377
  N  N102  1  0.949300  0.867400  0.859500  1.0  -0.3652
  N  N103  1  0.375200  0.457200  0.302100  1.0  -0.3234
  N  N104  1  0.071400  0.171200  0.649200  1.0  -0.3143
  N  N105  1  0.463700  0.615600  0.358100  1.0  -0.4437
  N  N106  1  0.352800  0.593800  0.654200  1.0  -0.3925
  N  N107  1  0.040200  0.883500  0.650800  1.0  -0.4295
  N  N108  1  0.166800  0.915600  0.357500  1.0  -0.4585
  N  N109  1  0.240400  0.922900  0.151200  1.0  -0.4399
  N  N110  1  0.233800  0.918100  0.857900  1.0  -0.3968
  N  N111  1  0.399200  0.599200  0.854000  1.0  -0.4232
  N  N112  1  0.437400  0.606400  0.157500  1.0  -0.4395
  N  N113  1  0.290600  0.446100  0.800800  1.0  -0.3368
  N  N114  1  0.050700  0.132600  0.140500  1.0  -0.3665
  N  N115  1  0.624800  0.542800  0.697900  1.0  -0.3215
  N  N116  1  0.928600  0.828800  0.350800  1.0  -0.3171
  N  N117  1  0.536300  0.384400  0.641900  1.0  -0.4463
  N  N118  1  0.647200  0.406200  0.345800  1.0  -0.3902
  N  N119  1  0.959800  0.116500  0.349200  1.0  -0.4281
  N  N120  1  0.833200  0.084400  0.642500  1.0  -0.4579
  N  N121  1  0.759600  0.077100  0.848800  1.0  -0.4405
  N  N122  1  0.766200  0.081900  0.142100  1.0  -0.3954
  N  N123  1  0.600800  0.400800  0.146000  1.0  -0.4239
  N  N124  1  0.562600  0.393600  0.842500  1.0  -0.4383
