# generated using pymatgen
data_Co2H19C23NO10
_symmetry_space_group_name_H-M   'P 1'
_cell_length_a   7.77200000
_cell_length_b   18.62900000
_cell_length_c   19.15150000
_cell_angle_alpha   90.00000000
_cell_angle_beta   98.93410000
_cell_angle_gamma   90.00000000
_symmetry_Int_Tables_number   1
_chemical_formula_structural   Co2H19C23NO10
_chemical_formula_sum   'Co8 H76 C92 N4 O40'
_cell_volume   2739.20084659
_cell_formula_units_Z   4
loop_
 _symmetry_equiv_pos_site_id
 _symmetry_equiv_pos_as_xyz
  1  'x, y, z'
loop_
 _atom_site_type_symbol
 _atom_site_label
 _atom_site_symmetry_multiplicity
 _atom_site_fract_x
 _atom_site_fract_y
 _atom_site_fract_z
 _atom_site_occupancy
 _atom_site_charge
  Co  Co1  1  0.233370  0.060030  0.035360  1.0  1.0307
  Co  Co2  1  0.733370  0.439970  0.535360  1.0  1.0307
  Co  Co3  1  0.266630  0.560030  0.464640  1.0  1.0311
  Co  Co4  1  0.233580  0.939960  0.529480  1.0  0.9561
  Co  Co5  1  0.266420  0.439960  0.970520  1.0  0.9562
  Co  Co6  1  0.766630  0.939970  0.964640  1.0  1.0331
  Co  Co7  1  0.733580  0.560040  0.029480  1.0  0.9545
  Co  Co8  1  0.766420  0.060040  0.470520  1.0  0.9549
  H  H9  1  0.593000  0.480100  0.280800  1.0  0.163
  H  H10  1  0.687300  0.794800  0.747800  1.0  0.0792
  H  H11  1  0.305200  0.356200  0.621200  1.0  0.12
  H  H12  1  0.536400  0.688300  0.713100  1.0  0.0739
  H  H13  1  0.343800  0.811400  0.288800  1.0  0.0783
  H  H14  1  0.558400  0.852200  0.381900  1.0  0.1238
  H  H15  1  0.465100  0.685100  0.785500  1.0  0.0797
  H  H16  1  0.156200  0.311400  0.211200  1.0  0.0775
  H  H17  1  0.031600  0.002300  0.165900  1.0  0.1539
  H  H18  1  0.058400  0.647800  0.881900  1.0  0.1238
  H  H19  1  0.557300  0.147300  0.883600  1.0  0.1204
  H  H20  1  0.798100  0.853700  0.629300  1.0  0.1259
  H  H21  1  0.457200  0.709600  0.530600  1.0  0.1154
  H  H22  1  0.008200  0.921000  0.183700  1.0  0.1376
  H  H23  1  0.057300  0.352700  0.383600  1.0  0.1206
  H  H24  1  0.843800  0.688600  0.788800  1.0  0.0776
  H  H25  1  0.991800  0.079000  0.816300  1.0  0.1412
  H  H26  1  0.391100  0.203800  0.181700  1.0  0.0746
  H  H27  1  0.776700  0.298400  0.361600  1.0  0.0828
  H  H28  1  0.544300  0.709500  0.965800  1.0  0.113
  H  H29  1  0.805200  0.143800  0.121200  1.0  0.1203
  H  H30  1  0.093000  0.019900  0.780800  1.0  0.1634
  H  H31  1  0.655600  0.813100  0.210500  1.0  0.0766
  H  H32  1  0.114500  0.299100  0.812600  1.0  0.0806
  H  H33  1  0.531600  0.497700  0.665900  1.0  0.1552
  H  H34  1  0.201900  0.146300  0.370700  1.0  0.1269
  H  H35  1  0.276700  0.201600  0.861600  1.0  0.0824
  H  H36  1  0.608900  0.796200  0.818300  1.0  0.0747
  H  H37  1  0.534900  0.314900  0.214500  1.0  0.0792
  H  H38  1  0.307800  0.791600  0.757800  1.0  0.0863
  H  H39  1  0.968400  0.997700  0.834100  1.0  0.154
  H  H40  1  0.701900  0.353700  0.870700  1.0  0.1262
  H  H41  1  0.508200  0.579000  0.683700  1.0  0.1384
  H  H42  1  0.542800  0.290400  0.469400  1.0  0.1145
  H  H43  1  0.463600  0.311700  0.286900  1.0  0.0728
  H  H44  1  0.192200  0.291600  0.742200  1.0  0.0866
  H  H45  1  0.034900  0.185100  0.714500  1.0  0.0785
  H  H46  1  0.491800  0.421000  0.316300  1.0  0.1398
  H  H47  1  0.441600  0.147800  0.618100  1.0  0.1239
  H  H48  1  0.955700  0.209500  0.534200  1.0  0.1131
  H  H49  1  0.957200  0.790400  0.030600  1.0  0.1152
  H  H50  1  0.277500  0.801000  0.361900  1.0  0.0778
  H  H51  1  0.891100  0.296200  0.681700  1.0  0.0749
  H  H52  1  0.442700  0.852700  0.116400  1.0  0.1206
  H  H53  1  0.965100  0.814900  0.285500  1.0  0.0786
  H  H54  1  0.155600  0.686900  0.710500  1.0  0.078
  H  H55  1  0.907000  0.980100  0.219200  1.0  0.1627
  H  H56  1  0.942700  0.647300  0.616400  1.0  0.1208
  H  H57  1  0.468400  0.502300  0.334100  1.0  0.1538
  H  H58  1  0.223300  0.701600  0.638400  1.0  0.0827
  H  H59  1  0.692200  0.208400  0.242200  1.0  0.0865
  H  H60  1  0.722500  0.199000  0.638100  1.0  0.0786
  H  H61  1  0.344400  0.186900  0.789500  1.0  0.0773
  H  H62  1  0.812700  0.294800  0.752200  1.0  0.0801
  H  H63  1  0.941600  0.352200  0.118100  1.0  0.1237
  H  H64  1  0.194800  0.856200  0.878800  1.0  0.1204
  H  H65  1  0.723300  0.798400  0.138400  1.0  0.0829
  H  H66  1  0.844400  0.313100  0.289500  1.0  0.0773
  H  H67  1  0.036400  0.811700  0.213100  1.0  0.0739
  H  H68  1  0.963600  0.188300  0.786900  1.0  0.0738
  H  H69  1  0.455700  0.290500  0.034200  1.0  0.1135
  H  H70  1  0.407000  0.519900  0.719200  1.0  0.1625
  H  H71  1  0.807800  0.708400  0.257800  1.0  0.0879
  H  H72  1  0.385500  0.799100  0.687400  1.0  0.0809
  H  H73  1  0.108900  0.703800  0.318300  1.0  0.0765
  H  H74  1  0.312700  0.205200  0.252200  1.0  0.0815
  H  H75  1  0.044300  0.790500  0.465800  1.0  0.1125
  H  H76  1  0.222500  0.301000  0.138100  1.0  0.0785
  H  H77  1  0.614500  0.200900  0.312600  1.0  0.082
  H  H78  1  0.187300  0.705200  0.247800  1.0  0.0802
  H  H79  1  0.885500  0.700900  0.187400  1.0  0.0808
  H  H80  1  0.656200  0.188600  0.711200  1.0  0.0782
  H  H81  1  0.694800  0.643800  0.378800  1.0  0.12
  H  H82  1  0.298100  0.646300  0.129300  1.0  0.127
  H  H83  1  0.042800  0.209600  0.969400  1.0  0.1148
  H  H84  1  0.777500  0.699000  0.861900  1.0  0.0789
  C  C85  1  0.473300  0.848300  0.564400  1.0  0.6543
  C  C86  1  0.694100  0.223700  0.679400  1.0  0.1075
  C  C87  1  0.808600  0.832660  0.427700  1.0  -0.1188
  C  C88  1  0.145400  0.091000  0.552700  1.0  0.6943
  C  C89  1  0.276600  0.308920  0.609100  1.0  -0.1213
  C  C90  1  0.640900  0.816100  0.392800  1.0  -0.1661
  C  C91  1  0.476200  0.150500  0.058700  1.0  0.6554
  C  C92  1  0.106870  0.709560  0.078270  1.0  -0.13
  C  C93  1  0.450600  0.533400  0.676800  1.0  -0.4259
  C  C94  1  0.932800  0.779150  0.443400  1.0  0.0025
  C  C95  1  0.191400  0.167340  0.572300  1.0  -0.1175
  C  C96  1  0.897400  0.753200  0.627900  1.0  0.2564
  C  C97  1  0.650600  0.764800  0.784200  1.0  -0.1185
  C  C98  1  0.223400  0.808920  0.890900  1.0  -0.1209
  C  C99  1  0.389160  0.791880  0.925260  1.0  -0.1401
  C  C100  1  0.893130  0.290440  0.921730  1.0  -0.1302
  C  C101  1  0.150600  0.735200  0.284200  1.0  -0.1159
  C  C102  1  0.308600  0.667340  0.927700  1.0  -0.1174
  C  C103  1  0.347800  0.407800  0.455600  1.0  0.6944
  C  C104  1  0.999800  0.782800  0.250300  1.0  -0.1309
  C  C105  1  0.102600  0.246800  0.372100  1.0  0.2566
  C  C106  1  0.099700  0.754300  0.874800  1.0  0.2625
  C  C107  1  0.346100  0.764800  0.719600  1.0  -0.1129
  C  C108  1  0.192700  0.723900  0.680600  1.0  0.1049
  C  C109  1  0.359100  0.183900  0.607200  1.0  -0.1642
  C  C110  1  0.302600  0.538700  0.617200  1.0  0.1746
  C  C111  1  0.807300  0.276100  0.319400  1.0  0.1045
  C  C112  1  0.271800  0.693000  0.114300  1.0  -0.1188
  C  C113  1  0.023800  0.650500  0.441300  1.0  0.6561
  C  C114  1  0.889160  0.708120  0.425260  1.0  -0.1394
  C  C115  1  0.859200  0.683200  0.606600  1.0  -0.1182
  C  C116  1  0.397400  0.746800  0.127900  1.0  0.249
  C  C117  1  0.847800  0.092200  0.955600  1.0  0.6918
  C  C118  1  0.153900  0.264800  0.780400  1.0  -0.1265
  C  C119  1  0.307000  0.332950  0.429900  1.0  -0.1412
  C  C120  1  0.197400  0.038700  0.882800  1.0  0.1746
  C  C121  1  0.354600  0.591000  0.947300  1.0  0.6952
  C  C122  1  0.049400  0.033400  0.823200  1.0  -0.4287
  C  C123  1  0.194100  0.276300  0.179400  1.0  0.1073
  C  C124  1  0.854600  0.909000  0.447300  1.0  0.6959
  C  C125  1  0.349400  0.235200  0.215800  1.0  -0.1174
  C  C126  1  0.599700  0.745700  0.374800  1.0  0.2559
  C  C127  1  0.152200  0.907800  0.044400  1.0  0.6925
  C  C128  1  0.305900  0.776300  0.320600  1.0  0.1069
  C  C129  1  0.933350  0.220480  0.944650  1.0  -0.0135
  C  C130  1  0.066650  0.779520  0.055350  1.0  -0.0129
  C  C131  1  0.307300  0.223900  0.819400  1.0  0.1039
  C  C132  1  0.359200  0.816800  0.106600  1.0  -0.1185
  C  C133  1  0.193000  0.832950  0.070100  1.0  -0.1411
  C  C134  1  0.976200  0.349500  0.558700  1.0  0.6556
  C  C135  1  0.067200  0.220850  0.556600  1.0  0.0037
  C  C136  1  0.805900  0.723700  0.820600  1.0  0.1076
  C  C137  1  0.228200  0.193000  0.385700  1.0  -0.1164
  C  C138  1  0.802600  0.961300  0.117200  1.0  0.1743
  C  C139  1  0.771800  0.807000  0.614300  1.0  -0.1192
  C  C140  1  0.566650  0.720480  0.555350  1.0  -0.0126
  C  C141  1  0.140900  0.683900  0.892800  1.0  -0.1651
  C  C142  1  0.433350  0.279520  0.444650  1.0  -0.0134
  C  C143  1  0.645400  0.409000  0.052700  1.0  0.6942
  C  C144  1  0.432800  0.720850  0.943400  1.0  0.0022
  C  C145  1  0.846100  0.735200  0.219600  1.0  -0.1131
  C  C146  1  0.640800  0.183200  0.893400  1.0  -0.1198
  C  C147  1  0.606870  0.790440  0.578270  1.0  -0.13
  C  C148  1  0.000200  0.217200  0.749700  1.0  -0.1263
  C  C149  1  0.523800  0.849500  0.941300  1.0  0.6571
  C  C150  1  0.567200  0.279150  0.056600  1.0  0.0038
  C  C151  1  0.110840  0.291880  0.574740  1.0  -0.1403
  C  C152  1  0.697400  0.461300  0.382800  1.0  0.1739
  C  C153  1  0.859100  0.316100  0.107200  1.0  -0.1645
  C  C154  1  0.610840  0.208120  0.074740  1.0  -0.1397
  C  C155  1  0.692700  0.776100  0.180600  1.0  0.106
  C  C156  1  0.693000  0.667050  0.570100  1.0  -0.1409
  C  C157  1  0.653900  0.235200  0.280400  1.0  -0.1149
  C  C158  1  0.026700  0.348300  0.935600  1.0  0.653
  C  C159  1  0.652200  0.592200  0.544400  1.0  0.6921
  C  C160  1  0.602600  0.253200  0.872100  1.0  0.2565
  C  C161  1  0.776600  0.191080  0.109100  1.0  -0.1209
  C  C162  1  0.849400  0.264800  0.715800  1.0  -0.1194
  C  C163  1  0.691400  0.332660  0.072300  1.0  -0.1188
  C  C164  1  0.723400  0.691080  0.390900  1.0  -0.1194
  C  C165  1  0.500200  0.282800  0.249700  1.0  -0.1274
  C  C166  1  0.728200  0.307000  0.885700  1.0  -0.1181
  C  C167  1  0.973300  0.651700  0.064400  1.0  0.6538
  C  C168  1  0.900300  0.245700  0.125200  1.0  0.2631
  C  C169  1  0.140800  0.316800  0.393400  1.0  -0.1216
  C  C170  1  0.400300  0.254300  0.625200  1.0  0.2621
  C  C171  1  0.499800  0.717200  0.750300  1.0  -0.1256
  C  C172  1  0.526700  0.151700  0.435600  1.0  0.6553
  C  C173  1  0.393130  0.209560  0.421730  1.0  -0.1296
  C  C174  1  0.807000  0.167050  0.929900  1.0  -0.1409
  C  C175  1  0.549400  0.466600  0.323200  1.0  -0.4284
  C  C176  1  0.950600  0.966600  0.176800  1.0  -0.4274
  N  N177  1  0.185800  0.538200  0.564200  1.0  -0.3388
  N  N178  1  0.314200  0.038200  0.935800  1.0  -0.3377
  N  N179  1  0.685800  0.961800  0.064200  1.0  -0.3386
  N  N180  1  0.814200  0.461800  0.435800  1.0  -0.3379
  O  O181  1  0.485400  0.418180  0.497300  1.0  -0.6518
  O  O182  1  0.172570  0.334450  0.972170  1.0  -0.5848
  O  O183  1  0.489080  0.913520  0.921480  1.0  -0.5685
  O  O184  1  0.737730  0.044380  0.935530  1.0  -0.5931
  O  O185  1  0.056130  0.776040  0.662030  1.0  -0.2631
  O  O186  1  0.504310  0.910770  0.589010  1.0  -0.5591
  O  O187  1  0.556130  0.723960  0.162030  1.0  -0.2634
  O  O188  1  0.943870  0.223960  0.337970  1.0  -0.2637
  O  O189  1  0.237730  0.455620  0.435530  1.0  -0.5932
  O  O190  1  0.173490  0.666450  0.471190  1.0  -0.5713
  O  O191  1  0.672570  0.165550  0.472170  1.0  -0.5844
  O  O192  1  0.060340  0.223520  0.159240  1.0  -0.2604
  O  O193  1  0.004310  0.589230  0.089010  1.0  -0.5567
  O  O194  1  0.985400  0.081820  0.997300  1.0  -0.6512
  O  O195  1  0.762270  0.544380  0.564470  1.0  -0.5926
  O  O196  1  0.443870  0.276040  0.837970  1.0  -0.2636
  O  O197  1  0.989080  0.586480  0.421480  1.0  -0.5688
  O  O198  1  0.560340  0.276480  0.659240  1.0  -0.2582
  O  O199  1  0.268460  0.046740  0.553160  1.0  -0.6167
  O  O200  1  0.512400  0.574150  0.961400  1.0  -0.6979
  O  O201  1  0.995690  0.410770  0.910990  1.0  -0.5583
  O  O202  1  0.939660  0.776480  0.840760  1.0  -0.2578
  O  O203  1  0.010920  0.413520  0.578520  1.0  -0.5696
  O  O204  1  0.495690  0.089230  0.410990  1.0  -0.5582
  O  O205  1  0.673490  0.833550  0.971190  1.0  -0.5713
  O  O206  1  0.014600  0.918180  0.002700  1.0  -0.6508
  O  O207  1  0.514600  0.581820  0.502700  1.0  -0.6516
  O  O208  1  0.439660  0.723520  0.340760  1.0  -0.2604
  O  O209  1  0.262270  0.955620  0.064470  1.0  -0.5936
  O  O210  1  0.012400  0.925850  0.461400  1.0  -0.6956
  O  O211  1  0.987600  0.074150  0.538600  1.0  -0.6962
  O  O212  1  0.768460  0.453260  0.053160  1.0  -0.6182
  O  O213  1  0.231540  0.546740  0.946840  1.0  -0.6169
  O  O214  1  0.731540  0.953260  0.446840  1.0  -0.6176
  O  O215  1  0.487600  0.425850  0.038600  1.0  -0.695
  O  O216  1  0.510920  0.086480  0.078520  1.0  -0.57
  O  O217  1  0.827430  0.665550  0.027830  1.0  -0.584
  O  O218  1  0.826510  0.333550  0.528810  1.0  -0.5713
  O  O219  1  0.327430  0.834450  0.527830  1.0  -0.5848
  O  O220  1  0.326510  0.166450  0.028810  1.0  -0.5713
