# generated using pymatgen
data_Zn4H18C36N2O17
_symmetry_space_group_name_H-M   'P 1'
_cell_length_a   10.29700000
_cell_length_b   30.56350000
_cell_length_c   30.92620000
_cell_angle_alpha   90.00000000
_cell_angle_beta   90.00000000
_cell_angle_gamma   91.46800000
_symmetry_Int_Tables_number   1
_chemical_formula_structural   Zn4H18C36N2O17
_chemical_formula_sum   'Zn16 H72 C144 N8 O68'
_cell_volume   9729.66294181
_cell_formula_units_Z   4
loop_
 _symmetry_equiv_pos_site_id
 _symmetry_equiv_pos_as_xyz
  1  'x, y, z'
loop_
 _atom_site_type_symbol
 _atom_site_label
 _atom_site_symmetry_multiplicity
 _atom_site_fract_x
 _atom_site_fract_y
 _atom_site_fract_z
 _atom_site_occupancy
 _atom_site_charge
  Zn  Zn1  1  0.168290  0.321860  0.326870  1.0  1.0516
  Zn  Zn2  1  0.476590  0.163170  0.917540  1.0  1.0668
  Zn  Zn3  1  0.473200  0.089920  0.842020  1.0  1.1005
  Zn  Zn4  1  0.976590  0.663170  0.582460  1.0  1.0687
  Zn  Zn5  1  0.125340  0.681680  0.669540  1.0  1.0582
  Zn  Zn6  1  0.374660  0.818320  0.169540  1.0  1.059
  Zn  Zn7  1  0.526800  0.910080  0.157980  1.0  1.1029
  Zn  Zn8  1  0.026800  0.410080  0.342020  1.0  1.1032
  Zn  Zn9  1  0.625340  0.181680  0.830460  1.0  1.0583
  Zn  Zn10  1  0.331710  0.178140  0.826870  1.0  1.0503
  Zn  Zn11  1  0.523410  0.836830  0.082460  1.0  1.0687
  Zn  Zn12  1  0.831710  0.678140  0.673130  1.0  1.0511
  Zn  Zn13  1  0.874660  0.318320  0.330460  1.0  1.059
  Zn  Zn14  1  0.668290  0.821860  0.173130  1.0  1.0524
  Zn  Zn15  1  0.973200  0.589920  0.657980  1.0  1.1004
  Zn  Zn16  1  0.023410  0.336830  0.417540  1.0  1.0672
  H  H17  1  0.997000  0.427500  0.520200  1.0  0.1177
  H  H18  1  0.026900  0.882700  0.184000  1.0  0.1283
  H  H19  1  0.712300  0.276200  0.498900  1.0  0.1247
  H  H20  1  0.723000  0.686000  0.225000  1.0  0.1229
  H  H21  1  0.223000  0.186000  0.275000  1.0  0.1234
  H  H22  1  0.388600  0.225900  0.617400  1.0  0.1248
  H  H23  1  0.497000  0.927500  0.979800  1.0  0.1176
  H  H24  1  0.338700  0.490200  0.281100  1.0  0.1299
  H  H25  1  0.676700  0.614100  0.249400  1.0  0.1278
  H  H26  1  0.287700  0.723800  0.501100  1.0  0.1258
  H  H27  1  0.838700  0.990200  0.218900  1.0  0.1296
  H  H28  1  0.177500  0.220300  0.000600  1.0  0.1418
  H  H29  1  0.643700  0.801900  0.312400  1.0  0.1304
  H  H30  1  0.889000  0.944400  0.769700  1.0  0.3045
  H  H31  1  0.730900  0.492700  0.284300  1.0  0.1321
  H  H32  1  0.131600  0.809900  0.670700  1.0  0.1297
  H  H33  1  0.677500  0.720300  0.499400  1.0  0.1417
  H  H34  1  0.322500  0.279700  0.500600  1.0  0.1416
  H  H35  1  0.661300  0.509800  0.718900  1.0  0.1299
  H  H36  1  0.526900  0.382700  0.316000  1.0  0.1282
  H  H37  1  0.518000  0.306600  0.390000  1.0  0.1235
  H  H38  1  0.868400  0.190100  0.329300  1.0  0.1297
  H  H39  1  0.503000  0.072500  0.020200  1.0  0.1177
  H  H40  1  0.356300  0.198100  0.687600  1.0  0.1307
  H  H41  1  0.161300  0.009800  0.781100  1.0  0.1295
  H  H42  1  0.143700  0.301900  0.187600  1.0  0.1304
  H  H43  1  0.631600  0.309900  0.829300  1.0  0.1296
  H  H44  1  0.823300  0.885900  0.749400  1.0  0.1285
  H  H45  1  0.473100  0.617300  0.684000  1.0  0.1279
  H  H46  1  0.773800  0.265900  0.215800  1.0  0.1244
  H  H47  1  0.433300  0.257800  0.560900  1.0  0.3059
  H  H48  1  0.521100  0.018200  0.072200  1.0  0.1115
  H  H49  1  0.822500  0.779700  0.999400  1.0  0.1417
  H  H50  1  0.226200  0.734100  0.784200  1.0  0.1247
  H  H51  1  0.566700  0.742200  0.439100  1.0  0.3076
  H  H52  1  0.482000  0.693400  0.610000  1.0  0.123
  H  H53  1  0.324300  0.618300  0.194100  1.0  0.1155
  H  H54  1  0.478900  0.981800  0.927800  1.0  0.1123
  H  H55  1  0.269100  0.507300  0.715700  1.0  0.1315
  H  H56  1  0.611000  0.555600  0.269700  1.0  0.3058
  H  H57  1  0.212300  0.776200  0.001100  1.0  0.1241
  H  H58  1  0.003000  0.572500  0.479800  1.0  0.118
  H  H59  1  0.175700  0.881700  0.694100  1.0  0.1158
  H  H60  1  0.856300  0.698100  0.812400  1.0  0.1308
  H  H61  1  0.787700  0.223800  0.998900  1.0  0.1244
  H  H62  1  0.018000  0.806600  0.110000  1.0  0.1233
  H  H63  1  0.368400  0.690100  0.170700  1.0  0.1296
  H  H64  1  0.611400  0.774100  0.382600  1.0  0.1248
  H  H65  1  0.933300  0.757800  0.939100  1.0  0.3054
  H  H66  1  0.254500  0.761000  0.853200  1.0  0.1263
  H  H67  1  0.230900  0.992700  0.215700  1.0  0.1321
  H  H68  1  0.973100  0.117300  0.816000  1.0  0.1279
  H  H69  1  0.021100  0.518200  0.427800  1.0  0.1115
  H  H70  1  0.982000  0.193400  0.890000  1.0  0.1234
  H  H71  1  0.769100  0.007300  0.784300  1.0  0.1312
  H  H72  1  0.745500  0.239000  0.146800  1.0  0.1267
  H  H73  1  0.726200  0.234100  0.715800  1.0  0.1244
  H  H74  1  0.277000  0.314000  0.775000  1.0  0.1237
  H  H75  1  0.675700  0.381700  0.805900  1.0  0.1151
  H  H76  1  0.754500  0.261000  0.646800  1.0  0.1268
  H  H77  1  0.111400  0.274100  0.117400  1.0  0.1242
  H  H78  1  0.888600  0.725900  0.882600  1.0  0.1253
  H  H79  1  0.389000  0.444400  0.730300  1.0  0.3042
  H  H80  1  0.111000  0.055600  0.230300  1.0  0.306
  H  H81  1  0.777000  0.814000  0.725000  1.0  0.1233
  H  H82  1  0.176700  0.114100  0.250600  1.0  0.1273
  H  H83  1  0.323300  0.385900  0.750600  1.0  0.1284
  H  H84  1  0.273800  0.765900  0.284200  1.0  0.1245
  H  H85  1  0.066700  0.242200  0.060900  1.0  0.3073
  H  H86  1  0.824300  0.118300  0.305900  1.0  0.1158
  H  H87  1  0.245500  0.739000  0.353200  1.0  0.1264
  H  H88  1  0.978900  0.481800  0.572200  1.0  0.112
  C  C89  1  0.069900  0.824910  0.686330  1.0  -0.0658
  C  C90  1  0.952200  0.805330  0.695960  1.0  -0.1322
  C  C91  1  0.721700  0.694410  0.581130  1.0  0.7437
  C  C92  1  0.364300  0.707010  0.559370  1.0  -0.1702
  C  C93  1  0.221700  0.194410  0.918870  1.0  0.7437
  C  C94  1  0.643000  0.672520  0.219160  1.0  -0.0509
  C  C95  1  0.415900  0.433370  0.299430  1.0  -0.1309
  C  C96  1  0.452200  0.305330  0.804040  1.0  -0.1313
  C  C97  1  0.044000  0.272780  0.137400  1.0  -0.1162
  C  C98  1  0.935800  0.710600  0.820510  1.0  -0.0777
  C  C99  1  0.965600  0.001860  0.777760  1.0  0.2573
  C  C100  1  0.083400  0.023890  0.785440  1.0  -0.1062
  C  C101  1  0.981200  0.225600  0.005950  1.0  0.1786
  C  C102  1  0.853100  0.066220  0.800950  1.0  -0.1547
  C  C103  1  0.434500  0.259910  0.818850  1.0  0.7143
  C  C104  1  0.324700  0.751720  0.345000  1.0  -0.0422
  C  C105  1  0.029300  0.911710  0.193040  1.0  0.0226
  C  C106  1  0.527900  0.186530  0.749500  1.0  0.6624
  C  C107  1  0.238800  0.699880  0.583630  1.0  0.7733
  C  C108  1  0.158200  0.732430  0.803990  1.0  -0.0529
  C  C109  1  0.503700  0.390970  0.775920  1.0  -0.1134
  C  C110  1  0.864300  0.207010  0.940630  1.0  -0.17
  C  C111  1  0.384900  0.370920  0.766400  1.0  -0.1253
  C  C112  1  0.573500  0.245200  0.625700  1.0  -0.1083
  C  C113  1  0.018600  0.799590  0.080750  1.0  0.0341
  C  C114  1  0.175300  0.748280  0.845000  1.0  -0.0421
  C  C115  1  0.073500  0.745200  0.874300  1.0  -0.1083
  C  C116  1  0.510900  0.967650  0.031800  1.0  -0.1307
  C  C117  1  0.135700  0.792990  0.059370  1.0  -0.1708
  C  C118  1  0.980900  0.568130  0.564540  1.0  0.7404
  C  C119  1  0.099400  0.217330  0.985640  1.0  -0.0988
  C  C120  1  0.857000  0.827480  0.719160  1.0  -0.0517
  C  C121  1  0.518600  0.299590  0.419250  1.0  0.0341
  C  C122  1  0.962100  0.286400  0.208210  1.0  -0.0844
  C  C123  1  0.537900  0.213600  0.708210  1.0  -0.0841
  C  C124  1  0.470700  0.588290  0.693040  1.0  0.0207
  C  C125  1  0.569900  0.324910  0.813670  1.0  -0.0661
  C  C126  1  0.146900  0.933780  0.199050  1.0  -0.1553
  C  C127  1  0.512600  0.010460  0.043230  1.0  -0.0373
  C  C128  1  0.841800  0.267570  0.196010  1.0  -0.0548
  C  C129  1  0.987400  0.489540  0.543230  1.0  -0.0371
  C  C130  1  0.019100  0.431870  0.435460  1.0  0.7405
  C  C131  1  0.996300  0.109030  0.275920  1.0  -0.1143
  C  C132  1  0.430100  0.675090  0.186330  1.0  -0.0638
  C  C133  1  0.596100  0.368190  0.799500  1.0  -0.0481
  C  C134  1  0.353100  0.566220  0.699050  1.0  -0.1548
  C  C135  1  0.903100  0.795510  0.057860  1.0  -0.1505
  C  C136  1  0.615100  0.629080  0.233600  1.0  -0.1244
  C  C137  1  0.915900  0.933370  0.200570  1.0  -0.1312
  C  C138  1  0.261200  0.800120  0.083630  1.0  0.7732
  C  C139  1  0.972100  0.313470  0.249500  1.0  0.6617
  C  C140  1  0.341800  0.767570  0.303990  1.0  -0.0545
  C  C141  1  0.778300  0.805590  0.081130  1.0  0.7433
  C  C142  1  0.461900  0.562960  0.237730  1.0  0.4051
  C  C143  1  0.956000  0.727220  0.862600  1.0  -0.115
  C  C144  1  0.899300  0.237900  0.080490  1.0  0.4548
  C  C145  1  0.596900  0.704490  0.557860  1.0  -0.1503
  C  C146  1  0.278300  0.305590  0.418870  1.0  0.7433
  C  C147  1  0.518800  0.274400  0.505950  1.0  0.179
  C  C148  1  0.634400  0.280410  0.484450  1.0  -0.0593
  C  C149  1  0.711000  0.591190  0.691820  1.0  0.7431
  C  C150  1  0.519100  0.931870  0.064540  1.0  0.74
  C  C151  1  0.084100  0.066630  0.799430  1.0  -0.1309
  C  C152  1  0.403100  0.295510  0.442140  1.0  -0.1505
  C  C153  1  0.934500  0.759910  0.681150  1.0  0.7144
  C  C154  1  0.151700  0.977570  0.212830  1.0  -0.1031
  C  C155  1  0.064200  0.289400  0.179490  1.0  -0.0752
  C  C156  1  0.034400  0.998140  0.222240  1.0  0.2575
  C  C157  1  0.365600  0.719590  0.515550  1.0  -0.0603
  C  C158  1  0.529300  0.411710  0.306960  1.0  0.0228
  C  C159  1  0.738800  0.199880  0.916370  1.0  0.7741
  C  C160  1  0.018800  0.774400  0.994050  1.0  0.179
  C  C161  1  0.771100  0.410920  0.313280  1.0  0.7484
  C  C162  1  0.584100  0.566630  0.700570  1.0  -0.131
  C  C163  1  0.865600  0.219590  0.984450  1.0  -0.0602
  C  C164  1  0.761200  0.300120  0.416370  1.0  0.774
  C  C165  1  0.900600  0.782670  0.014360  1.0  -0.1007
  C  C166  1  0.462100  0.786400  0.291790  1.0  -0.0851
  C  C167  1  0.211000  0.091190  0.808180  1.0  0.7421
  C  C168  1  0.480900  0.068130  0.935460  1.0  0.7407
  C  C169  1  0.884900  0.870920  0.733600  1.0  -0.1256
  C  C170  1  0.003700  0.890970  0.724080  1.0  -0.1148
  C  C171  1  0.998200  0.456790  0.511890  1.0  -0.0411
  C  C172  1  0.400600  0.282670  0.485640  1.0  -0.1008
  C  C173  1  0.903900  0.131810  0.299500  1.0  -0.0464
  C  C174  1  0.496300  0.609030  0.224080  1.0  -0.1122
  C  C175  1  0.047800  0.194670  0.304040  1.0  -0.131
  C  C176  1  0.961900  0.062960  0.262270  1.0  0.3964
  C  C177  1  0.930100  0.175090  0.313670  1.0  -0.0654
  C  C178  1  0.271100  0.910920  0.186720  1.0  0.7472
  C  C179  1  0.481400  0.700410  0.580750  1.0  0.0343
  C  C180  1  0.635700  0.292990  0.440630  1.0  -0.1705
  C  C181  1  0.651700  0.477570  0.287170  1.0  -0.1028
  C  C182  1  0.435800  0.210600  0.679490  1.0  -0.0766
  C  C183  1  0.065500  0.240090  0.318850  1.0  0.7159
  C  C184  1  0.600700  0.262100  0.580490  1.0  0.4545
  C  C185  1  0.547800  0.694670  0.195960  1.0  -0.1311
  C  C186  1  0.096100  0.868190  0.700500  1.0  -0.0464
  C  C187  1  0.027900  0.686530  0.750500  1.0  0.6625
  C  C188  1  0.970700  0.088290  0.806960  1.0  0.0211
  C  C189  1  0.487400  0.989540  0.956770  1.0  -0.0372
  C  C190  1  0.228900  0.589080  0.686720  1.0  0.7487
  C  C191  1  0.675300  0.248280  0.655000  1.0  -0.0393
  C  C192  1  0.115100  0.129080  0.266400  1.0  -0.1237
  C  C193  1  0.534400  0.498140  0.277760  1.0  0.2578
  C  C194  1  0.289000  0.408810  0.308180  1.0  0.7417
  C  C195  1  0.465600  0.501860  0.722240  1.0  0.257
  C  C196  1  0.544000  0.772780  0.362600  1.0  -0.1145
  C  C197  1  0.038100  0.937040  0.737730  1.0  0.3998
  C  C198  1  0.134400  0.780410  0.015550  1.0  -0.0598
  C  C199  1  0.357000  0.327480  0.780840  1.0  -0.054
  C  C200  1  0.538100  0.437040  0.762270  1.0  0.406
  C  C201  1  0.564200  0.789400  0.320510  1.0  -0.0765
  C  C202  1  0.728900  0.089080  0.813280  1.0  0.749
  C  C203  1  0.001800  0.543210  0.488110  1.0  -0.044
  C  C204  1  0.456000  0.227220  0.637400  1.0  -0.1137
  C  C205  1  0.100700  0.762100  0.919510  1.0  0.4554
  C  C206  1  0.416600  0.476110  0.285440  1.0  -0.1099
  C  C207  1  0.489100  0.032350  0.968200  1.0  -0.132
  C  C208  1  0.848300  0.022430  0.787170  1.0  -0.1026
  C  C209  1  0.646900  0.433780  0.300950  1.0  -0.1554
  C  C210  1  0.399300  0.737900  0.419510  1.0  0.455
  C  C211  1  0.143000  0.172520  0.280840  1.0  -0.0519
  C  C212  1  0.583400  0.523890  0.714560  1.0  -0.1063
  C  C213  1  0.481200  0.725600  0.494050  1.0  0.1788
  C  C214  1  0.789000  0.908810  0.191820  1.0  0.7423
  C  C215  1  0.472100  0.813470  0.250500  1.0  0.6624
  C  C216  1  0.599400  0.717330  0.514360  1.0  -0.0983
  C  C217  1  0.012600  0.510460  0.456770  1.0  -0.0374
  C  C218  1  0.501800  0.043210  0.011890  1.0  -0.0416
  C  C219  1  0.037900  0.713600  0.791790  1.0  -0.0852
  C  C220  1  0.989100  0.532350  0.531800  1.0  -0.1272
  C  C221  1  0.926500  0.254800  0.125700  1.0  -0.1072
  C  C222  1  0.916600  0.976110  0.214560  1.0  -0.1099
  C  C223  1  0.348300  0.522430  0.712830  1.0  -0.1024
  C  C224  1  0.498200  0.956790  0.988110  1.0  -0.0403
  C  C225  1  0.824700  0.251720  0.155000  1.0  -0.0416
  C  C226  1  0.658200  0.232430  0.696010  1.0  -0.0534
  C  C227  1  0.010900  0.467650  0.468200  1.0  -0.1273
  C  C228  1  0.981400  0.200410  0.919250  1.0  0.0353
  C  C229  1  0.403900  0.631810  0.200500  1.0  -0.0461
  C  C230  1  0.096900  0.204490  0.942140  1.0  -0.1502
  C  C231  1  0.426500  0.754800  0.374300  1.0  -0.1073
  C  C232  1  0.565500  0.740090  0.181150  1.0  0.7127
  N  N233  1  0.957900  0.958950  0.762080  1.0  -0.3517
  N  N234  1  0.510400  0.263830  0.551650  1.0  -0.3784
  N  N235  1  0.989600  0.236170  0.051650  1.0  -0.3776
  N  N236  1  0.457900  0.458950  0.737920  1.0  -0.3503
  N  N237  1  0.010400  0.763830  0.948350  1.0  -0.3781
  N  N238  1  0.042100  0.041050  0.237920  1.0  -0.3511
  N  N239  1  0.489600  0.736170  0.448350  1.0  -0.3789
  N  N240  1  0.542100  0.541050  0.262080  1.0  -0.3513
  O  O241  1  0.624500  0.067290  0.812790  1.0  -0.5672
  O  O242  1  0.522900  0.245840  0.838570  1.0  -0.6407
  O  O243  1  0.854000  0.045120  0.268770  1.0  -0.4909
  O  O244  1  0.713300  0.690320  0.620410  1.0  -0.5859
  O  O245  1  0.742000  0.128180  0.821470  1.0  -0.5771
  O  O246  1  0.476800  0.150910  0.856630  1.0  -1.1666
  O  O247  1  0.207500  0.777630  0.931220  1.0  -0.4904
  O  O248  1  0.213300  0.190320  0.879590  1.0  -0.5847
  O  O249  1  0.870000  0.302250  0.269550  1.0  -0.5943
  O  O250  1  0.977100  0.254160  0.338570  1.0  -0.6415
  O  O251  1  0.875500  0.432710  0.312790  1.0  -0.5671
  O  O252  1  0.023200  0.349090  0.356630  1.0  -1.1666
  O  O253  1  0.792500  0.222370  0.068780  1.0  -0.486
  O  O254  1  0.707500  0.277630  0.568780  1.0  -0.4901
  O  O255  1  0.375500  0.932710  0.187210  1.0  -0.567
  O  O256  1  0.258000  0.871820  0.178530  1.0  -0.578
  O  O257  1  0.822400  0.690820  0.558530  1.0  -0.5842
  O  O258  1  0.758000  0.371820  0.321470  1.0  -0.5779
  O  O259  1  0.138800  0.692470  0.562280  1.0  -0.5849
  O  O260  1  0.861200  0.307530  0.437720  1.0  -0.5848
  O  O261  1  0.934100  0.666980  0.736490  1.0  -0.601
  O  O262  1  0.242000  0.628180  0.678530  1.0  -0.5767
  O  O263  1  0.749000  0.201390  0.875940  1.0  -0.5938
  O  O264  1  0.166600  0.261560  0.308950  1.0  -0.5828
  O  O265  1  0.146000  0.954880  0.731230  1.0  -0.496
  O  O266  1  0.370000  0.802250  0.230450  1.0  -0.5953
  O  O267  1  0.638800  0.192470  0.937720  1.0  -0.5856
  O  O268  1  0.124500  0.567290  0.687210  1.0  -0.5674
  O  O269  1  0.026800  0.443130  0.397030  1.0  -0.6165
  O  O270  1  0.286700  0.309680  0.379590  1.0  -0.5837
  O  O271  1  0.293900  0.367970  0.307860  1.0  -0.5861
  O  O272  1  0.354000  0.545120  0.231230  1.0  -0.4922
  O  O273  1  0.017600  0.393150  0.448870  1.0  -0.6018
  O  O274  1  0.793900  0.867970  0.192140  1.0  -0.5859
  O  O275  1  0.630000  0.197750  0.769550  1.0  -0.5964
  O  O276  1  0.130000  0.697750  0.730450  1.0  -0.5951
  O  O277  1  0.249000  0.701390  0.624060  1.0  -0.5941
  O  O278  1  0.477100  0.754160  0.161430  1.0  -0.6409
  O  O279  1  0.322400  0.190820  0.941470  1.0  -0.5847
  O  O280  1  0.177600  0.309180  0.441470  1.0  -0.5858
  O  O281  1  0.251000  0.798610  0.124060  1.0  -0.5935
  O  O282  1  0.666667  0.761560  0.191050  1.0  -0.5826
  O  O283  1  0.751000  0.298610  0.375940  1.0  -0.5933
  O  O284  1  0.311800  0.069240  0.814300  1.0  -0.5829
  O  O285  1  0.434100  0.166980  0.763510  1.0  -0.601
  O  O286  1  0.811800  0.569240  0.685700  1.0  -0.5824
  O  O287  1  0.833400  0.738440  0.691050  1.0  -0.5838
  O  O288  1  0.982400  0.606850  0.551130  1.0  -0.6025
  O  O289  1  0.188200  0.430760  0.314300  1.0  -0.5842
  O  O290  1  0.065900  0.333020  0.263510  1.0  -0.6
  O  O291  1  0.526800  0.943130  0.102970  1.0  -0.6167
  O  O292  1  0.786700  0.809680  0.120410  1.0  -0.5852
  O  O293  1  0.646000  0.454880  0.768770  1.0  -0.4959
  O  O294  1  0.333400  0.238440  0.808950  1.0  -0.5838
  O  O295  1  0.022900  0.745840  0.661430  1.0  -0.6392
  O  O296  1  0.677600  0.809180  0.058530  1.0  -0.5838
  O  O297  1  0.517600  0.893150  0.051130  1.0  -0.6007
  O  O298  1  0.973200  0.556870  0.602970  1.0  -0.6159
  O  O299  1  0.482400  0.106850  0.948870  1.0  -0.6027
  O  O300  1  0.292500  0.722370  0.431220  1.0  -0.4859
  O  O301  1  0.206100  0.132030  0.807860  1.0  -0.5862
  O  O302  1  0.523200  0.849090  0.143370  1.0  -1.1667
  O  O303  1  0.473200  0.056870  0.897030  1.0  -0.6164
  O  O304  1  0.976800  0.650910  0.643370  1.0  -1.1667
  O  O305  1  0.688200  0.930760  0.185700  1.0  -0.5837
  O  O306  1  0.361200  0.807530  0.062280  1.0  -0.5848
  O  O307  1  0.565900  0.833020  0.236490  1.0  -0.6011
  O  O308  1  0.706100  0.632030  0.692140  1.0  -0.5873
