# generated using pymatgen
data_CeCoH18C36(NO2)6
_symmetry_space_group_name_H-M   'P 1'
_cell_length_a   18.26820000
_cell_length_b   18.26820000
_cell_length_c   21.57490000
_cell_angle_alpha   69.64030000
_cell_angle_beta   69.64030000
_cell_angle_gamma   100.26600000
_symmetry_Int_Tables_number   1
_chemical_formula_structural   CeCoH18C36(NO2)6
_chemical_formula_sum   'Ce4 Co4 H72 C144 N24 O48'
_cell_volume   5950.49415277
_cell_formula_units_Z   4
loop_
 _symmetry_equiv_pos_site_id
 _symmetry_equiv_pos_as_xyz
  1  'x, y, z'
loop_
 _atom_site_type_symbol
 _atom_site_label
 _atom_site_symmetry_multiplicity
 _atom_site_fract_x
 _atom_site_fract_y
 _atom_site_fract_z
 _atom_site_occupancy
 _atom_site_charge
  Ce  Ce1  1  0.852120  0.102120  0.750000  1.0  2.0902
  Ce  Ce2  1  0.147880  0.897880  0.250000  1.0  2.0906
  Ce  Ce3  1  0.602120  0.352120  0.250000  1.0  2.0902
  Ce  Ce4  1  0.397880  0.647880  0.750000  1.0  2.0906
  Co  Co5  1  0.892170  0.607830  0.750000  1.0  0.2271
  Co  Co6  1  0.357830  0.142170  0.750000  1.0  0.2256
  Co  Co7  1  0.107830  0.392170  0.250000  1.0  0.2256
  Co  Co8  1  0.642170  0.857830  0.250000  1.0  0.2271
  H  H9  1  0.882800  0.697200  0.605600  1.0  0.0956
  H  H10  1  0.242300  0.860300  0.774200  1.0  0.1245
  H  H11  1  0.697400  0.791400  0.045000  1.0  0.1296
  H  H12  1  0.910100  0.446300  0.136600  1.0  0.1211
  H  H13  1  0.360300  0.742300  0.274200  1.0  0.125
  H  H14  1  0.677700  0.671700  0.134600  1.0  0.1139
  H  H15  1  0.950500  0.544700  0.633400  1.0  0.1157
  H  H16  1  0.044700  0.450500  0.133400  1.0  0.1144
  H  H17  1  0.821900  0.916100  0.133400  1.0  0.1136
  H  H18  1  0.772800  0.822200  0.748600  1.0  0.1332
  H  H19  1  0.302600  0.208600  0.955000  1.0  0.1289
  H  H20  1  0.049500  0.455300  0.366600  1.0  0.1166
  H  H21  1  0.242600  0.493600  0.270200  1.0  0.0988
  H  H22  1  0.019800  0.217000  0.516400  1.0  0.1245
  H  H23  1  0.697200  0.011600  0.105600  1.0  0.0979
  H  H24  1  0.006400  0.257400  0.229800  1.0  0.0985
  H  H25  1  0.639700  0.257700  0.725800  1.0  0.126
  H  H26  1  0.757700  0.139700  0.225800  1.0  0.1247
  H  H27  1  0.708600  0.802600  0.455000  1.0  0.1291
  H  H28  1  0.677800  0.727200  0.751400  1.0  0.1309
  H  H29  1  0.171700  0.177700  0.634600  1.0  0.1136
  H  H30  1  0.955300  0.549500  0.866600  1.0  0.113
  H  H31  1  0.812300  0.306300  0.865400  1.0  0.1163
  H  H32  1  0.583900  0.678100  0.366600  1.0  0.1185
  H  H33  1  0.322200  0.272800  0.248600  1.0  0.1315
  H  H34  1  0.983500  0.865500  0.774200  1.0  0.1244
  H  H35  1  0.117200  0.302800  0.394400  1.0  0.0967
  H  H36  1  0.163600  0.757600  0.545000  1.0  0.1312
  H  H37  1  0.980200  0.783000  0.483600  1.0  0.1245
  H  H38  1  0.757400  0.506400  0.729800  1.0  0.0987
  H  H39  1  0.511600  0.197200  0.605600  1.0  0.0956
  H  H40  1  0.322300  0.328300  0.865400  1.0  0.1154
  H  H41  1  0.187700  0.693700  0.134600  1.0  0.1145
  H  H42  1  0.634500  0.516500  0.725800  1.0  0.125
  H  H43  1  0.733400  0.036200  0.983600  1.0  0.1243
  H  H44  1  0.487200  0.736200  0.270200  1.0  0.0982
  H  H45  1  0.417100  0.453300  0.636600  1.0  0.1228
  H  H46  1  0.197200  0.382800  0.105600  1.0  0.0972
  H  H47  1  0.488400  0.802800  0.394400  1.0  0.0953
  H  H48  1  0.463800  0.766600  0.516400  1.0  0.1243
  H  H49  1  0.512800  0.263800  0.729800  1.0  0.0985
  H  H50  1  0.416100  0.321900  0.633400  1.0  0.1185
  H  H51  1  0.521400  0.070800  0.251400  1.0  0.1331
  H  H52  1  0.536200  0.233400  0.483600  1.0  0.1237
  H  H53  1  0.742400  0.336400  0.955000  1.0  0.1297
  H  H54  1  0.283000  0.480200  0.983600  1.0  0.1248
  H  H55  1  0.953300  0.917100  0.136600  1.0  0.1221
  H  H56  1  0.763800  0.012800  0.229800  1.0  0.0979
  H  H57  1  0.227200  0.177800  0.251400  1.0  0.1317
  H  H58  1  0.946300  0.410100  0.636600  1.0  0.1208
  H  H59  1  0.089900  0.553700  0.863400  1.0  0.1211
  H  H60  1  0.365500  0.483500  0.274200  1.0  0.1253
  H  H61  1  0.178100  0.083900  0.866600  1.0  0.1145
  H  H62  1  0.993600  0.742600  0.770200  1.0  0.0988
  H  H63  1  0.478600  0.929200  0.748600  1.0  0.133
  H  H64  1  0.429200  0.978600  0.248600  1.0  0.1321
  H  H65  1  0.291400  0.197400  0.545000  1.0  0.1301
  H  H66  1  0.717000  0.519800  0.016400  1.0  0.125
  H  H67  1  0.828300  0.822300  0.365400  1.0  0.1152
  H  H68  1  0.257600  0.663600  0.045000  1.0  0.1285
  H  H69  1  0.236200  0.987200  0.770200  1.0  0.0986
  H  H70  1  0.582900  0.546700  0.363400  1.0  0.1222
  H  H71  1  0.570800  0.021400  0.751400  1.0  0.132
  H  H72  1  0.016500  0.134500  0.225800  1.0  0.1245
  H  H73  1  0.193700  0.687700  0.634600  1.0  0.1161
  H  H74  1  0.806300  0.312300  0.365400  1.0  0.116
  H  H75  1  0.053700  0.589900  0.363400  1.0  0.1207
  H  H76  1  0.266600  0.963800  0.016400  1.0  0.1239
  H  H77  1  0.836400  0.242400  0.455000  1.0  0.1302
  H  H78  1  0.046700  0.082900  0.863400  1.0  0.1215
  H  H79  1  0.802800  0.617200  0.894400  1.0  0.0977
  H  H80  1  0.302800  0.988400  0.894400  1.0  0.0982
  C  C81  1  0.439870  0.928270  0.253860  1.0  -0.0712
  C  C82  1  0.739120  0.502120  0.979560  1.0  -0.0654
  C  C83  1  0.942650  0.832050  0.768300  1.0  -0.0974
  C  C84  1  0.638950  0.118550  0.238500  1.0  -0.1143
  C  C85  1  0.157290  0.642690  0.184020  1.0  -0.075
  C  C86  1  0.994730  0.424530  0.182740  1.0  0.1451
  C  C87  1  0.245430  0.606430  0.056540  1.0  -0.0703
  C  C88  1  0.152090  0.619930  0.747580  1.0  -0.0973
  C  C89  1  0.656650  0.746150  0.190000  1.0  0.1726
  C  C90  1  0.936150  0.346650  0.310000  1.0  0.1707
  C  C91  1  0.279730  0.582130  0.002340  1.0  -0.1342
  C  C92  1  0.282070  0.084470  0.997660  1.0  -0.1285
  C  C93  1  0.420120  0.013620  0.754060  1.0  0.1848
  C  C94  1  0.147160  0.839560  0.423280  1.0  0.7545
  C  C95  1  0.524980  0.214380  0.733640  1.0  0.1633
  C  C96  1  0.367510  0.399670  0.752420  1.0  -0.0982
  C  C97  1  0.847910  0.380070  0.252420  1.0  -0.097
  C  C98  1  0.481680  0.218680  0.520440  1.0  -0.063
  C  C99  1  0.369930  0.801730  0.758340  1.0  0.7389
  C  C100  1  0.630070  0.198270  0.241660  1.0  0.7393
  C  C101  1  0.917870  0.220270  0.497660  1.0  -0.1361
  C  C102  1  0.486380  0.079880  0.745940  1.0  0.1867
  C  C103  1  0.301970  0.162970  0.943460  1.0  -0.0725
  C  C104  1  0.842710  0.357310  0.815980  1.0  -0.0759
  C  C105  1  0.642950  0.622550  0.738500  1.0  -0.1151
  C  C106  1  0.893570  0.254570  0.443460  1.0  -0.0677
  C  C107  1  0.100330  0.132490  0.747580  1.0  -0.0972
  C  C108  1  0.940220  0.709120  0.593060  1.0  0.1547
  C  C109  1  0.046080  0.693120  0.627800  1.0  0.1805
  C  C110  1  0.605890  0.602490  0.315020  1.0  -0.0947
  C  C111  1  0.232320  0.325820  0.254060  1.0  0.1845
  C  C112  1  0.122550  0.142950  0.238500  1.0  -0.1155
  C  C113  1  0.246150  0.156650  0.690000  1.0  0.1715
  C  C114  1  0.570440  0.762840  0.576720  1.0  0.763
  C  C115  1  0.899670  0.867510  0.252420  1.0  -0.0969
  C  C116  1  0.357050  0.377450  0.261500  1.0  -0.1156
  C  C117  1  0.658690  0.673290  0.184020  1.0  -0.0716
  C  C118  1  0.173290  0.158690  0.684020  1.0  -0.0704
  C  C119  1  0.717930  0.915530  0.002340  1.0  -0.1282
  C  C120  1  0.392730  0.322530  0.682740  1.0  0.1442
  C  C121  1  0.857310  0.342710  0.315980  1.0  -0.0749
  C  C122  1  0.102490  0.105890  0.815020  1.0  -0.0929
  C  C123  1  0.361050  0.881450  0.761500  1.0  -0.1151
  C  C124  1  0.057350  0.167950  0.231700  1.0  -0.0987
  C  C125  1  0.997880  0.760880  0.520440  1.0  -0.0652
  C  C126  1  0.051980  0.241380  0.233640  1.0  0.1641
  C  C127  1  0.475020  0.785620  0.266360  1.0  0.162
  C  C128  1  0.980490  0.867130  0.257380  1.0  0.7241
  C  C129  1  0.897510  0.894110  0.184980  1.0  -0.0948
  C  C130  1  0.262840  0.070440  0.076720  1.0  0.7642
  C  C131  1  0.917510  0.420910  0.184980  1.0  -0.0918
  C  C132  1  0.718680  0.981680  0.020440  1.0  -0.0639
  C  C133  1  0.281320  0.018320  0.979560  1.0  -0.0637
  C  C134  1  0.119930  0.652090  0.247580  1.0  -0.0978
  C  C135  1  0.871730  0.939930  0.758340  1.0  0.7373
  C  C136  1  0.948020  0.758620  0.766360  1.0  0.1618
  C  C137  1  0.741380  0.551980  0.733640  1.0  0.1577
  C  C138  1  0.399650  0.789050  0.268300  1.0  -0.1029
  C  C139  1  0.953920  0.306880  0.372200  1.0  0.182
  C  C140  1  0.019510  0.132870  0.742620  1.0  0.7247
  C  C141  1  0.618550  0.138950  0.738500  1.0  -0.1145
  C  C142  1  0.260880  0.497880  0.020440  1.0  -0.0657
  C  C143  1  0.343350  0.253850  0.810000  1.0  0.1715
  C  C144  1  0.289050  0.899650  0.768300  1.0  -0.0999
  C  C145  1  0.306270  0.317870  0.253860  1.0  -0.0707
  C  C146  1  0.754570  0.393570  0.943460  1.0  -0.0656
  C  C147  1  0.518320  0.781320  0.479560  1.0  -0.0662
  C  C148  1  0.082490  0.579090  0.815020  1.0  -0.0917
  C  C149  1  0.128270  0.060070  0.241660  1.0  0.7371
  C  C150  1  0.662970  0.801970  0.443460  1.0  -0.0697
  C  C151  1  0.660440  0.352840  0.076720  1.0  0.7582
  C  C152  1  0.673880  0.820920  0.372200  1.0  0.1803
  C  C153  1  0.513620  0.920120  0.254060  1.0  0.1831
  C  C154  1  0.720270  0.417870  0.997660  1.0  -0.1365
  C  C155  1  0.924530  0.494730  0.682740  1.0  0.1473
  C  C156  1  0.429560  0.237160  0.423280  1.0  0.7613
  C  C157  1  0.177470  0.107270  0.817260  1.0  0.1468
  C  C158  1  0.679080  0.826120  0.127800  1.0  0.1833
  C  C159  1  0.846650  0.436150  0.810000  1.0  0.1719
  C  C160  1  0.428270  0.939870  0.753860  1.0  -0.0678
  C  C161  1  0.258620  0.448020  0.266360  1.0  0.159
  C  C162  1  0.106430  0.745430  0.556540  1.0  -0.0675
  C  C163  1  0.579880  0.986380  0.245940  1.0  0.1833
  C  C164  1  0.302180  0.033280  0.906940  1.0  0.1527
  C  C165  1  0.710950  0.100350  0.231700  1.0  -0.0983
  C  C166  1  0.153350  0.563850  0.190000  1.0  0.1737
  C  C167  1  0.790880  0.559780  0.906940  1.0  0.1529
  C  C168  1  0.124510  0.737870  0.242620  1.0  0.726
  C  C169  1  0.466720  0.197820  0.593060  1.0  0.1552
  C  C170  1  0.560130  0.071730  0.746140  1.0  -0.0719
  C  C171  1  0.367130  0.480490  0.757380  1.0  0.7274
  C  C172  1  0.826710  0.841310  0.315980  1.0  -0.072
  C  C173  1  0.082130  0.779730  0.502340  1.0  -0.1346
  C  C174  1  0.394110  0.397510  0.684980  1.0  -0.0951
  C  C175  1  0.533280  0.802180  0.406940  1.0  0.1555
  C  C176  1  0.697820  0.966720  0.093060  1.0  0.1522
  C  C177  1  0.806880  0.453920  0.872200  1.0  0.1779
  C  C178  1  0.237870  0.624510  0.742620  1.0  0.7243
  C  C179  1  0.326120  0.179080  0.627800  1.0  0.1847
  C  C180  1  0.415530  0.217930  0.502340  1.0  -0.1278
  C  C181  1  0.767680  0.674180  0.745940  1.0  0.1829
  C  C182  1  0.571730  0.060130  0.246140  1.0  -0.071
  C  C183  1  0.142690  0.657290  0.684020  1.0  -0.0731
  C  C184  1  0.002120  0.239120  0.479560  1.0  -0.0642
  C  C185  1  0.075470  0.505270  0.317260  1.0  0.147
  C  C186  1  0.693730  0.682130  0.746140  1.0  -0.0702
  C  C187  1  0.875490  0.262130  0.757380  1.0  0.725
  C  C188  1  0.737160  0.929560  0.923280  1.0  0.7628
  C  C189  1  0.301730  0.869930  0.258340  1.0  0.7371
  C  C190  1  0.332050  0.442650  0.268300  1.0  -0.102
  C  C191  1  0.381450  0.861050  0.261500  1.0  -0.1149
  C  C192  1  0.825820  0.732320  0.754060  1.0  0.1831
  C  C193  1  0.339560  0.647160  0.923280  1.0  0.7567
  C  C194  1  0.822530  0.892730  0.182740  1.0  0.1458
  C  C195  1  0.880070  0.347910  0.752420  1.0  -0.0975
  C  C196  1  0.059780  0.290880  0.406940  1.0  0.154
  C  C197  1  0.600350  0.210950  0.731700  1.0  -0.1007
  C  C198  1  0.852840  0.160440  0.576720  1.0  0.7562
  C  C199  1  0.920910  0.417510  0.684980  1.0  -0.0908
  C  C200  1  0.079090  0.582490  0.315020  1.0  -0.0898
  C  C201  1  0.174180  0.267680  0.245940  1.0  0.1868
  C  C202  1  0.714380  0.024980  0.233640  1.0  0.1612
  C  C203  1  0.877450  0.857050  0.761500  1.0  -0.1155
  C  C204  1  0.439930  0.371730  0.258340  1.0  0.7364
  C  C205  1  0.063850  0.653350  0.690000  1.0  0.1729
  C  C206  1  0.560070  0.628270  0.741660  1.0  0.7348
  C  C207  1  0.607270  0.677470  0.317260  1.0  0.1459
  C  C208  1  0.632870  0.519510  0.242620  1.0  0.7265
  C  C209  1  0.762130  0.375490  0.257380  1.0  0.7252
  C  C210  1  0.698270  0.130070  0.741660  1.0  0.7379
  C  C211  1  0.632490  0.600330  0.247580  1.0  -0.0979
  C  C212  1  0.005270  0.575470  0.817260  1.0  0.1478
  C  C213  1  0.341310  0.326710  0.815980  1.0  -0.0753
  C  C214  1  0.209120  0.440220  0.093060  1.0  0.1536
  C  C215  1  0.285620  0.975020  0.766360  1.0  0.1632
  C  C216  1  0.337030  0.198030  0.556540  1.0  -0.0713
  C  C217  1  0.584470  0.782070  0.497660  1.0  -0.129
  C  C218  1  0.193120  0.546080  0.127800  1.0  0.1793
  C  C219  1  0.182130  0.193730  0.246140  1.0  -0.0696
  C  C220  1  0.753850  0.843350  0.310000  1.0  0.1718
  C  C221  1  0.320920  0.173880  0.872200  1.0  0.1825
  C  C222  1  0.817870  0.806270  0.753860  1.0  -0.0716
  C  C223  1  0.698030  0.837030  0.056540  1.0  -0.0725
  C  C224  1  0.667950  0.557350  0.731700  1.0  -0.1026
  N  N225  1  0.390830  0.178530  0.645840  1.0  -0.3083
  N  N226  1  0.247940  0.132300  0.756360  1.0  -0.2556
  N  N227  1  0.349530  0.031930  0.759180  1.0  -0.321
  N  N228  1  0.367700  0.252060  0.743640  1.0  -0.2572
  N  N229  1  0.995700  0.611340  0.756360  1.0  -0.2569
  N  N230  1  0.888660  0.504300  0.743640  1.0  -0.2544
  N  N231  1  0.791110  0.608710  0.740820  1.0  -0.3175
  N  N232  1  0.963330  0.675630  0.645840  1.0  -0.3104
  N  N233  1  0.650470  0.968070  0.240820  1.0  -0.3218
  N  N234  1  0.468070  0.150470  0.740820  1.0  -0.3159
  N  N235  1  0.004300  0.388660  0.243640  1.0  -0.2552
  N  N236  1  0.824370  0.536670  0.854160  1.0  -0.3115
  N  N237  1  0.036670  0.324370  0.354160  1.0  -0.3115
  N  N238  1  0.678530  0.890830  0.145840  1.0  -0.3099
  N  N239  1  0.632300  0.747940  0.256360  1.0  -0.2566
  N  N240  1  0.891290  0.708890  0.759180  1.0  -0.3192
  N  N241  1  0.531930  0.849530  0.259180  1.0  -0.3161
  N  N242  1  0.208890  0.391290  0.259180  1.0  -0.3164
  N  N243  1  0.321470  0.109170  0.854160  1.0  -0.3122
  N  N244  1  0.752060  0.867700  0.243640  1.0  -0.2569
  N  N245  1  0.175630  0.463330  0.145840  1.0  -0.3093
  N  N246  1  0.111340  0.495700  0.256360  1.0  -0.253
  N  N247  1  0.108710  0.291110  0.240820  1.0  -0.3201
  N  N248  1  0.609170  0.821470  0.354160  1.0  -0.3112
  O  O249  1  0.559240  0.200380  0.270180  1.0  -0.6681
  O  O250  1  0.700380  0.059240  0.770180  1.0  -0.664
  O  O251  1  0.220210  0.865210  0.412380  1.0  -0.4887
  O  O252  1  0.759170  0.195830  0.713400  1.0  -0.5997
  O  O253  1  0.984550  0.859790  0.316080  1.0  -0.627
  O  O254  1  0.234600  0.995820  0.123180  1.0  -0.7513
  O  O255  1  0.695830  0.259170  0.213400  1.0  -0.6002
  O  O256  1  0.779790  0.134790  0.587620  1.0  -0.4864
  O  O257  1  0.367410  0.222410  0.412380  1.0  -0.4884
  O  O258  1  0.624990  0.460070  0.298520  1.0  -0.6113
  O  O259  1  0.119000  0.857780  0.376820  1.0  -0.7478
  O  O260  1  0.015450  0.140210  0.683920  1.0  -0.623
  O  O261  1  0.440760  0.799620  0.729820  1.0  -0.6693
  O  O262  1  0.175870  0.800630  0.183920  1.0  -0.6257
  O  O263  1  0.881000  0.142220  0.623180  1.0  -0.7484
  O  O264  1  0.090770  0.027430  0.213400  1.0  -0.6001
  O  O265  1  0.495820  0.734600  0.623180  1.0  -0.7473
  O  O266  1  0.375010  0.539930  0.701480  1.0  -0.6105
  O  O267  1  0.241410  0.576490  0.798520  1.0  -0.6113
  O  O268  1  0.765400  0.004180  0.876820  1.0  -0.7514
  O  O269  1  0.170580  0.029440  0.270180  1.0  -0.6695
  O  O270  1  0.642220  0.381000  0.123180  1.0  -0.7472
  O  O271  1  0.277590  0.132590  0.087620  1.0  -0.4891
  O  O272  1  0.357780  0.619000  0.876820  1.0  -0.7475
  O  O273  1  0.632590  0.777590  0.587620  1.0  -0.4934
  O  O274  1  0.472570  0.409230  0.286600  1.0  -0.602
  O  O275  1  0.039930  0.875010  0.201480  1.0  -0.6081
  O  O276  1  0.470560  0.329420  0.229820  1.0  -0.6674
  O  O277  1  0.634790  0.279790  0.087620  1.0  -0.4855
  O  O278  1  0.076490  0.741410  0.298520  1.0  -0.6087
  O  O279  1  0.529440  0.670580  0.770180  1.0  -0.6671
  O  O280  1  0.504180  0.265400  0.376820  1.0  -0.7483
  O  O281  1  0.527430  0.590770  0.713400  1.0  -0.6011
  O  O282  1  0.909230  0.972570  0.786600  1.0  -0.6004
  O  O283  1  0.923510  0.258590  0.701480  1.0  -0.6094
  O  O284  1  0.829420  0.970560  0.729820  1.0  -0.6686
  O  O285  1  0.640210  0.515450  0.183920  1.0  -0.6219
  O  O286  1  0.960070  0.124990  0.798520  1.0  -0.6078
  O  O287  1  0.300630  0.675870  0.683920  1.0  -0.625
  O  O288  1  0.240830  0.804170  0.286600  1.0  -0.5982
  O  O289  1  0.699370  0.324130  0.316080  1.0  -0.6246
  O  O290  1  0.824130  0.199370  0.816080  1.0  -0.6268
  O  O291  1  0.758590  0.423510  0.201480  1.0  -0.609
  O  O292  1  0.722410  0.867410  0.912380  1.0  -0.4852
  O  O293  1  0.299620  0.940760  0.229820  1.0  -0.6645
  O  O294  1  0.304170  0.740830  0.786600  1.0  -0.5993
  O  O295  1  0.359790  0.484550  0.816080  1.0  -0.625
  O  O296  1  0.365210  0.720210  0.912380  1.0  -0.4857
