# generated using pymatgen
data_Zn12H93C165(SO24)2
_symmetry_space_group_name_H-M   'P 1'
_cell_length_a   20.51950000
_cell_length_b   20.51950000
_cell_length_c   20.51950000
_cell_angle_alpha   92.20630000
_cell_angle_beta   92.20630000
_cell_angle_gamma   92.20630000
_symmetry_Int_Tables_number   1
_chemical_formula_structural   Zn12H93C165(SO24)2
_chemical_formula_sum   'Zn12 H93 C165 S2 O48'
_cell_volume   8620.01050049
_cell_formula_units_Z   1
loop_
 _symmetry_equiv_pos_site_id
 _symmetry_equiv_pos_as_xyz
  1  'x, y, z'
loop_
 _atom_site_type_symbol
 _atom_site_label
 _atom_site_symmetry_multiplicity
 _atom_site_fract_x
 _atom_site_fract_y
 _atom_site_fract_z
 _atom_site_occupancy
 _atom_site_charge
  Zn  Zn1  1  0.669540  0.968190  0.539610  1.0  1.1106
  Zn  Zn2  1  0.539610  0.669540  0.968190  1.0  1.1124
  Zn  Zn3  1  0.031810  0.330460  0.460390  1.0  1.1119
  Zn  Zn4  1  0.663850  0.690670  0.857470  1.0  1.1116
  Zn  Zn5  1  0.336150  0.142530  0.309330  1.0  1.1111
  Zn  Zn6  1  0.857470  0.663850  0.690670  1.0  1.109
  Zn  Zn7  1  0.309330  0.336150  0.142530  1.0  1.1079
  Zn  Zn8  1  0.968190  0.539610  0.669540  1.0  1.1115
  Zn  Zn9  1  0.142530  0.309330  0.336150  1.0  1.106
  Zn  Zn10  1  0.330460  0.460390  0.031810  1.0  1.1131
  Zn  Zn11  1  0.460390  0.031810  0.330460  1.0  1.1105
  Zn  Zn12  1  0.690670  0.857470  0.663850  1.0  1.1067
  H  H13  1  0.877000  0.434900  0.055300  1.0  0.1253
  H  H14  1  0.540400  0.940600  0.739800  1.0  0.1038
  H  H15  1  0.581000  0.111600  0.053900  1.0  0.1391
  H  H16  1  0.055300  0.877000  0.434900  1.0  0.1258
  H  H17  1  0.081100  0.150700  0.545000  1.0  0.1081
  H  H18  1  0.459600  0.260200  0.059400  1.0  0.1037
  H  H19  1  0.668600  0.608600  0.109000  1.0  0.1124
  H  H20  1  0.077700  0.887100  0.650300  1.0  0.1111
  H  H21  1  0.111600  0.053900  0.581000  1.0  0.1402
  H  H22  1  0.922300  0.349700  0.112900  1.0  0.1119
  H  H23  1  0.003900  0.543800  0.308300  1.0  0.1261
  H  H24  1  0.391400  0.331400  0.891000  1.0  0.1109
  H  H25  1  0.731400  0.393000  0.173800  1.0  0.1167
  H  H26  1  0.496100  0.396900  0.945000  1.0  0.1138
  H  H27  1  0.002200  0.812000  0.683300  1.0  0.1329
  H  H28  1  0.812000  0.683300  0.002200  1.0  0.1335
  H  H29  1  0.655900  0.369900  0.842200  1.0  0.1328
  H  H30  1  0.188000  0.997800  0.316700  1.0  0.1316
  H  H31  1  0.112900  0.922300  0.349700  1.0  0.1129
  H  H32  1  0.182300  0.744100  0.570500  1.0  0.1329
  H  H33  1  0.503200  0.506300  0.925100  1.0  0.1127
  H  H34  1  0.944700  0.565100  0.123000  1.0  0.1237
  H  H35  1  0.842200  0.655900  0.369900  1.0  0.1324
  H  H36  1  0.150700  0.545000  0.081100  1.0  0.1092
  H  H37  1  0.521300  0.336800  0.171900  1.0  0.1132
  H  H38  1  0.888400  0.419000  0.946100  1.0  0.1392
  H  H39  1  0.331400  0.891000  0.391400  1.0  0.1108
  H  H40  1  0.630100  0.344100  0.157800  1.0  0.1333
  H  H41  1  0.308300  0.003900  0.543800  1.0  0.1276
  H  H42  1  0.828100  0.663200  0.478700  1.0  0.1132
  H  H43  1  0.683300  0.002200  0.812000  1.0  0.1312
  H  H44  1  0.369900  0.842200  0.655900  1.0  0.1328
  H  H45  1  0.074900  0.493700  0.496800  1.0  0.1129
  H  H46  1  0.419000  0.946100  0.888400  1.0  0.1405
  H  H47  1  0.739800  0.540400  0.940600  1.0  0.1037
  H  H48  1  0.059400  0.459600  0.260200  1.0  0.1042
  H  H49  1  0.222800  0.153100  0.417400  1.0  0.1176
  H  H50  1  0.663200  0.478700  0.828100  1.0  0.1141
  H  H51  1  0.918900  0.455000  0.849300  1.0  0.1103
  H  H52  1  0.925100  0.503200  0.506300  1.0  0.1123
  H  H53  1  0.396900  0.945000  0.496100  1.0  0.1162
  H  H54  1  0.691700  0.456200  0.996100  1.0  0.1257
  H  H55  1  0.255900  0.817700  0.429500  1.0  0.132
  H  H56  1  0.157800  0.630100  0.344100  1.0  0.1322
  H  H57  1  0.887100  0.650300  0.077700  1.0  0.1128
  H  H58  1  0.478700  0.828100  0.663200  1.0  0.1141
  H  H59  1  0.336800  0.171900  0.521300  1.0  0.1144
  H  H60  1  0.506300  0.925100  0.503200  1.0  0.1137
  H  H61  1  0.940600  0.739800  0.540400  1.0  0.1031
  H  H62  1  0.946100  0.888400  0.419000  1.0  0.1398
  H  H63  1  0.496800  0.074900  0.493700  1.0  0.1119
  H  H64  1  0.429500  0.255900  0.817700  1.0  0.1343
  H  H65  1  0.260200  0.059400  0.459600  1.0  0.1026
  H  H66  1  0.055000  0.603100  0.503900  1.0  0.1151
  H  H67  1  0.493700  0.496800  0.074900  1.0  0.1142
  H  H68  1  0.434900  0.055300  0.877000  1.0  0.1258
  H  H69  1  0.171900  0.521300  0.336800  1.0  0.1126
  H  H70  1  0.744100  0.570500  0.182300  1.0  0.1339
  H  H71  1  0.123000  0.944700  0.565100  1.0  0.1259
  H  H72  1  0.945000  0.496100  0.396900  1.0  0.1147
  H  H73  1  0.826200  0.607000  0.268600  1.0  0.116
  H  H74  1  0.153100  0.417400  0.222800  1.0  0.1164
  H  H75  1  0.632750  0.000000  0.367250  1.0  0.2404
  H  H76  1  0.417400  0.222800  0.153100  1.0  0.116
  H  H77  1  0.543800  0.308300  0.003900  1.0  0.1257
  H  H78  1  0.109000  0.668600  0.608600  1.0  0.1116
  H  H79  1  0.455000  0.849300  0.918900  1.0  0.1107
  H  H80  1  0.817700  0.429500  0.255900  1.0  0.134
  H  H81  1  0.503900  0.055000  0.603100  1.0  0.1131
  H  H82  1  0.846900  0.777200  0.582600  1.0  0.1176
  H  H83  1  0.456200  0.996100  0.691700  1.0  0.1262
  H  H84  1  0.603100  0.503900  0.055000  1.0  0.114
  H  H85  1  0.997800  0.316700  0.188000  1.0  0.1322
  H  H86  1  0.777200  0.582600  0.846900  1.0  0.1164
  H  H87  1  0.570500  0.182300  0.744100  1.0  0.1333
  H  H88  1  0.545000  0.081100  0.150700  1.0  0.1082
  H  H89  1  0.053900  0.581000  0.111600  1.0  0.1393
  H  H90  1  0.582600  0.846900  0.777200  1.0  0.1163
  H  H91  1  0.608600  0.109000  0.668600  1.0  0.111
  H  H92  1  0.849300  0.918900  0.455000  1.0  0.1105
  H  H93  1  0.607000  0.268600  0.826200  1.0  0.1163
  H  H94  1  0.268600  0.826200  0.607000  1.0  0.1154
  H  H95  1  0.316700  0.188000  0.997800  1.0  0.1336
  H  H96  1  0.349700  0.112900  0.922300  1.0  0.111
  H  H97  1  0.996100  0.691700  0.456200  1.0  0.1272
  H  H98  1  0.650300  0.077700  0.887100  1.0  0.1107
  H  H99  1  0.000000  0.367250  0.632750  1.0  0.2445
  H  H100  1  0.891000  0.391400  0.331400  1.0  0.1112
  H  H101  1  0.173800  0.731400  0.393000  1.0  0.1157
  H  H102  1  0.367250  0.632750  0.000000  1.0  0.2449
  H  H103  1  0.565100  0.123000  0.944700  1.0  0.1253
  H  H104  1  0.344100  0.157800  0.630100  1.0  0.1328
  H  H105  1  0.393000  0.173800  0.731400  1.0  0.1159
  C  C106  1  0.339920  0.201420  0.962120  1.0  -0.0757
  C  C107  1  0.897380  0.576980  0.369880  1.0  0.0969
  C  C108  1  0.450660  0.924860  0.865260  1.0  -0.1847
  C  C109  1  0.883740  0.473550  0.869120  1.0  -0.0234
  C  C110  1  0.898200  0.385600  0.287100  1.0  -0.0314
  C  C111  1  0.340500  0.315800  0.006100  1.0  0.7386
  C  C112  1  0.547420  0.213630  0.980410  1.0  -0.0466
  C  C113  1  0.416740  0.124840  0.495740  1.0  -0.1214
  C  C114  1  0.000000  0.398680  0.601330  1.0  0.3742
  C  C115  1  0.549340  0.134740  0.075140  1.0  -0.1814
  C  C116  1  0.798580  0.660080  0.037880  1.0  -0.0794
  C  C117  1  0.461770  0.851370  0.628870  1.0  -0.0302
  C  C118  1  0.962120  0.339920  0.201420  1.0  -0.077
  C  C119  1  0.851370  0.628870  0.461770  1.0  -0.0313
  C  C120  1  0.138390  0.826790  0.609090  1.0  0.0747
  C  C121  1  0.644060  0.045260  0.732460  1.0  -0.1508
  C  C122  1  0.186580  0.875690  0.590300  1.0  0.0765
  C  C123  1  0.853150  0.406150  0.242450  1.0  -0.162
  C  C124  1  0.954740  0.355940  0.267540  1.0  -0.1464
  C  C125  1  0.064700  0.833100  0.432800  1.0  -0.0333
  C  C126  1  0.593850  0.146850  0.757550  1.0  -0.1644
  C  C127  1  0.807420  0.477160  0.951400  1.0  0.0215
  C  C128  1  0.477160  0.951400  0.807420  1.0  0.0193
  C  C129  1  0.045260  0.732460  0.644060  1.0  -0.1422
  C  C130  1  0.369880  0.897380  0.576980  1.0  0.0983
  C  C131  1  0.077540  0.476040  0.223040  1.0  -0.088
  C  C132  1  0.865260  0.450660  0.924860  1.0  -0.1853
  C  C133  1  0.037880  0.798580  0.660080  1.0  -0.0792
  C  C134  1  0.548930  0.866270  0.798910  1.0  -0.0827
  C  C135  1  0.451070  0.201090  0.133730  1.0  -0.0839
  C  C136  1  0.315800  0.006100  0.340500  1.0  0.7396
  C  C137  1  0.122420  0.222400  0.446710  1.0  0.7383
  C  C138  1  0.504260  0.875160  0.583260  1.0  -0.1214
  C  C139  1  0.019590  0.786370  0.452580  1.0  -0.0524
  C  C140  1  0.526450  0.116260  0.130880  1.0  -0.0264
  C  C141  1  0.921150  0.530250  0.413150  1.0  -0.1497
  C  C142  1  0.476040  0.223040  0.077540  1.0  -0.0882
  C  C143  1  0.385600  0.287100  0.898200  1.0  -0.0375
  C  C144  1  0.475480  0.147140  0.161830  1.0  -0.1211
  C  C145  1  0.420850  0.412750  0.134450  1.0  0.6788
  C  C146  1  0.660080  0.037880  0.798580  1.0  -0.0731
  C  C147  1  0.746050  0.408700  0.134750  1.0  -0.1288
  C  C148  1  0.875690  0.590300  0.186580  1.0  0.0776
  C  C149  1  0.201420  0.962120  0.339920  1.0  -0.0786
  C  C150  1  0.083880  0.843080  0.640980  1.0  -0.0918
  C  C151  1  0.223040  0.077540  0.476040  1.0  -0.091
  C  C152  1  0.590300  0.186580  0.875690  1.0  0.0781
  C  C153  1  0.970500  0.552320  0.278280  1.0  -0.1119
  C  C154  1  0.614400  0.101800  0.712900  1.0  -0.0358
  C  C155  1  0.201090  0.133730  0.451070  1.0  -0.0824
  C  C156  1  0.910030  0.570130  0.299430  1.0  0.038
  C  C157  1  0.630120  0.423020  0.102620  1.0  0.098
  C  C158  1  0.452580  0.019590  0.786370  1.0  -0.0487
  C  C159  1  0.408700  0.134750  0.746050  1.0  -0.1299
  C  C160  1  0.628870  0.461770  0.851370  1.0  -0.0279
  C  C161  1  0.124840  0.495740  0.416740  1.0  -0.1196
  C  C162  1  0.625410  0.396710  0.860610  1.0  -0.1755
  C  C163  1  0.909180  0.534580  0.479080  1.0  -0.0191
  C  C164  1  0.396710  0.860610  0.625410  1.0  -0.1777
  C  C165  1  0.432800  0.064700  0.833100  1.0  -0.0278
  C  C166  1  0.553290  0.777600  0.877580  1.0  0.7364
  C  C167  1  0.359020  0.156920  0.916120  1.0  -0.0901
  C  C168  1  0.860610  0.625410  0.396710  1.0  -0.1783
  C  C169  1  0.869120  0.883740  0.473550  1.0  -0.031
  C  C170  1  0.355940  0.267540  0.954740  1.0  -0.148
  C  C171  1  0.102620  0.630120  0.423020  1.0  0.098
  C  C172  1  0.865550  0.587250  0.579150  1.0  0.6804
  C  C173  1  0.826790  0.609090  0.138390  1.0  0.0735
  C  C174  1  0.522840  0.192580  0.048600  1.0  0.0217
  C  C175  1  0.603290  0.374590  0.139390  1.0  -0.1773
  C  C176  1  0.479080  0.909180  0.534580  1.0  -0.0222
  C  C177  1  0.924860  0.865260  0.450660  1.0  -0.186
  C  C178  1  0.299430  0.910030  0.570130  1.0  0.038
  C  C179  1  0.412750  0.134450  0.420850  1.0  0.6807
  C  C180  1  0.116260  0.130880  0.526450  1.0  -0.0301
  C  C181  1  0.833100  0.432800  0.064700  1.0  -0.0349
  C  C182  1  0.029500  0.721720  0.447680  1.0  -0.1113
  C  C183  1  0.398680  0.601330  0.000000  1.0  0.3767
  C  C184  1  0.877580  0.553290  0.777600  1.0  0.7391
  C  C185  1  0.601330  0.000000  0.398680  1.0  0.3751
  C  C186  1  0.406150  0.242450  0.853150  1.0  -0.1612
  C  C187  1  0.413150  0.921150  0.530250  1.0  -0.1497
  C  C188  1  0.609090  0.138390  0.826790  1.0  0.0705
  C  C189  1  0.757550  0.593850  0.146850  1.0  -0.1647
  C  C190  1  0.951400  0.807420  0.477160  1.0  0.0233
  C  C191  1  0.374590  0.139390  0.603290  1.0  -0.1792
  C  C192  1  0.538230  0.371130  0.148630  1.0  -0.029
  C  C193  1  0.980410  0.547420  0.213630  1.0  -0.0491
  C  C194  1  0.409700  0.124310  0.813420  1.0  0.0774
  C  C195  1  0.124310  0.813420  0.409700  1.0  0.0758
  C  C196  1  0.146850  0.757550  0.593850  1.0  -0.1661
  C  C197  1  0.659500  0.993900  0.684200  1.0  0.7388
  C  C198  1  0.465420  0.090820  0.520920  1.0  -0.0195
  C  C199  1  0.865250  0.591300  0.253950  1.0  -0.1296
  C  C200  1  0.192580  0.048600  0.522840  1.0  0.0232
  C  C201  1  0.587250  0.579150  0.865550  1.0  0.6798
  C  C202  1  0.523960  0.922460  0.776960  1.0  -0.0903
  C  C203  1  0.161830  0.475480  0.147140  1.0  -0.121
  C  C204  1  0.139390  0.603290  0.374590  1.0  -0.1772
  C  C205  1  0.520920  0.465420  0.090820  1.0  -0.0208
  C  C206  1  0.684200  0.659500  0.993900  1.0  0.7423
  C  C207  1  0.579150  0.865550  0.587250  1.0  0.6754
  C  C208  1  0.253950  0.865250  0.591300  1.0  -0.1258
  C  C209  1  0.090820  0.520920  0.465420  1.0  -0.0164
  C  C210  1  0.134750  0.746050  0.408700  1.0  -0.127
  C  C211  1  0.534580  0.479080  0.909180  1.0  -0.019
  C  C212  1  0.222400  0.446710  0.122420  1.0  0.7358
  C  C213  1  0.134740  0.075140  0.549340  1.0  -0.1833
  C  C214  1  0.469750  0.078850  0.586850  1.0  -0.1516
  C  C215  1  0.078850  0.586850  0.469750  1.0  -0.1437
  C  C216  1  0.776960  0.523960  0.922460  1.0  -0.0872
  C  C217  1  0.130880  0.526450  0.116260  1.0  -0.0282
  C  C218  1  0.446710  0.122420  0.222400  1.0  0.7372
  C  C219  1  0.134450  0.420850  0.412750  1.0  0.6833
  C  C220  1  0.133730  0.451070  0.201090  1.0  -0.0835
  C  C221  1  0.101800  0.712900  0.614400  1.0  -0.0351
  C  C222  1  0.173210  0.861610  0.390910  1.0  0.0722
  C  C223  1  0.495740  0.416740  0.124840  1.0  -0.116
  C  C224  1  0.813420  0.409700  0.124310  1.0  0.0773
  C  C225  1  0.287100  0.898200  0.385600  1.0  -0.0345
  C  C226  1  0.640980  0.083880  0.843080  1.0  -0.0859
  C  C227  1  0.591300  0.253950  0.865250  1.0  -0.1245
  C  C228  1  0.798910  0.548930  0.866270  1.0  -0.0808
  C  C229  1  0.267540  0.954740  0.355940  1.0  -0.1405
  C  C230  1  0.552320  0.278280  0.970500  1.0  -0.1128
  C  C231  1  0.922460  0.776960  0.523960  1.0  -0.0907
  C  C232  1  0.712900  0.614400  0.101800  1.0  -0.0326
  C  C233  1  0.786370  0.452580  0.019590  1.0  -0.0494
  C  C234  1  0.048600  0.522840  0.192580  1.0  0.0219
  C  C235  1  0.278280  0.970500  0.552320  1.0  -0.1144
  C  C236  1  0.700570  0.429870  0.089970  1.0  0.0374
  C  C237  1  0.423020  0.102620  0.630120  1.0  0.0971
  C  C238  1  0.530250  0.413150  0.921150  1.0  -0.1497
  C  C239  1  0.916120  0.359020  0.156920  1.0  -0.0899
  C  C240  1  0.075140  0.549340  0.134740  1.0  -0.1889
  C  C241  1  0.586850  0.469750  0.078850  1.0  -0.1516
  C  C242  1  0.576980  0.369880  0.897380  1.0  0.0961
  C  C243  1  0.524520  0.838170  0.852860  1.0  -0.1196
  C  C244  1  0.166900  0.935300  0.567200  1.0  -0.0326
  C  C245  1  0.006100  0.340500  0.315800  1.0  0.7411
  C  C246  1  0.777600  0.877580  0.553290  1.0  0.7377
  C  C247  1  0.861610  0.390910  0.173210  1.0  0.0699
  C  C248  1  0.875160  0.583260  0.504260  1.0  -0.1225
  C  C249  1  0.147140  0.161830  0.475480  1.0  -0.1214
  C  C250  1  0.371130  0.148630  0.538230  1.0  -0.0252
  C  C251  1  0.567200  0.166900  0.935300  1.0  -0.0285
  C  C252  1  0.732460  0.644060  0.045260  1.0  -0.1424
  C  C253  1  0.852860  0.524520  0.838170  1.0  -0.1183
  C  C254  1  0.583260  0.504260  0.875160  1.0  -0.1191
  C  C255  1  0.473550  0.869120  0.883740  1.0  -0.0258
  C  C256  1  0.838170  0.852860  0.524520  1.0  -0.1215
  C  C257  1  0.156920  0.916120  0.359020  1.0  -0.0872
  C  C258  1  0.935300  0.567200  0.166900  1.0  -0.0332
  C  C259  1  0.089970  0.700570  0.429870  1.0  0.0383
  C  C260  1  0.721720  0.447680  0.029500  1.0  -0.1116
  C  C261  1  0.866270  0.798910  0.548930  1.0  -0.0846
  C  C262  1  0.570130  0.299430  0.910030  1.0  0.0374
  C  C263  1  0.213630  0.980410  0.547420  1.0  -0.0513
  C  C264  1  0.390910  0.173210  0.861610  1.0  0.0695
  C  C265  1  0.242450  0.853150  0.406150  1.0  -0.1648
  C  C266  1  0.843080  0.640980  0.083880  1.0  -0.0884
  C  C267  1  0.148630  0.538230  0.371130  1.0  -0.0271
  C  C268  1  0.429870  0.089970  0.700570  1.0  0.0383
  C  C269  1  0.447680  0.029500  0.721720  1.0  -0.1117
  C  C270  1  0.993900  0.684200  0.659500  1.0  0.7412
  S  S271  1  0.259150  0.259150  0.259150  1.0  0.2158
  S  S272  1  0.740850  0.740850  0.740850  1.0  0.2152
  O  O273  1  0.704600  0.691730  0.946220  1.0  -0.5965
  O  O274  1  0.308270  0.295400  0.053780  1.0  -0.5908
  O  O275  1  0.267050  0.196670  0.285440  1.0  -0.661
  O  O276  1  0.358790  0.374260  0.998560  1.0  -0.6048
  O  O277  1  0.750900  0.925860  0.525740  1.0  -0.6206
  O  O278  1  0.474260  0.074140  0.249100  1.0  -0.6187
  O  O279  1  0.803330  0.732950  0.714560  1.0  -0.6585
  O  O280  1  0.295400  0.053780  0.308270  1.0  -0.5943
  O  O281  1  0.053780  0.308270  0.295400  1.0  -0.5952
  O  O282  1  0.757190  0.848550  0.602130  1.0  -0.5901
  O  O283  1  0.249100  0.474260  0.074140  1.0  -0.6194
  O  O284  1  0.998560  0.358790  0.374260  1.0  -0.6016
  O  O285  1  0.359750  0.157450  0.401830  1.0  -0.585
  O  O286  1  0.008600  0.467000  0.625300  1.0  -0.7605
  O  O287  1  0.640250  0.598170  0.842550  1.0  -0.582
  O  O288  1  0.157450  0.401830  0.359750  1.0  -0.5833
  O  O289  1  0.598170  0.842550  0.640250  1.0  -0.5842
  O  O290  1  0.285440  0.267050  0.196670  1.0  -0.661
  O  O291  1  0.074140  0.249100  0.474260  1.0  -0.6166
  O  O292  1  0.691730  0.946220  0.704600  1.0  -0.5923
  O  O293  1  0.602130  0.757190  0.848550  1.0  -0.5875
  O  O294  1  0.401830  0.359750  0.157450  1.0  -0.585
  O  O295  1  0.714560  0.803330  0.732950  1.0  -0.6612
  O  O296  1  0.543940  0.612800  0.885590  1.0  -0.6222
  O  O297  1  0.732950  0.714560  0.803330  1.0  -0.6589
  O  O298  1  0.114410  0.387200  0.456060  1.0  -0.6242
  O  O299  1  0.842550  0.640250  0.598170  1.0  -0.5837
  O  O300  1  0.946220  0.704600  0.691730  1.0  -0.5947
  O  O301  1  0.374700  0.533000  0.991400  1.0  -0.7678
  O  O302  1  0.641210  0.001440  0.625740  1.0  -0.6001
  O  O303  1  0.001440  0.625740  0.641210  1.0  -0.6017
  O  O304  1  0.625300  0.008600  0.467000  1.0  -0.7619
  O  O305  1  0.612800  0.885590  0.543940  1.0  -0.6224
  O  O306  1  0.196670  0.285440  0.267050  1.0  -0.6596
  O  O307  1  0.925860  0.525740  0.750900  1.0  -0.6168
  O  O308  1  0.467000  0.625300  0.008600  1.0  -0.7644
  O  O309  1  0.242810  0.397870  0.151450  1.0  -0.5872
  O  O310  1  0.151450  0.242810  0.397870  1.0  -0.5882
  O  O311  1  0.397870  0.151450  0.242810  1.0  -0.5904
  O  O312  1  0.387200  0.456060  0.114410  1.0  -0.6214
  O  O313  1  0.533000  0.991400  0.374700  1.0  -0.7669
  O  O314  1  0.374260  0.998560  0.358790  1.0  -0.6025
  O  O315  1  0.625740  0.641210  0.001440  1.0  -0.6015
  O  O316  1  0.991400  0.374700  0.533000  1.0  -0.7695
  O  O317  1  0.456060  0.114410  0.387200  1.0  -0.6196
  O  O318  1  0.525740  0.750900  0.925860  1.0  -0.6164
  O  O319  1  0.885590  0.543940  0.612800  1.0  -0.6229
  O  O320  1  0.848550  0.602130  0.757190  1.0  -0.589
