# generated using pymatgen
data_Cu3H16(C12N13)2
_symmetry_space_group_name_H-M   'P 1'
_cell_length_a   13.13500000
_cell_length_b   14.85500000
_cell_length_c   15.39000000
_cell_angle_alpha   90.00000000
_cell_angle_beta   91.13000000
_cell_angle_gamma   90.00000000
_symmetry_Int_Tables_number   1
_chemical_formula_structural   Cu3H16(C12N13)2
_chemical_formula_sum   'Cu6 H32 C48 N52'
_cell_volume   3002.31934605
_cell_formula_units_Z   2
loop_
 _symmetry_equiv_pos_site_id
 _symmetry_equiv_pos_as_xyz
  1  'x, y, z'
loop_
 _atom_site_type_symbol
 _atom_site_label
 _atom_site_symmetry_multiplicity
 _atom_site_fract_x
 _atom_site_fract_y
 _atom_site_fract_z
 _atom_site_occupancy
 _atom_site_charge
  Cu  Cu1  1  0.982250  0.708190  0.097070  1.0  0.7187
  Cu  Cu2  1  0.000000  0.500000  0.000000  1.0  0.7293
  Cu  Cu3  1  0.517750  0.208190  0.402930  1.0  0.718
  Cu  Cu4  1  0.017750  0.291810  0.902930  1.0  0.7176
  Cu  Cu5  1  0.482250  0.791810  0.597070  1.0  0.718
  Cu  Cu6  1  0.500000  0.000000  0.500000  1.0  0.7293
  H  H7  1  0.598100  0.630700  0.648700  1.0  0.0841
  H  H8  1  0.732500  0.307600  0.164400  1.0  0.1147
  H  H9  1  0.650000  0.371200  0.444300  1.0  0.0748
  H  H10  1  0.294400  0.169600  0.143300  1.0  0.121
  H  H11  1  0.783500  0.084800  0.748700  1.0  0.1205
  H  H12  1  0.261400  0.036100  0.876100  1.0  0.119
  H  H13  1  0.716500  0.584800  0.751300  1.0  0.12
  H  H14  1  0.283500  0.415200  0.248700  1.0  0.1201
  H  H15  1  0.850000  0.871200  0.055700  1.0  0.0744
  H  H16  1  0.238600  0.536100  0.623900  1.0  0.119
  H  H17  1  0.091000  0.629800  0.250500  1.0  0.0796
  H  H18  1  0.794400  0.330400  0.643300  1.0  0.121
  H  H19  1  0.901900  0.130700  0.851300  1.0  0.0833
  H  H20  1  0.401900  0.369300  0.351300  1.0  0.083
  H  H21  1  0.767500  0.807600  0.335600  1.0  0.1148
  H  H22  1  0.761400  0.463900  0.376100  1.0  0.1193
  H  H23  1  0.624400  0.218300  0.239800  1.0  0.0691
  H  H24  1  0.350000  0.628800  0.555700  1.0  0.0749
  H  H25  1  0.216500  0.915200  0.251300  1.0  0.12
  H  H26  1  0.705600  0.830400  0.856700  1.0  0.1215
  H  H27  1  0.409000  0.129800  0.249500  1.0  0.0794
  H  H28  1  0.738600  0.963900  0.123900  1.0  0.1195
  H  H29  1  0.124400  0.281700  0.739800  1.0  0.0691
  H  H30  1  0.098100  0.869300  0.148700  1.0  0.0842
  H  H31  1  0.267500  0.692400  0.835600  1.0  0.1147
  H  H32  1  0.232500  0.192400  0.664400  1.0  0.114
  H  H33  1  0.909000  0.370200  0.749500  1.0  0.0791
  H  H34  1  0.205600  0.669600  0.356700  1.0  0.1212
  H  H35  1  0.375600  0.781700  0.760200  1.0  0.0704
  H  H36  1  0.591000  0.870200  0.750500  1.0  0.079
  H  H37  1  0.875600  0.718300  0.260200  1.0  0.0704
  H  H38  1  0.150000  0.128800  0.944300  1.0  0.0747
  C  C39  1  0.723400  0.702800  0.816000  1.0  -0.0694
  C  C40  1  0.884300  0.311500  0.748300  1.0  0.142
  C  C41  1  0.223400  0.797200  0.316000  1.0  -0.0695
  C  C42  1  0.332700  0.641600  0.612700  1.0  0.1577
  C  C43  1  0.652000  0.268800  0.267200  1.0  0.1798
  C  C44  1  0.260000  0.103000  0.760500  1.0  -0.0296
  C  C45  1  0.776600  0.202800  0.684000  1.0  -0.069
  C  C46  1  0.667300  0.358400  0.387300  1.0  0.1554
  C  C47  1  0.240000  0.603000  0.739500  1.0  -0.0295
  C  C48  1  0.348000  0.731200  0.732800  1.0  0.1794
  C  C49  1  0.119900  0.828900  0.191400  1.0  0.1479
  C  C50  1  0.309100  0.356800  0.247400  1.0  -0.1253
  C  C51  1  0.797800  0.673000  0.883400  1.0  0.3276
  C  C52  1  0.170000  0.545100  0.787300  1.0  0.3211
  C  C53  1  0.233800  0.085500  0.846800  1.0  -0.1373
  C  C54  1  0.167300  0.141600  0.887300  1.0  0.1542
  C  C55  1  0.315100  0.211400  0.185100  1.0  -0.1424
  C  C56  1  0.740000  0.897000  0.239500  1.0  -0.0293
  C  C57  1  0.782900  0.822000  0.278500  1.0  -0.1529
  C  C58  1  0.217100  0.178000  0.721500  1.0  -0.1519
  C  C59  1  0.619900  0.671100  0.691400  1.0  0.1488
  C  C60  1  0.190900  0.856800  0.252600  1.0  -0.126
  C  C61  1  0.184900  0.711400  0.314900  1.0  -0.1423
  C  C62  1  0.815100  0.288600  0.685100  1.0  -0.1434
  C  C63  1  0.330000  0.045100  0.712700  1.0  0.3213
  C  C64  1  0.202200  0.327000  0.116600  1.0  0.3269
  C  C65  1  0.760000  0.397000  0.260500  1.0  -0.0292
  C  C66  1  0.733800  0.414500  0.346800  1.0  -0.1373
  C  C67  1  0.615700  0.811500  0.751700  1.0  0.1403
  C  C68  1  0.702200  0.173000  0.616600  1.0  0.3269
  C  C69  1  0.384300  0.188500  0.248300  1.0  0.1408
  C  C70  1  0.848000  0.768800  0.232800  1.0  0.1796
  C  C71  1  0.684900  0.788600  0.814900  1.0  -0.142
  C  C72  1  0.830000  0.454900  0.212700  1.0  0.3214
  C  C73  1  0.380100  0.328900  0.308600  1.0  0.1486
  C  C74  1  0.766200  0.914500  0.153200  1.0  -0.1387
  C  C75  1  0.152000  0.231200  0.767200  1.0  0.1789
  C  C76  1  0.717100  0.322000  0.221500  1.0  -0.1512
  C  C77  1  0.115700  0.688500  0.251700  1.0  0.1401
  C  C78  1  0.832700  0.858400  0.112700  1.0  0.1581
  C  C79  1  0.282900  0.678000  0.778500  1.0  -0.152
  C  C80  1  0.266200  0.585500  0.653200  1.0  -0.1371
  C  C81  1  0.276600  0.297200  0.184000  1.0  -0.0686
  C  C82  1  0.670000  0.954900  0.287300  1.0  0.3212
  C  C83  1  0.809100  0.143200  0.747400  1.0  -0.1258
  C  C84  1  0.880100  0.171100  0.808600  1.0  0.1488
  C  C85  1  0.297800  0.827000  0.383400  1.0  0.3277
  C  C86  1  0.690900  0.643200  0.752600  1.0  -0.1262
  N  N87  1  0.418500  0.246300  0.308800  1.0  -0.2967
  N  N88  1  0.328400  0.145300  0.454800  1.0  0.4177
  N  N89  1  0.744900  0.333900  0.964900  1.0  -0.4158
  N  N90  1  0.413800  0.123800  0.447900  1.0  -0.3709
  N  N91  1  0.255100  0.666100  0.035100  1.0  -0.4129
  N  N92  1  0.644700  0.039800  0.267100  1.0  -0.3248
  N  N93  1  0.671600  0.854700  0.545200  1.0  0.419
  N  N94  1  0.374200  0.714500  0.651000  1.0  -0.341
  N  N95  1  0.372900  0.073100  0.639900  1.0  -0.3252
  N  N96  1  0.842500  0.592600  0.883900  1.0  -0.3241
  N  N97  1  0.083700  0.434300  0.831000  1.0  -0.1432
  N  N98  1  0.672900  0.224500  0.549500  1.0  -0.3515
  N  N99  1  0.107600  0.326800  0.005600  1.0  -0.0247
  N  N100  1  0.913800  0.376200  0.947900  1.0  -0.3708
  N  N101  1  0.392400  0.826800  0.494400  1.0  -0.0251
  N  N102  1  0.073800  0.502570  0.885800  1.0  0.0006
  N  N103  1  0.125800  0.214500  0.849000  1.0  -0.339
  N  N104  1  0.086200  0.623800  0.052100  1.0  -0.3699
  N  N105  1  0.607600  0.173200  0.505600  1.0  -0.0249
  N  N106  1  0.244900  0.166100  0.464900  1.0  -0.4159
  N  N107  1  0.426200  0.002570  0.614200  1.0  -0.0007
  N  N108  1  0.416300  0.934300  0.669000  1.0  -0.143
  N  N109  1  0.657500  0.092600  0.616100  1.0  -0.3258
  N  N110  1  0.573800  0.997430  0.385800  1.0  0.0006
  N  N111  1  0.581500  0.753700  0.691200  1.0  -0.2982
  N  N112  1  0.916300  0.565700  0.169000  1.0  -0.143
  N  N113  1  0.901900  0.594600  0.954800  1.0  0.0149
  N  N114  1  0.355300  0.960200  0.732900  1.0  -0.3237
  N  N115  1  0.586200  0.876200  0.552100  1.0  -0.3698
  N  N116  1  0.872900  0.426900  0.139900  1.0  -0.3253
  N  N117  1  0.098100  0.405400  0.045200  1.0  0.013
  N  N118  1  0.855300  0.539800  0.232900  1.0  -0.3264
  N  N119  1  0.171600  0.645300  0.045200  1.0  0.4184
  N  N120  1  0.598100  0.094600  0.545200  1.0  0.0136
  N  N121  1  0.127100  0.573100  0.860100  1.0  -0.3232
  N  N122  1  0.401900  0.905400  0.454800  1.0  0.0145
  N  N123  1  0.918500  0.253700  0.808800  1.0  -0.2966
  N  N124  1  0.172900  0.275500  0.049500  1.0  -0.3507
  N  N125  1  0.157500  0.407400  0.116100  1.0  -0.3214
  N  N126  1  0.926200  0.497430  0.114200  1.0  -0.0007
  N  N127  1  0.342500  0.907400  0.383900  1.0  -0.3248
  N  N128  1  0.755100  0.833900  0.535100  1.0  -0.4128
  N  N129  1  0.827100  0.724500  0.950500  1.0  -0.3514
  N  N130  1  0.892400  0.673200  0.994400  1.0  -0.0247
  N  N131  1  0.625800  0.285500  0.349000  1.0  -0.3387
  N  N132  1  0.874200  0.785500  0.151000  1.0  -0.341
  N  N133  1  0.081500  0.746300  0.191200  1.0  -0.2982
  N  N134  1  0.144700  0.460200  0.767100  1.0  -0.3248
  N  N135  1  0.327100  0.775500  0.450500  1.0  -0.3504
  N  N136  1  0.583700  0.065700  0.331000  1.0  -0.1436
  N  N137  1  0.828400  0.354700  0.954800  1.0  0.4181
  N  N138  1  0.627100  0.926900  0.360100  1.0  -0.3242
