# generated using pymatgen
data_Zn4H20C40N2O17
_symmetry_space_group_name_H-M   'P 1'
_cell_length_a   10.34900000
_cell_length_b   26.08400000
_cell_length_c   32.28400000
_cell_angle_alpha   90.00000000
_cell_angle_beta   90.00000000
_cell_angle_gamma   90.00000000
_symmetry_Int_Tables_number   1
_chemical_formula_structural   Zn4H20C40N2O17
_chemical_formula_sum   'Zn16 H80 C160 N8 O68'
_cell_volume   8714.85001374
_cell_formula_units_Z   4
loop_
 _symmetry_equiv_pos_site_id
 _symmetry_equiv_pos_as_xyz
  1  'x, y, z'
loop_
 _atom_site_type_symbol
 _atom_site_label
 _atom_site_symmetry_multiplicity
 _atom_site_fract_x
 _atom_site_fract_y
 _atom_site_fract_z
 _atom_site_occupancy
 _atom_site_charge
  Zn  Zn1  1  0.500000  0.846360  0.124350  1.0  1.0787
  Zn  Zn2  1  0.500000  0.153640  0.875650  1.0  1.0783
  Zn  Zn3  1  0.499710  0.789790  0.034780  1.0  1.0862
  Zn  Zn4  1  0.000000  0.346360  0.375650  1.0  1.079
  Zn  Zn5  1  0.000000  0.653640  0.624350  1.0  1.0783
  Zn  Zn6  1  0.847100  0.753270  0.613230  1.0  1.0413
  Zn  Zn7  1  0.999710  0.289790  0.465220  1.0  1.0849
  Zn  Zn8  1  0.846090  0.246800  0.386780  1.0  1.049
  Zn  Zn9  1  0.346090  0.746800  0.113220  1.0  1.0495
  Zn  Zn10  1  0.653910  0.253200  0.886780  1.0  1.049
  Zn  Zn11  1  0.347100  0.253270  0.886770  1.0  1.0415
  Zn  Zn12  1  0.153910  0.753200  0.613220  1.0  1.0486
  Zn  Zn13  1  0.152900  0.246730  0.386770  1.0  1.0395
  Zn  Zn14  1  0.000290  0.710210  0.534780  1.0  1.0852
  Zn  Zn15  1  0.652900  0.746730  0.113230  1.0  1.0394
  Zn  Zn16  1  0.500290  0.210210  0.965220  1.0  1.0845
  H  H17  1  0.673600  0.401800  0.820400  1.0  0.1258
  H  H18  1  0.042700  0.690800  0.758400  1.0  0.1291
  H  H19  1  0.308100  0.428500  0.305900  1.0  0.1246
  H  H20  1  0.569800  0.257800  0.616100  1.0  0.2853
  H  H21  1  0.790100  0.887900  0.659900  1.0  0.1233
  H  H22  1  0.501400  0.760000  0.554400  1.0  0.1184
  H  H23  1  0.322100  0.117000  0.085900  1.0  0.1301
  H  H24  1  0.924200  0.983900  0.232200  1.0  0.2365
  H  H25  1  0.709900  0.612100  0.159900  1.0  0.1234
  H  H26  1  0.188500  0.484200  0.625200  1.0  0.1188
  H  H27  1  0.311500  0.015800  0.125200  1.0  0.1181
  H  H28  1  0.865400  0.034000  0.271800  1.0  0.1309
  H  H29  1  0.691900  0.571500  0.694100  1.0  0.1239
  H  H30  1  0.498600  0.240000  0.445600  1.0  0.1166
  H  H31  1  0.806400  0.250400  0.053900  1.0  0.1255
  H  H32  1  0.305400  0.255500  0.553200  1.0  0.121
  H  H33  1  0.748900  0.547800  0.208500  1.0  0.1303
  H  H34  1  0.957300  0.309200  0.241600  1.0  0.1284
  H  H35  1  0.069800  0.757800  0.883900  1.0  0.2857
  H  H36  1  0.463500  0.791400  0.329100  1.0  0.1328
  H  H37  1  0.001400  0.260000  0.945600  1.0  0.1176
  H  H38  1  0.326400  0.598200  0.179600  1.0  0.1265
  H  H39  1  0.457300  0.809200  0.258400  1.0  0.129
  H  H40  1  0.677900  0.883000  0.914100  1.0  0.1294
  H  H41  1  0.930200  0.242200  0.116100  1.0  0.2861
  H  H42  1  0.542700  0.190800  0.741600  1.0  0.1283
  H  H43  1  0.306500  0.571800  0.694900  1.0  0.1297
  H  H44  1  0.819300  0.814600  0.736000  1.0  0.1198
  H  H45  1  0.813200  0.832400  0.806700  1.0  0.1275
  H  H46  1  0.193500  0.928200  0.194900  1.0  0.1323
  H  H47  1  0.115900  0.537100  0.586800  1.0  0.1213
  H  H48  1  0.248900  0.047800  0.291500  1.0  0.1306
  H  H49  1  0.536500  0.208600  0.670900  1.0  0.1326
  H  H50  1  0.000400  0.828700  0.120200  1.0  0.1276
  H  H51  1  0.680700  0.685400  0.236000  1.0  0.1204
  H  H52  1  0.884100  0.462900  0.413200  1.0  0.122
  H  H53  1  0.177900  0.383000  0.585900  1.0  0.13
  H  H54  1  0.808100  0.928500  0.194100  1.0  0.1226
  H  H55  1  0.805400  0.755500  0.946800  1.0  0.1203
  H  H56  1  0.693600  0.249600  0.553900  1.0  0.1253
  H  H57  1  0.499600  0.671300  0.620200  1.0  0.1291
  H  H58  1  0.319300  0.314600  0.764000  1.0  0.1201
  H  H59  1  0.290100  0.387900  0.840100  1.0  0.1237
  H  H60  1  0.998600  0.740000  0.054400  1.0  0.1185
  H  H61  1  0.384100  0.962900  0.086800  1.0  0.1226
  H  H62  1  0.109300  0.389600  0.536500  1.0  0.1115
  H  H63  1  0.365400  0.534000  0.228200  1.0  0.1309
  H  H64  1  0.430200  0.742200  0.383900  1.0  0.2868
  H  H65  1  0.826400  0.098200  0.320400  1.0  0.1263
  H  H66  1  0.999600  0.171300  0.879800  1.0  0.1272
  H  H67  1  0.173600  0.901800  0.679600  1.0  0.1263
  H  H68  1  0.963500  0.291400  0.170900  1.0  0.1333
  H  H69  1  0.313200  0.332400  0.693300  1.0  0.1272
  H  H70  1  0.251100  0.452200  0.791500  1.0  0.1302
  H  H71  1  0.806500  0.071800  0.805100  1.0  0.1297
  H  H72  1  0.075800  0.016100  0.767800  1.0  0.2394
  H  H73  1  0.390700  0.110400  0.036500  1.0  0.1117
  H  H74  1  0.575800  0.516100  0.732200  1.0  0.2383
  H  H75  1  0.890700  0.610400  0.463500  1.0  0.1124
  H  H76  1  0.634600  0.466000  0.771800  1.0  0.1305
  H  H77  1  0.134600  0.966000  0.728200  1.0  0.1304
  H  H78  1  0.811500  0.515800  0.374800  1.0  0.1187
  H  H79  1  0.424200  0.483900  0.267800  1.0  0.2362
  H  H80  1  0.751100  0.952200  0.708500  1.0  0.1299
  H  H81  1  0.191900  0.071500  0.805900  1.0  0.1242
  H  H82  1  0.180700  0.185400  0.264000  1.0  0.1209
  H  H83  1  0.194600  0.244500  0.053200  1.0  0.121
  H  H84  1  0.615900  0.037100  0.913200  1.0  0.1215
  H  H85  1  0.686800  0.667600  0.306700  1.0  0.1272
  H  H86  1  0.688500  0.984200  0.874800  1.0  0.1193
  H  H87  1  0.609300  0.889600  0.963500  1.0  0.1113
  H  H88  1  0.693500  0.428200  0.305100  1.0  0.1327
  H  H89  1  0.186800  0.167600  0.193300  1.0  0.1269
  H  H90  1  0.500400  0.328700  0.379800  1.0  0.1288
  H  H91  1  0.694600  0.744500  0.446800  1.0  0.1207
  H  H92  1  0.209900  0.112100  0.340100  1.0  0.1234
  H  H93  1  0.822100  0.617000  0.414100  1.0  0.1298
  H  H94  1  0.193600  0.749600  0.946100  1.0  0.125
  H  H95  1  0.036500  0.708600  0.829100  1.0  0.1325
  H  H96  1  0.306400  0.750400  0.446100  1.0  0.1253
  C  C97  1  0.485600  0.388700  0.834900  1.0  -0.024
  C  C98  1  0.916200  0.776600  0.869000  1.0  0.4676
  C  C99  1  0.493000  0.346700  0.863200  1.0  0.3152
  C  C100  1  0.424200  0.272200  0.675300  1.0  0.0351
  C  C101  1  0.883400  0.746600  0.003100  1.0  -0.1007
  C  C102  1  0.507000  0.653300  0.136800  1.0  0.3174
  C  C103  1  0.884200  0.086800  0.814100  1.0  -0.0644
  C  C104  1  0.565100  0.450300  0.785600  1.0  -0.0762
  C  C105  1  0.499900  0.243400  0.474600  1.0  0.0444
  C  C106  1  0.881600  0.868800  0.160600  1.0  -0.0662
  C  C107  1  0.843400  0.581600  0.418800  1.0  -0.1123
  C  C108  1  0.383900  0.251600  0.538900  1.0  -0.1349
  C  C109  1  0.836300  0.942000  0.702700  1.0  -0.1146
  C  C110  1  0.558900  0.760300  0.198600  1.0  0.226
  C  C111  1  0.497800  0.046100  0.982300  1.0  -0.0908
  C  C112  1  0.113700  0.502300  0.578900  1.0  -0.1367
  C  C113  1  0.054500  0.455900  0.521200  1.0  0.2087
  C  C114  1  0.887800  0.576300  0.455100  1.0  -0.1305
  C  C115  1  0.088400  0.912000  0.685400  1.0  -0.0602
  C  C116  1  0.434900  0.549700  0.214400  1.0  -0.0786
  C  C117  1  0.263100  0.349400  0.357700  1.0  0.7362
  C  C118  1  0.554500  0.955900  0.978800  1.0  0.2073
  C  C119  1  0.568400  0.749000  0.240400  1.0  0.0308
  C  C120  1  0.384200  0.586800  0.685900  1.0  -0.0649
  C  C121  1  0.235600  0.747700  0.028800  1.0  0.7208
  C  C122  1  0.000600  0.851400  0.142800  1.0  -0.0393
  C  C123  1  0.236900  0.150600  0.857700  1.0  0.7345
  C  C124  1  0.500100  0.756600  0.525400  1.0  0.0444
  C  C125  1  0.002200  0.453900  0.482300  1.0  -0.0904
  C  C126  1  0.001600  0.066700  0.802200  1.0  0.3427
  C  C127  1  0.431600  0.251000  0.759600  1.0  0.0318
  C  C128  1  0.911600  0.088000  0.314600  1.0  -0.058
  C  C129  1  0.457000  0.994900  0.040300  1.0  -0.0719
  C  C130  1  0.613700  0.002300  0.921100  1.0  -0.1397
  C  C131  1  0.999700  0.400800  0.460000  1.0  0.7254
  C  C132  1  0.363100  0.293200  0.745200  1.0  -0.1189
  C  C133  1  0.411600  0.588000  0.185400  1.0  -0.0621
  C  C134  1  0.118400  0.131200  0.839400  1.0  -0.0669
  C  C135  1  0.501600  0.566700  0.697800  1.0  0.3423
  C  C136  1  0.503600  0.780600  0.268100  1.0  -0.1007
  C  C137  1  0.068400  0.249000  0.259600  1.0  0.0314
  C  C138  1  0.492700  0.230000  0.689700  1.0  -0.1646
  C  C139  1  0.615900  0.248700  0.538800  1.0  -0.0753
  C  C140  1  0.264400  0.752300  0.528800  1.0  0.7209
  C  C141  1  0.116600  0.253400  0.996900  1.0  -0.1003
  C  C142  1  0.763600  0.150000  0.859200  1.0  0.7351
  C  C143  1  0.336300  0.442000  0.797300  1.0  -0.1147
  C  C144  1  0.359500  0.303800  0.703100  1.0  -0.0634
  C  C145  1  0.000300  0.599200  0.540000  1.0  0.7247
  C  C146  1  0.934900  0.049700  0.285600  1.0  -0.0748
  C  C147  1  0.346100  0.031200  0.100600  1.0  -0.0711
  C  C148  1  0.996400  0.719400  0.768100  1.0  -0.0978
  C  C149  1  0.359600  0.403700  0.826300  1.0  -0.0943
  C  C150  1  0.259000  0.247200  0.472200  1.0  0.7233
  C  C151  1  0.560900  0.534700  0.223000  1.0  0.0702
  C  C152  1  0.945500  0.544100  0.478800  1.0  0.2069
  C  C153  1  0.263600  0.650000  0.640800  1.0  0.7364
  C  C154  1  0.065100  0.950300  0.714400  1.0  -0.0736
  C  C155  1  0.383400  0.246600  0.496900  1.0  -0.0968
  C  C156  1  0.500300  0.099200  0.960000  1.0  0.7249
  C  C157  1  0.000100  0.256600  0.974600  1.0  0.0443
  C  C158  1  0.502200  0.749100  0.439700  1.0  0.2514
  C  C159  1  0.112200  0.423700  0.544900  1.0  -0.1278
  C  C160  1  0.153900  0.468800  0.600600  1.0  -0.0674
  C  C161  1  0.759000  0.747200  0.027800  1.0  0.7371
  C  C162  1  0.385800  0.413000  0.314300  1.0  -0.0746
  C  C163  1  0.116100  0.248400  0.038900  1.0  -0.1319
  C  C164  1  0.999900  0.743400  0.025400  1.0  0.0451
  C  C165  1  0.241000  0.252800  0.972200  1.0  0.7282
  C  C166  1  0.591400  0.494100  0.249500  1.0  0.4346
  C  C167  1  0.908600  0.005900  0.749500  1.0  0.433
  C  C168  1  0.736400  0.350000  0.359200  1.0  0.7354
  C  C169  1  0.741000  0.752800  0.527800  1.0  0.7238
  C  C170  1  0.500600  0.351400  0.357200  1.0  -0.039
  C  C171  1  0.939100  0.965300  0.723000  1.0  0.0745
  C  C172  1  0.614200  0.587000  0.685700  1.0  -0.0756
  C  C173  1  0.617300  0.369000  0.340300  1.0  -0.0734
  C  C174  1  0.764400  0.252300  0.971200  1.0  0.7208
  C  C175  1  0.075800  0.227800  0.175300  1.0  0.0355
  C  C176  1  0.120400  0.745300  0.003800  1.0  0.0538
  C  C177  1  0.136900  0.206800  0.245200  1.0  -0.1183
  C  C178  1  0.863100  0.793200  0.754800  1.0  -0.1213
  C  C179  1  0.091400  0.994100  0.250500  1.0  0.4338
  C  C180  1  0.379600  0.754700  0.503800  1.0  0.0493
  C  C181  1  0.115900  0.748700  0.961200  1.0  -0.0731
  C  C182  1  0.924200  0.772200  0.824700  1.0  0.035
  C  C183  1  0.883900  0.751600  0.961100  1.0  -0.1343
  C  C184  1  0.514400  0.611300  0.165100  1.0  -0.0233
  C  C185  1  0.620400  0.245300  0.496200  1.0  0.0487
  C  C186  1  0.439100  0.465300  0.777000  1.0  0.0702
  C  C187  1  0.117300  0.869000  0.159700  1.0  -0.0735
  C  C188  1  0.382700  0.631000  0.659700  1.0  -0.0724
  C  C189  1  0.640400  0.596300  0.173700  1.0  -0.0896
  C  C190  1  0.499400  0.648600  0.642800  1.0  -0.0391
  C  C191  1  0.236400  0.850000  0.140800  1.0  0.7356
  C  C192  1  0.343400  0.081600  0.081200  1.0  -0.1123
  C  C193  1  0.575800  0.727800  0.324700  1.0  0.0354
  C  C194  1  0.997800  0.546100  0.517700  1.0  -0.0906
  C  C195  1  0.859500  0.803800  0.796900  1.0  -0.0629
  C  C196  1  0.140500  0.196200  0.203100  1.0  -0.0616
  C  C197  1  0.997800  0.750900  0.939700  1.0  0.2502
  C  C198  1  0.612200  0.923700  0.955100  1.0  -0.1289
  C  C199  1  0.002200  0.249100  0.060300  1.0  0.2529
  C  C200  1  0.846100  0.531200  0.399400  1.0  -0.0688
  C  C201  1  0.618400  0.631200  0.660600  1.0  -0.0673
  C  C202  1  0.445500  0.044100  0.021200  1.0  0.2113
  C  C203  1  0.931600  0.751000  0.740400  1.0  0.0313
  C  C204  1  0.007000  0.153300  0.363200  1.0  0.3182
  C  C205  1  0.408600  0.505900  0.750500  1.0  0.4342
  C  C206  1  0.083800  0.223400  0.131000  1.0  0.468
  C  C207  1  0.114200  0.087000  0.814300  1.0  -0.0749
  C  C208  1  0.058900  0.260300  0.301400  1.0  0.2278
  C  C209  1  0.386300  0.997700  0.078900  1.0  -0.1378
  C  C210  1  0.885800  0.913000  0.185700  1.0  -0.0753
  C  C211  1  0.583800  0.723400  0.369000  1.0  0.468
  C  C212  1  0.763100  0.849400  0.142300  1.0  0.735
  C  C213  1  0.060900  0.034700  0.277000  1.0  0.0741
  C  C214  1  0.507300  0.770000  0.310300  1.0  -0.1655
  C  C215  1  0.884100  0.251300  0.038800  1.0  -0.0767
  C  C216  1  0.735600  0.247700  0.471200  1.0  0.72
  C  C217  1  0.497800  0.250900  0.560300  1.0  0.2501
  C  C218  1  0.043000  0.505100  0.540300  1.0  -0.0725
  C  C219  1  0.387800  0.076300  0.044900  1.0  -0.1315
  C  C220  1  0.156600  0.418400  0.581200  1.0  -0.1107
  C  C221  1  0.985600  0.888700  0.665100  1.0  -0.0227
  C  C222  1  0.999400  0.148600  0.857200  1.0  -0.0395
  C  C223  1  0.496400  0.219400  0.731900  1.0  -0.0973
  C  C224  1  0.886300  0.497700  0.421100  1.0  -0.1391
  C  C225  1  0.498400  0.433300  0.302200  1.0  0.3431
  C  C226  1  0.941100  0.739700  0.698600  1.0  0.23
  C  C227  1  0.640500  0.696200  0.296900  1.0  -0.0614
  C  C228  1  0.384100  0.751300  0.461200  1.0  -0.0746
  C  C229  1  0.616100  0.748400  0.461100  1.0  -0.1345
  C  C230  1  0.636900  0.706800  0.254800  1.0  -0.1191
  C  C231  1  0.879600  0.254700  0.996200  1.0  0.054
  C  C232  1  0.003600  0.280600  0.231900  1.0  -0.0984
  C  C233  1  0.663700  0.558000  0.202700  1.0  -0.1146
  C  C234  1  0.653900  0.968800  0.899400  1.0  -0.0664
  C  C235  1  0.616600  0.753400  0.503100  1.0  -0.0964
  C  C236  1  0.957000  0.494900  0.459700  1.0  -0.0711
  C  C237  1  0.014400  0.111300  0.334900  1.0  -0.024
  C  C238  1  0.115800  0.913200  0.185900  1.0  -0.0642
  C  C239  1  0.543000  0.005100  0.959700  1.0  -0.0718
  C  C240  1  0.007300  0.270000  0.189700  1.0  -0.1656
  C  C241  1  0.998400  0.933300  0.197800  1.0  0.3377
  C  C242  1  0.992700  0.730000  0.810300  1.0  -0.1602
  C  C243  1  0.140400  0.096300  0.326300  1.0  -0.0883
  C  C244  1  0.615800  0.413200  0.314100  1.0  -0.0634
  C  C245  1  0.736900  0.650600  0.642300  1.0  0.7346
  C  C246  1  0.416200  0.276600  0.631000  1.0  0.4679
  C  C247  1  0.656600  0.918400  0.918800  1.0  -0.1115
  C  C248  1  0.588400  0.412000  0.814600  1.0  -0.0596
  C  C249  1  0.441100  0.239700  0.801400  1.0  0.23
  C  C250  1  0.502200  0.953900  0.017700  1.0  -0.0898
  C  C251  1  0.859600  0.903700  0.673700  1.0  -0.089
  C  C252  1  0.993000  0.846700  0.636800  1.0  0.3143
  C  C253  1  0.499700  0.900800  0.040000  1.0  0.7256
  C  C254  1  0.882700  0.131000  0.840300  1.0  -0.0724
  C  C255  1  0.163700  0.058000  0.297300  1.0  -0.1145
  C  C256  1  0.381600  0.368800  0.339400  1.0  -0.0662
  N  N257  1  0.999500  0.244900  0.103900  1.0  -0.3878
  N  N258  1  0.000500  0.755100  0.896100  1.0  -0.389
  N  N259  1  0.500500  0.255100  0.603900  1.0  -0.3885
  N  N260  1  0.499500  0.744900  0.396100  1.0  -0.3884
  N  N261  1  0.996800  0.028400  0.774000  1.0  -0.2658
  N  N262  1  0.503200  0.471600  0.274000  1.0  -0.2658
  N  N263  1  0.496800  0.528400  0.726000  1.0  -0.2661
  N  N264  1  0.003200  0.971600  0.226000  1.0  -0.2662
  O  O265  1  0.231900  0.190500  0.877100  1.0  -0.5788
  O  O266  1  0.158800  0.734500  0.509300  1.0  -0.5846
  O  O267  1  0.003100  0.399200  0.421600  1.0  -0.5972
  O  O268  1  0.208300  0.974400  0.251200  1.0  -0.4697
  O  O269  1  0.259700  0.770400  0.563810  1.0  -0.5824
  O  O270  1  0.268700  0.690900  0.621900  1.0  -0.5898
  O  O271  1  0.260600  0.229700  0.436340  1.0  -0.6144
  O  O272  1  0.820600  0.804700  0.883600  1.0  -0.4565
  O  O273  1  0.708300  0.474400  0.248800  1.0  -0.4703
  O  O274  1  0.400400  0.324000  0.872700  1.0  -0.5844
  O  O275  1  0.655900  0.764900  0.009380  1.0  -0.6138
  O  O276  1  0.999800  0.363200  0.483100  1.0  -0.5575
  O  O277  1  0.240300  0.729600  0.063810  1.0  -0.579
  O  O278  1  0.760600  0.729700  0.063660  1.0  -0.6128
  O  O279  1  0.996700  0.291200  0.312700  1.0  -0.5572
  O  O280  1  0.739400  0.770300  0.563660  1.0  -0.6147
  O  O281  1  0.996900  0.600800  0.578400  1.0  -0.5983
  O  O282  1  0.000400  0.282800  0.406710  1.0  -1.2006
  O  O283  1  0.344100  0.235100  0.990620  1.0  -0.6123
  O  O284  1  0.496900  0.100800  0.921600  1.0  -0.5976
  O  O285  1  0.999600  0.717200  0.593290  1.0  -1.2024
  O  O286  1  0.500400  0.782800  0.093290  1.0  -1.2004
  O  O287  1  0.842400  0.372000  0.350100  1.0  -0.5961
  O  O288  1  0.156200  0.372200  0.350400  1.0  -0.5946
  O  O289  1  0.841200  0.265500  0.490700  1.0  -0.5825
  O  O290  1  0.343800  0.127800  0.850400  1.0  -0.5936
  O  O291  1  0.342400  0.872000  0.149900  1.0  -0.5964
  O  O292  1  0.842600  0.767800  0.679800  1.0  -0.652
  O  O293  1  0.100900  0.826900  0.624700  1.0  -0.6248
  O  O294  1  0.399100  0.673100  0.124700  1.0  -0.6258
  O  O295  1  0.768100  0.809500  0.122900  1.0  -0.5799
  O  O296  1  0.500200  0.136800  0.983100  1.0  -0.559
  O  O297  1  0.740300  0.229600  0.436190  1.0  -0.5839
  O  O298  1  0.268100  0.309500  0.377100  1.0  -0.5801
  O  O299  1  0.656200  0.872200  0.149600  1.0  -0.5945
  O  O300  1  0.179400  0.195300  0.116400  1.0  -0.4562
  O  O301  1  0.503100  0.899200  0.078400  1.0  -0.5989
  O  O302  1  0.844100  0.735100  0.509380  1.0  -0.6116
  O  O303  1  0.341200  0.765500  0.009300  1.0  -0.5858
  O  O304  1  0.239400  0.270300  0.936340  1.0  -0.6145
  O  O305  1  0.599600  0.676000  0.127300  1.0  -0.5837
  O  O306  1  0.155900  0.264900  0.490620  1.0  -0.6142
  O  O307  1  0.231300  0.809100  0.121900  1.0  -0.5892
  O  O308  1  0.499600  0.217200  0.906710  1.0  -1.2026
  O  O309  1  0.003300  0.708800  0.687300  1.0  -0.558
  O  O310  1  0.503300  0.208800  0.812700  1.0  -0.5579
  O  O311  1  0.900400  0.824000  0.627300  1.0  -0.5864
  O  O312  1  0.320600  0.304700  0.616400  1.0  -0.4559
  O  O313  1  0.291700  0.525600  0.751200  1.0  -0.4692
  O  O314  1  0.496700  0.791200  0.187300  1.0  -0.5578
  O  O315  1  0.000200  0.636800  0.516900  1.0  -0.5594
  O  O316  1  0.657400  0.732200  0.179800  1.0  -0.6528
  O  O317  1  0.342600  0.267800  0.820200  1.0  -0.6522
  O  O318  1  0.843800  0.627800  0.649600  1.0  -0.5925
  O  O319  1  0.791700  0.025600  0.748800  1.0  -0.4695
  O  O320  1  0.600900  0.326900  0.875300  1.0  -0.6242
  O  O321  1  0.731900  0.690500  0.622900  1.0  -0.579
  O  O322  1  0.731300  0.309100  0.378100  1.0  -0.5888
  O  O323  1  0.679400  0.695300  0.383600  1.0  -0.4576
  O  O324  1  0.157600  0.628000  0.649900  1.0  -0.5948
  O  O325  1  0.899100  0.173100  0.375300  1.0  -0.6261
  O  O326  1  0.768700  0.190900  0.878100  1.0  -0.5892
  O  O327  1  0.657600  0.128000  0.850100  1.0  -0.5954
  O  O328  1  0.759700  0.270400  0.936190  1.0  -0.5775
  O  O329  1  0.658800  0.234500  0.990700  1.0  -0.5832
  O  O330  1  0.499800  0.863200  0.016900  1.0  -0.5574
  O  O331  1  0.157400  0.232200  0.320200  1.0  -0.6534
  O  O332  1  0.099600  0.176000  0.372700  1.0  -0.5831
