# generated using pymatgen
data_Zn4H21C42N3O13
_symmetry_space_group_name_H-M   'P 1'
_cell_length_a   29.74250000
_cell_length_b   31.10750000
_cell_length_c   31.10750000
_cell_angle_alpha   69.65700000
_cell_angle_beta   71.41530000
_cell_angle_gamma   108.58500000
_symmetry_Int_Tables_number   1
_chemical_formula_structural   Zn4H21C42N3O13
_chemical_formula_sum   'Zn32 H168 C336 N24 O104'
_cell_volume   22393.36221171
_cell_formula_units_Z   8
loop_
 _symmetry_equiv_pos_site_id
 _symmetry_equiv_pos_as_xyz
  1  'x, y, z'
loop_
 _atom_site_type_symbol
 _atom_site_label
 _atom_site_symmetry_multiplicity
 _atom_site_fract_x
 _atom_site_fract_y
 _atom_site_fract_z
 _atom_site_occupancy
 _atom_site_charge
  Zn  Zn1  1  0.372830  0.747010  0.541280  1.0  1.0707
  Zn  Zn2  1  0.774670  0.071040  0.974940  1.0  1.049
  Zn  Zn3  1  0.941590  0.494850  0.638010  1.0  1.0769
  Zn  Zn4  1  0.905500  0.431010  0.758370  1.0  1.0323
  Zn  Zn5  1  0.021430  0.531610  0.684430  1.0  1.1028
  Zn  Zn6  1  0.579600  0.638010  0.867140  1.0  1.0767
  Zn  Zn7  1  0.749610  0.974940  0.954020  1.0  1.0349
  Zn  Zn8  1  0.705860  0.684430  0.783960  1.0  1.1012
  Zn  Zn9  1  0.489820  0.783960  0.531610  1.0  1.1018
  Zn  Zn10  1  0.446740  0.867140  0.494850  1.0  1.0768
  Zn  Zn11  1  0.663870  0.758370  0.810620  1.0  1.0298
  Zn  Zn12  1  0.914110  0.541280  0.711710  1.0  1.0707
  Zn  Zn13  1  0.474490  0.810620  0.431010  1.0  1.0311
  Zn  Zn14  1  0.703630  0.954020  0.071040  1.0  1.033
  Zn  Zn15  1  0.828270  0.000000  0.000000  1.0  1.07
  Zn  Zn16  1  0.625820  0.711710  0.747010  1.0  1.0735
  Zn  Zn17  1  0.250390  0.025060  0.045980  1.0  1.0348
  Zn  Zn18  1  0.058410  0.505150  0.361990  1.0  1.0775
  Zn  Zn19  1  0.294140  0.315570  0.216040  1.0  1.1009
  Zn  Zn20  1  0.225330  0.928960  0.025060  1.0  1.0484
  Zn  Zn21  1  0.374180  0.288290  0.252990  1.0  1.0737
  Zn  Zn22  1  0.420400  0.361990  0.132860  1.0  1.0761
  Zn  Zn23  1  0.978570  0.468390  0.315570  1.0  1.1047
  Zn  Zn24  1  0.553260  0.132860  0.505150  1.0  1.0778
  Zn  Zn25  1  0.171730  0.000000  0.000000  1.0  1.0717
  Zn  Zn26  1  0.336130  0.241630  0.189380  1.0  1.0281
  Zn  Zn27  1  0.525510  0.189380  0.568990  1.0  1.0313
  Zn  Zn28  1  0.085890  0.458720  0.288290  1.0  1.071
  Zn  Zn29  1  0.296370  0.045980  0.928960  1.0  1.0336
  Zn  Zn30  1  0.510180  0.216040  0.468390  1.0  1.1024
  Zn  Zn31  1  0.627170  0.252990  0.458720  1.0  1.071
  Zn  Zn32  1  0.094500  0.568990  0.241630  1.0  1.033
  H  H33  1  0.875000  0.738000  0.860900  1.0  0.1133
  H  H34  1  0.251500  0.594900  0.378400  1.0  0.3128
  H  H35  1  0.604400  0.834800  0.667900  1.0  0.0934
  H  H36  1  0.709400  0.343600  0.984700  1.0  0.1182
  H  H37  1  0.157500  0.599600  0.543000  1.0  0.1073
  H  H38  1  0.679900  0.702400  0.605500  1.0  0.1109
  H  H39  1  0.607300  0.033500  0.535700  1.0  0.095
  H  H40  1  0.694100  0.984700  0.671700  1.0  0.1177
  H  H41  1  0.912000  0.922700  0.954100  1.0  0.1072
  H  H42  1  0.029000  0.769900  0.696500  1.0  0.1056
  H  H43  1  0.977500  0.692100  0.702400  1.0  0.1116
  H  H44  1  0.438300  0.689100  0.123700  1.0  0.2628
  H  H45  1  0.876500  0.935000  0.197400  1.0  0.1126
  H  H46  1  0.656600  0.026700  0.594900  1.0  0.3143
  H  H47  1  0.725100  0.050200  0.827200  1.0  0.0848
  H  H48  1  0.429700  0.678200  0.682300  1.0  0.1056
  H  H49  1  0.474000  0.638600  0.988300  1.0  0.0653
  H  H50  1  0.557900  0.857400  0.599600  1.0  0.1086
  H  H51  1  0.789600  0.177500  0.833600  1.0  0.0827
  H  H52  1  0.735900  0.860900  0.401100  1.0  0.1132
  H  H53  1  0.596500  0.766600  0.950700  1.0  0.1641
  H  H54  1  0.810800  0.892600  0.895500  1.0  0.1091
  H  H55  1  0.089900  0.444900  0.718200  1.0  0.1147
  H  H56  1  0.296600  0.494400  0.832400  1.0  0.3292
  H  H57  1  0.629900  0.378400  0.026700  1.0  0.3148
  H  H58  1  0.781300  0.377000  0.904400  1.0  0.1178
  H  H59  1  0.829900  0.282700  0.766600  1.0  0.1638
  H  H60  1  0.685700  0.904400  0.718600  1.0  0.118
  H  H61  1  0.554800  0.985000  0.510900  1.0  0.1012
  H  H62  1  0.700500  0.543000  0.857400  1.0  0.1074
  H  H63  1  0.112000  0.682300  0.639500  1.0  0.1053
  H  H64  1  0.783000  0.833600  0.850300  1.0  0.1018
  H  H65  1  0.425500  0.632400  0.064300  1.0  0.0977
  H  H66  1  0.562000  0.123700  0.187200  1.0  0.2634
  H  H67  1  0.137000  0.401100  0.738000  1.0  0.1142
  H  H68  1  0.259100  0.533600  0.769900  1.0  0.1042
  H  H69  1  0.802200  0.673200  0.494400  1.0  0.2829
  H  H70  1  0.317200  0.891000  0.574300  1.0  0.0968
  H  H71  1  0.725500  0.696500  0.533600  1.0  0.1041
  H  H72  1  0.751500  0.639500  0.678200  1.0  0.105
  H  H73  1  0.226600  0.748800  0.598900  1.0  0.1047
  H  H74  1  0.674900  0.122600  0.050200  1.0  0.0866
  H  H75  1  0.915200  0.788200  0.912900  1.0  0.4002
  H  H76  1  0.866100  0.954100  0.123200  1.0  0.1079
  H  H77  1  0.285400  0.605500  0.692100  1.0  0.1101
  H  H78  1  0.749200  0.187200  0.689100  1.0  0.2566
  H  H79  1  0.472800  0.756800  0.153900  1.0  0.1101
  H  H80  1  0.848100  0.608400  0.494100  1.0  0.1003
  H  H81  1  0.065700  0.510900  0.504100  1.0  0.1008
  H  H82  1  0.825500  0.598900  0.652300  1.0  0.1049
  H  H83  1  0.949400  0.316100  0.833600  1.0  0.1019
  H  H84  1  0.489800  0.064300  0.303300  1.0  0.0972
  H  H85  1  0.828100  0.912900  0.298900  1.0  0.4003
  H  H86  1  0.272300  0.667900  0.497300  1.0  0.0949
  H  H87  1  0.129000  0.832400  0.673200  1.0  0.3273
  H  H88  1  0.716000  0.089300  0.756800  1.0  0.1099
  H  H89  1  0.835400  0.373100  0.638600  1.0  0.0657
  H  H90  1  0.342200  0.494100  0.897500  1.0  0.1021
  H  H91  1  0.941500  0.867600  0.935000  1.0  0.1142
  H  H92  1  0.633300  0.850300  0.316100  1.0  0.1017
  H  H93  1  0.623200  0.833600  0.988900  1.0  0.0841
  H  H94  1  0.573800  0.430800  0.033500  1.0  0.0944
  H  H95  1  0.793100  0.303300  0.632400  1.0  0.0976
  H  H96  1  0.552300  0.827200  0.122600  1.0  0.0863
  H  H97  1  0.462300  0.988300  0.373100  1.0  0.0648
  H  H98  1  0.769600  0.497300  0.834800  1.0  0.0931
  H  H99  1  0.404300  0.718600  0.377000  1.0  0.1182
  H  H100  1  0.808100  0.718200  0.836900  1.0  0.114
  H  H101  1  0.989300  0.123200  0.922700  1.0  0.1077
  H  H102  1  0.891500  0.574300  0.534700  1.0  0.0959
  H  H103  1  0.626700  0.153900  0.089300  1.0  0.1119
  H  H104  1  0.426200  0.534700  0.891000  1.0  0.0964
  H  H105  1  0.569800  0.504100  0.985000  1.0  0.1018
  H  H106  1  0.073900  0.197400  0.867600  1.0  0.1123
  H  H107  1  0.143000  0.535700  0.430800  1.0  0.0941
  H  H108  1  0.365800  0.671700  0.343600  1.0  0.1155
  H  H109  1  0.239700  0.897500  0.608400  1.0  0.1014
  H  H110  1  0.127000  0.298900  0.788200  1.0  0.396
  H  H111  1  0.706300  0.895500  0.211900  1.0  0.1075
  H  H112  1  0.477800  0.652300  0.748800  1.0  0.1046
  H  H113  1  0.645000  0.836900  0.444900  1.0  0.1149
  H  H114  1  0.547200  0.950700  0.282700  1.0  0.1637
  H  H115  1  0.918200  0.211900  0.892600  1.0  0.1099
  H  H116  1  0.612100  0.988900  0.177500  1.0  0.0842
  H  H117  1  0.218700  0.623000  0.095600  1.0  0.1176
  H  H118  1  0.370100  0.621600  0.973300  1.0  0.314
  H  H119  1  0.447700  0.172800  0.877400  1.0  0.0859
  H  H120  1  0.081800  0.788100  0.107400  1.0  0.1075
  H  H121  1  0.537700  0.011700  0.626900  1.0  0.0658
  H  H122  1  0.634200  0.328300  0.656400  1.0  0.1151
  H  H123  1  0.320100  0.297600  0.394500  1.0  0.1105
  H  H124  1  0.164600  0.626900  0.361400  1.0  0.0658
  H  H125  1  0.871000  0.167600  0.326800  1.0  0.3278
  H  H126  1  0.050600  0.683900  0.166400  1.0  0.1018
  H  H127  1  0.355000  0.163100  0.555100  1.0  0.1158
  H  H128  1  0.510200  0.935700  0.696700  1.0  0.0969
  H  H129  1  0.760300  0.102500  0.391600  1.0  0.1018
  H  H130  1  0.174500  0.401100  0.347700  1.0  0.1046
  H  H131  1  0.343400  0.973300  0.405100  1.0  0.3149
  H  H132  1  0.366700  0.149700  0.683900  1.0  0.1011
  H  H133  1  0.250800  0.812800  0.310900  1.0  0.2586
  H  H134  1  0.438000  0.876300  0.812800  1.0  0.2619
  H  H135  1  0.522200  0.347700  0.251200  1.0  0.1059
  H  H136  1  0.574500  0.367600  0.935700  1.0  0.0964
  H  H137  1  0.248500  0.360500  0.321800  1.0  0.1058
  H  H138  1  0.274900  0.949800  0.172800  1.0  0.0854
  H  H139  1  0.264100  0.139100  0.598900  1.0  0.1134
  H  H140  1  0.573800  0.465300  0.109000  1.0  0.0962
  H  H141  1  0.595700  0.281400  0.623000  1.0  0.1176
  H  H142  1  0.527200  0.243200  0.846100  1.0  0.1103
  H  H143  1  0.191900  0.281800  0.163100  1.0  0.115
  H  H144  1  0.682800  0.109000  0.425700  1.0  0.0963
  H  H145  1  0.151900  0.391600  0.505900  1.0  0.1016
  H  H146  1  0.703400  0.505600  0.167600  1.0  0.329
  H  H147  1  0.088000  0.077300  0.045900  1.0  0.1074
  H  H148  1  0.125000  0.262000  0.139100  1.0  0.1145
  H  H149  1  0.123500  0.065000  0.802600  1.0  0.1129
  H  H150  1  0.452800  0.049300  0.717300  1.0  0.1653
  H  H151  1  0.170100  0.717300  0.233400  1.0  0.1649
  H  H152  1  0.863000  0.598900  0.262000  1.0  0.1145
  H  H153  1  0.714600  0.394500  0.307900  1.0  0.1098
  H  H154  1  0.022500  0.307900  0.297600  1.0  0.1113
  H  H155  1  0.727700  0.332100  0.502700  1.0  0.0943
  H  H156  1  0.376800  0.166400  0.011100  1.0  0.0839
  H  H157  1  0.305900  0.015300  0.328300  1.0  0.1163
  H  H158  1  0.387900  0.011100  0.822500  1.0  0.0834
  H  H159  1  0.910100  0.555100  0.281800  1.0  0.1153
  H  H160  1  0.299500  0.457000  0.142600  1.0  0.1076
  H  H161  1  0.430200  0.495900  0.015000  1.0  0.1012
  H  H162  1  0.773400  0.251200  0.401100  1.0  0.105
  H  H163  1  0.842500  0.400400  0.457000  1.0  0.1068
  H  H164  1  0.926100  0.802600  0.132400  1.0  0.1139
  H  H165  1  0.274500  0.303500  0.466400  1.0  0.1042
  H  H166  1  0.426200  0.569200  0.966500  1.0  0.0936
  H  H167  1  0.217000  0.166400  0.149700  1.0  0.101
  H  H168  1  0.873000  0.701100  0.211800  1.0  0.3956
  H  H169  1  0.442100  0.142600  0.400400  1.0  0.1084
  H  H170  1  0.210400  0.822500  0.166400  1.0  0.083
  H  H171  1  0.010700  0.876800  0.077300  1.0  0.1081
  H  H172  1  0.230400  0.502700  0.165200  1.0  0.0931
  H  H173  1  0.058500  0.132400  0.065000  1.0  0.1144
  H  H174  1  0.133900  0.045900  0.876800  1.0  0.1075
  H  H175  1  0.108500  0.425700  0.465300  1.0  0.0963
  H  H176  1  0.445200  0.015000  0.489100  1.0  0.1021
  H  H177  1  0.171900  0.087100  0.701100  1.0  0.4002
  H  H178  1  0.857000  0.464300  0.569200  1.0  0.0942
  H  H179  1  0.748500  0.405100  0.621600  1.0  0.3138
  H  H180  1  0.395600  0.165200  0.332100  1.0  0.0933
  H  H181  1  0.084800  0.211800  0.087100  1.0  0.3992
  H  H182  1  0.293700  0.104500  0.788100  1.0  0.1084
  H  H183  1  0.561700  0.310900  0.876300  1.0  0.2626
  H  H184  1  0.373300  0.846100  0.910700  1.0  0.1117
  H  H185  1  0.934300  0.489100  0.495900  1.0  0.101
  H  H186  1  0.403500  0.233400  0.049300  1.0  0.1637
  H  H187  1  0.325100  0.877400  0.949800  1.0  0.0872
  H  H188  1  0.888000  0.317700  0.360500  1.0  0.1059
  H  H189  1  0.392700  0.966500  0.464300  1.0  0.0948
  H  H190  1  0.206900  0.696700  0.367600  1.0  0.0982
  H  H191  1  0.657800  0.505900  0.102500  1.0  0.1018
  H  H192  1  0.526000  0.361400  0.011700  1.0  0.0644
  H  H193  1  0.284000  0.910700  0.243200  1.0  0.1106
  H  H194  1  0.971000  0.230100  0.303500  1.0  0.1058
  H  H195  1  0.570300  0.321800  0.317700  1.0  0.1054
  H  H196  1  0.290600  0.656400  0.015300  1.0  0.1175
  H  H197  1  0.197800  0.326800  0.505600  1.0  0.2843
  H  H198  1  0.740900  0.466400  0.230100  1.0  0.1038
  H  H199  1  0.314300  0.095600  0.281400  1.0  0.1172
  H  H200  1  0.189200  0.107400  0.104500  1.0  0.1096
  C  C201  1  0.858500  0.913000  0.926700  1.0  -0.1374
  C  C202  1  0.347700  0.699600  0.443500  1.0  -0.102
  C  C203  1  0.740400  0.903400  0.209000  1.0  0.0207
  C  C204  1  0.651000  0.052500  0.105500  1.0  -0.1178
  C  C205  1  0.550900  0.813500  0.100500  1.0  -0.079
  C  C206  1  0.804000  0.621300  0.596100  1.0  -0.0281
  C  C207  1  0.830000  0.600800  0.620600  1.0  -0.0813
  C  C208  1  0.653800  0.852400  0.333200  1.0  0.0169
  C  C209  1  0.624000  0.865200  0.667400  1.0  -0.079
  C  C210  1  0.400100  0.596100  0.782600  1.0  -0.0269
  C  C211  1  0.800500  0.298500  0.660000  1.0  -0.0806
  C  C212  1  0.677400  0.476600  0.921800  1.0  -0.1264
  C  C213  1  0.287000  0.633400  0.407300  1.0  0.0172
  C  C214  1  0.258000  0.635400  0.456100  1.0  -0.0858
  C  C215  1  0.551270  0.916570  0.552660  1.0  -0.1572
  C  C216  1  0.616800  0.022300  0.159900  1.0  -0.0512
  C  C217  1  0.758800  0.467400  0.865200  1.0  -0.0802
  C  C218  1  0.574800  0.825100  0.424100  1.0  0.6183
  C  C219  1  0.842400  0.927100  0.200300  1.0  -0.0545
  C  C220  1  0.597340  0.998180  0.548560  1.0  -0.0848
  C  C221  1  0.553300  0.775200  0.038500  1.0  0.01
  C  C222  1  0.591800  0.038500  0.186300  1.0  0.0101
  C  C223  1  0.843500  0.606500  0.525800  1.0  -0.0728
  C  C224  1  0.854700  0.854600  0.892000  1.0  -0.074
  C  C225  1  0.359600  0.548800  0.827100  1.0  0.1526
  C  C226  1  0.345000  0.668200  0.375500  1.0  -0.1317
  C  C227  1  0.071100  0.410300  0.745400  1.0  -0.1409
  C  C228  1  0.328200  0.814400  0.557400  1.0  0.6807
  C  C229  1  0.784400  0.948200  0.110400  1.0  0.3991
  C  C230  1  0.450600  0.620600  0.778600  1.0  -0.0861
  C  C231  1  0.103930  0.552660  0.530770  1.0  -0.1563
  C  C232  1  0.291400  0.667400  0.467400  1.0  -0.079
  C  C233  1  0.998900  0.424100  0.750800  1.0  0.6178
  C  C234  1  0.648100  0.856900  0.699600  1.0  -0.1003
  C  C235  1  0.328600  0.562900  0.772800  1.0  0.2272
  C  C236  1  0.624700  0.122000  0.108100  1.0  -0.0188
  C  C237  1  0.229200  0.778600  0.600800  1.0  -0.0868
  C  C238  1  0.670700  0.905400  0.696500  1.0  -0.0825
  C  C239  1  0.598500  0.842000  0.052500  1.0  -0.1132
  C  C240  1  0.869600  0.586100  0.550100  1.0  -0.0577
  C  C241  1  0.711200  0.671500  0.649000  1.0  -0.1381
  C  C242  1  0.694300  0.407300  0.959300  1.0  0.0159
  C  C243  1  0.720500  0.375500  0.956300  1.0  -0.1334
  C  C244  1  0.504100  0.748400  0.090900  1.0  0.0822
  C  C245  1  0.541200  0.055700  0.243400  1.0  0.0525
  C  C246  1  0.395500  0.649300  0.699900  1.0  -0.0131
  C  C247  1  0.498100  0.957800  0.339900  1.0  -0.058
  C  C248  1  0.675010  0.520510  0.892780  1.0  -0.0357
  C  C249  1  0.801400  0.814400  0.852400  1.0  0.0202
  C  C250  1  0.836200  0.941400  0.948200  1.0  0.403
  C  C251  1  0.490400  0.664600  0.994800  1.0  -0.0589
  C  C252  1  0.309000  0.605600  0.705700  1.0  -0.086
  C  C253  1  0.565900  0.969100  0.533700  1.0  -0.063
  C  C254  1  0.821000  0.286200  0.740100  1.0  -0.0212
  C  C255  1  0.015300  0.307000  0.826300  1.0  -0.0708
  C  C256  1  0.014900  0.384800  0.773900  1.0  -0.1655
  C  C257  1  0.810800  0.624100  0.548800  1.0  0.1585
  C  C258  1  0.838000  0.339900  0.702300  1.0  -0.058
  C  C259  1  0.377100  0.728900  0.463500  1.0  0.461
  C  C260  1  0.200800  0.601600  0.476600  1.0  -0.1188
  C  C261  1  0.660800  0.844300  0.410300  1.0  -0.1363
  C  C262  1  0.841600  0.826300  0.866700  1.0  -0.0679
  C  C263  1  0.485500  0.700900  0.055700  1.0  0.0513
  C  C264  1  0.367200  0.696500  0.398100  1.0  -0.0843
  C  C265  1  0.574600  0.702200  0.911200  1.0  0.6423
  C  C266  1  0.773600  0.647300  0.606200  1.0  -0.0282
  C  C267  1  0.460500  0.660000  0.041500  1.0  -0.0816
  C  C268  1  0.595000  0.090900  0.160700  1.0  0.0825
  C  C269  1  0.816500  0.745400  0.844300  1.0  -0.1399
  C  C270  1  0.746700  0.892000  0.253400  1.0  -0.073
  C  C271  1  0.684800  0.684600  0.688800  1.0  0.5952
  C  C272  1  0.785200  0.926700  0.160300  1.0  -0.1407
  C  C273  1  0.293300  0.562600  0.752400  1.0  -0.1302
  C  C274  1  0.739000  0.870000  0.332500  1.0  0.0053
  C  C275  1  0.776700  0.159900  0.817800  1.0  -0.0502
  C  C276  1  0.596800  0.497200  0.969100  1.0  -0.0627
  C  C277  1  0.737400  0.086000  0.813500  1.0  -0.0774
  C  C278  1  0.071500  0.332500  0.797500  1.0  0.0038
  C  C279  1  0.054400  0.535900  0.578900  1.0  0.714
  C  C280  1  0.186700  0.827100  0.624100  1.0  0.1569
  C  C281  1  0.949400  0.209000  0.887600  1.0  0.0212
  C  C282  1  0.751700  0.072500  0.893000  1.0  0.6
  C  C283  1  0.154500  0.586710  0.520510  1.0  -0.0354
  C  C284  1  0.513800  0.628200  0.814400  1.0  0.6804
  C  C285  1  0.869000  0.797500  0.870000  1.0  0.007
  C  C286  1  0.540300  0.702300  0.957800  1.0  -0.0605
  C  C287  1  0.182700  0.782600  0.621300  1.0  -0.0277
  C  C288  1  0.987000  0.333200  0.814400  1.0  0.0169
  C  C289  1  0.749700  0.750800  0.825100  1.0  0.6183
  C  C290  1  0.000200  0.626600  0.684600  1.0  0.5949
  C  C291  1  0.648200  0.807600  0.728900  1.0  0.4646
  C  C292  1  0.145900  0.548560  0.453260  1.0  -0.082
  C  C293  1  0.196560  0.582520  0.442940  1.0  0.1796
  C  C294  1  0.791200  0.443500  0.856900  1.0  -0.1005
  C  C295  1  0.379800  0.606200  0.746500  1.0  -0.028
  C  C296  1  0.373600  0.688800  0.626600  1.0  0.5965
  C  C297  1  0.283500  0.863800  0.586100  1.0  -0.0552
  C  C298  1  0.534200  0.741800  0.020100  1.0  0.0387
  C  C299  1  0.633300  0.578900  0.885200  1.0  0.715
  C  C300  1  0.836200  0.938500  0.155900  1.0  -0.0712
  C  C301  1  0.126300  0.746500  0.647300  1.0  -0.0272
  C  C302  1  0.679200  0.034500  0.072500  1.0  0.5982
  C  C303  1  0.893900  0.847200  0.903800  1.0  0.1958
  C  C304  1  0.730700  0.685000  0.562600  1.0  -0.1291
  C  C305  1  0.714100  0.456100  0.908500  1.0  -0.0849
  C  C306  1  0.755700  0.160700  0.748400  1.0  0.0849
  C  C307  1  0.099500  0.384100  0.757000  1.0  -0.0654
  C  C308  1  0.765300  0.398100  0.905400  1.0  -0.0871
  C  C309  1  0.237000  0.867700  0.606500  1.0  -0.0732
  C  C310  1  0.630100  0.841300  0.384800  1.0  -0.1663
  C  C311  1  0.778100  0.186300  0.775200  1.0  0.0057
  C  C312  1  0.825800  0.340600  0.664600  1.0  -0.0603
  C  C313  1  0.099600  0.533700  0.497200  1.0  -0.0607
  C  C314  1  0.639500  0.442940  0.974540  1.0  0.1794
  C  C315  1  0.039700  0.679500  0.671500  1.0  -0.1408
  C  C316  1  0.651400  0.100500  0.086000  1.0  -0.0801
  C  C317  1  0.279600  0.819200  0.583200  1.0  -0.1711
  C  C318  1  0.708300  0.866700  0.307000  1.0  -0.0698
  C  C319  1  0.872400  0.386600  0.702200  1.0  0.6389
  C  C320  1  0.534800  0.973700  0.286200  1.0  -0.0236
  C  C321  1  0.837000  0.887600  0.903400  1.0  0.0214
  C  C322  1  0.460400  0.597600  0.819200  1.0  -0.171
  C  C323  1  0.715400  0.858900  0.384100  1.0  -0.0665
  C  C324  1  0.756500  0.105500  0.842000  1.0  -0.1158
  C  C325  1  0.653600  0.959300  0.633400  1.0  0.0153
  C  C326  1  0.788800  0.773900  0.841300  1.0  -0.165
  C  C327  1  0.784600  0.243400  0.700900  1.0  0.0532
  C  C328  1  0.622600  0.908500  0.635400  1.0  -0.0847
  C  C329  1  0.594500  0.817800  0.022300  1.0  -0.0534
  C  C330  1  0.599200  0.921800  0.601600  1.0  -0.1238
  C  C331  1  0.797700  0.903800  0.249000  1.0  0.1959
  C  C332  1  0.840600  0.463500  0.807600  1.0  0.4644
  C  C333  1  0.885600  0.557400  0.628200  1.0  0.681
  C  C334  1  0.897700  0.905600  0.938500  1.0  -0.07
  C  C335  1  0.000100  0.253400  0.854600  1.0  -0.0752
  C  C336  1  0.042700  0.200300  0.872600  1.0  -0.0548
  C  C337  1  0.614040  0.974540  0.582520  1.0  0.1784
  C  C338  1  0.014700  0.705700  0.688700  1.0  -0.0831
  C  C339  1  0.732800  0.108100  0.769900  1.0  -0.0193
  C  C340  1  0.502700  0.769900  0.122000  1.0  -0.0178
  C  C341  1  0.599160  0.453260  0.998180  1.0  -0.0826
  C  C342  1  0.369300  0.525800  0.867700  1.0  -0.0737
  C  C343  1  0.554300  0.020100  0.238100  1.0  0.0443
  C  C344  1  0.360200  0.649000  0.679500  1.0  -0.134
  C  C345  1  0.419700  0.550100  0.863800  1.0  -0.0592
  C  C346  1  0.518500  0.885200  0.535900  1.0  0.7144
  C  C347  1  0.485800  0.911200  0.386600  1.0  0.6387
  C  C348  1  0.746200  0.650800  0.649300  1.0  -0.0142
  C  C349  1  0.095400  0.699900  0.650800  1.0  -0.0146
  C  C350  1  0.101400  0.772800  0.664300  1.0  0.2269
  C  C351  1  0.567790  0.892780  0.586710  1.0  -0.0303
  C  C352  1  0.894800  0.110400  0.941400  1.0  0.3999
  C  C353  1  0.792400  0.238100  0.741800  1.0  0.0372
  C  C354  1  0.561100  0.740100  0.973700  1.0  -0.0238
  C  C355  1  0.992100  0.155900  0.905600  1.0  -0.0683
  C  C356  1  0.765700  0.664300  0.562900  1.0  0.2195
  C  C357  1  0.045700  0.752400  0.685000  1.0  -0.1284
  C  C358  1  0.856500  0.757000  0.858900  1.0  -0.0667
  C  C359  1  0.915300  0.872600  0.927100  1.0  -0.0569
  C  C360  1  0.485200  0.994800  0.340600  1.0  -0.0627
  C  C361  1  0.862800  0.583200  0.597600  1.0  -0.1716
  C  C362  1  0.046700  0.249000  0.847200  1.0  0.1945
  C  C363  1  0.703400  0.688700  0.605600  1.0  -0.0856
  C  C364  1  0.945500  0.160300  0.913000  1.0  -0.1388
  C  C365  1  0.634700  0.530770  0.916570  1.0  -0.1551
  C  C366  1  0.502000  0.041500  0.298500  1.0  -0.0823
  C  C367  1  0.644700  0.893000  0.034500  1.0  0.5988
  C  C368  1  0.676800  0.956300  0.668200  1.0  -0.1317
  C  C369  1  0.652300  0.300400  0.556500  1.0  -0.1017
  C  C370  1  0.999900  0.746600  0.145400  1.0  -0.0754
  C  C371  1  0.189200  0.375900  0.451200  1.0  0.1611
  C  C372  1  0.400800  0.078200  0.398400  1.0  -0.1235
  C  C373  1  0.179000  0.713800  0.259900  1.0  -0.0226
  C  C374  1  0.351900  0.143100  0.300400  1.0  -0.0992
  C  C375  1  0.320800  0.965500  0.927500  1.0  0.5995
  C  C376  1  0.425200  0.174900  0.575900  1.0  0.6185
  C  C377  1  0.434100  0.030900  0.466300  1.0  -0.0653
  C  C378  1  0.716500  0.136200  0.413900  1.0  -0.0565
  C  C379  1  0.626400  0.311200  0.373400  1.0  0.5955
  C  C380  1  0.315200  0.315400  0.311200  1.0  0.5943
  C  C381  1  0.244300  0.839300  0.251600  1.0  0.0807
  C  C382  1  0.054500  0.839700  0.087000  1.0  -0.1371
  C  C383  1  0.900400  0.466300  0.502800  1.0  -0.0627
  C  C384  1  0.630700  0.474200  0.132300  1.0  -0.0721
  C  C385  1  0.215400  0.756600  0.299100  1.0  0.0555
  C  C386  1  0.514800  0.005200  0.659400  1.0  -0.0632
  C  C387  1  0.481500  0.114800  0.464100  1.0  0.7159
  C  C388  1  0.323200  0.043700  0.331800  1.0  -0.1317
  C  C389  1  0.580300  0.449900  0.136200  1.0  -0.0594
  C  C390  1  0.691000  0.394400  0.294300  1.0  -0.0823
  C  C391  1  0.999800  0.373400  0.315400  1.0  0.5954
  C  C392  1  0.243500  0.894500  0.158000  1.0  -0.1159
  C  C393  1  0.262600  0.914000  0.186500  1.0  -0.0816
  C  C394  1  0.214800  0.073300  0.839700  1.0  -0.139
  C  C395  1  0.763000  0.132300  0.393500  1.0  -0.0712
  C  C396  1  0.620200  0.393800  0.253500  1.0  -0.0287
  C  C397  1  0.137200  0.416800  0.402400  1.0  -0.1723
  C  C398  1  0.346400  0.040700  0.366600  1.0  0.0134
  C  C399  1  0.355300  0.107000  0.965500  1.0  0.602
  C  C400  1  0.498000  0.958500  0.701500  1.0  -0.08
  C  C401  1  0.163800  0.058600  0.051800  1.0  0.4014
  C  C402  1  0.234300  0.335700  0.437100  1.0  0.2197
  C  C403  1  0.401500  0.158000  0.947500  1.0  -0.1151
  C  C404  1  0.162000  0.660100  0.297700  1.0  -0.0616
  C  C405  1  0.322600  0.523400  0.078200  1.0  -0.126
  C  C406  1  0.226400  0.352700  0.393800  1.0  -0.0279
  C  C407  1  0.170000  0.399200  0.379400  1.0  -0.0848
  C  C408  1  0.742000  0.364600  0.543900  1.0  -0.0859
  C  C409  1  0.465200  0.026300  0.713800  1.0  -0.0246
  C  C410  1  0.348600  0.899500  0.914000  1.0  -0.0824
  C  C411  1  0.385960  0.025460  0.417480  1.0  0.1803
  C  C412  1  0.127600  0.613400  0.297800  1.0  0.6365
  C  C413  1  0.207600  0.761900  0.258200  1.0  0.0388
  C  C414  1  0.960300  0.320500  0.328500  1.0  -0.139
  C  C415  1  0.183500  0.254600  0.155700  1.0  -0.139
  C  C416  1  0.215600  0.051800  0.889600  1.0  0.4005
  C  C417  1  0.928900  0.589700  0.254600  1.0  -0.1429
  C  C418  1  0.050600  0.791000  0.112400  1.0  0.0235
  C  C419  1  0.234700  0.601900  0.094600  1.0  -0.0892
  C  C420  1  0.329300  0.094600  0.303500  1.0  -0.086
  C  C421  1  0.845500  0.413290  0.479490  1.0  -0.037
  C  C422  1  0.873700  0.253500  0.352700  1.0  -0.0267
  C  C423  1  0.285900  0.543900  0.091500  1.0  -0.0868
  C  C424  1  0.984700  0.693000  0.173700  1.0  -0.0701
  C  C425  1  0.084700  0.127400  0.072900  1.0  -0.0572
  C  C426  1  0.305700  0.592700  0.040700  1.0  0.0142
  C  C427  1  0.953300  0.751000  0.152800  1.0  0.1958
  C  C428  1  0.671800  0.185600  0.442600  1.0  0.6807
  C  C429  1  0.495900  0.251600  0.909100  1.0  0.0816
  C  C430  1  0.366700  0.421100  0.114800  1.0  0.7136
  C  C431  1  0.141500  0.087000  0.073300  1.0  -0.1384
  C  C432  1  0.369900  0.158700  0.615200  1.0  -0.1662
  C  C433  1  0.514200  0.088800  0.613400  1.0  0.6383
  C  C434  1  0.400840  0.546740  0.001820  1.0  -0.0821
  C  C435  1  0.458800  0.944300  0.756600  1.0  0.0533
  C  C436  1  0.114400  0.442600  0.371800  1.0  0.681
  C  C437  1  0.445700  0.979900  0.761900  1.0  0.0403
  C  C438  1  0.449100  0.186500  0.899500  1.0  -0.0792
  C  C439  1  0.514500  0.299100  0.944300  1.0  0.0551
  C  C440  1  0.223300  0.840100  0.182200  1.0  -0.0499
  C  C441  1  0.102300  0.094400  0.061500  1.0  -0.0708
  C  C442  1  0.770800  0.221400  0.399200  1.0  -0.0908
  C  C443  1  0.405000  0.909100  0.839300  1.0  0.0767
  C  C444  1  0.365300  0.469230  0.083430  1.0  -0.1559
  C  C445  1  0.720400  0.180800  0.416800  1.0  -0.1717
  C  C446  1  0.163800  0.061500  0.844100  1.0  -0.0708
  C  C447  1  0.131000  0.202500  0.130000  1.0  0.0057
  C  C448  1  0.632800  0.303500  0.601900  1.0  -0.0865
  C  C449  1  0.202300  0.096200  0.751000  1.0  0.196
  C  C450  1  0.360500  0.557060  0.025460  1.0  0.1795
  C  C451  1  0.001100  0.575900  0.249200  1.0  0.6183
  C  C452  1  0.898600  0.227200  0.335700  1.0  0.2282
  C  C453  1  0.549400  0.379400  0.221400  1.0  -0.0872
  C  C454  1  0.928500  0.667500  0.202500  1.0  0.0027
  C  C455  1  0.432210  0.107220  0.413290  1.0  -0.0321
  C  C456  1  0.375300  0.878000  0.891900  1.0  -0.018
  C  C457  1  0.143500  0.243000  0.141100  1.0  -0.0652
  C  C458  1  0.655000  0.331800  0.624500  1.0  -0.1345
  C  C459  1  0.250300  0.249200  0.174900  1.0  0.6185
  C  C460  1  0.267200  0.891900  0.230100  1.0  -0.0183
  C  C461  1  0.403200  0.502800  0.030900  1.0  -0.0665
  C  C462  1  0.957300  0.799700  0.127400  1.0  -0.0538
  C  C463  1  0.501900  0.042200  0.660100  1.0  -0.0591
  C  C464  1  0.346200  0.147600  0.666800  1.0  0.0164
  C  C465  1  0.803440  0.417480  0.557060  1.0  0.1794
  C  C466  1  0.284600  0.141100  0.615900  1.0  -0.0661
  C  C467  1  0.985100  0.615200  0.226100  1.0  -0.1664
  C  C468  1  0.248300  0.927500  0.107000  1.0  0.5975
  C  C469  1  0.163000  0.112400  0.096600  1.0  0.0229
  C  C470  1  0.486200  0.371800  0.185600  1.0  0.6799
  C  C471  1  0.945600  0.464100  0.421100  1.0  0.7151
  C  C472  1  0.985300  0.294300  0.311300  1.0  -0.0814
  C  C473  1  0.813300  0.172900  0.375900  1.0  0.1544
  C  C474  1  0.253300  0.108000  0.746600  1.0  -0.0747
  C  C475  1  0.351800  0.192400  0.271100  1.0  0.4641
  C  C476  1  0.159400  0.536500  0.192400  1.0  0.464
  C  C477  1  0.288800  0.328500  0.351000  1.0  -0.1393
  C  C478  1  0.105200  0.889600  0.058600  1.0  0.4029
  C  C479  1  0.383200  0.977700  0.840100  1.0  -0.0521
  C  C480  1  0.706700  0.437400  0.247600  1.0  -0.1299
  C  C481  1  0.854100  0.451440  0.546740  1.0  -0.0834
  C  C482  1  0.106100  0.152800  0.096200  1.0  0.1947
  C  C483  1  0.799200  0.398400  0.523400  1.0  -0.1199
  C  C484  1  0.900500  0.615900  0.243000  1.0  -0.0662
  C  C485  1  0.622900  0.271100  0.536500  1.0  0.4647
  C  C486  1  0.279500  0.624500  0.043700  1.0  -0.1342
  C  C487  1  0.376000  0.134800  0.332600  1.0  -0.0808
  C  C488  1  0.438900  0.259900  0.026300  1.0  -0.0198
  C  C489  1  0.158400  0.173700  0.133300  1.0  -0.0702
  C  C490  1  0.339200  0.155700  0.589700  1.0  -0.1388
  C  C491  1  0.599900  0.403900  0.217400  1.0  -0.0325
  C  C492  1  0.349000  0.947500  0.894500  1.0  -0.1172
  C  C493  1  0.509600  0.335400  0.005200  1.0  -0.0599
  C  C494  1  0.539600  0.402400  0.180800  1.0  -0.1719
  C  C495  1  0.198600  0.185600  0.147600  1.0  0.0143
  C  C496  1  0.708600  0.332600  0.532600  1.0  -0.0799
  C  C497  1  0.269300  0.315000  0.437400  1.0  -0.128
  C  C498  1  0.408200  0.961500  0.813700  1.0  0.0069
  C  C499  1  0.241200  0.532600  0.134800  1.0  -0.0808
  C  C500  1  0.007900  0.844100  0.094400  1.0  -0.0689
  C  C501  1  0.671400  0.437100  0.227200  1.0  0.2282
  C  C502  1  0.130400  0.413900  0.449900  1.0  -0.0587
  C  C503  1  0.377400  0.091500  0.364600  1.0  -0.0863
  C  C504  1  0.405500  0.182200  0.977700  1.0  -0.05
  C  C505  1  0.402660  0.001820  0.451440  1.0  -0.083
  C  C506  1  0.253800  0.349200  0.350700  1.0  -0.015
  C  C507  1  0.539500  0.340000  0.958500  1.0  -0.0821
  C  C508  1  0.896070  0.447340  0.469230  1.0  -0.157
  C  C509  1  0.954300  0.247600  0.315000  1.0  -0.1291
  C  C510  1  0.211200  0.226100  0.158700  1.0  -0.1648
  C  C511  1  0.425400  0.297800  0.088800  1.0  0.6415
  C  C512  1  0.640400  0.451200  0.172900  1.0  0.1547
  C  C513  1  0.157600  0.072900  0.799700  1.0  -0.0534
  C  C514  1  0.221900  0.813700  0.224800  1.0  0.0094
  C  C515  1  0.446700  0.224800  0.961500  1.0  0.0064
  C  C516  1  0.296600  0.311300  0.394400  1.0  -0.0836
  C  C517  1  0.259600  0.096600  0.791000  1.0  0.0218
  C  C518  1  0.145300  0.145400  0.108000  1.0  -0.0751
  C  C519  1  0.448730  0.083430  0.447340  1.0  -0.1549
  C  C520  1  0.604500  0.350700  0.300100  1.0  -0.0121
  C  C521  1  0.199500  0.701500  0.340000  1.0  -0.0812
  C  C522  1  0.324990  0.479490  0.107220  1.0  -0.034
  C  C523  1  0.497300  0.230100  0.878000  1.0  -0.0173
  C  C524  1  0.196000  0.378700  0.403900  1.0  -0.0278
  C  C525  1  0.817300  0.217400  0.378700  1.0  -0.0329
  C  C526  1  0.156500  0.393500  0.474200  1.0  -0.0732
  C  C527  1  0.465800  0.258200  0.979900  1.0  0.0399
  C  C528  1  0.208800  0.556500  0.143100  1.0  -0.1002
  C  C529  1  0.713000  0.366600  0.592700  1.0  0.0138
  C  C530  1  0.904600  0.300100  0.349200  1.0  -0.0154
  C  C531  1  0.459700  0.297700  0.042200  1.0  -0.06
  C  C532  1  0.639800  0.351000  0.320500  1.0  -0.1346
  C  C533  1  0.013000  0.666800  0.185600  1.0  0.0179
  C  C534  1  0.261000  0.130000  0.667500  1.0  0.0043
  C  C535  1  0.291700  0.133300  0.693000  1.0  -0.0694
  C  C536  1  0.174200  0.659400  0.335400  1.0  -0.0599
  N  N537  1  0.566100  0.096300  0.194300  1.0  -0.3417
  N  N538  1  0.095000  0.294200  0.804800  1.0  -0.3103
  N  N539  1  0.246000  0.601700  0.403500  1.0  -0.2367
  N  N540  1  0.321200  0.526600  0.815100  1.0  -0.1925
  N  N541  1  0.899800  0.804800  0.901000  1.0  -0.312
  N  N542  1  0.760400  0.194300  0.709400  1.0  -0.3393
  N  N543  1  0.136300  0.815100  0.658300  1.0  -0.1916
  N  N544  1  0.649500  0.403500  0.994800  1.0  -0.2394
  N  N545  1  0.469800  0.709400  0.096300  1.0  -0.345
  N  N546  1  0.800800  0.901000  0.294200  1.0  -0.3122
  N  N547  1  0.644300  0.994800  0.601700  1.0  -0.2332
  N  N548  1  0.794600  0.658300  0.526600  1.0  -0.1214
  N  N549  1  0.754000  0.398300  0.596500  1.0  -0.2378
  N  N550  1  0.239600  0.805700  0.290600  1.0  -0.3424
  N  N551  1  0.863700  0.184900  0.341700  1.0  -0.1951
  N  N552  1  0.678800  0.473400  0.184900  1.0  -0.1919
  N  N553  1  0.350500  0.596500  0.005200  1.0  -0.237
  N  N554  1  0.530200  0.290600  0.903700  1.0  -0.3449
  N  N555  1  0.199200  0.099000  0.705800  1.0  -0.3116
  N  N556  1  0.100200  0.195200  0.099000  1.0  -0.3118
  N  N557  1  0.905000  0.705800  0.195200  1.0  -0.3089
  N  N558  1  0.433900  0.903700  0.805700  1.0  -0.3447
  N  N559  1  0.355700  0.005200  0.398300  1.0  -0.2367
  N  N560  1  0.205400  0.341700  0.473400  1.0  -0.1203
  O  O561  1  0.949600  0.602800  0.706400  1.0  -0.5697
  O  O562  1  0.799600  0.950300  0.930400  1.0  -0.6359
  O  O563  1  0.543000  0.815000  0.402000  1.0  -0.5943
  O  O564  1  0.889100  0.424700  0.660500  1.0  -0.5852
  O  O565  1  0.444800  0.801200  0.498900  1.0  -1.1172
  O  O566  1  0.772100  0.096800  0.909800  1.0  -0.5704
  O  O567  1  0.663700  0.818800  0.757800  1.0  -0.6201
  O  O568  1  0.943700  0.498900  0.699900  1.0  -1.1176
  O  O569  1  0.488100  0.876900  0.378700  1.0  -0.5699
  O  O570  1  0.852300  0.963900  0.965000  1.0  -0.5756
  O  O571  1  0.945000  0.402000  0.783000  1.0  -0.5904
  O  O572  1  0.849300  0.502600  0.779500  1.0  -0.5866
  O  O573  1  0.495500  0.904900  0.512600  1.0  -0.6108
  O  O574  1  0.514300  0.843700  0.546800  1.0  -0.6091
  O  O575  1  0.326300  0.774500  0.558000  1.0  -0.6354
  O  O576  1  0.346700  0.717900  0.502600  1.0  -0.5855
  O  O577  1  0.817300  0.965000  0.071100  1.0  -0.5702
  O  O578  1  0.560700  0.822700  0.465200  1.0  -0.5508
  O  O579  1  0.913500  0.539000  0.606200  1.0  -0.6012
  O  O580  1  0.675300  0.993400  0.096800  1.0  -0.5682
  O  O581  1  0.888400  0.071100  0.963900  1.0  -0.5728
  O  O582  1  0.643600  0.699900  0.801200  1.0  -1.1173
  O  O583  1  0.611200  0.744400  0.876900  1.0  -0.5721
  O  O584  1  0.681900  0.909800  0.993400  1.0  -0.5674
  O  O585  1  0.628800  0.779500  0.717900  1.0  -0.5878
  O  O586  1  0.656000  0.706400  0.690800  1.0  -0.5673
  O  O587  1  0.670600  0.609500  0.843700  1.0  -0.6104
  O  O588  1  0.590600  0.582500  0.904900  1.0  -0.6083
  O  O589  1  0.519700  0.606200  0.854800  1.0  -0.6019
  O  O590  1  0.008100  0.512600  0.582500  1.0  -0.609
  O  O591  1  0.420000  0.729000  0.610100  1.0  -0.6818
  O  O592  1  0.766870  0.000000  0.000000  1.0  -1.1757
  O  O593  1  0.844900  0.423400  0.818800  1.0  -0.6251
  O  O594  1  0.649200  0.899200  0.073700  1.0  -0.618
  O  O595  1  0.346800  0.690800  0.602800  1.0  -0.5698
  O  O596  1  0.691000  0.660900  0.729000  1.0  -0.6844
  O  O597  1  0.061100  0.546800  0.609500  1.0  -0.607
  O  O598  1  0.549600  0.660500  0.914800  1.0  -0.5845
  O  O599  1  0.722900  0.073700  0.027100  1.0  -0.6159
  O  O600  1  0.866800  0.378700  0.744400  1.0  -0.5705
  O  O601  1  0.738000  0.712100  0.822700  1.0  -0.5511
  O  O602  1  0.025900  0.465200  0.712100  1.0  -0.5514
  O  O603  1  0.374500  0.854800  0.539000  1.0  -0.6012
  O  O604  1  0.551800  0.667500  0.774500  1.0  -0.6356
  O  O605  1  0.750000  0.027100  0.899200  1.0  -0.6114
  O  O606  1  0.728000  0.783000  0.815000  1.0  -0.5905
  O  O607  1  0.030100  0.610100  0.660900  1.0  -0.682
  O  O608  1  0.464400  0.914800  0.424700  1.0  -0.5821
  O  O609  1  0.730000  0.930400  0.119300  1.0  -0.6364
  O  O610  1  0.884300  0.558000  0.667500  1.0  -0.6317
  O  O611  1  0.421500  0.757800  0.423400  1.0  -0.6238
  O  O612  1  0.849300  0.119300  0.950300  1.0  -0.6343
  O  O613  1  0.147700  0.036100  0.035000  1.0  -0.5752
  O  O614  1  0.969900  0.389900  0.339100  1.0  -0.6833
  O  O615  1  0.356400  0.300100  0.198800  1.0  -1.1171
  O  O616  1  0.227900  0.903200  0.090200  1.0  -0.5692
  O  O617  1  0.324700  0.006600  0.903200  1.0  -0.569
  O  O618  1  0.439300  0.177300  0.534800  1.0  -0.5512
  O  O619  1  0.055000  0.598000  0.217000  1.0  -0.5926
  O  O620  1  0.535600  0.085200  0.575300  1.0  -0.5825
  O  O621  1  0.233130  0.000000  0.000000  1.0  -1.1761
  O  O622  1  0.409400  0.417500  0.095100  1.0  -0.6089
  O  O623  1  0.371200  0.220500  0.282100  1.0  -0.5868
  O  O624  1  0.344000  0.293600  0.309200  1.0  -0.5697
  O  O625  1  0.504500  0.095100  0.487400  1.0  -0.6092
  O  O626  1  0.350800  0.100800  0.926300  1.0  -0.6152
  O  O627  1  0.250000  0.972900  0.100800  1.0  -0.6131
  O  O628  1  0.450400  0.339500  0.085200  1.0  -0.5849
  O  O629  1  0.272000  0.217000  0.185000  1.0  -0.5904
  O  O630  1  0.580000  0.271000  0.389900  1.0  -0.6856
  O  O631  1  0.974100  0.534800  0.287900  1.0  -0.55
  O  O632  1  0.578500  0.242200  0.576600  1.0  -0.6236
  O  O633  1  0.457000  0.185000  0.598000  1.0  -0.5946
  O  O634  1  0.329400  0.390500  0.156300  1.0  -0.6105
  O  O635  1  0.050400  0.397200  0.293600  1.0  -0.5691
  O  O636  1  0.388800  0.255600  0.123100  1.0  -0.571
  O  O637  1  0.309000  0.339100  0.271000  1.0  -0.6852
  O  O638  1  0.511900  0.123100  0.621300  1.0  -0.5703
  O  O639  1  0.110900  0.575300  0.339500  1.0  -0.5839
  O  O640  1  0.086500  0.461000  0.393800  1.0  -0.6001
  O  O641  1  0.182700  0.035000  0.928900  1.0  -0.5698
  O  O642  1  0.318100  0.090200  0.006600  1.0  -0.5677
  O  O643  1  0.673700  0.225500  0.442000  1.0  -0.6379
  O  O644  1  0.056300  0.501100  0.300100  1.0  -1.1173
  O  O645  1  0.653300  0.282100  0.497400  1.0  -0.586
  O  O646  1  0.485700  0.156300  0.453200  1.0  -0.6104
  O  O647  1  0.336300  0.181200  0.242200  1.0  -0.6202
  O  O648  1  0.653200  0.309200  0.397200  1.0  -0.5697
  O  O649  1  0.448200  0.332500  0.225500  1.0  -0.6346
  O  O650  1  0.938900  0.453200  0.390500  1.0  -0.608
  O  O651  1  0.262000  0.287900  0.177300  1.0  -0.5524
  O  O652  1  0.270000  0.069600  0.880700  1.0  -0.6351
  O  O653  1  0.555200  0.198800  0.501100  1.0  -1.1163
  O  O654  1  0.133200  0.621300  0.255600  1.0  -0.5673
  O  O655  1  0.480300  0.393800  0.145200  1.0  -0.6036
  O  O656  1  0.200400  0.049700  0.069600  1.0  -0.6351
  O  O657  1  0.150700  0.880700  0.049700  1.0  -0.6341
  O  O658  1  0.111600  0.928900  0.036100  1.0  -0.5742
  O  O659  1  0.155100  0.576600  0.181200  1.0  -0.6227
  O  O660  1  0.150700  0.497400  0.220500  1.0  -0.5865
  O  O661  1  0.277100  0.926300  0.972900  1.0  -0.6169
  O  O662  1  0.115700  0.442000  0.332500  1.0  -0.6299
  O  O663  1  0.625500  0.145200  0.461000  1.0  -0.6021
  O  O664  1  0.991900  0.487400  0.417500  1.0  -0.6084
