# generated using pymatgen
data_MnH8C17(O2F3)2
_symmetry_space_group_name_H-M   'P 1'
_cell_length_a   10.50270000
_cell_length_b   20.82870000
_cell_length_c   20.82870000
_cell_angle_alpha   86.35560000
_cell_angle_beta   75.39690000
_cell_angle_gamma   75.39710000
_symmetry_Int_Tables_number   1
_chemical_formula_structural   MnH8C17(O2F3)2
_chemical_formula_sum   'Mn8 H64 C136 O32 F48'
_cell_volume   4266.80853949
_cell_formula_units_Z   8
loop_
 _symmetry_equiv_pos_site_id
 _symmetry_equiv_pos_as_xyz
  1  'x, y, z'
loop_
 _atom_site_type_symbol
 _atom_site_label
 _atom_site_symmetry_multiplicity
 _atom_site_fract_x
 _atom_site_fract_y
 _atom_site_fract_z
 _atom_site_occupancy
 _atom_site_charge
  Mn  Mn1  1  0.054140  0.723480  0.186000  1.0  1.0607
  Mn  Mn2  1  0.759860  0.186000  0.776520  1.0  1.0591
  Mn  Mn3  1  0.463620  0.776520  0.314000  1.0  1.0612
  Mn  Mn4  1  0.222380  0.314000  0.723480  1.0  1.059
  Mn  Mn5  1  0.945860  0.276520  0.814000  1.0  1.0583
  Mn  Mn6  1  0.240140  0.814000  0.223480  1.0  1.058
  Mn  Mn7  1  0.536380  0.223480  0.686000  1.0  1.0625
  Mn  Mn8  1  0.777620  0.686000  0.276520  1.0  1.0594
  H  H9  1  0.884900  0.873100  0.134700  1.0  0.102
  H  H10  1  0.649100  0.023500  0.597100  1.0  0.1165
  H  H11  1  0.475100  0.515600  0.383200  1.0  0.1081
  H  H12  1  0.888100  0.168100  0.115100  1.0  0.1043
  H  H13  1  0.126100  0.015600  0.883200  1.0  0.1088
  H  H14  1  0.980400  0.134700  0.626900  1.0  0.1016
  H  H15  1  0.392700  0.626900  0.365300  1.0  0.1022
  H  H16  1  0.404900  0.222300  0.029300  1.0  0.1115
  H  H17  1  0.056200  0.615100  0.831900  1.0  0.1049
  H  H18  1  0.629200  0.296100  0.492300  1.0  0.1155
  H  H19  1  0.843500  0.722300  0.529300  1.0  0.1107
  H  H20  1  0.372800  0.470700  0.222300  1.0  0.1118
  H  H21  1  0.996800  0.115100  0.331900  1.0  0.1041
  H  H22  1  0.943800  0.384900  0.168100  1.0  0.1042
  H  H23  1  0.246200  0.402900  0.523500  1.0  0.1155
  H  H24  1  0.874100  0.702700  0.417900  1.0  0.1122
  H  H25  1  0.725000  0.915000  0.562400  1.0  0.1213
  H  H26  1  0.672600  0.097100  0.976500  1.0  0.1169
  H  H27  1  0.121500  0.507700  0.796100  1.0  0.1155
  H  H28  1  0.082400  0.796100  0.992300  1.0  0.1157
  H  H29  1  0.494700  0.797300  0.082100  1.0  0.1125
  H  H30  1  0.009300  0.116800  0.515600  1.0  0.1074
  H  H31  1  0.524900  0.484400  0.616800  1.0  0.1076
  H  H32  1  0.873900  0.984400  0.116800  1.0  0.109
  H  H33  1  0.141700  0.383200  0.984400  1.0  0.109
  H  H34  1  0.627200  0.529300  0.777700  1.0  0.1119
  H  H35  1  0.327400  0.902900  0.023500  1.0  0.1171
  H  H36  1  0.003200  0.884900  0.668100  1.0  0.1046
  H  H37  1  0.712600  0.562400  0.585000  1.0  0.121
  H  H38  1  0.156500  0.277700  0.470700  1.0  0.1115
  H  H39  1  0.019600  0.865300  0.373100  1.0  0.1022
  H  H40  1  0.423200  0.082100  0.702700  1.0  0.1124
  H  H41  1  0.576800  0.917900  0.297300  1.0  0.1124
  H  H42  1  0.925300  0.992300  0.703900  1.0  0.1171
  H  H43  1  0.287400  0.437600  0.415000  1.0  0.1219
  H  H44  1  0.858300  0.616800  0.015600  1.0  0.1087
  H  H45  1  0.350900  0.976500  0.402900  1.0  0.1168
  H  H46  1  0.990700  0.883200  0.484400  1.0  0.1085
  H  H47  1  0.702400  0.585000  0.937600  1.0  0.1222
  H  H48  1  0.125900  0.297300  0.582100  1.0  0.1117
  H  H49  1  0.434200  0.970700  0.722300  1.0  0.111
  H  H50  1  0.607300  0.373100  0.634700  1.0  0.102
  H  H51  1  0.230300  0.523500  0.097100  1.0  0.1172
  H  H52  1  0.640000  0.062400  0.085000  1.0  0.1226
  H  H53  1  0.297600  0.415000  0.062400  1.0  0.1213
  H  H54  1  0.111900  0.831900  0.884900  1.0  0.1044
  H  H55  1  0.753800  0.597100  0.476500  1.0  0.1158
  H  H56  1  0.878500  0.492300  0.203900  1.0  0.1168
  H  H57  1  0.595100  0.777700  0.970700  1.0  0.1105
  H  H58  1  0.769700  0.476500  0.902900  1.0  0.1164
  H  H59  1  0.292000  0.582100  0.202700  1.0  0.1139
  H  H60  1  0.275000  0.085000  0.437600  1.0  0.1215
  H  H61  1  0.758000  0.634700  0.126900  1.0  0.1017
  H  H62  1  0.074700  0.007700  0.296100  1.0  0.1174
  H  H63  1  0.370800  0.703900  0.507700  1.0  0.1162
  H  H64  1  0.565800  0.029300  0.277700  1.0  0.1116
  H  H65  1  0.505300  0.202700  0.917900  1.0  0.1116
  H  H66  1  0.328700  0.668100  0.615100  1.0  0.1042
  H  H67  1  0.360000  0.937600  0.915000  1.0  0.1228
  H  H68  1  0.671300  0.331900  0.384900  1.0  0.1053
  H  H69  1  0.917600  0.203900  0.007700  1.0  0.1158
  H  H70  1  0.708000  0.417900  0.797300  1.0  0.1133
  H  H71  1  0.115100  0.126900  0.865300  1.0  0.1022
  H  H72  1  0.242000  0.365300  0.873100  1.0  0.1022
  C  C73  1  0.667910  0.611810  0.504370  1.0  -0.0354
  C  C74  1  0.264990  0.116580  0.780840  1.0  -0.1195
  C  C75  1  0.240190  0.888070  0.888150  1.0  0.0791
  C  C76  1  0.592450  0.679260  0.410440  1.0  0.7279
  C  C77  1  0.947420  0.221640  0.398720  1.0  0.6946
  C  C78  1  0.438710  0.529030  0.346750  1.0  -0.1072
  C  C79  1  0.720030  0.018370  0.195770  1.0  0.0601
  C  C80  1  0.821870  0.904320  0.164140  1.0  -0.0413
  C  C81  1  0.817880  0.686180  0.907460  1.0  -0.311
  C  C82  1  0.115170  0.022960  0.324900  1.0  -0.0061
  C  C83  1  0.212660  0.430530  0.090950  1.0  -0.1346
  C  C84  1  0.036970  0.522960  0.824900  1.0  -0.0055
  C  C85  1  0.362530  0.069020  0.738720  1.0  -0.0287
  C  C86  1  0.725340  0.092540  0.186180  1.0  -0.3112
  C  C87  1  0.221380  0.980080  0.345760  1.0  -0.11
  C  C88  1  0.568450  0.761280  0.069020  1.0  -0.0249
  C  C89  1  0.997600  0.587380  0.846020  1.0  -0.1501
  C  C90  1  0.279720  0.004370  0.388190  1.0  -0.0354
  C  C91  1  0.052580  0.778360  0.601280  1.0  0.6908
  C  C92  1  0.440070  0.675100  0.522960  1.0  -0.0067
  C  C93  1  0.561290  0.470970  0.653250  1.0  -0.1128
  C  C94  1  0.670270  0.430980  0.761280  1.0  -0.0282
  C  C95  1  0.128260  0.388150  0.111930  1.0  0.0785
  C  C96  1  0.715910  0.111810  0.004370  1.0  -0.0337
  C  C97  1  0.986010  0.835860  0.404320  1.0  -0.0412
  C  C98  1  0.759810  0.111930  0.111850  1.0  0.084
  C  C99  1  0.963030  0.477040  0.175100  1.0  -0.0063
  C  C100  1  0.047220  0.519920  0.154240  1.0  -0.1097
  C  C101  1  0.271710  0.910440  0.320740  1.0  0.7276
  C  C102  1  0.696390  0.090950  0.069470  1.0  -0.1319
  C  C103  1  0.705280  0.312130  0.734710  1.0  0.6564
  C  C104  1  0.785460  0.653250  0.029030  1.0  -0.1137
  C  C105  1  0.182120  0.313820  0.092540  1.0  -0.3108
  C  C106  1  0.178130  0.095680  0.835860  1.0  -0.0399
  C  C107  1  0.560010  0.734710  0.187870  1.0  0.6562
  C  C108  1  0.516410  0.611930  0.611850  1.0  0.0841
  C  C109  1  0.067780  0.278360  0.101280  1.0  0.6946
  C  C110  1  0.555030  0.639390  0.717950  1.0  0.6974
  C  C111  1  0.567140  0.654240  0.480080  1.0  -0.1125
  C  C112  1  0.138130  0.824900  0.977040  1.0  -0.0052
  C  C113  1  0.279970  0.981630  0.804230  1.0  0.0604
  C  C114  1  0.817850  0.179260  0.910440  1.0  0.7283
  C  C115  1  0.565830  0.518370  0.695770  1.0  0.0601
  C  C116  1  0.329730  0.569020  0.238720  1.0  -0.0282
  C  C117  1  0.101250  0.261280  0.569020  1.0  -0.0261
  C  C118  1  0.747880  0.812130  0.234710  1.0  0.6558
  C  C119  1  0.982590  0.765290  0.312130  1.0  0.656
  C  C120  1  0.495940  0.592540  0.686180  1.0  -0.3112
  C  C121  1  0.337590  0.616580  0.280840  1.0  -0.1207
  C  C122  1  0.735010  0.883420  0.219160  1.0  -0.1199
  C  C123  1  0.628710  0.749360  0.002220  1.0  -0.1463
  C  C124  1  0.434170  0.481630  0.304230  1.0  0.0605
  C  C125  1  0.843620  0.153980  0.087380  1.0  -0.1508
  C  C126  1  0.952780  0.480080  0.845760  1.0  -0.11
  C  C127  1  0.778620  0.019920  0.654240  1.0  -0.1096
  C  C128  1  0.252120  0.187870  0.765290  1.0  0.6556
  C  C129  1  0.261600  0.304230  0.018370  1.0  0.0599
  C  C130  1  0.827720  0.504370  0.888190  1.0  -0.0323
  C  C131  1  0.798540  0.154240  0.980080  1.0  -0.1132
  C  C132  1  0.805580  0.782050  0.639390  1.0  0.7022
  C  C133  1  0.381570  0.280840  0.883420  1.0  -0.1208
  C  C134  1  0.272980  0.282050  0.139390  1.0  0.7012
  C  C135  1  0.884830  0.977040  0.675100  1.0  -0.0071
  C  C136  1  0.234140  0.069470  0.409050  1.0  -0.1294
  C  C137  1  0.618430  0.719160  0.116580  1.0  -0.1206
  C  C138  1  0.273810  0.335860  0.904320  1.0  -0.0391
  C  C139  1  0.084200  0.195770  0.481630  1.0  0.0592
  C  C140  1  0.871740  0.611850  0.888070  1.0  0.0841
  C  C141  1  0.880290  0.750640  0.497780  1.0  -0.1414
  C  C142  1  0.483590  0.388070  0.388150  1.0  0.0836
  C  C143  1  0.032260  0.153250  0.529030  1.0  -0.1197
  C  C144  1  0.119710  0.249360  0.502220  1.0  -0.1407
  C  C145  1  0.559930  0.324900  0.477040  1.0  -0.0068
  C  C146  1  0.787340  0.569470  0.909050  1.0  -0.1294
  C  C147  1  0.201460  0.845760  0.019920  1.0  -0.1138
  C  C148  1  0.194420  0.217950  0.360610  1.0  0.694
  C  C149  1  0.637470  0.930980  0.261280  1.0  -0.0271
  C  C150  1  0.444970  0.360610  0.282050  1.0  0.7009
  C  C151  1  0.630930  0.997780  0.249360  1.0  -0.1433
  C  C152  1  0.898750  0.738720  0.430980  1.0  -0.0255
  C  C153  1  0.284090  0.888190  0.995630  1.0  -0.0374
  C  C154  1  0.861870  0.175100  0.022960  1.0  -0.0054
  C  C155  1  0.182150  0.820740  0.089560  1.0  0.7325
  C  C156  1  0.045830  0.219160  0.616580  1.0  -0.1203
  C  C157  1  0.954170  0.780840  0.383420  1.0  -0.1212
  C  C158  1  0.931000  0.912620  0.653980  1.0  -0.1506
  C  C159  1  0.439990  0.265290  0.812130  1.0  0.6597
  C  C160  1  0.621930  0.497780  0.749360  1.0  -0.1379
  C  C161  1  0.738400  0.695770  0.981630  1.0  0.0594
  C  C162  1  0.356810  0.409050  0.430530  1.0  -0.1359
  C  C163  1  0.002400  0.412620  0.153980  1.0  -0.1552
  C  C164  1  0.390330  0.595680  0.335860  1.0  -0.042
  C  C165  1  0.346140  0.601280  0.721640  1.0  0.6911
  C  C166  1  0.643190  0.590950  0.569470  1.0  -0.1298
  C  C167  1  0.720280  0.995630  0.611810  1.0  -0.0353
  C  C168  1  0.088480  0.186180  0.407460  1.0  -0.3112
  C  C169  1  0.932220  0.721640  0.898720  1.0  0.6931
  C  C170  1  0.432860  0.345760  0.519920  1.0  -0.1129
  C  C171  1  0.013990  0.164140  0.595680  1.0  -0.0433
  C  C172  1  0.504060  0.407460  0.313820  1.0  -0.311
  C  C173  1  0.002890  0.589560  0.179260  1.0  0.726
  C  C174  1  0.915800  0.804230  0.518370  1.0  0.0595
  C  C175  1  0.911520  0.813820  0.592540  1.0  -0.311
  C  C176  1  0.871660  0.888150  0.611930  1.0  0.0785
  C  C177  1  0.371290  0.250640  0.997780  1.0  -0.1418
  C  C178  1  0.584980  0.346020  0.412620  1.0  -0.151
  C  C179  1  0.727020  0.717950  0.860610  1.0  0.7009
  C  C180  1  0.156380  0.846020  0.912620  1.0  -0.155
  C  C181  1  0.728290  0.089560  0.679260  1.0  0.7261
  C  C182  1  0.609670  0.404320  0.664140  1.0  -0.0404
  C  C183  1  0.169060  0.898720  0.778360  1.0  0.6939
  C  C184  1  0.431550  0.238720  0.930980  1.0  -0.0258
  C  C185  1  0.653860  0.398720  0.278360  1.0  0.6914
  C  C186  1  0.185510  0.029030  0.846750  1.0  -0.1077
  C  C187  1  0.369070  0.002220  0.750640  1.0  -0.1395
  C  C188  1  0.662410  0.383420  0.719160  1.0  -0.1205
  C  C189  1  0.303610  0.909050  0.930530  1.0  -0.1363
  C  C190  1  0.294720  0.687870  0.265290  1.0  0.6579
  C  C191  1  0.814490  0.970970  0.153250  1.0  -0.1093
  C  C192  1  0.172280  0.495630  0.111810  1.0  -0.0339
  C  C193  1  0.214540  0.346750  0.970970  1.0  -0.1153
  C  C194  1  0.997110  0.410440  0.820740  1.0  0.7269
  C  C195  1  0.765860  0.930530  0.590950  1.0  -0.1358
  C  C196  1  0.967740  0.846750  0.470970  1.0  -0.1142
  C  C197  1  0.274660  0.907460  0.813820  1.0  -0.311
  C  C198  1  0.407550  0.320740  0.589560  1.0  0.7321
  C  C199  1  0.830940  0.101280  0.221640  1.0  0.6894
  C  C200  1  0.332090  0.388190  0.495630  1.0  -0.0338
  C  C201  1  0.128340  0.111850  0.388070  1.0  0.0839
  C  C202  1  0.726190  0.664140  0.095680  1.0  -0.0383
  C  C203  1  0.069000  0.087380  0.346020  1.0  -0.1507
  C  C204  1  0.415020  0.653980  0.587380  1.0  -0.1515
  C  C205  1  0.017410  0.234710  0.687870  1.0  0.6561
  C  C206  1  0.587630  0.139390  0.217950  1.0  0.6981
  C  C207  1  0.378070  0.502220  0.250640  1.0  -0.1415
  C  C208  1  0.412370  0.860610  0.782050  1.0  0.6964
  O  O209  1  0.231990  0.844270  0.128550  1.0  -0.5977
  O  O210  1  0.220810  0.895550  0.276830  1.0  -0.6142
  O  O211  1  0.036940  0.288280  0.704760  1.0  -0.6753
  O  O212  1  0.258300  0.704760  0.211720  1.0  -0.6743
  O  O213  1  0.963060  0.711720  0.295240  1.0  -0.6753
  O  O214  1  0.923740  0.371450  0.844270  1.0  -0.5964
  O  O215  1  0.076260  0.628550  0.155730  1.0  -0.5958
  O  O216  1  0.704810  0.655730  0.371450  1.0  -0.5958
  O  O217  1  0.502360  0.276830  0.604450  1.0  -0.6136
  O  O218  1  0.106810  0.395550  0.776830  1.0  -0.6141
  O  O219  1  0.674780  0.795240  0.288280  1.0  -0.6742
  O  O220  1  0.116360  0.776830  0.104450  1.0  -0.6128
  O  O221  1  0.398820  0.304250  0.768250  1.0  -0.624
  O  O222  1  0.768010  0.155730  0.871450  1.0  -0.5961
  O  O223  1  0.601180  0.695750  0.231750  1.0  -0.6233
  O  O224  1  0.832930  0.768250  0.195750  1.0  -0.6244
  O  O225  1  0.325220  0.204760  0.711720  1.0  -0.6736
  O  O226  1  0.883640  0.223170  0.895550  1.0  -0.6166
  O  O227  1  0.893190  0.604450  0.223170  1.0  -0.6144
  O  O228  1  0.167070  0.231750  0.804250  1.0  -0.6252
  O  O229  1  0.028680  0.804250  0.268250  1.0  -0.6237
  O  O230  1  0.470020  0.788280  0.204760  1.0  -0.6754
  O  O231  1  0.296930  0.731750  0.304250  1.0  -0.6256
  O  O232  1  0.639460  0.128550  0.655730  1.0  -0.5967
  O  O233  1  0.971320  0.195750  0.731750  1.0  -0.6242
  O  O234  1  0.529980  0.211720  0.795240  1.0  -0.6744
  O  O235  1  0.497640  0.723170  0.395550  1.0  -0.6159
  O  O236  1  0.741700  0.295240  0.788280  1.0  -0.6741
  O  O237  1  0.295190  0.344270  0.628550  1.0  -0.5968
  O  O238  1  0.779190  0.104450  0.723170  1.0  -0.6156
  O  O239  1  0.360540  0.871450  0.344270  1.0  -0.5984
  O  O240  1  0.703070  0.268250  0.695750  1.0  -0.6242
  F  F241  1  0.486480  0.122380  0.201860  1.0  -0.1837
  F  F242  1  0.311660  0.201860  0.377620  1.0  -0.1833
  F  F243  1  0.608860  0.701860  0.877620  1.0  -0.1825
  F  F244  1  0.904770  0.282720  0.426340  1.0  -0.1984
  F  F245  1  0.785420  0.697860  0.798100  1.0  -0.1907
  F  F246  1  0.854290  0.189020  0.429000  1.0  -0.1972
  F  F247  1  0.781380  0.802140  0.701900  1.0  -0.1903
  F  F248  1  0.513520  0.877620  0.798140  1.0  -0.1833
  F  F249  1  0.171530  0.835530  0.769610  1.0  -0.197
  F  F250  1  0.485480  0.359970  0.215270  1.0  -0.2001
  F  F251  1  0.145710  0.810980  0.571000  1.0  -0.1982
  F  F252  1  0.886170  0.782720  0.926340  1.0  -0.1994
  F  F253  1  0.416480  0.798100  0.802140  1.0  -0.1904
  F  F254  1  0.956690  0.071000  0.189020  1.0  -0.1991
  F  F255  1  0.992940  0.730390  0.835530  1.0  -0.195
  F  F256  1  0.439280  0.859970  0.715270  1.0  -0.2007
  F  F257  1  0.583520  0.201900  0.197860  1.0  -0.1897
  F  F258  1  0.716710  0.429000  0.310980  1.0  -0.2011
  F  F259  1  0.154550  0.284730  0.359970  1.0  -0.2018
  F  F260  1  0.331110  0.573660  0.782720  1.0  -0.1988
  F  F261  1  0.218620  0.197860  0.298100  1.0  -0.1899
  F  F262  1  0.187490  0.926340  0.717280  1.0  -0.201
  F  F263  1  0.845450  0.715270  0.640030  1.0  -0.2015
  F  F264  1  0.283290  0.571000  0.689020  1.0  -0.2009
  F  F265  1  0.514520  0.640030  0.784730  1.0  -0.2039
  F  F266  1  0.560720  0.140030  0.284730  1.0  -0.2022
  F  F267  1  0.058860  0.769610  0.664470  1.0  -0.2
  F  F268  1  0.095230  0.717280  0.573660  1.0  -0.1985
  F  F269  1  0.043310  0.929000  0.810980  1.0  -0.1981
  F  F270  1  0.972310  0.310980  0.071000  1.0  -0.2002
  F  F271  1  0.276670  0.664470  0.730390  1.0  -0.1974
  F  F272  1  0.688340  0.798140  0.622380  1.0  -0.1835
  F  F273  1  0.668890  0.426340  0.217280  1.0  -0.2013
  F  F274  1  0.828470  0.164470  0.230390  1.0  -0.1965
  F  F275  1  0.483280  0.298100  0.302140  1.0  -0.19
  F  F276  1  0.214580  0.302140  0.201900  1.0  -0.1914
  F  F277  1  0.007060  0.269610  0.164470  1.0  -0.1972
  F  F278  1  0.689280  0.622380  0.701860  1.0  -0.1825
  F  F279  1  0.812510  0.073660  0.282720  1.0  -0.1997
  F  F280  1  0.027690  0.689020  0.929000  1.0  -0.2011
  F  F281  1  0.299250  0.215270  0.140030  1.0  -0.2006
  F  F282  1  0.723330  0.335530  0.269610  1.0  -0.1964
  F  F283  1  0.516720  0.701900  0.697860  1.0  -0.1895
  F  F284  1  0.310720  0.377620  0.298140  1.0  -0.1829
  F  F285  1  0.941140  0.230390  0.335530  1.0  -0.1989
  F  F286  1  0.700750  0.784730  0.859970  1.0  -0.2016
  F  F287  1  0.391140  0.298140  0.122380  1.0  -0.1817
  F  F288  1  0.113830  0.217280  0.073660  1.0  -0.1982
