# generated using pymatgen
data_Th3H12(C3O2)8
_symmetry_space_group_name_H-M   'P 1'
_cell_length_a   15.52850000
_cell_length_b   15.52850000
_cell_length_c   15.52850000
_cell_angle_alpha   60.00000000
_cell_angle_beta   60.00000000
_cell_angle_gamma   60.00000000
_symmetry_Int_Tables_number   1
_chemical_formula_structural   Th3H12(C3O2)8
_chemical_formula_sum   'Th6 H24 C48 O32'
_cell_volume   2647.72893388
_cell_formula_units_Z   2
loop_
 _symmetry_equiv_pos_site_id
 _symmetry_equiv_pos_as_xyz
  1  'x, y, z'
loop_
 _atom_site_type_symbol
 _atom_site_label
 _atom_site_symmetry_multiplicity
 _atom_site_fract_x
 _atom_site_fract_y
 _atom_site_fract_z
 _atom_site_occupancy
 _atom_site_charge
  Th  Th1  1  0.871440  0.871440  0.128560  1.0  2.4652
  Th  Th2  1  0.128560  0.871440  0.128560  1.0  2.4676
  Th  Th3  1  0.128560  0.128560  0.871440  1.0  2.4659
  Th  Th4  1  0.128560  0.871440  0.871440  1.0  2.4673
  Th  Th5  1  0.871440  0.128560  0.128560  1.0  2.4676
  Th  Th6  1  0.871440  0.128560  0.871440  1.0  2.4668
  H  H7  1  0.575000  0.425000  0.127400  1.0  0.1096
  H  H8  1  0.575000  0.872600  0.425000  1.0  0.1081
  H  H9  1  0.872600  0.425000  0.575000  1.0  0.1086
  H  H10  1  0.127400  0.872600  0.575000  1.0  0.1083
  H  H11  1  0.872600  0.425000  0.127400  1.0  0.1087
  H  H12  1  0.872600  0.575000  0.127400  1.0  0.1094
  H  H13  1  0.575000  0.425000  0.872600  1.0  0.1096
  H  H14  1  0.575000  0.127400  0.425000  1.0  0.1094
  H  H15  1  0.425000  0.872600  0.127400  1.0  0.1088
  H  H16  1  0.425000  0.575000  0.127400  1.0  0.1091
  H  H17  1  0.872600  0.127400  0.425000  1.0  0.1084
  H  H18  1  0.425000  0.575000  0.872600  1.0  0.1096
  H  H19  1  0.127400  0.872600  0.425000  1.0  0.1084
  H  H20  1  0.872600  0.575000  0.425000  1.0  0.1098
  H  H21  1  0.127400  0.575000  0.425000  1.0  0.109
  H  H22  1  0.127400  0.425000  0.575000  1.0  0.1095
  H  H23  1  0.425000  0.127400  0.575000  1.0  0.1085
  H  H24  1  0.872600  0.127400  0.575000  1.0  0.1082
  H  H25  1  0.575000  0.127400  0.872600  1.0  0.1096
  H  H26  1  0.575000  0.872600  0.127400  1.0  0.1085
  H  H27  1  0.127400  0.575000  0.872600  1.0  0.1092
  H  H28  1  0.425000  0.872600  0.575000  1.0  0.1085
  H  H29  1  0.425000  0.127400  0.872600  1.0  0.109
  H  H30  1  0.127400  0.425000  0.872600  1.0  0.1095
  C  C31  1  0.000000  0.000000  0.410000  1.0  -0.0644
  C  C32  1  0.075300  0.924700  0.545300  1.0  -0.0544
  C  C33  1  0.075300  0.545300  0.454700  1.0  -0.0547
  C  C34  1  0.000000  0.000000  0.313800  1.0  0.7653
  C  C35  1  0.924700  0.545300  0.075300  1.0  -0.0552
  C  C36  1  0.545300  0.454700  0.924700  1.0  -0.0544
  C  C37  1  0.454700  0.545300  0.924700  1.0  -0.0552
  C  C38  1  0.454700  0.075300  0.924700  1.0  -0.057
  C  C39  1  0.686200  0.313800  0.000000  1.0  0.7554
  C  C40  1  0.075300  0.454700  0.545300  1.0  -0.0553
  C  C41  1  0.590000  0.410000  0.000000  1.0  -0.0661
  C  C42  1  0.545300  0.075300  0.454700  1.0  -0.0545
  C  C43  1  0.924700  0.545300  0.454700  1.0  -0.0551
  C  C44  1  0.924700  0.454700  0.075300  1.0  -0.053
  C  C45  1  0.000000  0.686200  0.313800  1.0  0.7561
  C  C46  1  0.313800  0.686200  0.000000  1.0  0.7567
  C  C47  1  0.590000  0.000000  0.000000  1.0  -0.0671
  C  C48  1  0.454700  0.924700  0.075300  1.0  -0.054
  C  C49  1  0.590000  0.000000  0.410000  1.0  -0.0667
  C  C50  1  0.000000  0.590000  0.410000  1.0  -0.0657
  C  C51  1  0.454700  0.924700  0.545300  1.0  -0.0546
  C  C52  1  0.545300  0.075300  0.924700  1.0  -0.0542
  C  C53  1  0.410000  0.000000  0.000000  1.0  -0.0678
  C  C54  1  0.000000  0.410000  0.590000  1.0  -0.0674
  C  C55  1  0.000000  0.686200  0.000000  1.0  0.7558
  C  C56  1  0.000000  0.410000  0.000000  1.0  -0.0674
  C  C57  1  0.075300  0.924700  0.454700  1.0  -0.0543
  C  C58  1  0.924700  0.454700  0.545300  1.0  -0.053
  C  C59  1  0.313800  0.000000  0.686200  1.0  0.7593
  C  C60  1  0.545300  0.454700  0.075300  1.0  -0.0553
  C  C61  1  0.924700  0.075300  0.454700  1.0  -0.0531
  C  C62  1  0.000000  0.313800  0.686200  1.0  0.756
  C  C63  1  0.410000  0.590000  0.000000  1.0  -0.0659
  C  C64  1  0.545300  0.924700  0.075300  1.0  -0.0568
  C  C65  1  0.075300  0.545300  0.924700  1.0  -0.0549
  C  C66  1  0.000000  0.000000  0.686200  1.0  0.7655
  C  C67  1  0.545300  0.924700  0.454700  1.0  -0.0572
  C  C68  1  0.313800  0.000000  0.000000  1.0  0.7596
  C  C69  1  0.000000  0.000000  0.590000  1.0  -0.0648
  C  C70  1  0.454700  0.545300  0.075300  1.0  -0.0561
  C  C71  1  0.000000  0.313800  0.000000  1.0  0.7562
  C  C72  1  0.924700  0.075300  0.545300  1.0  -0.0536
  C  C73  1  0.686200  0.000000  0.000000  1.0  0.7596
  C  C74  1  0.410000  0.000000  0.590000  1.0  -0.068
  C  C75  1  0.075300  0.454700  0.924700  1.0  -0.0553
  C  C76  1  0.686200  0.000000  0.313800  1.0  0.7594
  C  C77  1  0.000000  0.590000  0.000000  1.0  -0.0662
  C  C78  1  0.454700  0.075300  0.545300  1.0  -0.0576
  O  O79  1  0.814600  0.061800  0.061800  1.0  -1.0054
  O  O80  1  0.723600  0.927200  0.072800  1.0  -0.6821
  O  O81  1  0.723600  0.276400  0.927200  1.0  -0.6805
  O  O82  1  0.938200  0.938200  0.938200  1.0  -1.0042
  O  O83  1  0.072800  0.927200  0.723600  1.0  -0.6841
  O  O84  1  0.276400  0.723600  0.927200  1.0  -0.6819
  O  O85  1  0.276400  0.927200  0.072800  1.0  -0.681
  O  O86  1  0.061800  0.814600  0.061800  1.0  -1.0047
  O  O87  1  0.927200  0.276400  0.072800  1.0  -0.6816
  O  O88  1  0.072800  0.276400  0.723600  1.0  -0.6827
  O  O89  1  0.185400  0.938200  0.938200  1.0  -1.0053
  O  O90  1  0.723600  0.072800  0.927200  1.0  -0.6801
  O  O91  1  0.723600  0.072800  0.276400  1.0  -0.6823
  O  O92  1  0.061800  0.061800  0.061800  1.0  -1.0037
  O  O93  1  0.276400  0.072800  0.723600  1.0  -0.6847
  O  O94  1  0.072800  0.927200  0.276400  1.0  -0.6847
  O  O95  1  0.938200  0.938200  0.185400  1.0  -1.0032
  O  O96  1  0.927200  0.723600  0.276400  1.0  -0.6822
  O  O97  1  0.061800  0.061800  0.814600  1.0  -1.0047
  O  O98  1  0.927200  0.072800  0.723600  1.0  -0.6838
  O  O99  1  0.723600  0.276400  0.072800  1.0  -0.682
  O  O100  1  0.072800  0.276400  0.927200  1.0  -0.6785
  O  O101  1  0.276400  0.072800  0.927200  1.0  -0.6834
  O  O102  1  0.927200  0.723600  0.072800  1.0  -0.6823
  O  O103  1  0.927200  0.276400  0.723600  1.0  -0.6786
  O  O104  1  0.938200  0.185400  0.938200  1.0  -1.0056
  O  O105  1  0.927200  0.072800  0.276400  1.0  -0.6848
  O  O106  1  0.276400  0.927200  0.723600  1.0  -0.6815
  O  O107  1  0.276400  0.723600  0.072800  1.0  -0.6814
  O  O108  1  0.723600  0.927200  0.276400  1.0  -0.6799
  O  O109  1  0.072800  0.723600  0.276400  1.0  -0.6819
  O  O110  1  0.072800  0.723600  0.927200  1.0  -0.6818
