# generated using pymatgen
data_ThH8(C2O)8
_symmetry_space_group_name_H-M   'P 1'
_cell_length_a   9.19480000
_cell_length_b   10.72700000
_cell_length_c   10.72700000
_cell_angle_alpha   114.58300000
_cell_angle_beta   102.92700000
_cell_angle_gamma   102.92700000
_symmetry_Int_Tables_number   1
_chemical_formula_structural   ThH8(C2O)8
_chemical_formula_sum   'Th2 H16 C32 O16'
_cell_volume   875.80759338
_cell_formula_units_Z   2
loop_
 _symmetry_equiv_pos_site_id
 _symmetry_equiv_pos_as_xyz
  1  'x, y, z'
loop_
 _atom_site_type_symbol
 _atom_site_label
 _atom_site_symmetry_multiplicity
 _atom_site_fract_x
 _atom_site_fract_y
 _atom_site_fract_z
 _atom_site_occupancy
 _atom_site_charge
  Th  Th1  1  0.250000  0.481310  0.518690  1.0  2.2932
  Th  Th2  1  0.750000  0.518690  0.481310  1.0  2.2919
  H  H3  1  0.521800  0.203300  0.048900  1.0  0.1296
  H  H4  1  0.252700  0.023500  0.482100  1.0  0.1347
  H  H5  1  0.786600  0.463200  0.810400  1.0  0.1135
  H  H6  1  0.070600  0.166300  0.019700  1.0  0.1252
  H  H7  1  0.021800  0.048900  0.203300  1.0  0.1311
  H  H8  1  0.752700  0.482100  0.023500  1.0  0.1329
  H  H9  1  0.978200  0.951100  0.796700  1.0  0.1307
  H  H10  1  0.929400  0.833700  0.980300  1.0  0.1255
  H  H11  1  0.713400  0.189600  0.536800  1.0  0.114
  H  H12  1  0.570600  0.019700  0.166300  1.0  0.1226
  H  H13  1  0.478200  0.796700  0.951100  1.0  0.1294
  H  H14  1  0.247300  0.517900  0.976500  1.0  0.1332
  H  H15  1  0.747300  0.976500  0.517900  1.0  0.1347
  H  H16  1  0.213400  0.536800  0.189600  1.0  0.1138
  H  H17  1  0.286600  0.810400  0.463200  1.0  0.1141
  H  H18  1  0.429400  0.980300  0.833700  1.0  0.123
  C  C19  1  0.864800  0.215900  0.323700  1.0  0.7241
  C  C20  1  0.357300  0.016400  0.872200  1.0  -0.0454
  C  C21  1  0.142700  0.127800  0.983600  1.0  -0.0464
  C  C22  1  0.135200  0.784100  0.676300  1.0  0.7236
  C  C23  1  0.148100  0.511000  0.986000  1.0  -0.0143
  C  C24  1  0.857300  0.872200  0.016400  1.0  -0.0451
  C  C25  1  0.872500  0.478300  0.886900  1.0  -0.0035
  C  C26  1  0.694800  0.800200  0.938000  1.0  -0.0897
  C  C27  1  0.372500  0.886900  0.478300  1.0  -0.0026
  C  C28  1  0.020900  0.489900  0.872500  1.0  -0.1084
  C  C29  1  0.087100  0.997600  0.851000  1.0  -0.0299
  C  C30  1  0.305200  0.199800  0.062000  1.0  -0.0897
  C  C31  1  0.351900  0.014000  0.489000  1.0  -0.0154
  C  C32  1  0.912900  0.002400  0.149000  1.0  -0.0302
  C  C33  1  0.979100  0.510100  0.127500  1.0  -0.1091
  C  C34  1  0.587100  0.851000  0.997600  1.0  -0.031
  C  C35  1  0.044200  0.480600  0.735600  1.0  0.7261
  C  C36  1  0.364800  0.323700  0.215900  1.0  0.741
  C  C37  1  0.127500  0.521700  0.113100  1.0  -0.0041
  C  C38  1  0.851900  0.489000  0.014000  1.0  -0.0129
  C  C39  1  0.955800  0.519400  0.264400  1.0  0.7268
  C  C40  1  0.627500  0.113100  0.521700  1.0  -0.002
  C  C41  1  0.455800  0.264400  0.519400  1.0  0.7217
  C  C42  1  0.642700  0.983600  0.127800  1.0  -0.0467
  C  C43  1  0.648100  0.986000  0.511000  1.0  -0.0138
  C  C44  1  0.520900  0.872500  0.489900  1.0  -0.1081
  C  C45  1  0.194800  0.938000  0.800200  1.0  -0.0921
  C  C46  1  0.635200  0.676300  0.784100  1.0  0.7407
  C  C47  1  0.412900  0.149000  0.002400  1.0  -0.0303
  C  C48  1  0.544200  0.735600  0.480600  1.0  0.7212
  C  C49  1  0.479100  0.127500  0.510100  1.0  -0.1082
  C  C50  1  0.805200  0.062000  0.199800  1.0  -0.0913
  O  O51  1  0.327200  0.280570  0.526030  1.0  -0.6694
  O  O52  1  0.511000  0.402880  0.272320  1.0  -0.7043
  O  O53  1  0.011000  0.272320  0.402880  1.0  -0.7051
  O  O54  1  0.066300  0.517630  0.356970  1.0  -0.7532
  O  O55  1  0.489000  0.597120  0.727680  1.0  -0.7051
  O  O56  1  0.827200  0.526030  0.280570  1.0  -0.6715
  O  O57  1  0.266900  0.338330  0.280670  1.0  -0.6827
  O  O58  1  0.733100  0.661670  0.719330  1.0  -0.6835
  O  O59  1  0.172800  0.473970  0.719430  1.0  -0.6708
  O  O60  1  0.989000  0.727680  0.597120  1.0  -0.7041
  O  O61  1  0.233100  0.719330  0.661670  1.0  -0.6841
  O  O62  1  0.933700  0.482370  0.643030  1.0  -0.7525
  O  O63  1  0.433700  0.643030  0.482370  1.0  -0.7542
  O  O64  1  0.566300  0.356970  0.517630  1.0  -0.7543
  O  O65  1  0.672800  0.719430  0.473970  1.0  -0.6704
  O  O66  1  0.766900  0.280670  0.338330  1.0  -0.6831
