# generated using pymatgen
data_Zn4H18C37O15
_symmetry_space_group_name_H-M   'P 1'
_cell_length_a   10.37700000
_cell_length_b   27.47400000
_cell_length_c   27.70100000
_cell_angle_alpha   90.00000000
_cell_angle_beta   90.00000000
_cell_angle_gamma   90.00000000
_symmetry_Int_Tables_number   1
_chemical_formula_structural   Zn4H18C37O15
_chemical_formula_sum   'Zn16 H72 C148 O60'
_cell_volume   7897.49133230
_cell_formula_units_Z   4
loop_
 _symmetry_equiv_pos_site_id
 _symmetry_equiv_pos_as_xyz
  1  'x, y, z'
loop_
 _atom_site_type_symbol
 _atom_site_label
 _atom_site_symmetry_multiplicity
 _atom_site_fract_x
 _atom_site_fract_y
 _atom_site_fract_z
 _atom_site_occupancy
 _atom_site_charge
  Zn  Zn1  1  0.651900  0.799060  0.696050  1.0  1.0148
  Zn  Zn2  1  0.151900  0.299060  0.803950  1.0  1.0147
  Zn  Zn3  1  0.348100  0.200940  0.303950  1.0  1.0141
  Zn  Zn4  1  0.000000  0.737610  0.099170  1.0  1.0864
  Zn  Zn5  1  0.500000  0.300530  0.305890  1.0  0.9431
  Zn  Zn6  1  0.500000  0.237610  0.400830  1.0  1.086
  Zn  Zn7  1  0.000000  0.262390  0.900830  1.0  1.0858
  Zn  Zn8  1  0.000000  0.199470  0.805890  1.0  0.9436
  Zn  Zn9  1  0.848100  0.299060  0.803950  1.0  1.0159
  Zn  Zn10  1  0.500000  0.699470  0.694110  1.0  0.9436
  Zn  Zn11  1  0.000000  0.800530  0.194110  1.0  0.9428
  Zn  Zn12  1  0.151900  0.700940  0.196050  1.0  1.0136
  Zn  Zn13  1  0.848100  0.700940  0.196050  1.0  1.0143
  Zn  Zn14  1  0.348100  0.799060  0.696050  1.0  1.0159
  Zn  Zn15  1  0.651900  0.200940  0.303950  1.0  1.0134
  Zn  Zn16  1  0.500000  0.762390  0.599170  1.0  1.0859
  H  H17  1  0.181600  0.752500  0.431500  1.0  0.1289
  H  H18  1  0.318400  0.747500  0.931500  1.0  0.1293
  H  H19  1  0.500000  0.773400  0.212100  1.0  0.1156
  H  H20  1  0.000000  0.929800  0.955600  1.0  0.1377
  H  H21  1  0.296400  0.965100  0.260200  1.0  0.1631
  H  H22  1  0.688700  0.228800  0.144900  1.0  0.1166
  H  H23  1  0.809400  0.604600  0.748900  1.0  0.1412
  H  H24  1  0.309400  0.895400  0.248900  1.0  0.1406
  H  H25  1  0.311300  0.228800  0.144900  1.0  0.1166
  H  H26  1  0.000000  0.812300  0.622100  1.0  0.1331
  H  H27  1  0.000000  0.070200  0.044400  1.0  0.1398
  H  H28  1  0.203600  0.534900  0.760200  1.0  0.1623
  H  H29  1  0.000000  0.065400  0.876900  1.0  0.1258
  H  H30  1  0.811800  0.548900  0.218200  1.0  0.1053
  H  H31  1  0.688200  0.048900  0.281800  1.0  0.1049
  H  H32  1  0.811300  0.728800  0.355100  1.0  0.1165
  H  H33  1  0.688700  0.771200  0.855100  1.0  0.1167
  H  H34  1  0.188700  0.728800  0.355100  1.0  0.1164
  H  H35  1  0.309400  0.104600  0.751100  1.0  0.141
  H  H36  1  0.688200  0.951100  0.718200  1.0  0.1046
  H  H37  1  0.703600  0.965100  0.260200  1.0  0.1622
  H  H38  1  0.000000  0.934600  0.123100  1.0  0.126
  H  H39  1  0.818400  0.752500  0.431500  1.0  0.1295
  H  H40  1  0.690600  0.104600  0.751100  1.0  0.1421
  H  H41  1  0.696800  0.719000  0.997400  1.0  0.1273
  H  H42  1  0.500000  0.687700  0.122100  1.0  0.1333
  H  H43  1  0.196800  0.781000  0.497400  1.0  0.1271
  H  H44  1  0.000000  0.993400  0.921100  1.0  0.1323
  H  H45  1  0.796400  0.534900  0.760200  1.0  0.1629
  H  H46  1  0.196800  0.219000  0.502600  1.0  0.1274
  H  H47  1  0.500000  0.429800  0.544400  1.0  0.1375
  H  H48  1  0.303200  0.281000  0.002600  1.0  0.1277
  H  H49  1  0.803200  0.219000  0.502600  1.0  0.1277
  H  H50  1  0.811800  0.451100  0.781800  1.0  0.1046
  H  H51  1  0.500000  0.226600  0.787900  1.0  0.1151
  H  H52  1  0.500000  0.357700  0.500200  1.0  0.1201
  H  H53  1  0.181600  0.247500  0.568500  1.0  0.1292
  H  H54  1  0.500000  0.312300  0.877900  1.0  0.1328
  H  H55  1  0.188200  0.548900  0.218200  1.0  0.1052
  H  H56  1  0.203600  0.465100  0.239800  1.0  0.162
  H  H57  1  0.188200  0.451100  0.781800  1.0  0.1044
  H  H58  1  0.500000  0.493400  0.578900  1.0  0.1304
  H  H59  1  0.311300  0.771200  0.855100  1.0  0.1162
  H  H60  1  0.500000  0.565400  0.623100  1.0  0.1261
  H  H61  1  0.000000  0.006600  0.078900  1.0  0.1333
  H  H62  1  0.703600  0.034900  0.739800  1.0  0.1621
  H  H63  1  0.296400  0.034900  0.739800  1.0  0.163
  H  H64  1  0.311800  0.951100  0.718200  1.0  0.1047
  H  H65  1  0.311800  0.048900  0.281800  1.0  0.1051
  H  H66  1  0.681600  0.747500  0.931500  1.0  0.1283
  H  H67  1  0.811300  0.271200  0.644900  1.0  0.116
  H  H68  1  0.818400  0.247500  0.568500  1.0  0.1297
  H  H69  1  0.796400  0.465100  0.239800  1.0  0.1633
  H  H70  1  0.690600  0.895400  0.248900  1.0  0.1425
  H  H71  1  0.681600  0.252500  0.068500  1.0  0.1295
  H  H72  1  0.500000  0.506600  0.421100  1.0  0.1292
  H  H73  1  0.500000  0.434600  0.376900  1.0  0.126
  H  H74  1  0.190600  0.395400  0.251100  1.0  0.1427
  H  H75  1  0.000000  0.187700  0.377900  1.0  0.1329
  H  H76  1  0.500000  0.642300  0.499800  1.0  0.1196
  H  H77  1  0.000000  0.857700  0.999800  1.0  0.1196
  H  H78  1  0.188700  0.271200  0.644900  1.0  0.1165
  H  H79  1  0.190600  0.604600  0.748900  1.0  0.1428
  H  H80  1  0.696800  0.281000  0.002600  1.0  0.1277
  H  H81  1  0.809400  0.395400  0.251100  1.0  0.1417
  H  H82  1  0.500000  0.570200  0.455600  1.0  0.137
  H  H83  1  0.803200  0.781000  0.497400  1.0  0.1267
  H  H84  1  0.000000  0.142300  0.000200  1.0  0.1196
  H  H85  1  0.000000  0.726600  0.712100  1.0  0.1151
  H  H86  1  0.303200  0.719000  0.997400  1.0  0.1273
  H  H87  1  0.000000  0.273400  0.287900  1.0  0.1156
  H  H88  1  0.318400  0.252500  0.068500  1.0  0.1298
  C  C89  1  0.500000  0.722400  0.990000  1.0  -0.015
  C  C90  1  0.000000  0.023500  0.937200  1.0  -0.1151
  C  C91  1  0.500000  0.892900  0.701700  1.0  0.5875
  C  C92  1  0.886800  0.621900  0.745100  1.0  -0.0875
  C  C93  1  0.118400  0.784600  0.514100  1.0  -0.0208
  C  C94  1  0.500000  0.055100  0.288500  1.0  -0.1038
  C  C95  1  0.000000  0.777600  0.490000  1.0  -0.0151
  C  C96  1  0.000000  0.401600  0.247200  1.0  0.0102
  C  C97  1  0.396600  0.251700  0.085600  1.0  -0.0938
  C  C98  1  0.000000  0.933500  0.089200  1.0  -0.0473
  C  C99  1  0.896600  0.248300  0.585600  1.0  -0.092
  C  C100  1  0.000000  0.444900  0.788500  1.0  -0.1038
  C  C101  1  0.760500  0.304300  0.280300  1.0  0.7352
  C  C102  1  0.000000  0.222400  0.510000  1.0  -0.0152
  C  C103  1  0.000000  0.066500  0.910800  1.0  -0.047
  C  C104  1  0.000000  0.544200  0.766200  1.0  -0.0971
  C  C105  1  0.608300  0.237100  0.131500  1.0  -0.1647
  C  C106  1  0.500000  0.612200  0.515900  1.0  -0.0517
  C  C107  1  0.260500  0.195700  0.780300  1.0  0.7354
  C  C108  1  0.881600  0.784600  0.514100  1.0  -0.0215
  C  C109  1  0.875300  0.480400  0.232900  1.0  -0.064
  C  C110  1  0.896600  0.751700  0.414400  1.0  -0.0929
  C  C111  1  0.500000  0.780500  0.789000  1.0  0.7438
  C  C112  1  0.000000  0.598400  0.752800  1.0  0.0109
  C  C113  1  0.000000  0.069100  0.010500  1.0  -0.1239
  C  C114  1  0.242300  0.799400  0.590700  1.0  0.7379
  C  C115  1  0.000000  0.694400  0.723500  1.0  0.0127
  C  C116  1  0.000000  0.719500  0.289000  1.0  0.7434
  C  C117  1  0.500000  0.944900  0.711500  1.0  -0.1049
  C  C118  1  0.257700  0.299400  0.909300  1.0  0.7338
  C  C119  1  0.108300  0.737100  0.368500  1.0  -0.1652
  C  C120  1  0.396600  0.748300  0.914400  1.0  -0.0919
  C  C121  1  0.500000  0.805600  0.223500  1.0  0.0151
  C  C122  1  0.000000  0.733600  0.340000  1.0  -0.0602
  C  C123  1  0.613200  0.121900  0.754900  1.0  -0.0862
  C  C124  1  0.500000  0.657700  0.597900  1.0  0.7282
  C  C125  1  0.000000  0.975200  0.012900  1.0  0.055
  C  C126  1  0.500000  0.389200  0.434300  1.0  -0.1373
  C  C127  1  0.888300  0.469200  0.779600  1.0  -0.0207
  C  C128  1  0.500000  0.194400  0.776500  1.0  0.0128
  C  C129  1  0.000000  0.887800  0.015900  1.0  -0.0512
  C  C130  1  0.380800  0.828600  0.231700  1.0  -0.1116
  C  C131  1  0.891700  0.737100  0.368500  1.0  -0.1641
  C  C132  1  0.257700  0.700600  0.090700  1.0  0.7385
  C  C133  1  0.111700  0.530800  0.220400  1.0  -0.0212
  C  C134  1  0.111700  0.469200  0.779600  1.0  -0.0212
  C  C135  1  0.239500  0.695700  0.719700  1.0  0.7349
  C  C136  1  0.611700  0.030800  0.279600  1.0  -0.021
  C  C137  1  0.118400  0.215400  0.485900  1.0  -0.0222
  C  C138  1  0.000000  0.157700  0.902100  1.0  0.7282
  C  C139  1  0.000000  0.976500  0.062800  1.0  -0.1156
  C  C140  1  0.239500  0.304300  0.280300  1.0  0.7345
  C  C141  1  0.103400  0.751700  0.414400  1.0  -0.0956
  C  C142  1  0.388300  0.969200  0.720400  1.0  -0.0207
  C  C143  1  0.381600  0.284600  0.985900  1.0  -0.0222
  C  C144  1  0.117900  0.203000  0.436900  1.0  -0.1366
  C  C145  1  0.500000  0.901600  0.252800  1.0  0.0099
  C  C146  1  0.000000  0.024800  0.987100  1.0  0.0553
  C  C147  1  0.000000  0.305600  0.276500  1.0  0.0154
  C  C148  1  0.880800  0.671400  0.731700  1.0  -0.1114
  C  C149  1  0.000000  0.235100  0.562300  1.0  0.1347
  C  C150  1  0.500000  0.566500  0.589200  1.0  -0.048
  C  C151  1  0.391700  0.762900  0.868500  1.0  -0.1634
  C  C152  1  0.117900  0.797000  0.563100  1.0  -0.1363
  C  C153  1  0.000000  0.112200  0.984100  1.0  -0.0514
  C  C154  1  0.500000  0.342300  0.402100  1.0  0.7274
  C  C155  1  0.113200  0.378100  0.254900  1.0  -0.0867
  C  C156  1  0.000000  0.889200  0.065700  1.0  -0.1362
  C  C157  1  0.124700  0.519600  0.767100  1.0  -0.0637
  C  C158  1  0.000000  0.764900  0.437700  1.0  0.1345
  C  C159  1  0.500000  0.098400  0.747200  1.0  0.0109
  C  C160  1  0.500000  0.766400  0.840000  1.0  -0.0597
  C  C161  1  0.000000  0.555100  0.211500  1.0  -0.1048
  C  C162  1  0.500000  0.430900  0.510500  1.0  -0.1359
  C  C163  1  0.103400  0.248300  0.585600  1.0  -0.1029
  C  C164  1  0.000000  0.803800  0.589200  1.0  0.0098
  C  C165  1  0.888300  0.530800  0.220400  1.0  -0.0209
  C  C166  1  0.381600  0.715400  0.014100  1.0  -0.0224
  C  C167  1  0.124700  0.480400  0.232900  1.0  -0.0633
  C  C168  1  0.757700  0.799400  0.590700  1.0  0.7335
  C  C169  1  0.500000  0.735100  0.937700  1.0  0.1358
  C  C170  1  0.875300  0.519600  0.767100  1.0  -0.0671
  C  C171  1  0.108300  0.262900  0.631500  1.0  -0.1719
  C  C172  1  0.760500  0.695700  0.719700  1.0  0.7351
  C  C173  1  0.500000  0.610800  0.565700  1.0  -0.1358
  C  C174  1  0.113200  0.621900  0.745100  1.0  -0.0862
  C  C175  1  0.617900  0.297000  0.936900  1.0  -0.1362
  C  C176  1  0.391700  0.237100  0.131500  1.0  -0.1642
  C  C177  1  0.891700  0.262900  0.631500  1.0  -0.168
  C  C178  1  0.608300  0.762900  0.868500  1.0  -0.1657
  C  C179  1  0.739500  0.195700  0.780300  1.0  0.735
  C  C180  1  0.242300  0.200600  0.409300  1.0  0.7511
  C  C181  1  0.742300  0.700600  0.090700  1.0  0.7517
  C  C182  1  0.382100  0.703000  0.063100  1.0  -0.136
  C  C183  1  0.000000  0.930900  0.989500  1.0  -0.124
  C  C184  1  0.500000  0.387800  0.484100  1.0  -0.0513
  C  C185  1  0.260500  0.804300  0.219700  1.0  0.7345
  C  C186  1  0.886800  0.378100  0.254900  1.0  -0.0869
  C  C187  1  0.500000  0.303800  0.910800  1.0  0.0122
  C  C188  1  0.000000  0.196200  0.410800  1.0  0.0119
  C  C189  1  0.000000  0.607100  0.201700  1.0  0.5879
  C  C190  1  0.611700  0.969200  0.720400  1.0  -0.0213
  C  C191  1  0.624700  0.019600  0.732900  1.0  -0.0639
  C  C192  1  0.500000  0.044200  0.733800  1.0  -0.0972
  C  C193  1  0.500000  0.955800  0.266200  1.0  -0.0977
  C  C194  1  0.603400  0.251700  0.085600  1.0  -0.1029
  C  C195  1  0.742300  0.299400  0.909300  1.0  0.7514
  C  C196  1  0.386800  0.121900  0.754900  1.0  -0.0875
  C  C197  1  0.619200  0.171400  0.768300  1.0  -0.1111
  C  C198  1  0.757700  0.200600  0.409300  1.0  0.7347
  C  C199  1  0.000000  0.392900  0.798300  1.0  0.5881
  C  C200  1  0.500000  0.524800  0.512900  1.0  0.048
  C  C201  1  0.881600  0.215400  0.485900  1.0  -0.022
  C  C202  1  0.375300  0.980400  0.267100  1.0  -0.0671
  C  C203  1  0.880800  0.328600  0.268300  1.0  -0.1114
  C  C204  1  0.000000  0.280500  0.711000  1.0  0.7437
  C  C205  1  0.500000  0.696200  0.089200  1.0  0.0102
  C  C206  1  0.500000  0.233600  0.160000  1.0  -0.0584
  C  C207  1  0.500000  0.219500  0.211000  1.0  0.7433
  C  C208  1  0.000000  0.842300  0.097900  1.0  0.7275
  C  C209  1  0.375300  0.019600  0.732900  1.0  -0.0645
  C  C210  1  0.618400  0.284600  0.985900  1.0  -0.021
  C  C211  1  0.388300  0.030800  0.279600  1.0  -0.0208
  C  C212  1  0.500000  0.277600  0.010000  1.0  -0.0154
  C  C213  1  0.500000  0.107100  0.298300  1.0  0.5883
  C  C214  1  0.500000  0.569100  0.489500  1.0  -0.136
  C  C215  1  0.386800  0.878100  0.245100  1.0  -0.0868
  C  C216  1  0.500000  0.476500  0.437200  1.0  -0.1294
  C  C217  1  0.000000  0.455800  0.233800  1.0  -0.098
  C  C218  1  0.382100  0.297000  0.936900  1.0  -0.1355
  C  C219  1  0.500000  0.475200  0.487100  1.0  0.0391
  C  C220  1  0.119200  0.671400  0.731700  1.0  -0.1113
  C  C221  1  0.624700  0.980400  0.267100  1.0  -0.0646
  C  C222  1  0.617900  0.703000  0.063100  1.0  -0.1368
  C  C223  1  0.739500  0.804300  0.219700  1.0  0.734
  C  C224  1  0.603400  0.748300  0.914400  1.0  -0.0964
  C  C225  1  0.500000  0.523500  0.562800  1.0  -0.1257
  C  C226  1  0.882100  0.797000  0.563100  1.0  -0.1355
  C  C227  1  0.618400  0.715400  0.014100  1.0  -0.0206
  C  C228  1  0.500000  0.264900  0.062300  1.0  0.1335
  C  C229  1  0.380800  0.171400  0.768300  1.0  -0.1113
  C  C230  1  0.619200  0.828600  0.231700  1.0  -0.1113
  C  C231  1  0.000000  0.110800  0.934300  1.0  -0.1353
  C  C232  1  0.000000  0.266400  0.660000  1.0  -0.0587
  C  C233  1  0.119200  0.328600  0.268300  1.0  -0.111
  C  C234  1  0.882100  0.203000  0.436900  1.0  -0.136
  C  C235  1  0.613200  0.878100  0.245100  1.0  -0.0864
  C  C236  1  0.500000  0.433500  0.410800  1.0  -0.0486
  O  O237  1  0.343100  0.676600  0.728300  1.0  -0.5585
  O  O238  1  0.273400  0.761000  0.201500  1.0  -0.6287
  O  O239  1  0.726600  0.239000  0.798500  1.0  -0.6306
  O  O240  1  0.773400  0.261000  0.298500  1.0  -0.629
  O  O241  1  0.887700  0.370000  0.800340  1.0  -0.5906
  O  O242  1  0.344100  0.213840  0.431950  1.0  -0.601
  O  O243  1  0.612300  0.870000  0.699660  1.0  -0.5911
  O  O244  1  0.500000  0.306000  0.427500  1.0  -0.5919
  O  O245  1  0.612300  0.130000  0.300340  1.0  -0.5898
  O  O246  1  0.844100  0.713840  0.068050  1.0  -0.6006
  O  O247  1  0.741800  0.686500  0.133020  1.0  -0.5989
  O  O248  1  0.155900  0.713840  0.068050  1.0  -0.6004
  O  O249  1  0.226600  0.739000  0.701500  1.0  -0.6299
  O  O250  1  0.241800  0.813500  0.633020  1.0  -0.5988
  O  O251  1  0.241800  0.186500  0.366980  1.0  -0.5991
  O  O252  1  0.500000  0.235360  0.332240  1.0  -1.1342
  O  O253  1  0.258200  0.313500  0.866980  1.0  -0.5983
  O  O254  1  0.394300  0.209700  0.230400  1.0  -0.5992
  O  O255  1  0.500000  0.347300  0.360900  1.0  -0.5683
  O  O256  1  0.343100  0.323400  0.271700  1.0  -0.5562
  O  O257  1  0.500000  0.694000  0.572500  1.0  -0.5914
  O  O258  1  0.887700  0.630000  0.199660  1.0  -0.5904
  O  O259  1  0.344100  0.786160  0.568050  1.0  -0.6014
  O  O260  1  0.273400  0.239000  0.798500  1.0  -0.6307
  O  O261  1  0.843100  0.823400  0.228300  1.0  -0.5584
  O  O262  1  0.758200  0.186500  0.366980  1.0  -0.599
  O  O263  1  0.773400  0.739000  0.701500  1.0  -0.6305
  O  O264  1  0.500000  0.764640  0.667760  1.0  -1.134
  O  O265  1  0.155900  0.286160  0.931950  1.0  -0.6028
  O  O266  1  0.226600  0.261000  0.298500  1.0  -0.6291
  O  O267  1  0.156900  0.176600  0.771700  1.0  -0.5566
  O  O268  1  0.500000  0.652700  0.639100  1.0  -0.569
  O  O269  1  0.726600  0.761000  0.201500  1.0  -0.6292
  O  O270  1  0.656900  0.676600  0.728300  1.0  -0.5553
  O  O271  1  0.894300  0.290300  0.730400  1.0  -0.5989
  O  O272  1  0.387700  0.130000  0.300340  1.0  -0.5917
  O  O273  1  0.387700  0.870000  0.699660  1.0  -0.5919
  O  O274  1  0.000000  0.264640  0.832240  1.0  -1.1341
  O  O275  1  0.000000  0.152700  0.860900  1.0  -0.5691
  O  O276  1  0.758200  0.813500  0.633020  1.0  -0.5986
  O  O277  1  0.844100  0.286160  0.931950  1.0  -0.6018
  O  O278  1  0.000000  0.194000  0.927500  1.0  -0.5914
  O  O279  1  0.741800  0.313500  0.866980  1.0  -0.5987
  O  O280  1  0.000000  0.735360  0.167760  1.0  -1.1341
  O  O281  1  0.656900  0.323400  0.271700  1.0  -0.5568
  O  O282  1  0.655900  0.786160  0.568050  1.0  -0.6017
  O  O283  1  0.112300  0.370000  0.800340  1.0  -0.5913
  O  O284  1  0.112300  0.630000  0.199660  1.0  -0.5896
  O  O285  1  0.000000  0.847300  0.139100  1.0  -0.569
  O  O286  1  0.000000  0.806000  0.072500  1.0  -0.5901
  O  O287  1  0.655900  0.213840  0.431950  1.0  -0.6019
  O  O288  1  0.394300  0.790300  0.769600  1.0  -0.5993
  O  O289  1  0.258200  0.686500  0.133020  1.0  -0.5994
  O  O290  1  0.605700  0.209700  0.230400  1.0  -0.6001
  O  O291  1  0.156900  0.823400  0.228300  1.0  -0.5558
  O  O292  1  0.105700  0.709700  0.269600  1.0  -0.5998
  O  O293  1  0.843100  0.176600  0.771700  1.0  -0.5563
  O  O294  1  0.894300  0.709700  0.269600  1.0  -0.5987
  O  O295  1  0.605700  0.790300  0.769600  1.0  -0.6001
  O  O296  1  0.105700  0.290300  0.730400  1.0  -0.5999
