# generated using pymatgen
data_CoH4(C3O2)4
_symmetry_space_group_name_H-M   'P 1'
_cell_length_a   15.35520000
_cell_length_b   15.35520000
_cell_length_c   16.95800000
_cell_angle_alpha   67.50300000
_cell_angle_beta   67.50300000
_cell_angle_gamma   64.43110000
_symmetry_Int_Tables_number   1
_chemical_formula_structural   CoH4(C3O2)4
_chemical_formula_sum   'Co6 H24 C72 O48'
_cell_volume   3216.86937186
_cell_formula_units_Z   6
loop_
 _symmetry_equiv_pos_site_id
 _symmetry_equiv_pos_as_xyz
  1  'x, y, z'
loop_
 _atom_site_type_symbol
 _atom_site_label
 _atom_site_symmetry_multiplicity
 _atom_site_fract_x
 _atom_site_fract_y
 _atom_site_fract_z
 _atom_site_occupancy
 _atom_site_charge
  Co  Co1  1  0.458220  0.267100  0.382580  1.0  1.1528
  Co  Co2  1  0.732900  0.541780  0.117420  1.0  1.1517
  Co  Co3  1  0.343010  0.656990  0.750000  1.0  1.1297
  Co  Co4  1  0.267100  0.458220  0.882580  1.0  1.1516
  Co  Co5  1  0.656990  0.343010  0.250000  1.0  1.1256
  Co  Co6  1  0.541780  0.732900  0.617420  1.0  1.1534
  H  H7  1  0.963000  0.635200  0.944400  1.0  0.1445
  H  H8  1  0.436000  0.342400  0.612500  1.0  0.1487
  H  H9  1  0.684300  0.405500  0.450700  1.0  0.1361
  H  H10  1  0.364800  0.037000  0.555600  1.0  0.1443
  H  H11  1  0.895100  0.755900  0.358600  1.0  0.1582
  H  H12  1  0.037000  0.364800  0.055600  1.0  0.144
  H  H13  1  0.045900  0.840700  0.722600  1.0  0.1498
  H  H14  1  0.342400  0.436000  0.112500  1.0  0.1476
  H  H15  1  0.564000  0.657600  0.387500  1.0  0.1478
  H  H16  1  0.244100  0.104900  0.141400  1.0  0.1571
  H  H17  1  0.315700  0.594500  0.549300  1.0  0.1363
  H  H18  1  0.405500  0.684300  0.950700  1.0  0.1375
  H  H19  1  0.840700  0.045900  0.222600  1.0  0.1493
  H  H20  1  0.594500  0.315700  0.049300  1.0  0.1368
  H  H21  1  0.635200  0.963000  0.444400  1.0  0.1448
  H  H22  1  0.104900  0.244100  0.641400  1.0  0.1574
  H  H23  1  0.954100  0.159300  0.277400  1.0  0.1497
  H  H24  1  0.755900  0.895100  0.858600  1.0  0.1572
  H  H25  1  0.495700  0.547500  0.173500  1.0  0.1416
  H  H26  1  0.159300  0.954100  0.777400  1.0  0.1495
  H  H27  1  0.452500  0.504300  0.326500  1.0  0.1413
  H  H28  1  0.657600  0.564000  0.887500  1.0  0.1468
  H  H29  1  0.547500  0.495700  0.673500  1.0  0.1416
  H  H30  1  0.504300  0.452500  0.826500  1.0  0.1405
  C  C31  1  0.610600  0.563200  0.267900  1.0  0.6946
  C  C32  1  0.521400  0.579000  0.345000  1.0  -0.092
  C  C33  1  0.371300  0.483900  0.098700  1.0  0.0146
  C  C34  1  0.765900  0.730700  0.990800  1.0  0.7174
  C  C35  1  0.180500  0.003700  0.731100  1.0  0.0491
  C  C36  1  0.021500  0.724500  0.831300  1.0  -0.1266
  C  C37  1  0.238400  0.153000  0.585900  1.0  -0.1125
  C  C38  1  0.656700  0.127500  0.317100  1.0  0.7525
  C  C39  1  0.819500  0.996300  0.268900  1.0  0.0487
  C  C40  1  0.852600  0.822000  0.351600  1.0  0.0791
  C  C41  1  0.343300  0.872500  0.682900  1.0  0.7528
  C  C42  1  0.456600  0.628800  0.059000  1.0  -0.1197
  C  C43  1  0.178000  0.147400  0.148400  1.0  0.0803
  C  C44  1  0.946800  0.696800  0.903400  1.0  0.0699
  C  C45  1  0.562800  0.365400  0.520500  1.0  -0.0949
  C  C46  1  0.563200  0.610600  0.767900  1.0  0.6945
  C  C47  1  0.463100  0.551100  0.135400  1.0  -0.0281
  C  C48  1  0.269300  0.234100  0.509200  1.0  0.7186
  C  C49  1  0.978500  0.275500  0.168700  1.0  -0.1272
  C  C50  1  0.147400  0.178000  0.648400  1.0  0.0785
  C  C51  1  0.104000  0.120200  0.221600  1.0  -0.0987
  C  C52  1  0.506200  0.705800  0.030600  1.0  0.7041
  C  C53  1  0.127500  0.656700  0.817100  1.0  0.7518
  C  C54  1  0.371200  0.543400  0.441000  1.0  -0.1208
  C  C55  1  0.561700  0.322500  0.455300  1.0  0.7391
  C  C56  1  0.628700  0.516100  0.901300  1.0  0.0134
  C  C57  1  0.303200  0.053200  0.596600  1.0  0.0682
  C  C58  1  0.365400  0.562800  0.020500  1.0  -0.1002
  C  C59  1  0.053200  0.303200  0.096600  1.0  0.0676
  C  C60  1  0.367200  0.591400  0.497600  1.0  0.0174
  C  C61  1  0.634600  0.437200  0.979500  1.0  -0.0976
  C  C62  1  0.294200  0.493800  0.469400  1.0  0.7007
  C  C63  1  0.872500  0.343300  0.182900  1.0  0.7532
  C  C64  1  0.516100  0.628700  0.401300  1.0  0.0124
  C  C65  1  0.322500  0.561700  0.955300  1.0  0.734
  C  C66  1  0.896000  0.879800  0.778400  1.0  -0.099
  C  C67  1  0.976400  0.867600  0.207000  1.0  0.6867
  C  C68  1  0.579000  0.521400  0.845000  1.0  -0.0942
  C  C69  1  0.705800  0.506200  0.530600  1.0  0.6977
  C  C70  1  0.632800  0.408600  0.502400  1.0  0.0163
  C  C71  1  0.677500  0.438300  0.044700  1.0  0.7322
  C  C72  1  0.847000  0.761600  0.914100  1.0  -0.1127
  C  C73  1  0.234100  0.269300  0.009200  1.0  0.7182
  C  C74  1  0.551100  0.463100  0.635400  1.0  -0.0293
  C  C75  1  0.483900  0.371300  0.598700  1.0  0.014
  C  C76  1  0.389400  0.436800  0.732100  1.0  0.6937
  C  C77  1  0.275500  0.978500  0.668700  1.0  -0.1276
  C  C78  1  0.132400  0.023600  0.293000  1.0  0.6851
  C  C79  1  0.448900  0.536900  0.364600  1.0  -0.028
  C  C80  1  0.003700  0.180500  0.231100  1.0  0.0458
  C  C81  1  0.761600  0.847000  0.414100  1.0  -0.1128
  C  C82  1  0.408600  0.632800  0.002400  1.0  0.02
  C  C83  1  0.591400  0.367200  0.997600  1.0  0.0173
  C  C84  1  0.153000  0.238400  0.085900  1.0  -0.1128
  C  C85  1  0.437200  0.634600  0.479500  1.0  -0.0968
  C  C86  1  0.879800  0.896000  0.278400  1.0  -0.0995
  C  C87  1  0.628800  0.456600  0.559000  1.0  -0.1244
  C  C88  1  0.696800  0.946800  0.403400  1.0  0.0671
  C  C89  1  0.867600  0.976400  0.707000  1.0  0.6865
  C  C90  1  0.996300  0.819500  0.768900  1.0  0.0483
  C  C91  1  0.023600  0.132400  0.793000  1.0  0.6888
  C  C92  1  0.478600  0.421000  0.655000  1.0  -0.0918
  C  C93  1  0.543400  0.371200  0.941000  1.0  -0.1218
  C  C94  1  0.724500  0.021500  0.331300  1.0  -0.1269
  C  C95  1  0.436800  0.389400  0.232100  1.0  0.6968
  C  C96  1  0.730700  0.765900  0.490800  1.0  0.7181
  C  C97  1  0.120200  0.104000  0.721600  1.0  -0.0996
  C  C98  1  0.438300  0.677500  0.544700  1.0  0.7391
  C  C99  1  0.421000  0.478600  0.155000  1.0  -0.0934
  C  C100  1  0.493800  0.294200  0.969400  1.0  0.7028
  C  C101  1  0.822000  0.852600  0.851600  1.0  0.0801
  C  C102  1  0.536900  0.448900  0.864600  1.0  -0.0282
  O  O103  1  0.998200  0.060800  0.852200  1.0  -0.4767
  O  O104  1  0.358280  0.204480  0.460700  1.0  -0.5705
  O  O105  1  0.691470  0.193470  0.262500  1.0  -0.5574
  O  O106  1  0.777000  0.023000  0.709300  1.0  -0.4824
  O  O107  1  0.939200  0.001800  0.647800  1.0  -0.4757
  O  O108  1  0.860160  0.433760  0.135900  1.0  -0.5785
  O  O109  1  0.374520  0.498520  0.773600  1.0  -0.6184
  O  O110  1  0.632030  0.325230  0.383200  1.0  -0.6038
  O  O111  1  0.023000  0.777000  0.209300  1.0  -0.4783
  O  O112  1  0.709500  0.507300  0.026700  1.0  -0.544
  O  O113  1  0.290500  0.492700  0.973300  1.0  -0.5438
  O  O114  1  0.678730  0.789530  0.001000  1.0  -0.4515
  O  O115  1  0.795520  0.641720  0.039300  1.0  -0.5739
  O  O116  1  0.498520  0.374520  0.273600  1.0  -0.6199
  O  O117  1  0.806530  0.308530  0.237500  1.0  -0.5563
  O  O118  1  0.367970  0.674770  0.616800  1.0  -0.6069
  O  O119  1  0.667280  0.612880  0.240000  1.0  -0.5563
  O  O120  1  0.501480  0.625480  0.726400  1.0  -0.6225
  O  O121  1  0.139840  0.566240  0.864100  1.0  -0.5793
  O  O122  1  0.674770  0.367970  0.116800  1.0  -0.6074
  O  O123  1  0.492700  0.290500  0.473300  1.0  -0.5479
  O  O124  1  0.442120  0.307720  0.915700  1.0  -0.555
  O  O125  1  0.433760  0.860160  0.635900  1.0  -0.5766
  O  O126  1  0.612880  0.667280  0.740000  1.0  -0.5526
  O  O127  1  0.060800  0.998200  0.352200  1.0  -0.4756
  O  O128  1  0.332720  0.387120  0.760000  1.0  -0.5593
  O  O129  1  0.566240  0.139840  0.364100  1.0  -0.5766
  O  O130  1  0.789530  0.678730  0.501000  1.0  -0.4533
  O  O131  1  0.692280  0.557880  0.584300  1.0  -0.5536
  O  O132  1  0.001800  0.939200  0.147800  1.0  -0.478
  O  O133  1  0.193470  0.691470  0.762500  1.0  -0.5575
  O  O134  1  0.502600  0.225800  0.034600  1.0  -0.4297
  O  O135  1  0.387120  0.332720  0.260000  1.0  -0.5571
  O  O136  1  0.625480  0.501480  0.226400  1.0  -0.6231
  O  O137  1  0.774200  0.497400  0.465400  1.0  -0.4286
  O  O138  1  0.223000  0.977000  0.290700  1.0  -0.4818
  O  O139  1  0.225800  0.502600  0.534600  1.0  -0.4284
  O  O140  1  0.204480  0.358280  0.960700  1.0  -0.5722
  O  O141  1  0.497400  0.774200  0.965400  1.0  -0.4277
  O  O142  1  0.307720  0.442120  0.415700  1.0  -0.5546
  O  O143  1  0.507300  0.709500  0.526700  1.0  -0.549
  O  O144  1  0.308530  0.806530  0.737500  1.0  -0.559
  O  O145  1  0.557880  0.692280  0.084300  1.0  -0.5564
  O  O146  1  0.325230  0.632030  0.883200  1.0  -0.6104
  O  O147  1  0.977000  0.223000  0.790700  1.0  -0.478
  O  O148  1  0.641720  0.795520  0.539300  1.0  -0.5726
  O  O149  1  0.321270  0.210470  0.999000  1.0  -0.4527
  O  O150  1  0.210470  0.321270  0.499000  1.0  -0.453
