# generated using pymatgen
data_Cu3H20C28(NO7)2
_symmetry_space_group_name_H-M   'P 1'
_cell_length_a   11.07490000
_cell_length_b   12.20940000
_cell_length_c   19.50740000
_cell_angle_alpha   92.45960000
_cell_angle_beta   90.00000000
_cell_angle_gamma   116.97100000
_symmetry_Int_Tables_number   1
_chemical_formula_structural   Cu3H20C28(NO7)2
_chemical_formula_sum   'Cu6 H40 C56 N4 O28'
_cell_volume   2348.13073103
_cell_formula_units_Z   2
loop_
 _symmetry_equiv_pos_site_id
 _symmetry_equiv_pos_as_xyz
  1  'x, y, z'
loop_
 _atom_site_type_symbol
 _atom_site_label
 _atom_site_symmetry_multiplicity
 _atom_site_fract_x
 _atom_site_fract_y
 _atom_site_fract_z
 _atom_site_occupancy
 _atom_site_charge
  Cu  Cu1  1  0.545850  0.038260  0.437650  1.0  0.8797
  Cu  Cu2  1  0.186980  0.243720  0.850300  1.0  0.9029
  Cu  Cu3  1  0.507590  0.961740  0.562350  1.0  0.8777
  Cu  Cu4  1  0.096810  0.395840  0.805160  1.0  0.9254
  Cu  Cu5  1  0.943260  0.756280  0.149700  1.0  0.9051
  Cu  Cu6  1  0.700970  0.604160  0.194840  1.0  0.923
  H  H7  1  0.008500  0.170000  0.446200  1.0  0.0795
  H  H8  1  0.156300  0.423200  0.478700  1.0  0.0898
  H  H9  1  0.684900  0.750400  0.742500  1.0  0.0917
  H  H10  1  0.733100  0.576800  0.521300  1.0  0.0898
  H  H11  1  0.498500  0.529000  0.992800  1.0  0.1069
  H  H12  1  0.780100  0.942600  0.650200  1.0  0.0692
  H  H13  1  0.492900  0.722000  0.831700  1.0  0.106
  H  H14  1  0.837500  0.057400  0.349800  1.0  0.0692
  H  H15  1  0.902500  0.287800  0.600900  1.0  0.0968
  H  H16  1  0.770900  0.278000  0.168300  1.0  0.1051
  H  H17  1  0.898300  0.964600  0.334100  1.0  0.0651
  H  H18  1  0.799100  0.773600  0.798000  1.0  0.0897
  H  H19  1  0.074000  0.239000  0.585900  1.0  0.073
  H  H20  1  0.145700  0.810600  0.347500  1.0  0.1092
  H  H21  1  0.692900  0.951600  0.262600  1.0  0.0975
  H  H22  1  0.614700  0.712200  0.399100  1.0  0.0962
  H  H23  1  0.933700  0.035400  0.665900  1.0  0.0643
  H  H24  1  0.790200  0.876000  0.974400  1.0  0.1054
  H  H25  1  0.838500  0.830000  0.553800  1.0  0.0795
  H  H26  1  0.966400  0.898800  0.730500  1.0  0.0692
  H  H27  1  0.335100  0.189400  0.652500  1.0  0.1082
  H  H28  1  0.826200  0.487200  0.381500  1.0  0.1125
  H  H29  1  0.741300  0.048400  0.737400  1.0  0.0963
  H  H30  1  0.138900  0.628400  0.516800  1.0  0.103
  H  H31  1  0.067600  0.101200  0.269500  1.0  0.0701
  H  H32  1  0.056700  0.191400  0.326800  1.0  0.0666
  H  H33  1  0.844500  0.886200  0.445200  1.0  0.084
  H  H34  1  0.915900  0.761200  0.520000  1.0  0.0733
  H  H35  1  0.025500  0.226400  0.202000  1.0  0.0881
  H  H36  1  0.691800  0.640200  0.582900  1.0  0.0749
  H  H37  1  0.835000  0.761000  0.414100  1.0  0.0732
  H  H38  1  0.154700  0.238800  0.480000  1.0  0.074
  H  H39  1  0.914200  0.124000  0.025600  1.0  0.1059
  H  H40  1  0.051600  0.359800  0.417100  1.0  0.074
  H  H41  1  0.958300  0.113800  0.554800  1.0  0.0849
  H  H42  1  0.339000  0.512800  0.618500  1.0  0.1127
  H  H43  1  0.510500  0.371600  0.483200  1.0  0.104
  H  H44  1  0.934500  0.249600  0.257500  1.0  0.0908
  H  H45  1  0.969500  0.471000  0.007200  1.0  0.1067
  H  H46  1  0.865300  0.808600  0.673200  1.0  0.0662
  C  C47  1  0.902500  0.191000  0.042400  1.0  -0.0334
  C  C48  1  0.652400  0.702200  0.994400  1.0  -0.1613
  C  C49  1  0.161100  0.737600  0.437200  1.0  -0.1726
  C  C50  1  0.463700  0.366200  0.523500  1.0  -0.0369
  C  C51  1  0.803300  0.866000  0.218800  1.0  0.6611
  C  C52  1  0.934900  0.399200  0.031200  1.0  -0.0028
  C  C53  1  0.008200  0.132000  0.289600  1.0  -0.1605
  C  C54  1  0.064300  0.232800  0.480300  1.0  -0.1588
  C  C55  1  0.958300  0.188600  0.236700  1.0  -0.0162
  C  C56  1  0.714700  0.929800  0.856500  1.0  0.5559
  C  C57  1  0.904100  0.256400  0.554000  1.0  0.0112
  C  C58  1  0.004400  0.202000  0.550100  1.0  -0.1711
  C  C59  1  0.911600  0.548800  0.394700  1.0  -0.0719
  C  C60  1  0.475100  0.606400  0.907900  1.0  -0.1266
  C  C61  1  0.937300  0.134000  0.781200  1.0  0.6593
  C  C62  1  0.357900  0.256200  0.625200  1.0  -0.0017
  C  C63  1  0.811100  0.023600  0.749100  1.0  0.0462
  C  C64  1  0.452600  0.158800  0.538700  1.0  0.671
  C  C65  1  0.868700  0.393600  0.092100  1.0  -0.126
  C  C66  1  0.769700  0.811400  0.763300  1.0  -0.0162
  C  C67  1  0.876200  0.868000  0.710400  1.0  -0.1581
  C  C68  1  0.535700  0.600800  0.968800  1.0  -0.0025
  C  C69  1  0.647700  0.743600  0.446000  1.0  0.0114
  C  C70  1  0.097500  0.633800  0.476500  1.0  -0.0358
  C  C71  1  0.762600  0.159400  0.531600  1.0  0.6653
  C  C72  1  0.912500  0.657400  0.287800  1.0  0.6879
  C  C73  1  0.652900  0.815200  0.896300  1.0  0.017
  C  C74  1  0.717100  0.694200  0.060900  1.0  0.6843
  C  C75  1  0.976900  0.649000  0.354300  1.0  -0.0916
  C  C76  1  0.831500  0.767200  0.519700  1.0  -0.1595
  C  C77  1  0.101700  0.743800  0.374800  1.0  -0.0031
  C  C78  1  0.255100  0.342600  0.712200  1.0  0.6877
  C  C79  1  0.879300  0.027400  0.315000  1.0  -0.1458
  C  C80  1  0.423500  0.262400  0.562800  1.0  -0.1731
  C  C81  1  0.362800  0.451200  0.605300  1.0  -0.0742
  C  C82  1  0.069100  0.355800  0.465400  1.0  -0.0428
  C  C83  1  0.293800  0.841200  0.461300  1.0  0.6712
  C  C84  1  0.711500  0.809000  0.957600  1.0  -0.0344
  C  C85  1  0.850500  0.499600  0.121700  1.0  0.7009
  C  C86  1  0.534100  0.716200  0.872000  1.0  -0.047
  C  C87  1  0.433900  0.460600  0.544500  1.0  -0.0125
  C  C88  1  0.603200  0.840600  0.468400  1.0  0.6662
  C  C89  1  0.837700  0.184800  0.103700  1.0  0.0181
  C  C90  1  0.950200  0.297800  0.005600  1.0  -0.1608
  C  C91  1  0.784900  0.070200  0.143500  1.0  0.5567
  C  C92  1  0.903400  0.433000  0.499900  1.0  0.5986
  C  C93  1  0.022900  0.305800  0.939100  1.0  0.6837
  C  C94  1  0.350900  0.500400  0.878300  1.0  0.7006
  C  C95  1  0.851900  0.972600  0.685000  1.0  -0.1433
  C  C96  1  0.470400  0.567000  0.500100  1.0  0.5996
  C  C97  1  0.817900  0.283800  0.128000  1.0  -0.0467
  C  C98  1  0.327900  0.351000  0.645700  1.0  -0.0933
  C  C99  1  0.802400  0.798000  0.449900  1.0  -0.1702
  C  C100  1  0.973300  0.539400  0.455500  1.0  -0.0123
  C  C101  1  0.713300  0.644200  0.534600  1.0  -0.0419
  C  C102  1  0.787500  0.976400  0.250900  1.0  0.0456
  N  N103  1  0.961100  0.358800  0.507500  1.0  -0.1369
  N  N104  1  0.602300  0.641200  0.492500  1.0  -0.1366
  N  N105  1  0.836780  0.080560  0.207200  1.0  -0.1295
  N  N106  1  0.756220  0.919440  0.792800  1.0  -0.1296
  O  O107  1  0.843000  0.763200  0.067870  1.0  -0.5957
  O  O108  1  0.020880  0.377960  0.897000  1.0  -0.5885
  O  O109  1  0.334800  0.395600  0.890600  1.0  -0.5882
  O  O110  1  0.383660  0.583720  0.469600  1.0  -0.5351
  O  O111  1  0.730890  0.147380  0.468640  1.0  -0.5689
  O  O112  1  0.642920  0.622040  0.103000  1.0  -0.5872
  O  O113  1  0.583510  0.852620  0.531360  1.0  -0.5709
  O  O114  1  0.272410  0.524820  0.842840  1.0  -0.5738
  O  O115  1  0.270100  0.278200  0.757170  1.0  -0.6249
  O  O116  1  0.357280  0.919360  0.418100  1.0  -0.5834
  O  O117  1  0.913910  0.890420  0.190650  1.0  -0.5763
  O  O118  1  0.785450  0.598300  0.281850  1.0  -0.5804
  O  O119  1  0.187150  0.401700  0.718150  1.0  -0.5819
  O  O120  1  0.331920  0.840640  0.521590  1.0  -0.5851
  O  O121  1  0.799940  0.416280  0.530400  1.0  -0.534
  O  O122  1  0.747590  0.475180  0.157160  1.0  -0.5741
  O  O123  1  0.706520  0.761840  0.227330  1.0  -0.5953
  O  O124  1  0.491280  0.159360  0.478410  1.0  -0.5839
  O  O125  1  0.727130  0.027860  0.880800  1.0  -0.4894
  O  O126  1  0.939200  0.604400  0.109400  1.0  -0.5881
  O  O127  1  0.594250  0.902900  0.421630  1.0  -0.5636
  O  O128  1  0.437920  0.080640  0.581900  1.0  -0.5828
  O  O129  1  0.691350  0.097100  0.578370  1.0  -0.5634
  O  O130  1  0.699270  0.972140  0.119200  1.0  -0.49
  O  O131  1  0.079800  0.236800  0.932130  1.0  -0.5943
  O  O132  1  0.023490  0.109580  0.809350  1.0  -0.5771
  O  O133  1  0.944680  0.238160  0.772670  1.0  -0.5977
  O  O134  1  0.991900  0.721800  0.242830  1.0  -0.6243
