# generated using pymatgen
data_FeH8PtC14SN6
_symmetry_space_group_name_H-M   'P 1'
_cell_length_a   10.95550000
_cell_length_b   14.43970000
_cell_length_c   14.71730000
_cell_angle_alpha   85.06200000
_cell_angle_beta   69.98300000
_cell_angle_gamma   78.37800000
_symmetry_Int_Tables_number   1
_chemical_formula_structural   FeH8PtC14SN6
_chemical_formula_sum   'Fe4 H32 Pt4 C56 S4 N24'
_cell_volume   2142.32716497
_cell_formula_units_Z   4
loop_
 _symmetry_equiv_pos_site_id
 _symmetry_equiv_pos_as_xyz
  1  'x, y, z'
loop_
 _atom_site_type_symbol
 _atom_site_label
 _atom_site_symmetry_multiplicity
 _atom_site_fract_x
 _atom_site_fract_y
 _atom_site_fract_z
 _atom_site_occupancy
 _atom_site_charge
  Fe  Fe1  1  0.533090  0.250570  0.505320  1.0  0.6515
  Fe  Fe2  1  0.466910  0.749430  0.494680  1.0  0.6508
  Fe  Fe3  1  0.890940  0.750940  0.983460  1.0  0.9742
  Fe  Fe4  1  0.109060  0.249060  0.016540  1.0  0.9748
  H  H5  1  0.330200  0.166400  0.467000  1.0  0.083
  H  H6  1  0.854500  0.788800  0.579900  1.0  0.1087
  H  H7  1  0.950500  0.090800  0.845400  1.0  0.1139
  H  H8  1  0.894700  0.594500  0.380500  1.0  0.1104
  H  H9  1  0.383300  0.431100  0.447100  1.0  0.0781
  H  H10  1  0.105300  0.405500  0.619500  1.0  0.1107
  H  H11  1  0.314300  0.931900  0.448100  1.0  0.0798
  H  H12  1  0.920500  0.109000  0.362200  1.0  0.1049
  H  H13  1  0.218600  0.547700  0.077500  1.0  0.0922
  H  H14  1  0.616700  0.568900  0.552900  1.0  0.0779
  H  H15  1  0.732100  0.332100  0.554600  1.0  0.0799
  H  H16  1  0.824400  0.583900  0.818000  1.0  0.1196
  H  H17  1  0.887800  0.971500  0.959500  1.0  0.0707
  H  H18  1  0.013100  0.779400  0.758600  1.0  0.0705
  H  H19  1  0.199400  0.482800  0.401600  1.0  0.1167
  H  H20  1  0.049500  0.909200  0.154600  1.0  0.1136
  H  H21  1  0.918500  0.282400  0.599200  1.0  0.0992
  H  H22  1  0.145500  0.211200  0.420100  1.0  0.1092
  H  H23  1  0.267900  0.667900  0.445400  1.0  0.0804
  H  H24  1  0.685700  0.068100  0.551900  1.0  0.0793
  H  H25  1  0.800600  0.517200  0.598400  1.0  0.117
  H  H26  1  0.175600  0.416100  0.182000  1.0  0.1193
  H  H27  1  0.079500  0.891000  0.637800  1.0  0.1046
  H  H28  1  0.112200  0.028500  0.040500  1.0  0.0715
  H  H29  1  0.781400  0.452300  0.922500  1.0  0.0908
  H  H30  1  0.058100  0.282000  0.732500  1.0  0.0686
  H  H31  1  0.128300  0.989000  0.404900  1.0  0.1076
  H  H32  1  0.669800  0.833600  0.533000  1.0  0.083
  H  H33  1  0.986900  0.220600  0.241400  1.0  0.0706
  H  H34  1  0.941900  0.718000  0.267500  1.0  0.067
  H  H35  1  0.871700  0.011000  0.595100  1.0  0.1077
  H  H36  1  0.081500  0.717600  0.400800  1.0  0.1
  Pt  Pt37  1  0.266840  0.507370  0.746160  1.0  0.3716
  Pt  Pt38  1  0.334940  0.003260  0.747230  1.0  0.3769
  Pt  Pt39  1  0.665060  0.996740  0.252770  1.0  0.3773
  Pt  Pt40  1  0.733160  0.492630  0.253840  1.0  0.3699
  C  C41  1  0.223900  0.417600  0.415500  1.0  -0.1404
  C  C42  1  0.039600  0.909600  0.703400  1.0  -0.1236
  C  C43  1  0.154900  0.922800  0.412500  1.0  -0.1179
  C  C44  1  0.333500  0.386000  0.442600  1.0  0.1556
  C  C45  1  0.000400  0.156600  0.223700  1.0  0.1509
  C  C46  1  0.965800  0.506100  0.706900  1.0  -0.0366
  C  C47  1  0.871300  0.522100  0.798400  1.0  -0.1024
  C  C48  1  0.847900  0.443300  0.860800  1.0  0.1426
  C  C49  1  0.719600  0.096900  0.152600  1.0  0.0861
  C  C50  1  0.870000  0.397900  0.165000  1.0  0.1174
  C  C51  1  0.397600  0.104300  0.651800  1.0  0.1133
  C  C52  1  0.280400  0.903100  0.847400  1.0  0.0836
  C  C53  1  0.127600  0.763000  0.410300  1.0  -0.0691
  C  C54  1  0.082800  0.860000  0.397100  1.0  -0.0706
  C  C55  1  0.666500  0.614000  0.557400  1.0  0.1559
  C  C56  1  0.961500  0.583200  0.319100  1.0  -0.1451
  C  C57  1  0.152100  0.556700  0.139200  1.0  0.1427
  C  C58  1  0.192100  0.257600  0.426700  1.0  -0.0799
  C  C59  1  0.073300  0.044600  0.106800  1.0  0.1507
  C  C60  1  0.149100  0.353000  0.408800  1.0  -0.0546
  C  C61  1  0.960400  0.090400  0.296600  1.0  -0.1235
  C  C62  1  0.394100  0.407600  0.656900  1.0  0.0117
  C  C63  1  0.036600  0.972500  0.174100  1.0  -0.1317
  C  C64  1  0.034200  0.493900  0.293100  1.0  -0.0383
  C  C65  1  0.038500  0.416800  0.680900  1.0  -0.1459
  C  C66  1  0.792800  0.590600  0.151500  1.0  0.0959
  C  C67  1  0.207200  0.409400  0.848500  1.0  0.0938
  C  C68  1  0.760800  0.266300  0.562900  1.0  0.1594
  C  C69  1  0.285400  0.094900  0.853300  1.0  0.0632
  C  C70  1  0.807900  0.742400  0.573300  1.0  -0.0793
  C  C71  1  0.239200  0.733700  0.437100  1.0  0.1592
  C  C72  1  0.963400  0.027500  0.825900  1.0  -0.1303
  C  C73  1  0.872400  0.237000  0.589700  1.0  -0.07
  C  C74  1  0.328700  0.607200  0.646800  1.0  0.0611
  C  C75  1  0.734000  0.112100  0.561100  1.0  0.1636
  C  C76  1  0.620600  0.092300  0.354900  1.0  0.1014
  C  C77  1  0.979700  0.997000  0.272100  1.0  -0.0594
  C  C78  1  0.130000  0.602100  0.835000  1.0  0.1169
  C  C79  1  0.602400  0.895700  0.348200  1.0  0.114
  C  C80  1  0.128700  0.477900  0.201600  1.0  -0.1021
  C  C81  1  0.020300  0.003000  0.727900  1.0  -0.0588
  C  C82  1  0.917200  0.140000  0.602900  1.0  -0.0722
  C  C83  1  0.714600  0.905100  0.146700  1.0  0.061
  C  C84  1  0.303000  0.231400  0.454000  1.0  0.1583
  C  C85  1  0.697000  0.768600  0.546000  1.0  0.1557
  C  C86  1  0.009100  0.344000  0.749100  1.0  0.136
  C  C87  1  0.845100  0.077200  0.587500  1.0  -0.1179
  C  C88  1  0.990900  0.656000  0.250900  1.0  0.1358
  C  C89  1  0.605900  0.592400  0.343100  1.0  0.0141
  C  C90  1  0.999600  0.843400  0.776300  1.0  0.1503
  C  C91  1  0.671300  0.392800  0.353200  1.0  0.0631
  C  C92  1  0.850900  0.647000  0.591200  1.0  -0.0579
  C  C93  1  0.379400  0.907700  0.645100  1.0  0.0982
  C  C94  1  0.266000  0.887900  0.438900  1.0  0.1641
  C  C95  1  0.926700  0.955400  0.893200  1.0  0.1505
  C  C96  1  0.776100  0.582400  0.584500  1.0  -0.1399
  S  S97  1  0.011230  0.612520  0.622020  1.0  -0.0305
  S  S98  1  0.988770  0.387480  0.377980  1.0  -0.0314
  S  S99  1  0.922900  0.899680  0.367220  1.0  -0.0712
  S  S100  1  0.077100  0.100320  0.632780  1.0  -0.0715
  N  N101  1  0.405000  0.848600  0.589700  1.0  -0.3803
  N  N102  1  0.441000  0.162500  0.598800  1.0  -0.3534
  N  N103  1  0.083900  0.643700  0.163900  1.0  -0.3848
  N  N104  1  0.459800  0.350000  0.601700  1.0  -0.3698
  N  N105  1  0.627400  0.338200  0.410600  1.0  -0.3483
  N  N106  1  0.250600  0.846200  0.906400  1.0  -0.4044
  N  N107  1  0.953600  0.347000  0.114000  1.0  -0.4035
  N  N108  1  0.749400  0.153800  0.093600  1.0  -0.407
  N  N109  1  0.942900  0.864500  0.870300  1.0  -0.3534
  N  N110  1  0.540200  0.650000  0.398300  1.0  -0.3698
  N  N111  1  0.375000  0.294200  0.463200  1.0  -0.3073
  N  N112  1  0.690700  0.204900  0.547900  1.0  -0.3182
  N  N113  1  0.169500  0.356600  0.908900  1.0  -0.4511
  N  N114  1  0.916100  0.356300  0.836100  1.0  -0.3814
  N  N115  1  0.830500  0.643400  0.091100  1.0  -0.4506
  N  N116  1  0.750500  0.854400  0.083300  1.0  -0.4295
  N  N117  1  0.625000  0.705800  0.536800  1.0  -0.3074
  N  N118  1  0.559000  0.837500  0.401200  1.0  -0.3517
  N  N119  1  0.595000  0.151400  0.410300  1.0  -0.3819
  N  N120  1  0.372600  0.661800  0.589400  1.0  -0.348
  N  N121  1  0.046400  0.653000  0.886000  1.0  -0.4039
  N  N122  1  0.309300  0.795100  0.452100  1.0  -0.3158
  N  N123  1  0.249500  0.145600  0.916700  1.0  -0.4307
  N  N124  1  0.057100  0.135500  0.129700  1.0  -0.3553
