# generated using pymatgen
data_Zn4H16C34O15
_symmetry_space_group_name_H-M   'P 1'
_cell_length_a   10.30600000
_cell_length_b   26.23200000
_cell_length_c   27.77600000
_cell_angle_alpha   90.00000000
_cell_angle_beta   90.00000000
_cell_angle_gamma   91.84000000
_symmetry_Int_Tables_number   1
_chemical_formula_structural   Zn4H16C34O15
_chemical_formula_sum   'Zn16 H64 C136 O60'
_cell_volume   7505.28623739
_cell_formula_units_Z   4
loop_
 _symmetry_equiv_pos_site_id
 _symmetry_equiv_pos_as_xyz
  1  'x, y, z'
loop_
 _atom_site_type_symbol
 _atom_site_label
 _atom_site_symmetry_multiplicity
 _atom_site_fract_x
 _atom_site_fract_y
 _atom_site_fract_z
 _atom_site_occupancy
 _atom_site_charge
  Zn  Zn1  1  0.314480  0.227390  0.168490  1.0  1.0288
  Zn  Zn2  1  0.044430  0.372540  0.662910  1.0  1.0028
  Zn  Zn3  1  0.891930  0.266620  0.663260  1.0  1.0617
  Zn  Zn4  1  0.040770  0.299930  0.567870  1.0  1.0853
  Zn  Zn5  1  0.685520  0.772610  0.831510  1.0  1.0298
  Zn  Zn6  1  0.814480  0.727390  0.331510  1.0  1.0293
  Zn  Zn7  1  0.955570  0.627460  0.337090  1.0  1.0036
  Zn  Zn8  1  0.455570  0.127460  0.162910  1.0  1.0037
  Zn  Zn9  1  0.959230  0.700070  0.432130  1.0  1.0841
  Zn  Zn10  1  0.185520  0.272610  0.668490  1.0  1.0294
  Zn  Zn11  1  0.540770  0.799930  0.932130  1.0  1.0844
  Zn  Zn12  1  0.608070  0.233380  0.163260  1.0  1.062
  Zn  Zn13  1  0.544430  0.872540  0.837090  1.0  1.0031
  Zn  Zn14  1  0.391930  0.766620  0.836740  1.0  1.0619
  Zn  Zn15  1  0.108070  0.733380  0.336740  1.0  1.0622
  Zn  Zn16  1  0.459230  0.200070  0.067870  1.0  1.0854
  H  H17  1  0.207900  0.772500  0.103000  1.0  0.1221
  H  H18  1  0.547900  0.341900  0.684200  1.0  0.1187
  H  H19  1  0.861200  0.963000  0.765500  1.0  0.1178
  H  H20  1  0.341800  0.245400  0.472400  1.0  0.1165
  H  H21  1  0.292100  0.727500  0.603000  1.0  0.1217
  H  H22  1  0.363100  0.189600  0.322800  1.0  0.1121
  H  H23  1  0.635100  0.802800  0.594400  1.0  0.1245
  H  H24  1  0.271100  0.451300  0.272300  1.0  0.1216
  H  H25  1  0.251100  0.965100  0.769000  1.0  0.116
  H  H26  1  0.024500  0.421700  0.466000  1.0  0.1149
  H  H27  1  0.364900  0.197200  0.405600  1.0  0.125
  H  H28  1  0.796800  0.235800  0.815000  1.0  0.1109
  H  H29  1  0.900800  0.101100  0.673700  1.0  0.1154
  H  H30  1  0.731500  0.244000  0.473900  1.0  0.1182
  H  H31  1  0.728900  0.548700  0.727700  1.0  0.1206
  H  H32  1  0.107200  0.979500  0.294100  1.0  0.1174
  H  H33  1  0.514900  0.008300  0.918800  1.0  0.1053
  H  H34  1  0.864900  0.697200  0.094400  1.0  0.1237
  H  H35  1  0.475500  0.078300  0.966000  1.0  0.1152
  H  H36  1  0.158200  0.254600  0.972400  1.0  0.1166
  H  H37  1  0.734900  0.629900  0.757800  1.0  0.1172
  H  H38  1  0.768500  0.256000  0.973900  1.0  0.1182
  H  H39  1  0.135100  0.302800  0.905600  1.0  0.1237
  H  H40  1  0.231500  0.744000  0.026100  1.0  0.1183
  H  H41  1  0.524500  0.921700  0.034000  1.0  0.1148
  H  H42  1  0.952100  0.158100  0.184200  1.0  0.1187
  H  H43  1  0.047900  0.841900  0.815800  1.0  0.1184
  H  H44  1  0.535700  0.254700  0.597500  1.0  0.121
  H  H45  1  0.099200  0.898900  0.326300  1.0  0.1156
  H  H46  1  0.658200  0.754600  0.527600  1.0  0.1173
  H  H47  1  0.296800  0.735800  0.685000  1.0  0.1108
  H  H48  1  0.771100  0.951300  0.227700  1.0  0.1213
  H  H49  1  0.985100  0.491700  0.418800  1.0  0.1053
  H  H50  1  0.400800  0.601100  0.826300  1.0  0.1156
  H  H51  1  0.975500  0.578300  0.534000  1.0  0.1152
  H  H52  1  0.863100  0.689600  0.177200  1.0  0.112
  H  H53  1  0.638800  0.537000  0.265500  1.0  0.1177
  H  H54  1  0.765100  0.870100  0.257800  1.0  0.1167
  H  H55  1  0.751100  0.465100  0.731000  1.0  0.1156
  H  H56  1  0.136900  0.310400  0.822800  1.0  0.1124
  H  H57  1  0.841800  0.745400  0.027600  1.0  0.1166
  H  H58  1  0.392800  0.520500  0.794100  1.0  0.1172
  H  H59  1  0.599200  0.398900  0.173700  1.0  0.1156
  H  H60  1  0.138800  0.037000  0.234500  1.0  0.1174
  H  H61  1  0.636900  0.810400  0.677200  1.0  0.1121
  H  H62  1  0.607200  0.479500  0.205900  1.0  0.1174
  H  H63  1  0.203200  0.764200  0.185000  1.0  0.1105
  H  H64  1  0.452100  0.658100  0.315800  1.0  0.1186
  H  H65  1  0.964300  0.245300  0.097500  1.0  0.121
  H  H66  1  0.248900  0.534900  0.269000  1.0  0.1158
  H  H67  1  0.228900  0.048700  0.772300  1.0  0.121
  H  H68  1  0.265100  0.370100  0.242200  1.0  0.1166
  H  H69  1  0.485100  0.991700  0.081200  1.0  0.1053
  H  H70  1  0.792100  0.227500  0.897000  1.0  0.1217
  H  H71  1  0.892800  0.020500  0.705900  1.0  0.1166
  H  H72  1  0.268500  0.756000  0.526100  1.0  0.1183
  H  H73  1  0.703200  0.264200  0.315000  1.0  0.1113
  H  H74  1  0.014900  0.508300  0.581200  1.0  0.1053
  H  H75  1  0.464300  0.745300  0.402500  1.0  0.121
  H  H76  1  0.748900  0.034900  0.231000  1.0  0.1159
  H  H77  1  0.707900  0.272500  0.397000  1.0  0.1221
  H  H78  1  0.035700  0.754700  0.902500  1.0  0.1211
  H  H79  1  0.234900  0.129900  0.742200  1.0  0.1168
  H  H80  1  0.361200  0.463000  0.734500  1.0  0.1178
  C  C81  1  0.294900  0.258890  0.565750  1.0  0.7485
  C  C82  1  0.862900  0.244100  0.882420  1.0  -0.1283
  C  C83  1  0.987200  0.546750  0.519610  1.0  -0.0666
  C  C84  1  0.151700  0.749510  0.960420  1.0  -0.1368
  C  C85  1  0.165700  0.107830  0.734410  1.0  -0.0352
  C  C86  1  0.419600  0.251550  0.538920  1.0  -0.1629
  C  C87  1  0.536900  0.242480  0.463590  1.0  0.0706
  C  C88  1  0.993000  0.495700  0.451910  1.0  -0.0331
  C  C89  1  0.776900  0.254180  0.567230  1.0  0.7366
  C  C90  1  0.080400  0.248450  0.038920  1.0  -0.1631
  C  C91  1  0.848300  0.250490  0.039580  1.0  -0.1368
  C  C92  1  0.665700  0.607830  0.765590  1.0  -0.0349
  C  C93  1  0.332300  0.600060  0.294670  1.0  -0.1335
  C  C94  1  0.561400  0.552870  0.272240  1.0  -0.0674
  C  C95  1  0.566600  0.788700  0.612330  1.0  -0.1621
  C  C96  1  0.579900  0.753650  0.510890  1.0  -0.0606
  C  C97  1  0.427400  0.322050  0.185470  1.0  0.7205
  C  C98  1  0.464300  0.763270  0.589180  1.0  0.0884
  C  C99  1  0.580400  0.748450  0.461080  1.0  -0.1627
  C  C100  1  0.789900  0.375430  0.688880  1.0  0.7138
  C  C101  1  0.031700  0.726300  0.189750  1.0  -0.1083
  C  C102  1  0.468300  0.773700  0.689750  1.0  -0.1074
  C  C103  1  0.338100  0.440990  0.252500  1.0  -0.1332
  C  C104  1  0.205100  0.241110  0.065750  1.0  0.7475
  C  C105  1  0.550000  0.374610  0.697190  1.0  0.0278
  C  C106  1  0.834300  0.892170  0.265590  1.0  -0.0345
  C  C107  1  0.919600  0.751550  0.961080  1.0  -0.163
  C  C108  1  0.964100  0.247690  0.064070  1.0  0.0402
  C  C109  1  0.068800  0.124420  0.704920  1.0  -0.1212
  C  C110  1  0.289900  0.875430  0.811120  1.0  0.7151
  C  C111  1  0.972000  0.279230  0.756660  1.0  0.6948
  C  C112  1  0.667700  0.399940  0.705330  1.0  -0.1333
  C  C113  1  0.533100  0.409110  0.193900  1.0  -0.0596
  C  C114  1  0.920100  0.746350  0.010890  1.0  -0.0607
  C  C115  1  0.967300  0.589200  0.439920  1.0  0.7377
  C  C116  1  0.963200  0.042250  0.712890  1.0  -0.1149
  C  C117  1  0.968300  0.273700  0.810250  1.0  -0.1073
  C  C118  1  0.035900  0.752310  0.935930  1.0  0.041
  C  C119  1  0.507000  0.004300  0.951910  1.0  -0.0325
  C  C120  1  0.036800  0.957750  0.287110  1.0  -0.1134
  C  C121  1  0.134400  0.750800  0.166850  1.0  -0.0278
  C  C122  1  0.061200  0.025040  0.741990  1.0  0.0759
  C  C123  1  0.847500  0.254820  0.989990  1.0  -0.0441
  C  C124  1  0.515200  0.957240  0.971100  1.0  -0.1275
  C  C125  1  0.934800  0.898150  0.791590  1.0  -0.1617
  C  C126  1  0.651700  0.249510  0.539580  1.0  -0.137
  C  C127  1  0.420100  0.246350  0.489110  1.0  -0.0613
  C  C128  1  0.690300  0.629790  0.303900  1.0  0.735
  C  C129  1  0.365600  0.749200  0.666850  1.0  -0.0278
  C  C130  1  0.434800  0.398150  0.708410  1.0  -0.1621
  C  C131  1  0.838100  0.940990  0.247500  1.0  -0.1335
  C  C132  1  0.963100  0.257520  0.963590  1.0  0.0706
  C  C133  1  0.056800  0.972910  0.762820  1.0  0.0563
  C  C134  1  0.472000  0.779230  0.743340  1.0  0.6944
  C  C135  1  0.572600  0.677950  0.814530  1.0  0.7196
  C  C136  1  0.079900  0.253650  0.989110  1.0  -0.0593
  C  C137  1  0.933400  0.711300  0.112330  1.0  -0.1609
  C  C138  1  0.012800  0.453250  0.480390  1.0  -0.0648
  C  C139  1  0.067300  0.293400  0.837760  1.0  -0.0211
  C  C140  1  0.167700  0.899940  0.794670  1.0  -0.1332
  C  C141  1  0.637100  0.255900  0.382420  1.0  -0.1281
  C  C142  1  0.466900  0.590890  0.806100  1.0  -0.0601
  C  C143  1  0.334300  0.392170  0.234410  1.0  -0.0345
  C  C144  1  0.652500  0.245180  0.489990  1.0  -0.0419
  C  C145  1  0.223100  0.745820  0.432770  1.0  0.7365
  C  C146  1  0.438800  0.474960  0.241990  1.0  0.0756
  C  C147  1  0.561200  0.525040  0.758010  1.0  0.0759
  C  C148  1  0.431200  0.375580  0.204920  1.0  -0.1213
  C  C149  1  0.137100  0.755900  0.117580  1.0  -0.1282
  C  C150  1  0.065200  0.101850  0.208410  1.0  -0.1617
  C  C151  1  0.432700  0.206600  0.337760  1.0  -0.0214
  C  C152  1  0.865600  0.249200  0.833150  1.0  -0.0275
  C  C153  1  0.532700  0.910800  0.939920  1.0  0.7436
  C  C154  1  0.210100  0.624570  0.311120  1.0  0.715
  C  C155  1  0.171400  0.948540  0.774650  1.0  -0.046
  C  C156  1  0.463100  0.757520  0.536410  1.0  0.0704
  C  C157  1  0.931200  0.875580  0.295080  1.0  -0.121
  C  C158  1  0.671400  0.448540  0.725350  1.0  -0.0455
  C  C159  1  0.567300  0.793400  0.662240  1.0  -0.0207
  C  C160  1  0.832300  0.100060  0.205330  1.0  -0.1337
  C  C161  1  0.938600  0.947130  0.772240  1.0  -0.0675
  C  C162  1  0.061400  0.052870  0.227760  1.0  -0.0678
  C  C163  1  0.152500  0.745180  0.010010  1.0  -0.042
  C  C164  1  0.568800  0.624420  0.795080  1.0  -0.1216
  C  C165  1  0.487200  0.046750  0.980390  1.0  -0.0695
  C  C166  1  0.493000  0.995700  0.048090  1.0  -0.0379
  C  C167  1  0.050000  0.874610  0.802810  1.0  0.0278
  C  C168  1  0.710100  0.124570  0.188880  1.0  0.7142
  C  C169  1  0.705100  0.741110  0.434250  1.0  0.7473
  C  C170  1  0.007000  0.504300  0.548090  1.0  -0.0298
  C  C171  1  0.927400  0.822050  0.314530  1.0  0.72
  C  C172  1  0.309700  0.370210  0.696100  1.0  0.7346
  C  C173  1  0.463200  0.542250  0.787110  1.0  -0.115
  C  C174  1  0.565200  0.601850  0.291590  1.0  -0.1613
  C  C175  1  0.531700  0.226300  0.310250  1.0  -0.108
  C  C176  1  0.347500  0.754820  0.510010  1.0  -0.0442
  C  C177  1  0.943200  0.027090  0.237180  1.0  0.056
  C  C178  1  0.556800  0.472910  0.737180  1.0  0.0558
  C  C179  1  0.528000  0.220770  0.256660  1.0  0.6952
  C  C180  1  0.484800  0.042760  0.028900  1.0  -0.1277
  C  C181  1  0.028000  0.720770  0.243340  1.0  0.6951
  C  C182  1  0.828600  0.051460  0.225350  1.0  -0.0468
  C  C183  1  0.938800  0.974960  0.258010  1.0  0.0756
  C  C184  1  0.015200  0.457240  0.528900  1.0  -0.1235
  C  C185  1  0.634400  0.250800  0.333150  1.0  -0.0274
  C  C186  1  0.438600  0.447130  0.727760  1.0  -0.0671
  C  C187  1  0.536800  0.457750  0.212890  1.0  -0.1132
  C  C188  1  0.362900  0.744100  0.617580  1.0  -0.1281
  C  C189  1  0.467300  0.089200  0.060080  1.0  0.7376
  C  C190  1  0.032700  0.410800  0.560080  1.0  0.7387
  C  C191  1  0.036900  0.742480  0.036410  1.0  0.0703
  C  C192  1  0.535700  0.236730  0.410820  1.0  0.0887
  C  C193  1  0.964300  0.263270  0.910820  1.0  0.0886
  C  C194  1  0.723100  0.245820  0.067230  1.0  0.7369
  C  C195  1  0.066600  0.288700  0.887670  1.0  -0.1616
  C  C196  1  0.512800  0.953250  0.019610  1.0  -0.0638
  C  C197  1  0.450000  0.625390  0.302810  1.0  0.028
  C  C198  1  0.433400  0.211300  0.387670  1.0  -0.1621
  C  C199  1  0.276900  0.754180  0.932770  1.0  0.7362
  C  C200  1  0.443200  0.527090  0.262820  1.0  0.0563
  C  C201  1  0.348300  0.750490  0.460420  1.0  -0.1352
  C  C202  1  0.190300  0.129790  0.196100  1.0  0.7347
  C  C203  1  0.950000  0.125390  0.197190  1.0  0.0277
  C  C204  1  0.794900  0.758890  0.934250  1.0  0.7484
  C  C205  1  0.984800  0.542760  0.471100  1.0  -0.1255
  C  C206  1  0.464100  0.747690  0.435930  1.0  0.0411
  C  C207  1  0.932700  0.706600  0.162240  1.0  -0.0208
  C  C208  1  0.661900  0.559010  0.747500  1.0  -0.1324
  C  C209  1  0.328600  0.551460  0.274650  1.0  -0.047
  C  C210  1  0.035700  0.736730  0.089180  1.0  0.0884
  C  C211  1  0.535900  0.252310  0.564070  1.0  0.04
  C  C212  1  0.161900  0.059010  0.752500  1.0  -0.1337
  C  C213  1  0.033100  0.909110  0.306100  1.0  -0.0594
  C  C214  1  0.966900  0.090890  0.693900  1.0  -0.0588
  C  C215  1  0.809700  0.870210  0.803900  1.0  0.7349
  C  C216  1  0.072600  0.177950  0.685470  1.0  0.7198
  O  O217  1  0.622100  0.233030  0.044240  1.0  -0.6005
  O  O218  1  0.035900  0.368280  0.538960  1.0  -0.599
  O  O219  1  0.327200  0.295000  0.195730  1.0  -0.5641
  O  O220  1  0.827200  0.795000  0.304270  1.0  -0.5652
  O  O221  1  0.622200  0.240530  0.233450  1.0  -0.5815
  O  O222  1  0.396100  0.899230  0.802750  1.0  -0.5823
  O  O223  1  0.195600  0.269680  0.540940  1.0  -0.583
  O  O224  1  0.270200  0.745230  0.888520  1.0  -0.5925
  O  O225  1  0.221600  0.665840  0.332680  1.0  -0.5934
  O  O226  1  0.603900  0.100770  0.197250  1.0  -0.5803
  O  O227  1  0.729800  0.254770  0.111480  1.0  -0.5936
  O  O228  1  0.721600  0.165840  0.167320  1.0  -0.5933
  O  O229  1  0.122100  0.733030  0.455760  1.0  -0.6012
  O  O230  1  0.770200  0.245230  0.611480  1.0  -0.5939
  O  O231  1  0.457710  0.195440  0.136620  1.0  -1.1752
  O  O232  1  0.458400  0.082010  0.104140  1.0  -0.6188
  O  O233  1  0.932300  0.699190  0.261960  1.0  -0.6709
  O  O234  1  0.315800  0.323030  0.690610  1.0  -0.5842
  O  O235  1  0.877900  0.266970  0.544240  1.0  -0.5996
  O  O236  1  0.684200  0.676970  0.309390  1.0  -0.5845
  O  O237  1  0.790100  0.603330  0.308650  1.0  -0.5843
  O  O238  1  0.290100  0.103330  0.191350  1.0  -0.5845
  O  O239  1  0.377900  0.766970  0.955760  1.0  -0.5997
  O  O240  1  0.815800  0.823030  0.809390  1.0  -0.5843
  O  O241  1  0.021300  0.807300  0.338230  1.0  -0.609
  O  O242  1  0.464100  0.131720  0.038960  1.0  -0.599
  O  O243  1  0.201700  0.245700  0.110040  1.0  -0.61
  O  O244  1  0.067700  0.300810  0.738040  1.0  -0.6712
  O  O245  1  0.535900  0.868280  0.961040  1.0  -0.5994
  O  O246  1  0.103900  0.600770  0.302750  1.0  -0.5798
  O  O247  1  0.709900  0.896670  0.808650  1.0  -0.5856
  O  O248  1  0.042290  0.304560  0.636620  1.0  -1.1752
  O  O249  1  0.542290  0.804560  0.863380  1.0  -1.1753
  O  O250  1  0.209900  0.396670  0.691350  1.0  -0.5859
  O  O251  1  0.184200  0.176970  0.190610  1.0  -0.583
  O  O252  1  0.877800  0.259470  0.733450  1.0  -0.5834
  O  O253  1  0.957710  0.695440  0.363380  1.0  -1.1751
  O  O254  1  0.672800  0.705000  0.804270  1.0  -0.5643
  O  O255  1  0.804400  0.730320  0.459060  1.0  -0.5828
  O  O256  1  0.298300  0.254300  0.610040  1.0  -0.6095
  O  O257  1  0.695600  0.769680  0.959060  1.0  -0.5834
  O  O258  1  0.541600  0.917990  0.895860  1.0  -0.6191
  O  O259  1  0.478700  0.692700  0.838230  1.0  -0.6087
  O  O260  1  0.304400  0.230320  0.040940  1.0  -0.5829
  O  O261  1  0.521300  0.307300  0.161770  1.0  -0.6085
  O  O262  1  0.958400  0.582010  0.395860  1.0  -0.6199
  O  O263  1  0.432300  0.199190  0.238040  1.0  -0.6708
  O  O264  1  0.567700  0.800810  0.761960  1.0  -0.6705
  O  O265  1  0.778400  0.334160  0.667320  1.0  -0.5941
  O  O266  1  0.798300  0.754300  0.889960  1.0  -0.6078
  O  O267  1  0.229800  0.754770  0.388520  1.0  -0.5931
  O  O268  1  0.122200  0.740530  0.266550  1.0  -0.5816
  O  O269  1  0.377800  0.759470  0.766550  1.0  -0.5819
  O  O270  1  0.701700  0.745700  0.389960  1.0  -0.6083
  O  O271  1  0.978700  0.192700  0.661770  1.0  -0.6081
  O  O272  1  0.172800  0.205000  0.695730  1.0  -0.5635
  O  O273  1  0.964100  0.631720  0.461040  1.0  -0.5988
  O  O274  1  0.278400  0.834160  0.832680  1.0  -0.5937
  O  O275  1  0.041600  0.417990  0.604140  1.0  -0.6183
  O  O276  1  0.896100  0.399230  0.697250  1.0  -0.5829
