# generated using pymatgen
data_ZnH10(C2N)4
_symmetry_space_group_name_H-M   'P 1'
_cell_length_a   14.66930000
_cell_length_b   14.66930000
_cell_length_c   14.66930000
_cell_angle_alpha   109.47100000
_cell_angle_beta   109.47100000
_cell_angle_gamma   109.47100000
_symmetry_Int_Tables_number   1
_chemical_formula_structural   ZnH10(C2N)4
_chemical_formula_sum   'Zn6 H60 C48 N24'
_cell_volume   2430.01988771
_cell_formula_units_Z   6
loop_
 _symmetry_equiv_pos_site_id
 _symmetry_equiv_pos_as_xyz
  1  'x, y, z'
loop_
 _atom_site_type_symbol
 _atom_site_label
 _atom_site_symmetry_multiplicity
 _atom_site_fract_x
 _atom_site_fract_y
 _atom_site_fract_z
 _atom_site_occupancy
 _atom_site_charge
  Zn  Zn1  1  0.750000  0.500000  0.250000  1.0  0.7365
  Zn  Zn2  1  0.250000  0.500000  0.750000  1.0  0.7365
  Zn  Zn3  1  0.750000  0.250000  0.500000  1.0  0.7368
  Zn  Zn4  1  0.250000  0.750000  0.500000  1.0  0.7365
  Zn  Zn5  1  0.500000  0.250000  0.750000  1.0  0.7367
  Zn  Zn6  1  0.500000  0.750000  0.250000  1.0  0.7368
  H  H7  1  0.125250  0.658060  0.239260  1.0  0.0878
  H  H8  1  0.581200  0.467190  0.341940  1.0  0.0895
  H  H9  1  0.000000  0.365450  0.472830  1.0  0.1111
  H  H10  1  0.241700  0.449320  0.930750  1.0  0.11
  H  H11  1  0.365450  0.472840  0.000000  1.0  0.115
  H  H12  1  0.467190  0.581200  0.341940  1.0  0.0898
  H  H13  1  0.689050  0.207610  0.758300  1.0  0.1089
  H  H14  1  0.758300  0.689050  0.207610  1.0  0.1064
  H  H15  1  0.792380  0.481430  0.550680  1.0  0.1041
  H  H16  1  0.467190  0.341940  0.581200  1.0  0.0901
  H  H17  1  0.518560  0.310940  0.069250  1.0  0.1087
  H  H18  1  0.885990  0.760740  0.418800  1.0  0.0884
  H  H19  1  0.114010  0.532810  0.874750  1.0  0.0868
  H  H20  1  0.689050  0.758300  0.207610  1.0  0.1083
  H  H21  1  0.481440  0.550690  0.792390  1.0  0.1116
  H  H22  1  0.125250  0.239260  0.658060  1.0  0.0886
  H  H23  1  0.449310  0.930750  0.241690  1.0  0.1087
  H  H24  1  0.527170  0.892620  0.527170  1.0  0.1128
  H  H25  1  0.792380  0.550680  0.481430  1.0  0.1047
  H  H26  1  0.418800  0.885990  0.760740  1.0  0.0884
  H  H27  1  0.472830  0.365440  0.000000  1.0  0.113
  H  H28  1  0.760740  0.885990  0.418800  1.0  0.0862
  H  H29  1  0.930750  0.241700  0.449310  1.0  0.1104
  H  H30  1  0.310950  0.069250  0.518570  1.0  0.1084
  H  H31  1  0.885990  0.418800  0.760740  1.0  0.0894
  H  H32  1  0.634550  0.107380  0.634550  1.0  0.1112
  H  H33  1  0.069250  0.310950  0.518560  1.0  0.1058
  H  H34  1  0.481440  0.792390  0.550690  1.0  0.1104
  H  H35  1  0.527170  0.527170  0.892620  1.0  0.1142
  H  H36  1  0.472830  0.000000  0.365440  1.0  0.1105
  H  H37  1  0.658060  0.239260  0.125250  1.0  0.09
  H  H38  1  0.550690  0.792390  0.481440  1.0  0.1048
  H  H39  1  0.550690  0.481440  0.792390  1.0  0.1078
  H  H40  1  0.239260  0.658060  0.125250  1.0  0.09
  H  H41  1  0.634550  0.634550  0.107380  1.0  0.1134
  H  H42  1  0.241700  0.930750  0.449320  1.0  0.1099
  H  H43  1  0.114010  0.874750  0.532810  1.0  0.0879
  H  H44  1  0.341940  0.467190  0.581200  1.0  0.0879
  H  H45  1  0.758300  0.207610  0.689050  1.0  0.1068
  H  H46  1  0.207620  0.689060  0.758310  1.0  0.1088
  H  H47  1  0.000000  0.472830  0.365450  1.0  0.1135
  H  H48  1  0.532810  0.874750  0.114010  1.0  0.0942
  H  H49  1  0.239260  0.125250  0.658060  1.0  0.0911
  H  H50  1  0.107390  0.634560  0.634560  1.0  0.1112
  H  H51  1  0.365450  0.000000  0.472840  1.0  0.1115
  H  H52  1  0.418800  0.760740  0.885990  1.0  0.0902
  H  H53  1  0.892610  0.527160  0.527160  1.0  0.1136
  H  H54  1  0.874750  0.114010  0.532810  1.0  0.0884
  H  H55  1  0.874750  0.532810  0.114010  1.0  0.0896
  H  H56  1  0.310950  0.518570  0.069250  1.0  0.107
  H  H57  1  0.760740  0.418800  0.885990  1.0  0.0875
  H  H58  1  0.207620  0.758310  0.689060  1.0  0.1087
  H  H59  1  0.581200  0.341940  0.467190  1.0  0.0912
  H  H60  1  0.658060  0.125250  0.239260  1.0  0.0923
  H  H61  1  0.930750  0.449310  0.241700  1.0  0.1104
  H  H62  1  0.449310  0.241690  0.930750  1.0  0.1093
  H  H63  1  0.341940  0.581200  0.467190  1.0  0.0877
  H  H64  1  0.069250  0.518560  0.310950  1.0  0.1078
  H  H65  1  0.518560  0.069250  0.310940  1.0  0.1102
  H  H66  1  0.532810  0.114010  0.874750  1.0  0.0915
  C  C67  1  0.056790  0.476820  0.791290  1.0  0.0061
  C  C68  1  0.489180  0.489180  0.806900  1.0  -0.3792
  C  C69  1  0.629760  0.247080  0.629760  1.0  0.3864
  C  C70  1  0.943210  0.420030  0.734500  1.0  0.0085
  C  C71  1  0.370240  0.617320  0.000000  1.0  0.3845
  C  C72  1  0.314470  0.523180  0.579970  1.0  0.0089
  C  C73  1  0.579970  0.523180  0.314470  1.0  0.0046
  C  C74  1  0.682280  0.193100  0.682280  1.0  -0.3802
  C  C75  1  0.629760  0.629760  0.247080  1.0  0.3873
  C  C76  1  0.000000  0.317720  0.510820  1.0  -0.3914
  C  C77  1  0.370240  0.000000  0.617320  1.0  0.3841
  C  C78  1  0.489180  0.806900  0.489180  1.0  -0.3796
  C  C79  1  0.579970  0.314470  0.523180  1.0  0.008
  C  C80  1  0.000000  0.510820  0.317720  1.0  -0.3839
  C  C81  1  0.685530  0.208710  0.265500  1.0  0.007
  C  C82  1  0.943210  0.734500  0.420030  1.0  0.0083
  C  C83  1  0.617320  0.000000  0.370240  1.0  0.3841
  C  C84  1  0.000000  0.370240  0.617320  1.0  0.3859
  C  C85  1  0.523180  0.314470  0.579970  1.0  0.0064
  C  C86  1  0.317720  0.510820  0.000000  1.0  -0.3832
  C  C87  1  0.382680  0.382680  0.752920  1.0  0.3891
  C  C88  1  0.685530  0.265500  0.208710  1.0  0.0109
  C  C89  1  0.617320  0.370240  0.000000  1.0  0.3848
  C  C90  1  0.476820  0.056790  0.791290  1.0  0.0096
  C  C91  1  0.476820  0.791290  0.056790  1.0  0.0065
  C  C92  1  0.734500  0.420030  0.943210  1.0  0.0109
  C  C93  1  0.791290  0.056790  0.476820  1.0  0.0074
  C  C94  1  0.510820  0.000000  0.317720  1.0  -0.3835
  C  C95  1  0.734500  0.943210  0.420030  1.0  0.0081
  C  C96  1  0.682280  0.682280  0.193100  1.0  -0.3887
  C  C97  1  0.247080  0.629760  0.629760  1.0  0.385
  C  C98  1  0.510820  0.317720  0.000000  1.0  -0.3817
  C  C99  1  0.806900  0.489180  0.489180  1.0  -0.3805
  C  C100  1  0.791290  0.476820  0.056790  1.0  0.0075
  C  C101  1  0.265500  0.208710  0.685530  1.0  0.0059
  C  C102  1  0.208710  0.265500  0.685530  1.0  0.0065
  C  C103  1  0.420030  0.734500  0.943210  1.0  0.0104
  C  C104  1  0.317720  0.000000  0.510820  1.0  -0.3905
  C  C105  1  0.265500  0.685530  0.208710  1.0  0.0066
  C  C106  1  0.193100  0.682280  0.682280  1.0  -0.379
  C  C107  1  0.420030  0.943210  0.734500  1.0  0.0116
  C  C108  1  0.056790  0.791290  0.476820  1.0  0.0089
  C  C109  1  0.523180  0.579970  0.314470  1.0  0.0069
  C  C110  1  0.752920  0.382680  0.382680  1.0  0.3857
  C  C111  1  0.382680  0.752920  0.382680  1.0  0.3868
  C  C112  1  0.208710  0.685530  0.265500  1.0  0.0052
  C  C113  1  0.000000  0.617320  0.370240  1.0  0.3858
  C  C114  1  0.314470  0.579970  0.523180  1.0  0.0125
  N  N115  1  0.271970  0.555230  0.647960  1.0  -0.4458
  N  N116  1  0.092730  0.444770  0.716740  1.0  -0.4501
  N  N117  1  0.728030  0.283260  0.375990  1.0  -0.4477
  N  N118  1  0.716740  0.444770  0.092730  1.0  -0.4425
  N  N119  1  0.555230  0.271970  0.647960  1.0  -0.4478
  N  N120  1  0.555230  0.647960  0.271970  1.0  -0.446
  N  N121  1  0.352040  0.624010  0.907270  1.0  -0.4497
  N  N122  1  0.647960  0.555230  0.271970  1.0  -0.4497
  N  N123  1  0.728030  0.375990  0.283260  1.0  -0.4451
  N  N124  1  0.444770  0.716740  0.092730  1.0  -0.4476
  N  N125  1  0.624010  0.907270  0.352040  1.0  -0.4433
  N  N126  1  0.375990  0.283260  0.728030  1.0  -0.4501
  N  N127  1  0.271970  0.647960  0.555230  1.0  -0.4441
  N  N128  1  0.907270  0.352040  0.624010  1.0  -0.446
  N  N129  1  0.283260  0.375990  0.728030  1.0  -0.4487
  N  N130  1  0.092730  0.716740  0.444770  1.0  -0.4501
  N  N131  1  0.352040  0.907270  0.624010  1.0  -0.4429
  N  N132  1  0.444770  0.092730  0.716740  1.0  -0.4469
  N  N133  1  0.716740  0.092730  0.444770  1.0  -0.448
  N  N134  1  0.907270  0.624010  0.352040  1.0  -0.4505
  N  N135  1  0.375990  0.728030  0.283260  1.0  -0.4497
  N  N136  1  0.624010  0.352040  0.907270  1.0  -0.4465
  N  N137  1  0.283260  0.728030  0.375990  1.0  -0.4457
  N  N138  1  0.647960  0.271970  0.555230  1.0  -0.4496
