# generated using pymatgen
data_Na2Dy6H22C32S4O37
_symmetry_space_group_name_H-M   'P 1'
_cell_length_a   13.87570000
_cell_length_b   16.19490000
_cell_length_c   16.19490000
_cell_angle_alpha   112.63900000
_cell_angle_beta   113.88000000
_cell_angle_gamma   66.12000000
_symmetry_Int_Tables_number   1
_chemical_formula_structural   Na2Dy6H22C32S4O37
_chemical_formula_sum   'Na4 Dy12 H44 C64 S8 O74'
_cell_volume   2934.58421481
_cell_formula_units_Z   2
loop_
 _symmetry_equiv_pos_site_id
 _symmetry_equiv_pos_as_xyz
  1  'x, y, z'
loop_
 _atom_site_type_symbol
 _atom_site_label
 _atom_site_symmetry_multiplicity
 _atom_site_fract_x
 _atom_site_fract_y
 _atom_site_fract_z
 _atom_site_occupancy
 _atom_site_charge
  Na  Na1  1  0.829300  0.128400  0.871600  1.0  0.9434
  Na  Na2  1  0.170700  0.871600  0.128400  1.0  0.9548
  Na  Na3  1  0.058400  0.363600  0.636400  1.0  0.9347
  Na  Na4  1  0.941600  0.636400  0.363600  1.0  0.9445
  Dy  Dy5  1  0.586930  0.632780  0.367220  1.0  2.2706
  Dy  Dy6  1  0.339950  0.522570  0.477430  1.0  2.0388
  Dy  Dy7  1  0.963410  0.343360  0.187140  1.0  2.294
  Dy  Dy8  1  0.413070  0.367220  0.632780  1.0  2.2729
  Dy  Dy9  1  0.036590  0.656640  0.812860  1.0  2.2948
  Dy  Dy10  1  0.158810  0.581460  0.627100  1.0  2.1738
  Dy  Dy11  1  0.158810  0.372900  0.418540  1.0  2.1743
  Dy  Dy12  1  0.036590  0.187140  0.343360  1.0  2.2933
  Dy  Dy13  1  0.963410  0.812860  0.656640  1.0  2.2919
  Dy  Dy14  1  0.660050  0.477430  0.522570  1.0  2.0385
  Dy  Dy15  1  0.841190  0.418540  0.372900  1.0  2.1739
  Dy  Dy16  1  0.841190  0.627100  0.581460  1.0  2.1753
  H  H17  1  0.145200  0.062700  0.687500  1.0  0.0992
  H  H18  1  0.387000  0.106300  0.641500  1.0  0.0857
  H  H19  1  0.561400  0.045400  0.349800  1.0  0.109
  H  H20  1  0.152800  0.215500  0.257100  1.0  0.3879
  H  H21  1  0.387000  0.358500  0.893700  1.0  0.084
  H  H22  1  0.486600  0.635600  0.579200  1.0  0.4383
  H  H23  1  0.438600  0.954600  0.650200  1.0  0.1084
  H  H24  1  0.832400  0.199500  0.571100  1.0  0.12
  H  H25  1  0.145200  0.312500  0.937300  1.0  0.1014
  H  H26  1  0.034600  0.500100  0.654100  1.0  0.3315
  H  H27  1  0.847200  0.257100  0.215500  1.0  0.3919
  H  H28  1  0.618600  0.441000  0.328400  1.0  0.4179
  H  H29  1  0.126100  0.586800  0.050000  1.0  0.0877
  H  H30  1  0.152800  0.742900  0.784500  1.0  0.3888
  H  H31  1  0.818000  0.603800  0.396200  1.0  0.3611
  H  H32  1  0.613000  0.641500  0.106300  1.0  0.0849
  H  H33  1  0.832400  0.428900  0.800500  1.0  0.1214
  H  H34  1  0.513400  0.579200  0.635600  1.0  0.4387
  H  H35  1  0.847200  0.784500  0.742900  1.0  0.3885
  H  H36  1  0.873900  0.050000  0.586800  1.0  0.0867
  H  H37  1  0.167600  0.800500  0.428900  1.0  0.1207
  H  H38  1  0.381400  0.328400  0.441000  1.0  0.4166
  H  H39  1  0.618600  0.671600  0.559000  1.0  0.4161
  H  H40  1  0.358200  0.632100  0.135100  1.0  0.0905
  H  H41  1  0.873900  0.413200  0.950000  1.0  0.0879
  H  H42  1  0.854800  0.687500  0.062700  1.0  0.1007
  H  H43  1  0.126100  0.950000  0.413200  1.0  0.0876
  H  H44  1  0.513400  0.364400  0.420800  1.0  0.4393
  H  H45  1  0.358200  0.864900  0.367900  1.0  0.0913
  H  H46  1  0.613000  0.893700  0.358500  1.0  0.0853
  H  H47  1  0.104600  0.563700  0.436300  1.0  0.3932
  H  H48  1  0.438600  0.349800  0.045400  1.0  0.1079
  H  H49  1  0.381400  0.559000  0.671600  1.0  0.4165
  H  H50  1  0.561400  0.650200  0.954600  1.0  0.1083
  H  H51  1  0.034600  0.345900  0.499900  1.0  0.3355
  H  H52  1  0.167600  0.571100  0.199500  1.0  0.1215
  H  H53  1  0.486600  0.420800  0.364400  1.0  0.4367
  H  H54  1  0.641800  0.135100  0.632100  1.0  0.0908
  H  H55  1  0.895400  0.436300  0.563700  1.0  0.3948
  H  H56  1  0.641800  0.367900  0.864900  1.0  0.0923
  H  H57  1  0.965400  0.654100  0.500100  1.0  0.3328
  H  H58  1  0.965400  0.499900  0.345900  1.0  0.3315
  H  H59  1  0.182000  0.396200  0.603800  1.0  0.361
  H  H60  1  0.854800  0.937300  0.312500  1.0  0.1005
  C  C61  1  0.553700  0.512600  0.793200  1.0  0.605
  C  C62  1  0.413200  0.967000  0.591000  1.0  -0.1307
  C  C63  1  0.365800  0.576100  0.085900  1.0  -0.0746
  C  C64  1  0.665100  0.419200  0.007000  1.0  -0.1408
  C  C65  1  0.160900  0.519300  0.146100  1.0  -0.1389
  C  C66  1  0.839100  0.146100  0.519300  1.0  -0.1381
  C  C67  1  0.365800  0.914100  0.423900  1.0  -0.0745
  C  C68  1  0.592600  0.105500  0.489900  1.0  -0.1324
  C  C69  1  0.311500  0.179900  0.503700  1.0  0.7101
  C  C70  1  0.174000  0.845200  0.567600  1.0  -0.0973
  C  C71  1  0.131900  0.019900  0.548100  1.0  -0.1709
  C  C72  1  0.553700  0.206800  0.487400  1.0  0.6061
  C  C73  1  0.634200  0.085900  0.576100  1.0  -0.0748
  C  C74  1  0.446300  0.793200  0.512600  1.0  0.606
  C  C75  1  0.104100  0.116700  0.540700  1.0  0.6805
  C  C76  1  0.407400  0.894500  0.510100  1.0  -0.1327
  C  C77  1  0.895900  0.540700  0.116700  1.0  0.6832
  C  C78  1  0.839100  0.480700  0.853900  1.0  -0.1407
  C  C79  1  0.586800  0.033000  0.409000  1.0  -0.1306
  C  C80  1  0.586800  0.591000  0.967000  1.0  -0.1319
  C  C81  1  0.197500  0.429000  0.254000  1.0  0.7211
  C  C82  1  0.343200  0.080300  0.501700  1.0  -0.0766
  C  C83  1  0.168400  0.356100  0.078700  1.0  -0.1712
  C  C84  1  0.148000  0.365300  0.990300  1.0  -0.0569
  C  C85  1  0.137900  0.527700  0.057500  1.0  -0.0304
  C  C86  1  0.688500  0.503700  0.179900  1.0  0.711
  C  C87  1  0.862100  0.472300  0.942500  1.0  -0.0315
  C  C88  1  0.852000  0.634700  0.009700  1.0  -0.0551
  C  C89  1  0.634200  0.423900  0.914100  1.0  -0.076
  C  C90  1  0.826000  0.154800  0.432400  1.0  -0.097
  C  C91  1  0.895900  0.883300  0.459300  1.0  0.682
  C  C92  1  0.802500  0.571000  0.746000  1.0  0.7207
  C  C93  1  0.168400  0.921300  0.643900  1.0  -0.1703
  C  C94  1  0.618300  0.942700  0.414900  1.0  -0.0773
  C  C95  1  0.148000  0.009700  0.634700  1.0  -0.0572
  C  C96  1  0.407400  0.489900  0.105500  1.0  -0.1307
  C  C97  1  0.592600  0.510100  0.894500  1.0  -0.1311
  C  C98  1  0.197500  0.746000  0.571000  1.0  0.7199
  C  C99  1  0.174000  0.432400  0.154800  1.0  -0.0992
  C  C100  1  0.831600  0.078700  0.356100  1.0  -0.1706
  C  C101  1  0.656800  0.501700  0.080300  1.0  -0.0846
  C  C102  1  0.831600  0.643900  0.921300  1.0  -0.1718
  C  C103  1  0.826000  0.567600  0.845200  1.0  -0.0996
  C  C104  1  0.868100  0.548100  0.019900  1.0  -0.1689
  C  C105  1  0.104100  0.459300  0.883300  1.0  0.6856
  C  C106  1  0.862100  0.057500  0.527700  1.0  -0.0324
  C  C107  1  0.381700  0.057300  0.585100  1.0  -0.0757
  C  C108  1  0.160900  0.853900  0.480700  1.0  -0.1378
  C  C109  1  0.868100  0.980100  0.451900  1.0  -0.1715
  C  C110  1  0.343200  0.498300  0.919700  1.0  -0.0808
  C  C111  1  0.334900  0.580800  0.993000  1.0  -0.1383
  C  C112  1  0.381700  0.414900  0.942700  1.0  -0.0821
  C  C113  1  0.311500  0.496300  0.820100  1.0  0.7119
  C  C114  1  0.446300  0.487400  0.206800  1.0  0.6064
  C  C115  1  0.334900  0.007000  0.419200  1.0  -0.1405
  C  C116  1  0.656800  0.919700  0.498300  1.0  -0.0781
  C  C117  1  0.137900  0.942500  0.472300  1.0  -0.0299
  C  C118  1  0.618300  0.585100  0.057300  1.0  -0.0823
  C  C119  1  0.802500  0.254000  0.429000  1.0  0.7201
  C  C120  1  0.665100  0.993000  0.580800  1.0  -0.1401
  C  C121  1  0.688500  0.820100  0.496300  1.0  0.7101
  C  C122  1  0.131900  0.451900  0.980100  1.0  -0.1682
  C  C123  1  0.413200  0.409000  0.033000  1.0  -0.1333
  C  C124  1  0.852000  0.990300  0.365300  1.0  -0.0552
  S  S125  1  0.180800  0.915170  0.755430  1.0  1.3127
  S  S126  1  0.286500  0.695040  0.978160  1.0  1.3093
  S  S127  1  0.286500  0.021840  0.304960  1.0  1.3018
  S  S128  1  0.713500  0.978160  0.695040  1.0  1.3059
  S  S129  1  0.180800  0.244570  0.084830  1.0  1.3168
  S  S130  1  0.819200  0.084830  0.244570  1.0  1.3093
  S  S131  1  0.819200  0.755430  0.915170  1.0  1.3152
  S  S132  1  0.713500  0.304960  0.021840  1.0  1.3073
  O  O133  1  0.788700  0.582500  0.417500  1.0  -0.9546
  O  O134  1  0.328000  0.091400  0.306400  1.0  -0.6343
  O  O135  1  0.677600  0.067900  0.754700  1.0  -0.6821
  O  O136  1  0.375200  0.225400  0.567600  1.0  -0.7474
  O  O137  1  0.894400  0.817000  0.387200  1.0  -0.6572
  O  O138  1  0.672000  0.908600  0.693600  1.0  -0.6347
  O  O139  1  0.500000  0.579600  0.579600  1.0  -0.8433
  O  O140  1  0.894200  0.284900  0.255900  1.0  -1.0154
  O  O141  1  0.733400  0.170700  0.228300  1.0  -0.645
  O  O142  1  0.929500  0.745800  0.913000  1.0  -0.8231
  O  O143  1  0.163300  0.718500  0.947900  1.0  -0.922
  O  O144  1  0.558000  0.268500  0.566500  1.0  -0.7022
  O  O145  1  0.223800  0.214000  0.446400  1.0  -0.7076
  O  O146  1  0.558000  0.433500  0.731500  1.0  -0.7043
  O  O147  1  0.500000  0.420400  0.420400  1.0  -0.8431
  O  O148  1  0.136500  0.731300  0.602100  1.0  -0.7558
  O  O149  1  0.211300  0.417500  0.582500  1.0  -0.9573
  O  O150  1  0.343400  0.525500  0.626300  1.0  -0.9231
  O  O151  1  0.266600  0.228300  0.170700  1.0  -0.6495
  O  O152  1  0.070500  0.254200  0.087000  1.0  -0.8225
  O  O153  1  0.442000  0.566500  0.268500  1.0  -0.7029
  O  O154  1  0.328000  0.693600  0.908600  1.0  -0.6378
  O  O155  1  0.733400  0.771700  0.829300  1.0  -0.6468
  O  O156  1  0.070500  0.913000  0.745800  1.0  -0.8211
  O  O157  1  0.796600  0.821800  0.999800  1.0  -0.5891
  O  O158  1  0.894400  0.612800  0.183000  1.0  -0.6552
  O  O159  1  0.375200  0.432400  0.774600  1.0  -0.7464
  O  O160  1  0.677600  0.245300  0.932100  1.0  -0.6846
  O  O161  1  0.894200  0.744100  0.715100  1.0  -1.017
  O  O162  1  0.776200  0.786000  0.553600  1.0  -0.7083
  O  O163  1  0.624800  0.567600  0.225400  1.0  -0.7477
  O  O164  1  0.024100  0.557500  0.661300  1.0  -0.9745
  O  O165  1  0.672000  0.306400  0.091400  1.0  -0.6388
  O  O166  1  0.656600  0.474500  0.373700  1.0  -0.9254
  O  O167  1  0.656600  0.626300  0.525500  1.0  -0.9241
  O  O168  1  0.223800  0.553600  0.786000  1.0  -0.7077
  O  O169  1  0.272800  0.460300  0.316100  1.0  -0.7007
  O  O170  1  0.929500  0.087000  0.254200  1.0  -0.818
  O  O171  1  0.343400  0.373700  0.474500  1.0  -0.9243
  O  O172  1  0.727200  0.316100  0.460300  1.0  -0.7017
  O  O173  1  0.796600  0.000200  0.178200  1.0  -0.5852
  O  O174  1  0.158500  0.530000  0.470000  1.0  -0.9911
  O  O175  1  0.519800  0.587900  0.774100  1.0  -0.5796
  O  O176  1  0.105800  0.715100  0.744100  1.0  -1.0124
  O  O177  1  0.863500  0.268700  0.397900  1.0  -0.7566
  O  O178  1  0.917600  0.875400  0.539200  1.0  -0.6943
  O  O179  1  0.136500  0.397900  0.268700  1.0  -0.7556
  O  O180  1  0.322400  0.754700  0.067900  1.0  -0.685
  O  O181  1  0.624800  0.774600  0.432400  1.0  -0.7479
  O  O182  1  0.776200  0.446400  0.214000  1.0  -0.7086
  O  O183  1  0.322400  0.932100  0.245300  1.0  -0.6847
  O  O184  1  0.975900  0.661300  0.557500  1.0  -0.9774
  O  O185  1  0.203400  0.999800  0.821800  1.0  -0.587
  O  O186  1  0.863500  0.602100  0.731300  1.0  -0.7564
  O  O187  1  0.975900  0.442500  0.338700  1.0  -0.977
  O  O188  1  0.841500  0.470000  0.530000  1.0  -0.9934
  O  O189  1  0.917600  0.460800  0.124600  1.0  -0.6942
  O  O190  1  0.442000  0.731500  0.433500  1.0  -0.7025
  O  O191  1  0.266600  0.829300  0.771700  1.0  -0.6458
  O  O192  1  0.163300  0.052100  0.281500  1.0  -0.918
  O  O193  1  0.105600  0.183000  0.612800  1.0  -0.6576
  O  O194  1  0.519800  0.225900  0.412100  1.0  -0.5781
  O  O195  1  0.480200  0.412100  0.225900  1.0  -0.5747
  O  O196  1  0.105600  0.387200  0.817000  1.0  -0.6534
  O  O197  1  0.836700  0.281500  0.052100  1.0  -0.9249
  O  O198  1  0.082400  0.124600  0.460800  1.0  -0.6946
  O  O199  1  0.480200  0.774100  0.587900  1.0  -0.5772
  O  O200  1  0.203400  0.178200  0.000200  1.0  -0.5881
  O  O201  1  0.836700  0.947900  0.718500  1.0  -0.9183
  O  O202  1  0.105800  0.255900  0.284900  1.0  -1.0162
  O  O203  1  0.272800  0.683900  0.539700  1.0  -0.702
  O  O204  1  0.727200  0.539700  0.683900  1.0  -0.7009
  O  O205  1  0.024100  0.338700  0.442500  1.0  -0.9784
  O  O206  1  0.082400  0.539200  0.875400  1.0  -0.6948
