# generated using pymatgen
data_Zn4H20C39N2O17
_symmetry_space_group_name_H-M   'P 1'
_cell_length_a   10.33710000
_cell_length_b   31.93900000
_cell_length_c   31.98800000
_cell_angle_alpha   90.00000000
_cell_angle_beta   90.00000000
_cell_angle_gamma   91.93700000
_symmetry_Int_Tables_number   1
_chemical_formula_structural   Zn4H20C39N2O17
_chemical_formula_sum   'Zn16 H80 C156 N8 O68'
_cell_volume   10555.01588382
_cell_formula_units_Z   4
loop_
 _symmetry_equiv_pos_site_id
 _symmetry_equiv_pos_as_xyz
  1  'x, y, z'
loop_
 _atom_site_type_symbol
 _atom_site_label
 _atom_site_symmetry_multiplicity
 _atom_site_fract_x
 _atom_site_fract_y
 _atom_site_fract_z
 _atom_site_occupancy
 _atom_site_charge
  Zn  Zn1  1  0.469840  0.132490  0.800100  1.0  1.0883
  Zn  Zn2  1  0.668050  0.783610  0.217750  1.0  1.0391
  Zn  Zn3  1  0.376960  0.778360  0.212060  1.0  1.0361
  Zn  Zn4  1  0.025760  0.297280  0.371330  1.0  1.114
  Zn  Zn5  1  0.974240  0.702720  0.628670  1.0  1.1125
  Zn  Zn6  1  0.530160  0.867510  0.199900  1.0  1.0888
  Zn  Zn7  1  0.876960  0.278360  0.287940  1.0  1.0362
  Zn  Zn8  1  0.525760  0.797280  0.128670  1.0  1.113
  Zn  Zn9  1  0.831950  0.716390  0.717750  1.0  1.0392
  Zn  Zn10  1  0.474240  0.202720  0.871330  1.0  1.1132
  Zn  Zn11  1  0.331950  0.216390  0.782250  1.0  1.0396
  Zn  Zn12  1  0.168050  0.283610  0.282250  1.0  1.0394
  Zn  Zn13  1  0.030160  0.367510  0.300100  1.0  1.0888
  Zn  Zn14  1  0.123040  0.721640  0.712060  1.0  1.0366
  Zn  Zn15  1  0.623040  0.221640  0.787940  1.0  1.0367
  Zn  Zn16  1  0.969840  0.632490  0.699900  1.0  1.0886
  H  H17  1  0.942100  0.744700  0.986300  1.0  0.2943
  H  H18  1  0.980900  0.479300  0.567200  1.0  0.1153
  H  H19  1  0.283900  0.088500  0.244900  1.0  0.1184
  H  H20  1  0.442100  0.244700  0.513700  1.0  0.2939
  H  H21  1  0.512400  0.068700  0.021300  1.0  0.1225
  H  H22  1  0.536600  0.970900  0.116600  1.0  0.1293
  H  H23  1  0.390900  0.638100  0.209700  1.0  0.1162
  H  H24  1  0.012400  0.568700  0.478700  1.0  0.1208
  H  H25  1  0.034600  0.990200  0.746000  1.0  0.2871
  H  H26  1  0.993900  0.618000  0.527600  1.0  0.1294
  H  H27  1  0.829600  0.753400  0.045500  1.0  0.1297
  H  H28  1  0.765600  0.050700  0.755700  1.0  0.1203
  H  H29  1  0.216100  0.411500  0.744900  1.0  0.1187
  H  H30  1  0.769900  0.249200  0.592300  1.0  0.1236
  H  H31  1  0.284600  0.750700  0.548600  1.0  0.1161
  H  H32  1  0.530200  0.339700  0.270300  1.0  0.1309
  H  H33  1  0.639200  0.786100  0.356400  1.0  0.1155
  H  H34  1  0.345800  0.447400  0.252700  1.0  0.1239
  H  H35  1  0.030200  0.839700  0.229700  1.0  0.131
  H  H36  1  0.493900  0.118000  0.972400  1.0  0.1292
  H  H37  1  0.915200  0.066600  0.279000  1.0  0.1255
  H  H38  1  0.969800  0.160300  0.770300  1.0  0.1311
  H  H39  1  0.415200  0.566600  0.221000  1.0  0.1246
  H  H40  1  0.057900  0.255300  0.013700  1.0  0.2954
  H  H41  1  0.139200  0.286100  0.143600  1.0  0.115
  H  H42  1  0.763000  0.660500  0.241700  1.0  0.1316
  H  H43  1  0.463400  0.029100  0.883400  1.0  0.13
  H  H44  1  0.230100  0.750800  0.407700  1.0  0.1233
  H  H45  1  0.762000  0.258900  0.163900  1.0  0.1252
  H  H46  1  0.737000  0.839500  0.741700  1.0  0.1312
  H  H47  1  0.730100  0.250800  0.092300  1.0  0.1231
  H  H48  1  0.845800  0.947400  0.247300  1.0  0.1241
  H  H49  1  0.584800  0.433400  0.779000  1.0  0.1254
  H  H50  1  0.360800  0.213900  0.643600  1.0  0.1147
  H  H51  1  0.980700  0.233600  0.844600  1.0  0.1156
  H  H52  1  0.006100  0.382000  0.472400  1.0  0.1288
  H  H53  1  0.890900  0.138100  0.290300  1.0  0.1162
  H  H54  1  0.670400  0.746600  0.545500  1.0  0.1297
  H  H55  1  0.890700  0.722400  0.927500  1.0  0.1207
  H  H56  1  0.609300  0.777600  0.427500  1.0  0.1211
  H  H57  1  0.965400  0.009800  0.254000  1.0  0.2835
  H  H58  1  0.519300  0.266400  0.344600  1.0  0.116
  H  H59  1  0.557900  0.755300  0.486300  1.0  0.2977
  H  H60  1  0.715400  0.249300  0.451400  1.0  0.1154
  H  H61  1  0.738000  0.241100  0.663900  1.0  0.1256
  H  H62  1  0.987600  0.431300  0.521300  1.0  0.1203
  H  H63  1  0.109300  0.277600  0.072500  1.0  0.121
  H  H64  1  0.269900  0.749200  0.907700  1.0  0.1233
  H  H65  1  0.480900  0.979300  0.932800  1.0  0.1143
  H  H66  1  0.262000  0.758900  0.336100  1.0  0.1252
  H  H67  1  0.263000  0.160500  0.258300  1.0  0.132
  H  H68  1  0.716100  0.911500  0.755100  1.0  0.1184
  H  H69  1  0.036600  0.470900  0.383400  1.0  0.1296
  H  H70  1  0.329600  0.253400  0.454500  1.0  0.1301
  H  H71  1  0.609100  0.361900  0.790300  1.0  0.1162
  H  H72  1  0.238000  0.741100  0.836100  1.0  0.1263
  H  H73  1  0.109100  0.861900  0.709700  1.0  0.1161
  H  H74  1  0.019100  0.520700  0.432800  1.0  0.1155
  H  H75  1  0.487600  0.931300  0.978700  1.0  0.1223
  H  H76  1  0.019300  0.766400  0.155400  1.0  0.1154
  H  H77  1  0.506100  0.882000  0.027600  1.0  0.1292
  H  H78  1  0.215400  0.749300  0.048600  1.0  0.1151
  H  H79  1  0.963400  0.529100  0.616600  1.0  0.1296
  H  H80  1  0.390700  0.222400  0.572500  1.0  0.1205
  H  H81  1  0.237000  0.339500  0.758300  1.0  0.1311
  H  H82  1  0.654200  0.552600  0.747300  1.0  0.1249
  H  H83  1  0.783900  0.588500  0.255100  1.0  0.1182
  H  H84  1  0.734400  0.449300  0.255700  1.0  0.121
  H  H85  1  0.784600  0.250700  0.951400  1.0  0.1159
  H  H86  1  0.265600  0.550700  0.744300  1.0  0.1213
  H  H87  1  0.170400  0.246600  0.954500  1.0  0.1302
  H  H88  1  0.519100  0.020700  0.067200  1.0  0.1147
  H  H89  1  0.469800  0.660300  0.729700  1.0  0.1311
  H  H90  1  0.084800  0.933400  0.721000  1.0  0.1251
  H  H91  1  0.234400  0.949300  0.244300  1.0  0.12
  H  H92  1  0.465400  0.509800  0.246000  1.0  0.2836
  H  H93  1  0.860800  0.713900  0.856400  1.0  0.1151
  H  H94  1  0.480700  0.733600  0.655400  1.0  0.1152
  H  H95  1  0.534600  0.490200  0.754000  1.0  0.2878
  H  H96  1  0.154200  0.052600  0.752700  1.0  0.1245
  C  C97  1  0.032980  0.868630  0.233480  1.0  -0.02
  C  C98  1  0.039700  0.273830  0.090680  1.0  -0.1382
  C  C99  1  0.942800  0.720920  0.866720  1.0  -0.0359
  C  C100  1  0.192700  0.141870  0.261810  1.0  -0.0751
  C  C101  1  0.137570  0.752930  0.062490  1.0  -0.0625
  C  C102  1  0.992100  0.589880  0.535210  1.0  -0.0489
  C  C103  1  0.705800  0.598350  0.245440  1.0  -0.0758
  C  C104  1  0.080690  0.109280  0.763130  1.0  -0.1491
  C  C105  1  0.394700  0.428700  0.761640  1.0  -0.0597
  C  C106  1  0.774500  0.369600  0.273120  1.0  0.6826
  C  C107  1  0.688000  0.242340  0.602690  1.0  -0.0549
  C  C108  1  0.637570  0.252930  0.437510  1.0  -0.0633
  C  C109  1  0.538400  0.455360  0.252670  1.0  0.2305
  C  C110  1  0.504400  0.982990  0.016320  1.0  0.0232
  C  C111  1  0.976600  0.248410  0.959610  1.0  0.2887
  C  C112  1  0.862430  0.247070  0.937510  1.0  -0.0648
  C  C113  1  0.970700  0.612180  0.610080  1.0  0.747
  C  C114  1  0.072700  0.156210  0.274260  1.0  -0.1316
  C  C115  1  0.406470  0.255310  0.439360  1.0  -0.0884
  C  C116  1  0.403200  0.261960  0.395680  1.0  -0.1834
  C  C117  1  0.455000  0.774040  0.339340  1.0  -0.1433
  C  C118  1  0.520600  0.921360  0.076720  1.0  -0.1264
  C  C119  1  0.331000  0.762840  0.354550  1.0  -0.0495
  C  C120  1  0.422800  0.433430  0.255680  1.0  -0.0941
  C  C121  1  0.807300  0.858130  0.738190  1.0  -0.0763
  C  C122  1  0.955000  0.274040  0.160660  1.0  -0.1437
  C  C123  1  0.998500  0.439340  0.493560  1.0  -0.0515
  C  C124  1  0.934100  0.797220  0.718780  1.0  0.7151
  C  C125  1  0.759420  0.264030  0.370240  1.0  0.7236
  C  C126  1  0.780300  0.769460  0.127220  1.0  0.6998
  C  C127  1  0.479400  0.078640  0.923280  1.0  -0.1269
  C  C128  1  0.637600  0.259700  0.394590  1.0  -0.1635
  C  C129  1  0.001500  0.560660  0.506440  1.0  -0.0531
  C  C130  1  0.740580  0.235970  0.870240  1.0  0.724
  C  C131  1  0.020600  0.421360  0.423280  1.0  -0.1264
  C  C132  1  0.225500  0.630400  0.726880  1.0  0.6805
  C  C133  1  0.565900  0.702780  0.218780  1.0  0.7158
  C  C134  1  0.155600  0.934450  0.242770  1.0  -0.0435
  C  C135  1  0.501500  0.060660  0.993560  1.0  -0.0853
  C  C136  1  0.917800  0.262940  0.075380  1.0  -0.0886
  C  C137  1  0.045000  0.725960  0.839340  1.0  -0.1435
  C  C138  1  0.539700  0.773830  0.409320  1.0  -0.1377
  C  C139  1  0.495600  0.017010  0.983680  1.0  0.0238
  C  C140  1  0.259420  0.764030  0.129760  1.0  0.7237
  C  C141  1  0.029300  0.387820  0.389920  1.0  0.7473
  C  C142  1  0.844400  0.065550  0.757230  1.0  -0.0468
  C  C143  1  0.961600  0.044640  0.752670  1.0  0.23
  C  C144  1  0.077200  0.066570  0.755680  1.0  -0.0933
  C  C145  1  0.725500  0.130400  0.773120  1.0  0.6811
  C  C146  1  0.152100  0.891310  0.235890  1.0  -0.1653
  C  C147  1  0.572700  0.656210  0.225740  1.0  -0.1315
  C  C148  1  0.015600  0.914520  0.725260  1.0  -0.1399
  C  C149  1  0.476600  0.748410  0.540390  1.0  0.2887
  C  C150  1  0.057200  0.279080  0.133280  1.0  -0.036
  C  C151  1  0.530100  0.371670  0.781250  1.0  -0.0492
  C  C152  1  0.927300  0.843790  0.725740  1.0  -0.1319
  C  C153  1  0.362430  0.747070  0.562490  1.0  -0.0637
  C  C154  1  0.705200  0.633210  0.732380  1.0  0.7269
  C  C155  1  0.862400  0.240300  0.894590  1.0  -0.1638
  C  C156  1  0.105300  0.071300  0.261640  1.0  -0.0598
  C  C157  1  0.007900  0.410120  0.464790  1.0  -0.0473
  C  C158  1  0.386100  0.759080  0.470040  1.0  0.5065
  C  C159  1  0.593530  0.744690  0.560640  1.0  -0.087
  C  C160  1  0.652100  0.391310  0.264110  1.0  -0.1652
  C  C161  1  0.984400  0.085480  0.274740  1.0  -0.1398
  C  C162  1  0.274500  0.869600  0.226880  1.0  0.6814
  C  C163  1  0.240580  0.735970  0.629760  1.0  0.7242
  C  C164  1  0.366100  0.474310  0.759310  1.0  0.4175
  C  C165  1  0.557200  0.779080  0.366720  1.0  -0.0346
  C  C166  1  0.093530  0.244690  0.939360  1.0  -0.0881
  C  C167  1  0.030100  0.871670  0.718750  1.0  -0.046
  C  C168  1  0.922800  0.933430  0.244320  1.0  -0.0944
  C  C169  1  0.847900  0.108690  0.764110  1.0  -0.1649
  C  C170  1  0.038400  0.955360  0.247330  1.0  0.2304
  C  C171  1  0.460300  0.226170  0.590680  1.0  -0.1382
  C  C172  1  0.419310  0.390720  0.263130  1.0  -0.1498
  C  C173  1  0.461600  0.544640  0.747330  1.0  0.2299
  C  C174  1  0.517100  0.992740  0.059150  1.0  -0.0807
  C  C175  1  0.427300  0.343790  0.774260  1.0  -0.1319
  C  C176  1  0.294200  0.401650  0.754560  1.0  -0.0761
  C  C177  1  0.442800  0.220920  0.633280  1.0  -0.0349
  C  C178  1  0.529300  0.887820  0.110080  1.0  0.747
  C  C179  1  0.519900  0.263230  0.373540  1.0  0.0307
  C  C180  1  0.434100  0.297220  0.781220  1.0  0.7155
  C  C181  1  0.973600  0.536560  0.588620  1.0  -0.0703
  C  C182  1  0.467020  0.631370  0.733480  1.0  -0.0211
  C  C183  1  0.017100  0.492740  0.440850  1.0  -0.0794
  C  C184  1  0.344400  0.565550  0.742770  1.0  -0.0468
  C  C185  1  0.692700  0.641870  0.238190  1.0  -0.0759
  C  C186  1  0.582200  0.237060  0.575380  1.0  -0.0887
  C  C187  1  0.347900  0.608690  0.735890  1.0  -0.1649
  C  C188  1  0.633900  0.525690  0.240690  1.0  0.4158
  C  C189  1  0.082200  0.737060  0.924620  1.0  -0.0892
  C  C190  1  0.526900  0.221460  0.707100  1.0  0.735
  C  C191  1  0.596800  0.738040  0.604320  1.0  -0.1827
  C  C192  1  0.577200  0.566570  0.744320  1.0  -0.0934
  C  C193  1  0.205800  0.098350  0.254560  1.0  -0.0755
  C  C194  1  0.417800  0.762940  0.424620  1.0  -0.0892
  C  C195  1  0.188000  0.742340  0.897310  1.0  -0.0542
  C  C196  1  0.219700  0.230540  0.872780  1.0  0.7008
  C  C197  1  0.205200  0.133210  0.767620  1.0  0.7281
  C  C198  1  0.605300  0.571300  0.238360  1.0  -0.0599
  C  C199  1  0.470700  0.112180  0.889920  1.0  0.7476
  C  C200  1  0.515600  0.414520  0.774740  1.0  -0.141
  C  C201  1  0.473600  0.036560  0.911380  1.0  -0.0693
  C  C202  1  0.026400  0.463440  0.411380  1.0  -0.0695
  C  C203  1  0.960300  0.726170  0.909320  1.0  -0.1394
  C  C204  1  0.019900  0.763230  0.126460  1.0  0.0304
  C  C205  1  0.831000  0.262840  0.145450  1.0  -0.0491
  C  C206  1  0.980100  0.236770  0.873540  1.0  0.0309
  C  C207  1  0.482900  0.007260  0.940850  1.0  -0.0823
  C  C208  1  0.492100  0.089880  0.964790  1.0  -0.0592
  C  C209  1  0.065900  0.202780  0.281220  1.0  0.7161
  C  C210  1  0.473100  0.778540  0.292900  1.0  0.7328
  C  C211  1  0.866100  0.974310  0.740690  1.0  0.413
  C  C212  1  0.919310  0.890720  0.236870  1.0  -0.1498
  C  C213  1  0.469900  0.628330  0.218750  1.0  -0.0476
  C  C214  1  0.982900  0.507260  0.559150  1.0  -0.0821
  C  C215  1  0.480100  0.736770  0.626460  1.0  0.0309
  C  C216  1  0.307300  0.358130  0.761810  1.0  -0.0743
  C  C217  1  0.973100  0.278540  0.207100  1.0  0.7354
  C  C218  1  0.004400  0.482990  0.483680  1.0  0.031
  C  C219  1  0.545000  0.225960  0.660660  1.0  -0.1432
  C  C220  1  0.523400  0.251590  0.459610  1.0  0.2886
  C  C221  1  0.969900  0.128330  0.281250  1.0  -0.047
  C  C222  1  0.526400  0.963440  0.088620  1.0  -0.0698
  C  C223  1  0.169000  0.737160  0.854550  1.0  -0.0483
  C  C224  1  0.023400  0.751590  0.040390  1.0  0.2886
  C  C225  1  0.133900  0.025690  0.259310  1.0  0.4125
  C  C226  1  0.794800  0.866790  0.232380  1.0  0.7266
  C  C227  1  0.967020  0.131370  0.766520  1.0  -0.0215
  C  C228  1  0.894700  0.928700  0.738360  1.0  -0.0599
  C  C229  1  0.995600  0.517010  0.516320  1.0  0.0314
  C  C230  1  0.669000  0.237160  0.645450  1.0  -0.0479
  C  C231  1  0.794200  0.901650  0.745440  1.0  -0.0767
  C  C232  1  0.096800  0.238040  0.895680  1.0  -0.1826
  C  C233  1  0.280300  0.269460  0.372780  1.0  0.7002
  C  C234  1  0.812000  0.257660  0.102690  1.0  -0.056
  C  C235  1  0.498500  0.939340  0.006440  1.0  -0.0876
  C  C236  1  0.137600  0.759700  0.105410  1.0  -0.1638
  C  C237  1  0.312000  0.757660  0.397310  1.0  -0.0562
  C  C238  1  0.484400  0.585480  0.225260  1.0  -0.1394
  C  C239  1  0.886100  0.259080  0.029960  1.0  0.5068
  C  C240  1  0.655600  0.434450  0.257230  1.0  -0.0431
  C  C241  1  0.906470  0.755310  0.060640  1.0  -0.0883
  C  C242  1  0.979400  0.578640  0.576720  1.0  -0.1262
  C  C243  1  0.580690  0.609280  0.736870  1.0  -0.1492
  C  C244  1  0.113900  0.740920  0.970040  1.0  0.5054
  C  C245  1  0.362400  0.740300  0.605410  1.0  -0.1639
  C  C246  1  0.719700  0.730540  0.627220  1.0  0.7012
  C  C247  1  0.294800  0.366790  0.267620  1.0  0.7284
  C  C248  1  0.903200  0.761960  0.104320  1.0  -0.1834
  C  C249  1  0.026900  0.721460  0.792900  1.0  0.7335
  C  C250  1  0.507900  0.910120  0.035210  1.0  -0.0575
  C  C251  1  0.532980  0.368630  0.266520  1.0  -0.0197
  C  C252  1  0.613900  0.240920  0.529960  1.0  0.5063
  N  N253  1  0.540620  0.499160  0.246230  1.0  -0.3485
  N  N254  1  0.981500  0.254450  0.003020  1.0  -0.372
  N  N255  1  0.040620  0.999160  0.253770  1.0  -0.3494
  N  N256  1  0.481500  0.754450  0.496980  1.0  -0.3679
  N  N257  1  0.018500  0.745550  0.996980  1.0  -0.3734
  N  N258  1  0.959380  0.000840  0.746230  1.0  -0.3459
  N  N259  1  0.459380  0.500840  0.753770  1.0  -0.3457
  N  N260  1  0.518500  0.245550  0.503020  1.0  -0.3697
  O  O261  1  0.752600  0.515170  0.240830  1.0  -0.495
  O  O262  1  0.787560  0.773090  0.165250  1.0  -0.5962
  O  O263  1  0.821070  0.728660  0.605390  1.0  -0.5789
  O  O264  1  0.576140  0.791500  0.279490  1.0  -0.6005
  O  O265  1  0.692930  0.887300  0.225770  1.0  -0.6079
  O  O266  1  0.622240  0.110250  0.772820  1.0  -0.5664
  O  O267  1  0.248700  0.738740  0.668660  1.0  -0.5872
  O  O268  1  0.524800  0.850830  0.097950  1.0  -0.6065
  O  O269  1  0.321070  0.228660  0.894610  1.0  -0.5783
  O  O270  1  0.037730  0.783600  0.705750  1.0  -0.6361
  O  O271  1  0.475200  0.149170  0.902050  1.0  -0.6074
  O  O272  1  0.638420  0.229370  0.890430  1.0  -0.5986
  O  O273  1  0.298500  0.327750  0.265660  1.0  -0.5932
  O  O274  1  0.462270  0.716400  0.205750  1.0  -0.6355
  O  O275  1  0.678930  0.771340  0.105390  1.0  -0.5784
  O  O276  1  0.225320  0.734890  0.983190  1.0  -0.4649
  O  O277  1  0.163640  0.223430  0.270450  1.0  -0.5633
  O  O278  1  0.923860  0.708500  0.779490  1.0  -0.6008
  O  O279  1  0.751300  0.261260  0.331340  1.0  -0.5886
  O  O280  1  0.623930  0.232120  0.727870  1.0  -0.5647
  O  O281  1  0.076140  0.291500  0.220510  1.0  -0.6002
  O  O282  1  0.712440  0.726910  0.665250  1.0  -0.5961
  O  O283  1  0.024800  0.350830  0.402050  1.0  -0.607
  O  O284  1  0.192930  0.387300  0.274230  1.0  -0.6079
  O  O285  1  0.138420  0.729370  0.609570  1.0  -0.5985
  O  O286  1  0.251300  0.761260  0.168660  1.0  -0.5884
  O  O287  1  0.738240  0.169290  0.778740  1.0  -0.618
  O  O288  1  0.178930  0.271340  0.394610  1.0  -0.5802
  O  O289  1  0.238240  0.669290  0.721260  1.0  -0.6175
  O  O290  1  0.701500  0.672250  0.734340  1.0  -0.5945
  O  O291  1  0.748700  0.238740  0.831340  1.0  -0.5879
  O  O292  1  0.376070  0.767880  0.272130  1.0  -0.5637
  O  O293  1  0.423860  0.208500  0.720510  1.0  -0.6007
  O  O294  1  0.032420  0.399550  0.352790  1.0  -0.5962
  O  O295  1  0.967580  0.600450  0.647210  1.0  -0.598
  O  O296  1  0.877760  0.389750  0.272820  1.0  -0.5676
  O  O297  1  0.532420  0.899550  0.147210  1.0  -0.5965
  O  O298  1  0.212440  0.226910  0.834750  1.0  -0.5962
  O  O299  1  0.861580  0.270630  0.390430  1.0  -0.5979
  O  O300  1  0.252600  0.015170  0.259170  1.0  -0.4918
  O  O301  1  0.287560  0.273090  0.334750  1.0  -0.5955
  O  O302  1  0.974940  0.691480  0.687390  1.0  -1.1912
  O  O303  1  0.798500  0.827750  0.234340  1.0  -0.594
  O  O304  1  0.761760  0.330710  0.278740  1.0  -0.6198
  O  O305  1  0.663640  0.723430  0.229550  1.0  -0.5646
  O  O306  1  0.975200  0.649170  0.597950  1.0  -0.607
  O  O307  1  0.261760  0.830710  0.221260  1.0  -0.6195
  O  O308  1  0.876070  0.267880  0.227870  1.0  -0.5636
  O  O309  1  0.467580  0.100450  0.852790  1.0  -0.5969
  O  O310  1  0.025060  0.308520  0.312610  1.0  -1.1909
  O  O311  1  0.307070  0.112700  0.774230  1.0  -0.6074
  O  O312  1  0.201500  0.172250  0.765660  1.0  -0.5943
  O  O313  1  0.525060  0.808520  0.187390  1.0  -1.1909
  O  O314  1  0.774680  0.265110  0.016810  1.0  -0.4646
  O  O315  1  0.377760  0.889750  0.227180  1.0  -0.567
  O  O316  1  0.361580  0.770630  0.109570  1.0  -0.5984
  O  O317  1  0.122240  0.610250  0.727180  1.0  -0.5653
  O  O318  1  0.725320  0.234890  0.516810  1.0  -0.4663
  O  O319  1  0.123930  0.732120  0.772130  1.0  -0.5646
  O  O320  1  0.836360  0.776570  0.729550  1.0  -0.5636
  O  O321  1  0.247400  0.484830  0.759170  1.0  -0.4894
  O  O322  1  0.336360  0.276570  0.770450  1.0  -0.5636
  O  O323  1  0.747400  0.984830  0.740830  1.0  -0.4866
  O  O324  1  0.962270  0.216400  0.294250  1.0  -0.635
  O  O325  1  0.537730  0.283600  0.794250  1.0  -0.6382
  O  O326  1  0.474940  0.191480  0.812610  1.0  -1.1912
  O  O327  1  0.807070  0.612700  0.725770  1.0  -0.6074
  O  O328  1  0.274680  0.765110  0.483190  1.0  -0.4661
