# generated using pymatgen
data_Cu3H4C18(NO6)2
_symmetry_space_group_name_H-M   'P 1'
_cell_length_a   19.34800000
_cell_length_b   19.82210000
_cell_length_c   21.11040000
_cell_angle_alpha   90.00000000
_cell_angle_beta   90.00000000
_cell_angle_gamma   90.00000000
_symmetry_Int_Tables_number   1
_chemical_formula_structural   Cu3H4C18(NO6)2
_chemical_formula_sum   'Cu24 H32 C144 N16 O96'
_cell_volume   8096.21819298
_cell_formula_units_Z   8
loop_
 _symmetry_equiv_pos_site_id
 _symmetry_equiv_pos_as_xyz
  1  'x, y, z'
loop_
 _atom_site_type_symbol
 _atom_site_label
 _atom_site_symmetry_multiplicity
 _atom_site_fract_x
 _atom_site_fract_y
 _atom_site_fract_z
 _atom_site_occupancy
 _atom_site_charge
  Cu  Cu1  1  0.483090  0.013280  0.940890  1.0  0.9139
  Cu  Cu2  1  0.400980  0.890120  0.750000  1.0  0.4101
  Cu  Cu3  1  0.443860  0.560540  0.750000  1.0  0.9094
  Cu  Cu4  1  0.877080  0.397420  0.250000  1.0  0.4202
  Cu  Cu5  1  0.341300  0.650060  0.750000  1.0  0.9042
  Cu  Cu6  1  0.516910  0.986720  0.440890  1.0  0.9128
  Cu  Cu7  1  0.900980  0.609880  0.750000  1.0  0.4051
  Cu  Cu8  1  0.056140  0.060540  0.250000  1.0  0.9112
  Cu  Cu9  1  0.622920  0.897420  0.750000  1.0  0.4191
  Cu  Cu10  1  0.483090  0.013280  0.559110  1.0  0.9139
  Cu  Cu11  1  0.516910  0.986720  0.059110  1.0  0.9141
  Cu  Cu12  1  0.983090  0.486720  0.940890  1.0  0.9136
  Cu  Cu13  1  0.099020  0.390120  0.250000  1.0  0.4114
  Cu  Cu14  1  0.016910  0.513280  0.059110  1.0  0.9142
  Cu  Cu15  1  0.943860  0.939460  0.750000  1.0  0.9118
  Cu  Cu16  1  0.658700  0.349940  0.250000  1.0  0.9047
  Cu  Cu17  1  0.377080  0.102580  0.250000  1.0  0.4221
  Cu  Cu18  1  0.016910  0.513280  0.440890  1.0  0.9128
  Cu  Cu19  1  0.556140  0.439460  0.250000  1.0  0.9094
  Cu  Cu20  1  0.841300  0.849940  0.750000  1.0  0.9033
  Cu  Cu21  1  0.983090  0.486720  0.559110  1.0  0.9139
  Cu  Cu22  1  0.122920  0.602580  0.750000  1.0  0.4211
  Cu  Cu23  1  0.599020  0.109880  0.250000  1.0  0.4067
  Cu  Cu24  1  0.158700  0.150060  0.250000  1.0  0.9066
  H  H25  1  0.570300  0.781300  0.467800  1.0  0.1398
  H  H26  1  0.070300  0.718700  0.467800  1.0  0.1401
  H  H27  1  0.456500  0.374300  0.413400  1.0  0.136
  H  H28  1  0.273900  0.920900  0.967700  1.0  0.1443
  H  H29  1  0.226100  0.420900  0.467700  1.0  0.1438
  H  H30  1  0.773900  0.579100  0.532300  1.0  0.144
  H  H31  1  0.273900  0.920900  0.532300  1.0  0.1443
  H  H32  1  0.226100  0.420900  0.032300  1.0  0.1441
  H  H33  1  0.043500  0.874300  0.913400  1.0  0.136
  H  H34  1  0.773900  0.579100  0.967700  1.0  0.1439
  H  H35  1  0.929700  0.281300  0.532200  1.0  0.1402
  H  H36  1  0.543500  0.625700  0.913400  1.0  0.1359
  H  H37  1  0.617700  0.557300  0.091000  1.0  0.1349
  H  H38  1  0.956500  0.125700  0.086600  1.0  0.1359
  H  H39  1  0.617700  0.557300  0.409000  1.0  0.1353
  H  H40  1  0.117700  0.942700  0.091000  1.0  0.1353
  H  H41  1  0.043500  0.874300  0.586600  1.0  0.1358
  H  H42  1  0.456500  0.374300  0.086600  1.0  0.1358
  H  H43  1  0.070300  0.718700  0.032200  1.0  0.1397
  H  H44  1  0.570300  0.781300  0.032200  1.0  0.1395
  H  H45  1  0.956500  0.125700  0.413400  1.0  0.1358
  H  H46  1  0.882300  0.057300  0.909000  1.0  0.1355
  H  H47  1  0.882300  0.057300  0.591000  1.0  0.1353
  H  H48  1  0.429700  0.218700  0.967800  1.0  0.1403
  H  H49  1  0.726100  0.079100  0.467700  1.0  0.1435
  H  H50  1  0.382300  0.442700  0.591000  1.0  0.1351
  H  H51  1  0.117700  0.942700  0.409000  1.0  0.1355
  H  H52  1  0.543500  0.625700  0.586600  1.0  0.1358
  H  H53  1  0.429700  0.218700  0.532200  1.0  0.1404
  H  H54  1  0.382300  0.442700  0.909000  1.0  0.135
  H  H55  1  0.726100  0.079100  0.032300  1.0  0.1439
  H  H56  1  0.929700  0.281300  0.967800  1.0  0.1401
  C  C57  1  0.564600  0.697600  0.978300  1.0  0.2101
  C  C58  1  0.298100  0.498700  0.613200  1.0  -0.1081
  C  C59  1  0.993200  0.302800  0.040700  1.0  -0.1194
  C  C60  1  0.950500  0.827900  0.835900  1.0  0.7254
  C  C61  1  0.667200  0.463600  0.165500  1.0  0.7174
  C  C62  1  0.832800  0.963600  0.834500  1.0  0.7164
  C  C63  1  0.972700  0.725600  0.906300  1.0  -0.0919
  C  C64  1  0.435400  0.302400  0.478300  1.0  0.2099
  C  C65  1  0.202700  0.480500  0.957800  1.0  0.0146
  C  C66  1  0.297300  0.980500  0.042200  1.0  0.0133
  C  C67  1  0.316800  0.060600  0.369100  1.0  0.6825
  C  C68  1  0.527300  0.225600  0.093700  1.0  -0.0921
  C  C69  1  0.728600  0.988600  0.903900  1.0  -0.0449
  C  C70  1  0.298100  0.498700  0.886800  1.0  -0.1069
  C  C71  1  0.128000  0.490300  0.523900  1.0  0.6999
  C  C72  1  0.702700  0.019500  0.542200  1.0  0.0143
  C  C73  1  0.550400  0.763400  0.504200  1.0  -0.0326
  C  C74  1  0.662500  0.547000  0.078200  1.0  0.0018
  C  C75  1  0.466900  0.330300  0.074600  1.0  -0.018
  C  C76  1  0.950500  0.827900  0.664100  1.0  0.7253
  C  C77  1  0.013900  0.207200  0.390100  1.0  -0.1349
  C  C78  1  0.527300  0.225600  0.406300  1.0  -0.092
  C  C79  1  0.513900  0.292800  0.390100  1.0  -0.1348
  C  C80  1  0.667200  0.463600  0.334500  1.0  0.7175
  C  C81  1  0.271400  0.011400  0.096100  1.0  -0.0443
  C  C82  1  0.372000  0.990300  0.023900  1.0  0.6998
  C  C83  1  0.050400  0.736600  0.504200  1.0  -0.0321
  C  C84  1  0.271400  0.011400  0.403900  1.0  -0.0442
  C  C85  1  0.502500  0.876500  0.525900  1.0  0.7184
  C  C86  1  0.162500  0.953000  0.078200  1.0  0.0021
  C  C87  1  0.797300  0.519500  0.457800  1.0  0.0134
  C  C88  1  0.002500  0.623500  0.525900  1.0  0.7185
  C  C89  1  0.027300  0.274400  0.093700  1.0  -0.0919
  C  C90  1  0.332800  0.536400  0.834500  1.0  0.7162
  C  C91  1  0.549500  0.327900  0.164100  1.0  0.7256
  C  C92  1  0.297300  0.980500  0.457800  1.0  0.0133
  C  C93  1  0.997500  0.376500  0.474100  1.0  0.7189
  C  C94  1  0.050400  0.736600  0.995800  1.0  -0.03
  C  C95  1  0.337500  0.453000  0.921800  1.0  0.0042
  C  C96  1  0.472700  0.774400  0.593700  1.0  -0.0918
  C  C97  1  0.837500  0.047000  0.921800  1.0  0.0039
  C  C98  1  0.256600  0.938500  0.494700  1.0  -0.0274
  C  C99  1  0.183200  0.560600  0.630900  1.0  0.6827
  C  C100  1  0.449600  0.236600  0.495800  1.0  -0.0312
  C  C101  1  0.027300  0.274400  0.406300  1.0  -0.0918
  C  C102  1  0.310200  0.422900  0.524700  1.0  0.2197
  C  C103  1  0.002500  0.623500  0.974100  1.0  0.7189
  C  C104  1  0.628000  0.009700  0.523900  1.0  0.6999
  C  C105  1  0.986100  0.792800  0.890100  1.0  -0.135
  C  C106  1  0.167200  0.036400  0.165500  1.0  0.718
  C  C107  1  0.837500  0.047000  0.578200  1.0  0.0039
  C  C108  1  0.701900  0.501300  0.113200  1.0  -0.1101
  C  C109  1  0.689800  0.577100  0.475300  1.0  0.2195
  C  C110  1  0.006800  0.697200  0.959300  1.0  -0.119
  C  C111  1  0.450500  0.672100  0.664100  1.0  0.726
  C  C112  1  0.966900  0.169700  0.074600  1.0  -0.0178
  C  C113  1  0.450500  0.672100  0.835900  1.0  0.7257
  C  C114  1  0.701900  0.501300  0.386800  1.0  -0.1067
  C  C115  1  0.872000  0.509700  0.476100  1.0  0.7004
  C  C116  1  0.372000  0.990300  0.476100  1.0  0.7004
  C  C117  1  0.497500  0.123500  0.025900  1.0  0.7188
  C  C118  1  0.756600  0.561500  0.005300  1.0  -0.0265
  C  C119  1  0.533100  0.669700  0.574600  1.0  -0.0179
  C  C120  1  0.228600  0.511400  0.903900  1.0  -0.0445
  C  C121  1  0.064600  0.802400  0.978300  1.0  0.2096
  C  C122  1  0.949600  0.263400  0.004200  1.0  -0.0311
  C  C123  1  0.997500  0.376500  0.025900  1.0  0.7183
  C  C124  1  0.798100  0.001300  0.886800  1.0  -0.1093
  C  C125  1  0.183200  0.560600  0.869100  1.0  0.6833
  C  C126  1  0.077000  0.316800  0.132900  1.0  0.6684
  C  C127  1  0.493200  0.197200  0.459300  1.0  -0.1178
  C  C128  1  0.243400  0.438500  0.994700  1.0  -0.0279
  C  C129  1  0.337500  0.453000  0.578200  1.0  0.0042
  C  C130  1  0.486100  0.707200  0.890100  1.0  -0.1354
  C  C131  1  0.077000  0.316800  0.367100  1.0  0.6696
  C  C132  1  0.201900  0.998700  0.113200  1.0  -0.1099
  C  C133  1  0.128000  0.490300  0.976100  1.0  0.7003
  C  C134  1  0.533100  0.669700  0.925400  1.0  -0.0179
  C  C135  1  0.243400  0.438500  0.505300  1.0  -0.0262
  C  C136  1  0.316800  0.060600  0.130900  1.0  0.6822
  C  C137  1  0.201900  0.998700  0.386800  1.0  -0.1068
  C  C138  1  0.493200  0.197200  0.040700  1.0  -0.1193
  C  C139  1  0.497500  0.123500  0.474100  1.0  0.7191
  C  C140  1  0.798100  0.001300  0.613200  1.0  -0.1077
  C  C141  1  0.064600  0.802400  0.521700  1.0  0.2098
  C  C142  1  0.743400  0.061500  0.994700  1.0  -0.0273
  C  C143  1  0.743400  0.061500  0.505300  1.0  -0.0265
  C  C144  1  0.506800  0.802800  0.959300  1.0  -0.1183
  C  C145  1  0.756600  0.561500  0.494700  1.0  -0.0272
  C  C146  1  0.506800  0.802800  0.540700  1.0  -0.121
  C  C147  1  0.049500  0.172100  0.164100  1.0  0.7263
  C  C148  1  0.771400  0.488600  0.096100  1.0  -0.0446
  C  C149  1  0.993200  0.302800  0.459300  1.0  -0.1175
  C  C150  1  0.577000  0.183200  0.132900  1.0  0.6715
  C  C151  1  0.771400  0.488600  0.403900  1.0  -0.0446
  C  C152  1  0.689800  0.577100  0.024700  1.0  0.2207
  C  C153  1  0.033100  0.830300  0.574600  1.0  -0.0177
  C  C154  1  0.006800  0.697200  0.540700  1.0  -0.1203
  C  C155  1  0.810200  0.077100  0.524700  1.0  0.2208
  C  C156  1  0.049500  0.172100  0.335900  1.0  0.7255
  C  C157  1  0.935400  0.197600  0.478300  1.0  0.2101
  C  C158  1  0.228600  0.511400  0.596100  1.0  -0.0444
  C  C159  1  0.310200  0.422900  0.975300  1.0  0.2194
  C  C160  1  0.033100  0.830300  0.925400  1.0  -0.0178
  C  C161  1  0.189800  0.922900  0.024700  1.0  0.2193
  C  C162  1  0.923000  0.683200  0.867100  1.0  0.6756
  C  C163  1  0.966900  0.169700  0.425400  1.0  -0.0177
  C  C164  1  0.816800  0.439400  0.130900  1.0  0.6833
  C  C165  1  0.872000  0.509700  0.023900  1.0  0.6999
  C  C166  1  0.423000  0.816800  0.632900  1.0  0.6738
  C  C167  1  0.628000  0.009700  0.976100  1.0  0.7003
  C  C168  1  0.986100  0.792800  0.609900  1.0  -0.1349
  C  C169  1  0.513900  0.292800  0.109900  1.0  -0.1348
  C  C170  1  0.816800  0.439400  0.369100  1.0  0.6823
  C  C171  1  0.435400  0.302400  0.021700  1.0  0.2106
  C  C172  1  0.949600  0.263400  0.495800  1.0  -0.0316
  C  C173  1  0.256600  0.938500  0.005300  1.0  -0.0266
  C  C174  1  0.502500  0.876500  0.974100  1.0  0.7184
  C  C175  1  0.013900  0.207200  0.109900  1.0  -0.135
  C  C176  1  0.810200  0.077100  0.975300  1.0  0.2198
  C  C177  1  0.449600  0.236600  0.004200  1.0  -0.0307
  C  C178  1  0.564600  0.697600  0.521700  1.0  0.2095
  C  C179  1  0.549500  0.327900  0.335900  1.0  0.7255
  C  C180  1  0.923000  0.683200  0.632900  1.0  0.6725
  C  C181  1  0.466900  0.330300  0.425400  1.0  -0.0179
  C  C182  1  0.486100  0.707200  0.609900  1.0  -0.1355
  C  C183  1  0.472700  0.774400  0.906300  1.0  -0.0917
  C  C184  1  0.189800  0.922900  0.475300  1.0  0.2188
  C  C185  1  0.683200  0.939400  0.869100  1.0  0.6834
  C  C186  1  0.832800  0.963600  0.665500  1.0  0.7165
  C  C187  1  0.972700  0.725600  0.593700  1.0  -0.092
  C  C188  1  0.683200  0.939400  0.630900  1.0  0.6841
  C  C189  1  0.162500  0.953000  0.421800  1.0  0.0018
  C  C190  1  0.423000  0.816800  0.867100  1.0  0.6738
  C  C191  1  0.797300  0.519500  0.042200  1.0  0.0133
  C  C192  1  0.202700  0.480500  0.542200  1.0  0.0143
  C  C193  1  0.167200  0.036400  0.334500  1.0  0.7181
  C  C194  1  0.935400  0.197600  0.021700  1.0  0.21
  C  C195  1  0.550400  0.763400  0.995800  1.0  -0.0304
  C  C196  1  0.332800  0.536400  0.665500  1.0  0.7163
  C  C197  1  0.702700  0.019500  0.957800  1.0  0.0147
  C  C198  1  0.577000  0.183200  0.367100  1.0  0.672
  C  C199  1  0.728600  0.988600  0.596100  1.0  -0.0449
  C  C200  1  0.662500  0.547000  0.421800  1.0  0.0016
  N  N201  1  0.850900  0.120400  0.013500  1.0  -0.1616
  N  N202  1  0.110400  0.841300  0.482700  1.0  -0.1611
  N  N203  1  0.110400  0.841300  0.017300  1.0  -0.1617
  N  N204  1  0.889600  0.158700  0.517300  1.0  -0.1621
  N  N205  1  0.610400  0.658700  0.017300  1.0  -0.1614
  N  N206  1  0.649100  0.620400  0.986500  1.0  -0.1603
  N  N207  1  0.389600  0.341300  0.982700  1.0  -0.162
  N  N208  1  0.149100  0.879600  0.513500  1.0  -0.1617
  N  N209  1  0.850900  0.120400  0.486500  1.0  -0.1608
  N  N210  1  0.889600  0.158700  0.982700  1.0  -0.1619
  N  N211  1  0.149100  0.879600  0.986500  1.0  -0.1603
  N  N212  1  0.350900  0.379600  0.486500  1.0  -0.1601
  N  N213  1  0.649100  0.620400  0.513500  1.0  -0.162
  N  N214  1  0.389600  0.341300  0.517300  1.0  -0.1627
  N  N215  1  0.610400  0.658700  0.482700  1.0  -0.1608
  N  N216  1  0.350900  0.379600  0.013500  1.0  -0.1607
  O  O217  1  0.394290  0.696060  0.683380  1.0  -0.5613
  O  O218  1  0.983710  0.392790  0.969910  1.0  -0.5508
  O  O219  1  0.105710  0.196060  0.316620  1.0  -0.5608
  O  O220  1  0.394290  0.696060  0.816620  1.0  -0.561
  O  O221  1  0.487330  0.915310  0.929670  1.0  -0.5369
  O  O222  1  0.480260  0.620400  0.815820  1.0  -0.5714
  O  O223  1  0.584530  0.018500  0.931750  1.0  -0.5642
  O  O224  1  0.334510  0.111700  0.102150  1.0  -0.4903
  O  O225  1  0.516290  0.892790  0.030090  1.0  -0.5511
  O  O226  1  0.019740  0.120400  0.315820  1.0  -0.5721
  O  O227  1  0.487330  0.915310  0.570330  1.0  -0.5382
  O  O228  1  0.610800  0.487700  0.314010  1.0  -0.5661
  O  O229  1  0.834390  0.455970  0.186850  1.0  -0.5885
  O  O230  1  0.365020  0.831000  0.889400  1.0  -0.4587
  O  O231  1  0.894290  0.803940  0.683380  1.0  -0.5609
  O  O232  1  0.987330  0.584690  0.570330  1.0  -0.538
  O  O233  1  0.113970  0.503200  0.467580  1.0  -0.5429
  O  O234  1  0.334390  0.044030  0.313150  1.0  -0.587
  O  O235  1  0.334390  0.044030  0.186850  1.0  -0.588
  O  O236  1  0.194690  0.090630  0.183740  1.0  -0.5512
  O  O237  1  0.634980  0.169000  0.110600  1.0  -0.4606
  O  O238  1  0.605710  0.303940  0.183380  1.0  -0.5611
  O  O239  1  0.019740  0.120400  0.184180  1.0  -0.5721
  O  O240  1  0.886030  0.496800  0.532420  1.0  -0.5414
  O  O241  1  0.165490  0.611700  0.602150  1.0  -0.4898
  O  O242  1  0.613970  0.996800  0.467580  1.0  -0.5417
  O  O243  1  0.987330  0.584690  0.929670  1.0  -0.5369
  O  O244  1  0.053330  0.335660  0.186310  1.0  -0.5725
  O  O245  1  0.553330  0.164340  0.186310  1.0  -0.5725
  O  O246  1  0.834510  0.388300  0.397850  1.0  -0.49
  O  O247  1  0.805310  0.909370  0.683740  1.0  -0.5517
  O  O248  1  0.305310  0.590630  0.816260  1.0  -0.5514
  O  O249  1  0.634980  0.169000  0.389400  1.0  -0.4611
  O  O250  1  0.946670  0.664340  0.686310  1.0  -0.5721
  O  O251  1  0.613970  0.996800  0.032420  1.0  -0.5415
  O  O252  1  0.446670  0.835660  0.813690  1.0  -0.5713
  O  O253  1  0.946670  0.664340  0.813690  1.0  -0.5704
  O  O254  1  0.016290  0.607210  0.030090  1.0  -0.5513
  O  O255  1  0.865020  0.669000  0.889400  1.0  -0.4586
  O  O256  1  0.694690  0.409370  0.316260  1.0  -0.5513
  O  O257  1  0.446670  0.835660  0.686310  1.0  -0.5724
  O  O258  1  0.512670  0.084690  0.429670  1.0  -0.5368
  O  O259  1  0.865020  0.669000  0.610600  1.0  -0.4584
  O  O260  1  0.305310  0.590630  0.683740  1.0  -0.5515
  O  O261  1  0.980260  0.879600  0.815820  1.0  -0.5723
  O  O262  1  0.980260  0.879600  0.684180  1.0  -0.5723
  O  O263  1  0.519740  0.379600  0.315820  1.0  -0.5724
  O  O264  1  0.389200  0.512300  0.685990  1.0  -0.567
  O  O265  1  0.512670  0.084690  0.070330  1.0  -0.5382
  O  O266  1  0.834510  0.388300  0.102150  1.0  -0.4908
  O  O267  1  0.483710  0.107210  0.530090  1.0  -0.5521
  O  O268  1  0.084530  0.481500  0.568250  1.0  -0.5638
  O  O269  1  0.386030  0.003200  0.532420  1.0  -0.5435
  O  O270  1  0.889200  0.987700  0.685990  1.0  -0.567
  O  O271  1  0.915470  0.518500  0.068250  1.0  -0.5637
  O  O272  1  0.165610  0.544030  0.686850  1.0  -0.5891
  O  O273  1  0.665610  0.955970  0.686850  1.0  -0.5897
  O  O274  1  0.605710  0.303940  0.316620  1.0  -0.5606
  O  O275  1  0.053330  0.335660  0.313690  1.0  -0.5715
  O  O276  1  0.386030  0.003200  0.967580  1.0  -0.5421
  O  O277  1  0.165610  0.544030  0.813150  1.0  -0.5877
  O  O278  1  0.894290  0.803940  0.816620  1.0  -0.5604
  O  O279  1  0.584530  0.018500  0.568250  1.0  -0.5649
  O  O280  1  0.415470  0.981500  0.068250  1.0  -0.5642
  O  O281  1  0.805310  0.909370  0.816260  1.0  -0.5513
  O  O282  1  0.553330  0.164340  0.313690  1.0  -0.5712
  O  O283  1  0.889200  0.987700  0.814010  1.0  -0.5663
  O  O284  1  0.365020  0.831000  0.610600  1.0  -0.4587
  O  O285  1  0.665610  0.955970  0.813150  1.0  -0.588
  O  O286  1  0.012670  0.415310  0.429670  1.0  -0.537
  O  O287  1  0.084530  0.481500  0.931750  1.0  -0.5646
  O  O288  1  0.915470  0.518500  0.431750  1.0  -0.5646
  O  O289  1  0.886030  0.496800  0.967580  1.0  -0.5413
  O  O290  1  0.134980  0.331000  0.389400  1.0  -0.4611
  O  O291  1  0.194690  0.090630  0.316260  1.0  -0.5511
  O  O292  1  0.105710  0.196060  0.183380  1.0  -0.5613
  O  O293  1  0.665490  0.888300  0.602150  1.0  -0.4906
  O  O294  1  0.165490  0.611700  0.897850  1.0  -0.4903
  O  O295  1  0.834390  0.455970  0.313150  1.0  -0.5872
  O  O296  1  0.134980  0.331000  0.110600  1.0  -0.4609
  O  O297  1  0.983710  0.392790  0.530090  1.0  -0.553
  O  O298  1  0.389200  0.512300  0.814010  1.0  -0.5664
  O  O299  1  0.516290  0.892790  0.469910  1.0  -0.5515
  O  O300  1  0.483710  0.107210  0.969910  1.0  -0.552
  O  O301  1  0.012670  0.415310  0.070330  1.0  -0.5383
  O  O302  1  0.110800  0.012300  0.314010  1.0  -0.5665
  O  O303  1  0.480260  0.620400  0.684180  1.0  -0.5717
  O  O304  1  0.334510  0.111700  0.397850  1.0  -0.4907
  O  O305  1  0.519740  0.379600  0.184180  1.0  -0.5725
  O  O306  1  0.694690  0.409370  0.183740  1.0  -0.5516
  O  O307  1  0.113970  0.503200  0.032420  1.0  -0.5434
  O  O308  1  0.415470  0.981500  0.431750  1.0  -0.5642
  O  O309  1  0.610800  0.487700  0.185990  1.0  -0.5656
  O  O310  1  0.110800  0.012300  0.185990  1.0  -0.5666
  O  O311  1  0.016290  0.607210  0.469910  1.0  -0.5521
  O  O312  1  0.665490  0.888300  0.897850  1.0  -0.4897
