# generated using pymatgen
data_Cu3H4C18N2O13
_symmetry_space_group_name_H-M   'P 1'
_cell_length_a   16.85270000
_cell_length_b   16.90180000
_cell_length_c   26.71320000
_cell_angle_alpha   102.98900000
_cell_angle_beta   90.00000000
_cell_angle_gamma   119.90400000
_symmetry_Int_Tables_number   1
_chemical_formula_structural   Cu3H4C18N2O13
_chemical_formula_sum   'Cu24 H32 C144 N16 O104'
_cell_volume   6370.38868083
_cell_formula_units_Z   8
loop_
 _symmetry_equiv_pos_site_id
 _symmetry_equiv_pos_as_xyz
  1  'x, y, z'
loop_
 _atom_site_type_symbol
 _atom_site_label
 _atom_site_symmetry_multiplicity
 _atom_site_fract_x
 _atom_site_fract_y
 _atom_site_fract_z
 _atom_site_occupancy
 _atom_site_charge
  Cu  Cu1  1  0.432720  0.758960  0.521830  1.0  0.5497
  Cu  Cu2  1  0.299120  0.406380  0.029510  1.0  1.0589
  Cu  Cu3  1  0.793230  0.944080  0.542070  1.0  0.8859
  Cu  Cu4  1  0.636940  0.000000  0.750000  1.0  0.9141
  Cu  Cu5  1  0.128030  0.725320  0.506130  1.0  0.9809
  Cu  Cu6  1  0.059380  0.789360  0.102560  1.0  0.7884
  Cu  Cu7  1  0.729980  0.789360  0.602560  1.0  0.791
  Cu  Cu8  1  0.326240  0.758960  0.021830  1.0  0.5507
  Cu  Cu9  1  0.700880  0.593620  0.970490  1.0  1.0593
  Cu  Cu10  1  0.871970  0.274680  0.493870  1.0  0.9809
  Cu  Cu11  1  0.673760  0.241040  0.978170  1.0  0.5492
  Cu  Cu12  1  0.892740  0.593620  0.470490  1.0  1.0574
  Cu  Cu13  1  0.940620  0.210640  0.897440  1.0  0.79
  Cu  Cu14  1  0.402710  0.274680  0.993870  1.0  0.9812
  Cu  Cu15  1  0.567280  0.241040  0.478170  1.0  0.5499
  Cu  Cu16  1  0.849150  0.055920  0.957930  1.0  0.8861
  Cu  Cu17  1  0.206770  0.055920  0.457930  1.0  0.8879
  Cu  Cu18  1  0.107260  0.406380  0.529510  1.0  1.0588
  Cu  Cu19  1  0.500000  0.500000  0.000000  1.0  0.9728
  Cu  Cu20  1  0.270020  0.210640  0.397440  1.0  0.788
  Cu  Cu21  1  0.150850  0.944080  0.042070  1.0  0.8878
  Cu  Cu22  1  0.597290  0.725320  0.006130  1.0  0.9805
  Cu  Cu23  1  0.363060  0.000000  0.250000  1.0  0.914
  Cu  Cu24  1  0.000000  0.500000  0.500000  1.0  0.9728
  H  H25  1  0.339900  0.496000  0.639100  1.0  0.1426
  H  H26  1  0.137200  0.729400  0.229800  1.0  0.15
  H  H27  1  0.156100  0.496000  0.139100  1.0  0.1422
  H  H28  1  0.624500  0.455200  0.856200  1.0  0.1381
  H  H29  1  0.401500  0.730600  0.741300  1.0  0.1415
  H  H30  1  0.715700  0.564000  0.720000  1.0  0.1382
  H  H31  1  0.535600  0.429800  0.651400  1.0  0.1429
  H  H32  1  0.409300  0.629000  0.848400  1.0  0.1463
  H  H33  1  0.169300  0.544800  0.643800  1.0  0.1386
  H  H34  1  0.862800  0.270600  0.770200  1.0  0.1503
  H  H35  1  0.670900  0.269400  0.758700  1.0  0.1419
  H  H36  1  0.375500  0.544800  0.143800  1.0  0.1382
  H  H37  1  0.219700  0.629000  0.348400  1.0  0.1462
  H  H38  1  0.830700  0.455200  0.356200  1.0  0.1377
  H  H39  1  0.598500  0.269400  0.258700  1.0  0.1419
  H  H40  1  0.407800  0.270600  0.270200  1.0  0.1502
  H  H41  1  0.105800  0.570200  0.848600  1.0  0.1427
  H  H42  1  0.329100  0.730600  0.241300  1.0  0.1417
  H  H43  1  0.975300  0.573000  0.321400  1.0  0.1465
  H  H44  1  0.590700  0.371000  0.151600  1.0  0.1474
  H  H45  1  0.024700  0.427000  0.678600  1.0  0.1473
  H  H46  1  0.464400  0.570200  0.348600  1.0  0.1426
  H  H47  1  0.848300  0.564000  0.220000  1.0  0.1357
  H  H48  1  0.843900  0.504000  0.860900  1.0  0.1426
  H  H49  1  0.780300  0.371000  0.651600  1.0  0.1478
  H  H50  1  0.894200  0.429800  0.151400  1.0  0.1424
  H  H51  1  0.284300  0.436000  0.280000  1.0  0.1376
  H  H52  1  0.597700  0.573000  0.821400  1.0  0.1467
  H  H53  1  0.660100  0.504000  0.360900  1.0  0.1425
  H  H54  1  0.151700  0.436000  0.780000  1.0  0.1363
  H  H55  1  0.402300  0.427000  0.178600  1.0  0.1474
  H  H56  1  0.592200  0.729400  0.729800  1.0  0.1501
  C  C57  1  0.615200  0.220400  0.317200  1.0  -0.1154
  C  C58  1  0.138100  0.389200  0.423000  1.0  0.686
  C  C59  1  0.703800  0.884400  0.899600  1.0  0.6538
  C  C60  1  0.225000  0.411200  0.344400  1.0  -0.0534
  C  C61  1  0.415100  0.362400  0.230700  1.0  0.2543
  C  C62  1  0.029700  0.473600  0.153200  1.0  0.2166
  C  C63  1  0.861900  0.610800  0.577000  1.0  0.6869
  C  C64  1  0.181400  0.524800  0.384600  1.0  -0.0394
  C  C65  1  0.361900  0.715400  0.711900  1.0  -0.0282
  C  C66  1  0.394800  0.779600  0.182800  1.0  -0.1142
  C  C67  1  0.364100  0.457600  0.626800  1.0  -0.0302
  C  C68  1  0.229600  0.365400  0.558800  1.0  0.7478
  C  C69  1  0.868000  0.203200  0.646100  1.0  -0.0476
  C  C70  1  0.748900  0.610800  0.077000  1.0  0.6868
  C  C71  1  0.768100  0.676000  0.656900  1.0  0.7402
  C  C72  1  0.619200  0.396200  0.846200  1.0  -0.0549
  C  C73  1  0.156200  0.804800  0.304400  1.0  -0.0983
  C  C74  1  0.492800  0.298400  0.568200  1.0  0.7422
  C  C75  1  0.635900  0.542400  0.373200  1.0  -0.0306
  C  C76  1  0.186200  0.411200  0.844400  1.0  -0.054
  C  C77  1  0.443900  0.473600  0.653200  1.0  0.2166
  C  C78  1  0.353400  0.290800  0.140100  1.0  -0.108
  C  C79  1  0.800600  0.541400  0.193500  1.0  0.0225
  C  C80  1  0.977500  0.369400  0.682400  1.0  -0.0186
  C  C81  1  0.393900  0.275600  0.237800  1.0  -0.0452
  C  C82  1  0.646500  0.284600  0.788100  1.0  -0.0267
  C  C83  1  0.384800  0.779600  0.682800  1.0  -0.1158
  C  C84  1  0.424900  0.561400  0.925200  1.0  0.7662
  C  C85  1  0.251100  0.389200  0.923000  1.0  0.6861
  C  C86  1  0.296200  0.115600  0.100400  1.0  0.6614
  C  C87  1  0.351400  0.195200  0.195600  1.0  -0.0975
  C  C88  1  0.907900  0.676000  0.156900  1.0  0.7381
  C  C89  1  0.507200  0.701600  0.431800  1.0  0.7413
  C  C90  1  0.604800  0.130200  0.801300  1.0  0.7366
  C  C91  1  0.359300  0.328800  0.562200  1.0  -0.0552
  C  C92  1  0.935900  0.615400  0.917700  1.0  -0.1068
  C  C93  1  0.947300  0.362400  0.730700  1.0  0.2544
  C  C94  1  0.608100  0.630600  0.817600  1.0  -0.0194
  C  C95  1  0.936700  0.418600  0.133800  1.0  0.0279
  C  C96  1  0.518100  0.581400  0.366200  1.0  0.0278
  C  C97  1  0.059000  0.745800  0.988400  1.0  0.6992
  C  C98  1  0.279700  0.627600  0.697900  1.0  0.1616
  C  C99  1  0.184800  0.443200  0.383400  1.0  -0.0369
  C  C100  1  0.651900  0.169000  0.392100  1.0  0.7372
  C  C101  1  0.525400  0.130200  0.301300  1.0  0.738
  C  C102  1  0.179900  0.644800  0.576800  1.0  0.7171
  C  C103  1  0.906900  0.347400  0.088700  1.0  -0.0731
  C  C104  1  0.320500  0.384600  0.582300  1.0  -0.107
  C  C105  1  0.223000  0.603800  0.653800  1.0  -0.0543
  C  C106  1  0.770400  0.634600  0.441200  1.0  0.7476
  C  C107  1  0.343400  0.524800  0.884600  1.0  -0.0392
  C  C108  1  0.347900  0.627600  0.197900  1.0  0.1617
  C  C109  1  0.575100  0.438600  0.074800  1.0  0.7681
  C  C110  1  0.652100  0.372400  0.802100  1.0  0.1713
  C  C111  1  0.326000  0.756400  0.638100  1.0  -0.0379
  C  C112  1  0.820100  0.355200  0.423200  1.0  0.7175
  C  C113  1  0.430400  0.756400  0.138100  1.0  -0.0386
  C  C114  1  0.258400  0.443200  0.883400  1.0  -0.0369
  C  C115  1  0.937400  0.290800  0.640100  1.0  -0.1096
  C  C116  1  0.354100  0.573400  0.847000  1.0  -0.0307
  C  C117  1  0.556100  0.526400  0.346800  1.0  0.2178
  C  C118  1  0.648600  0.804800  0.804400  1.0  -0.0978
  C  C119  1  0.741600  0.556800  0.116600  1.0  -0.0368
  C  C120  1  0.665500  0.696200  0.911600  1.0  0.6976
  C  C121  1  0.022500  0.630600  0.317600  1.0  -0.0199
  C  C122  1  0.716900  0.460600  0.192300  1.0  0.2406
  C  C123  1  0.638100  0.284600  0.288100  1.0  -0.0296
  C  C124  1  0.969500  0.328800  0.062200  1.0  -0.0552
  C  C125  1  0.052700  0.637600  0.269300  1.0  0.2538
  C  C126  1  0.577400  0.331800  0.876500  1.0  -0.058
  C  C127  1  0.474600  0.869800  0.698700  1.0  0.7361
  C  C128  1  0.328800  0.101600  0.205400  1.0  0.7387
  C  C129  1  0.199400  0.458600  0.806500  1.0  0.0239
  C  C130  1  0.813800  0.588800  0.155600  1.0  -0.055
  C  C131  1  0.805600  0.298400  0.068200  1.0  0.7418
  C  C132  1  0.569600  0.243600  0.861900  1.0  -0.0381
  C  C133  1  0.656600  0.475200  0.115400  1.0  -0.0395
  C  C134  1  0.517100  0.169000  0.892100  1.0  0.7359
  C  C135  1  0.440500  0.347400  0.588700  1.0  -0.0722
  C  C136  1  0.231900  0.324000  0.343100  1.0  0.7392
  C  C137  1  0.093500  0.457600  0.126800  1.0  -0.0306
  C  C138  1  0.283100  0.539400  0.807700  1.0  0.2409
  C  C139  1  0.640700  0.671200  0.437800  1.0  -0.0554
  C  C140  1  0.606100  0.724400  0.762200  1.0  -0.0449
  C  C141  1  0.422600  0.668200  0.123500  1.0  -0.0527
  C  C142  1  0.245600  0.668200  0.623500  1.0  -0.0523
  C  C143  1  0.881700  0.275600  0.737800  1.0  -0.0389
  C  C144  1  0.395200  0.869800  0.198700  1.0  0.7376
  C  C145  1  0.030500  0.671200  0.937800  1.0  -0.0553
  C  C146  1  0.535100  0.355200  0.923200  1.0  0.7162
  C  C147  1  0.674000  0.243600  0.361900  1.0  -0.0388
  C  C148  1  0.843800  0.195200  0.695600  1.0  -0.0976
  C  C149  1  0.194400  0.701600  0.931800  1.0  0.742
  C  C150  1  0.093100  0.652600  0.911300  1.0  -0.0722
  C  C151  1  0.679500  0.615400  0.417700  1.0  -0.1064
  C  C152  1  0.775000  0.588800  0.655600  1.0  -0.0549
  C  C153  1  0.227200  0.898400  0.294600  1.0  0.7377
  C  C154  1  0.559500  0.652600  0.411300  1.0  -0.073
  C  C155  1  0.259200  0.458600  0.306500  1.0  0.0245
  C  C156  1  0.391900  0.369400  0.182400  1.0  -0.0188
  C  C157  1  0.334500  0.303800  0.088400  1.0  0.71
  C  C158  1  0.062600  0.709200  0.359900  1.0  -0.1074
  C  C159  1  0.743700  0.460600  0.692300  1.0  0.2408
  C  C160  1  0.969300  0.303800  0.588400  1.0  0.697
  C  C161  1  0.780700  0.426600  0.653000  1.0  -0.026
  C  C162  1  0.686800  0.745800  0.488400  1.0  0.6995
  C  C163  1  0.353500  0.715400  0.211900  1.0  -0.029
  C  C164  1  0.092100  0.324000  0.843100  1.0  0.7402
  C  C165  1  0.464900  0.644800  0.076800  1.0  0.7166
  C  C166  1  0.941000  0.254200  0.011600  1.0  0.6998
  C  C167  1  0.380800  0.603800  0.153800  1.0  -0.0538
  C  C168  1  0.482900  0.831000  0.107900  1.0  0.7357
  C  C169  1  0.720300  0.372400  0.302100  1.0  0.1711
  C  C170  1  0.906500  0.542400  0.873200  1.0  -0.0308
  C  C171  1  0.348100  0.831000  0.607900  1.0  0.7348
  C  C172  1  0.135800  0.365400  0.058800  1.0  0.7474
  C  C173  1  0.819400  0.115600  0.600400  1.0  0.6541
  C  C174  1  0.970300  0.526400  0.846800  1.0  0.21
  C  C175  1  0.664800  0.796800  0.853900  1.0  -0.0472
  C  C176  1  0.815200  0.556800  0.616600  1.0  -0.0368
  C  C177  1  0.740800  0.541400  0.693500  1.0  0.0193
  C  C178  1  0.645900  0.426600  0.153000  1.0  -0.0289
  C  C179  1  0.605200  0.220400  0.817200  1.0  -0.1152
  C  C180  1  0.063300  0.581400  0.866200  1.0  0.0308
  C  C181  1  0.030700  0.696200  0.411600  1.0  0.6985
  C  C182  1  0.818600  0.475200  0.615400  1.0  -0.0393
  C  C183  1  0.064100  0.384600  0.082300  1.0  -0.1058
  C  C184  1  0.777000  0.396200  0.346200  1.0  -0.0544
  C  C185  1  0.864200  0.634600  0.941200  1.0  0.7488
  C  C186  1  0.118300  0.724400  0.262200  1.0  -0.0443
  C  C187  1  0.335200  0.203200  0.146100  1.0  -0.0473
  C  C188  1  0.772800  0.101600  0.705400  1.0  0.7372
  C  C189  1  0.136500  0.561400  0.425200  1.0  0.7677
  C  C190  1  0.863500  0.438600  0.574800  1.0  0.7667
  C  C191  1  0.180600  0.884400  0.399600  1.0  0.6595
  C  C192  1  0.584900  0.637600  0.769300  1.0  0.2539
  C  C193  1  0.481900  0.418600  0.633800  1.0  0.0304
  C  C194  1  0.646600  0.709200  0.859900  1.0  -0.1085
  C  C195  1  0.671200  0.898400  0.794600  1.0  0.7366
  C  C196  1  0.313200  0.254200  0.511600  1.0  0.6996
  C  C197  1  0.132000  0.796800  0.353900  1.0  -0.0466
  C  C198  1  0.754400  0.331800  0.376500  1.0  -0.0526
  C  C199  1  0.256300  0.539400  0.307700  1.0  0.2409
  C  C200  1  0.219300  0.573400  0.347000  1.0  -0.0312
  N  N201  1  0.689700  0.438200  0.769700  1.0  -0.1963
  N  N202  1  0.485400  0.553600  0.697700  1.0  -0.1418
  N  N203  1  0.695700  0.403400  0.227800  1.0  -0.181
  N  N204  1  0.012300  0.552800  0.228500  1.0  -0.1402
  N  N205  1  0.068200  0.553600  0.197700  1.0  -0.1416
  N  N206  1  0.931800  0.446400  0.802300  1.0  -0.1428
  N  N207  1  0.707700  0.403400  0.727800  1.0  -0.1782
  N  N208  1  0.251500  0.561800  0.730300  1.0  -0.1976
  N  N209  1  0.514600  0.446400  0.302300  1.0  -0.1422
  N  N210  1  0.540500  0.552800  0.728500  1.0  -0.1377
  N  N211  1  0.987700  0.447200  0.771500  1.0  -0.1413
  N  N212  1  0.310300  0.561800  0.230300  1.0  -0.1969
  N  N213  1  0.748500  0.438200  0.269700  1.0  -0.1965
  N  N214  1  0.304300  0.596600  0.772200  1.0  -0.1784
  N  N215  1  0.459500  0.447200  0.271500  1.0  -0.1426
  N  N216  1  0.292300  0.596600  0.272200  1.0  -0.1809
  O  O217  1  0.235280  0.900160  0.247320  1.0  -0.569
  O  O218  1  0.207800  0.066000  0.093400  1.0  -0.5708
  O  O219  1  0.032760  0.718520  0.028590  1.0  -0.5618
  O  O220  1  0.933040  0.689280  0.591730  1.0  -0.4777
  O  O221  1  0.332530  0.377460  0.090050  1.0  -0.5354
  O  O222  1  0.215670  0.437140  0.066240  1.0  -0.5443
  O  O223  1  0.347480  0.096560  0.074330  1.0  -0.4395
  O  O224  1  0.044930  0.377460  0.590050  1.0  -0.5357
  O  O225  1  0.468330  0.647460  0.947800  1.0  -0.5703
  O  O226  1  0.687460  0.964320  0.830970  1.0  -0.4885
  O  O227  1  0.250920  0.903440  0.425670  1.0  -0.4389
  O  O228  1  0.572670  0.437340  0.950050  1.0  -0.5959
  O  O229  1  0.606600  0.090400  0.835470  1.0  -0.5105
  O  O230  1  0.293200  0.115200  0.411600  1.0  -0.6513
  O  O231  1  0.864670  0.437340  0.450050  1.0  -0.5966
  O  O232  1  0.276860  0.964320  0.330970  1.0  -0.489
  O  O233  1  0.919720  0.241240  0.548530  1.0  -0.5739
  O  O234  1  0.723140  0.035680  0.669030  1.0  -0.489
  O  O235  1  0.260360  0.434120  0.969760  1.0  -0.5486
  O  O236  1  0.858200  0.066000  0.593400  1.0  -0.5703
  O  O237  1  0.937140  0.689080  0.114240  1.0  -0.5686
  O  O238  1  0.664880  0.900160  0.747320  1.0  -0.5699
  O  O239  1  0.658010  0.099220  0.369770  1.0  -0.4426
  O  O240  1  0.706800  0.884800  0.588400  1.0  -0.6509
  O  O241  1  0.395270  0.901540  0.245440  1.0  -0.5269
  O  O242  1  0.248600  0.705600  0.899830  1.0  -0.4494
  O  O243  1  0.335120  0.099840  0.252680  1.0  -0.5699
  O  O244  1  0.820870  0.352540  0.552200  1.0  -0.5676
  O  O245  1  0.314240  0.281480  0.471410  1.0  -0.5624
  O  O246  1  0.393400  0.909600  0.164530  1.0  -0.5128
  O  O247  1  0.764720  0.099840  0.752680  1.0  -0.5697
  O  O248  1  0.604730  0.098460  0.754560  1.0  -0.5283
  O  O249  1  0.942910  0.499020  0.567160  1.0  -0.5676
  O  O250  1  0.885630  0.715860  0.965400  1.0  -0.5337
  O  O251  1  0.427330  0.562660  0.049950  1.0  -0.5964
  O  O252  1  0.062860  0.310920  0.885760  1.0  -0.5675
  O  O253  1  0.066960  0.310720  0.408270  1.0  -0.4752
  O  O254  1  0.051300  0.273200  0.799380  1.0  -0.4505
  O  O255  1  0.135330  0.562660  0.549950  1.0  -0.5961
  O  O256  1  0.178000  0.884800  0.088400  1.0  -0.6503
  O  O257  1  0.823780  0.285360  0.430650  1.0  -0.5847
  O  O258  1  0.778530  0.562860  0.433760  1.0  -0.5432
  O  O259  1  0.006070  0.621940  0.509540  1.0  -0.7481
  O  O260  1  0.531670  0.352540  0.052200  1.0  -0.5678
  O  O261  1  0.667470  0.622540  0.909950  1.0  -0.5359
  O  O262  1  0.629300  0.180600  0.437230  1.0  -0.6127
  O  O263  1  0.516200  0.909600  0.664530  1.0  -0.5125
  O  O264  1  0.248060  0.310920  0.385760  1.0  -0.5658
  O  O265  1  0.784330  0.562860  0.933760  1.0  -0.5424
  O  O266  1  0.551300  0.180600  0.937230  1.0  -0.6118
  O  O267  1  0.176220  0.714640  0.569350  1.0  -0.5834
  O  O268  1  0.955070  0.622540  0.409950  1.0  -0.5352
  O  O269  1  0.483800  0.090400  0.335470  1.0  -0.5126
  O  O270  1  0.448700  0.819400  0.062770  1.0  -0.6131
  O  O271  1  0.751940  0.689080  0.614240  1.0  -0.569
  O  O272  1  0.515710  0.730820  0.480740  1.0  -0.5908
  O  O273  1  0.370700  0.819400  0.562770  1.0  -0.6126
  O  O274  1  0.384130  0.378060  0.990460  1.0  -0.7503
  O  O275  1  0.615870  0.621940  0.009540  1.0  -0.7477
  O  O276  1  0.749080  0.096560  0.574330  1.0  -0.4409
  O  O277  1  0.169770  0.284140  0.534600  1.0  -0.5289
  O  O278  1  0.993930  0.378060  0.490460  1.0  -0.7499
  O  O279  1  0.484290  0.269180  0.519260  1.0  -0.5913
  O  O280  1  0.493730  0.098460  0.254560  1.0  -0.5248
  O  O281  1  0.057090  0.500980  0.432840  1.0  -0.5684
  O  O282  1  0.221470  0.437140  0.566240  1.0  -0.5421
  O  O283  1  0.751400  0.294400  0.100170  1.0  -0.4486
  O  O284  1  0.948700  0.726800  0.200620  1.0  -0.4534
  O  O285  1  0.221900  0.273200  0.299380  1.0  -0.4518
  O  O286  1  0.538420  0.714640  0.069350  1.0  -0.5833
  O  O287  1  0.778100  0.726800  0.700620  1.0  -0.4521
  O  O288  1  0.756240  0.689280  0.091730  1.0  -0.4772
  O  O289  1  0.724770  0.829340  0.484900  1.0  -0.5495
  O  O290  1  0.443890  0.500980  0.932840  1.0  -0.5685
  O  O291  1  0.080280  0.758760  0.451470  1.0  -0.5715
  O  O292  1  0.558790  0.900780  0.130230  1.0  -0.4433
  O  O293  1  0.173760  0.434120  0.469760  1.0  -0.5486
  O  O294  1  0.822000  0.115200  0.911600  1.0  -0.6519
  O  O295  1  0.556110  0.499020  0.067160  1.0  -0.5676
  O  O296  1  0.543000  0.294400  0.600170  1.0  -0.4482
  O  O297  1  0.179130  0.647460  0.447800  1.0  -0.5695
  O  O298  1  0.104570  0.829340  0.984900  1.0  -0.5492
  O  O299  1  0.441210  0.099220  0.869770  1.0  -0.4441
  O  O300  1  0.461580  0.285360  0.930650  1.0  -0.5849
  O  O301  1  0.830230  0.715860  0.465400  1.0  -0.5335
  O  O302  1  0.141800  0.934000  0.406600  1.0  -0.5711
  O  O303  1  0.321520  0.241240  0.048530  1.0  -0.5738
  O  O304  1  0.895430  0.170660  0.015100  1.0  -0.5515
  O  O305  1  0.243760  0.310720  0.908270  1.0  -0.4754
  O  O306  1  0.652520  0.903440  0.925670  1.0  -0.4373
  O  O307  1  0.685760  0.718520  0.528590  1.0  -0.5618
  O  O308  1  0.114370  0.284140  0.034600  1.0  -0.529
  O  O309  1  0.784890  0.269180  0.019260  1.0  -0.5921
  O  O310  1  0.275230  0.170660  0.515100  1.0  -0.5511
  O  O311  1  0.739640  0.565880  0.030240  1.0  -0.5496
  O  O312  1  0.457000  0.705600  0.399830  1.0  -0.4512
  O  O313  1  0.312540  0.035680  0.169030  1.0  -0.4894
  O  O314  1  0.215110  0.730820  0.980740  1.0  -0.5895
  O  O315  1  0.506270  0.901540  0.745440  1.0  -0.5306
  O  O316  1  0.967240  0.281480  0.971410  1.0  -0.5614
  O  O317  1  0.792200  0.934000  0.906600  1.0  -0.5703
  O  O318  1  0.826240  0.565880  0.530240  1.0  -0.5493
  O  O319  1  0.341990  0.900780  0.630230  1.0  -0.4423
  O  O320  1  0.678480  0.758760  0.951470  1.0  -0.5724
