# generated using pymatgen
data_Zr3H26(C21O8)2
_symmetry_space_group_name_H-M   'P 1'
_cell_length_a   26.52000000
_cell_length_b   26.52000000
_cell_length_c   26.52000000
_cell_angle_alpha   90.00000000
_cell_angle_beta   90.00000000
_cell_angle_gamma   90.00000000
_symmetry_Int_Tables_number   1
_chemical_formula_structural   Zr3H26(C21O8)2
_chemical_formula_sum   'Zr24 H208 C336 O128'
_cell_volume   18651.79180800
_cell_formula_units_Z   8
loop_
 _symmetry_equiv_pos_site_id
 _symmetry_equiv_pos_as_xyz
  1  'x, y, z'
loop_
 _atom_site_type_symbol
 _atom_site_label
 _atom_site_symmetry_multiplicity
 _atom_site_fract_x
 _atom_site_fract_y
 _atom_site_fract_z
 _atom_site_occupancy
 _atom_site_charge
  Zr  Zr1  1  0.999630  0.088780  0.000210  1.0  1.7936
  Zr  Zr2  1  0.911300  0.999670  0.000130  1.0  1.7934
  Zr  Zr3  1  0.088780  0.000420  0.999990  1.0  1.7935
  Zr  Zr4  1  0.000040  0.000260  0.911290  1.0  1.7947
  Zr  Zr5  1  0.000130  0.999780  0.088780  1.0  1.8022
  Zr  Zr6  1  0.000480  0.911260  0.999880  1.0  1.79
  Zr  Zr7  1  0.500610  0.588760  0.000310  1.0  1.7919
  Zr  Zr8  1  0.411280  0.500540  0.999870  1.0  1.7931
  Zr  Zr9  1  0.588770  0.499350  0.000250  1.0  1.7912
  Zr  Zr10  1  0.500210  0.500430  0.911260  1.0  1.7978
  Zr  Zr11  1  0.499880  0.499640  0.088720  1.0  1.8067
  Zr  Zr12  1  0.499380  0.411240  0.999520  1.0  1.7941
  Zr  Zr13  1  0.000300  0.588740  0.499730  1.0  1.7934
  Zr  Zr14  1  0.911210  0.500210  0.499930  1.0  1.794
  Zr  Zr15  1  0.088760  0.499740  0.500000  1.0  1.792
  Zr  Zr16  1  0.000000  0.499820  0.411230  1.0  1.8003
  Zr  Zr17  1  0.999930  0.500270  0.588720  1.0  1.8018
  Zr  Zr18  1  0.999680  0.411280  0.500140  1.0  1.7925
  Zr  Zr19  1  0.499620  0.088740  0.499700  1.0  1.7933
  Zr  Zr20  1  0.411230  0.999680  0.500050  1.0  1.7951
  Zr  Zr21  1  0.588760  0.000320  0.500020  1.0  1.7918
  Zr  Zr22  1  0.499940  0.999580  0.411290  1.0  1.7958
  Zr  Zr23  1  0.499960  0.000440  0.588790  1.0  1.8034
  Zr  Zr24  1  0.500370  0.911280  0.500460  1.0  1.7942
  H  H25  1  0.932620  0.066950  0.933130  1.0  0.3425
  H  H26  1  0.066870  0.067260  0.067230  1.0  0.3466
  H  H27  1  0.067390  0.933370  0.932770  1.0  0.3433
  H  H28  1  0.933290  0.932500  0.067020  1.0  0.3436
  H  H29  1  0.433440  0.567760  0.933080  1.0  0.3412
  H  H30  1  0.567430  0.566410  0.067450  1.0  0.3464
  H  H31  1  0.566820  0.432770  0.932730  1.0  0.3482
  H  H32  1  0.432420  0.433030  0.066690  1.0  0.345
  H  H33  1  0.933080  0.567140  0.432740  1.0  0.349
  H  H34  1  0.067260  0.567050  0.566930  1.0  0.34
  H  H35  1  0.066900  0.432590  0.433060  1.0  0.3467
  H  H36  1  0.932690  0.433280  0.567210  1.0  0.343
  H  H37  1  0.432640  0.066540  0.432690  1.0  0.3422
  H  H38  1  0.566870  0.067620  0.566810  1.0  0.3487
  H  H39  1  0.567320  0.932890  0.433210  1.0  0.341
  H  H40  1  0.433160  0.932950  0.567440  1.0  0.3481
  H  H41  1  0.104080  0.214450  0.970120  1.0  0.1225
  H  H42  1  0.214290  0.106280  0.021820  1.0  0.1138
  H  H43  1  0.394210  0.286590  0.970250  1.0  0.1126
  H  H44  1  0.284110  0.395950  0.019720  1.0  0.1229
  H  H45  1  0.278800  0.171610  0.021210  1.0  0.1279
  H  H46  1  0.329070  0.221850  0.968350  1.0  0.1265
  H  H47  1  0.169020  0.279470  0.967740  1.0  0.1278
  H  H48  1  0.219340  0.330830  0.019610  1.0  0.1246
  H  H49  1  0.105770  0.714470  0.521290  1.0  0.1161
  H  H50  1  0.214460  0.604390  0.470380  1.0  0.1133
  H  H51  1  0.395440  0.784520  0.521170  1.0  0.1212
  H  H52  1  0.286380  0.894590  0.471040  1.0  0.1183
  H  H53  1  0.279400  0.669420  0.468440  1.0  0.1276
  H  H54  1  0.330310  0.719750  0.520750  1.0  0.1212
  H  H55  1  0.171020  0.779060  0.521140  1.0  0.1281
  H  H56  1  0.221630  0.829460  0.468830  1.0  0.1246
  H  H57  1  0.785470  0.894140  0.020490  1.0  0.1249
  H  H58  1  0.896120  0.785250  0.971250  1.0  0.1212
  H  H59  1  0.715720  0.604340  0.021780  1.0  0.1203
  H  H60  1  0.605930  0.713080  0.970360  1.0  0.1138
  H  H61  1  0.831200  0.720210  0.969270  1.0  0.1289
  H  H62  1  0.780490  0.669500  0.021340  1.0  0.1287
  H  H63  1  0.721010  0.828810  0.020320  1.0  0.1261
  H  H64  1  0.671060  0.777820  0.968090  1.0  0.1253
  H  H65  1  0.785560  0.395680  0.470670  1.0  0.1156
  H  H66  1  0.894240  0.285330  0.521050  1.0  0.1176
  H  H67  1  0.713570  0.105450  0.469880  1.0  0.1148
  H  H68  1  0.604610  0.215350  0.520590  1.0  0.1209
  H  H69  1  0.829000  0.220730  0.520480  1.0  0.1285
  H  H70  1  0.778350  0.170590  0.467860  1.0  0.1254
  H  H71  1  0.720650  0.330650  0.468310  1.0  0.1268
  H  H72  1  0.669740  0.280100  0.520360  1.0  0.1254
  H  H73  1  0.785400  0.104000  0.029510  1.0  0.113
  H  H74  1  0.894000  0.214470  0.979250  1.0  0.1174
  H  H75  1  0.713100  0.394080  0.029860  1.0  0.1145
  H  H76  1  0.604290  0.284180  0.978790  1.0  0.1217
  H  H77  1  0.828640  0.278940  0.979530  1.0  0.1287
  H  H78  1  0.777850  0.328970  0.032090  1.0  0.1235
  H  H79  1  0.720330  0.168910  0.031550  1.0  0.1262
  H  H80  1  0.669460  0.219420  0.979260  1.0  0.1277
  H  H81  1  0.786320  0.605370  0.529360  1.0  0.124
  H  H82  1  0.895330  0.715330  0.478880  1.0  0.1208
  H  H83  1  0.714580  0.895690  0.529710  1.0  0.1127
  H  H84  1  0.605760  0.785570  0.479170  1.0  0.116
  H  H85  1  0.830270  0.780150  0.479400  1.0  0.1301
  H  H86  1  0.779480  0.830600  0.531710  1.0  0.1259
  H  H87  1  0.721620  0.670570  0.531670  1.0  0.127
  H  H88  1  0.670940  0.720940  0.479390  1.0  0.1289
  H  H89  1  0.213630  0.394520  0.529940  1.0  0.1142
  H  H90  1  0.104660  0.284790  0.478890  1.0  0.1201
  H  H91  1  0.285390  0.104250  0.528810  1.0  0.1187
  H  H92  1  0.394250  0.214590  0.478810  1.0  0.1176
  H  H93  1  0.169740  0.220000  0.479050  1.0  0.1255
  H  H94  1  0.220510  0.169310  0.531070  1.0  0.1252
  H  H95  1  0.278370  0.329330  0.531890  1.0  0.1267
  H  H96  1  0.329060  0.279220  0.479290  1.0  0.129
  H  H97  1  0.215310  0.895440  0.977920  1.0  0.1156
  H  H98  1  0.105950  0.786770  0.030390  1.0  0.1136
  H  H99  1  0.285600  0.605900  0.979930  1.0  0.1244
  H  H100  1  0.396260  0.715090  0.028490  1.0  0.1242
  H  H101  1  0.171220  0.722140  0.032600  1.0  0.1252
  H  H102  1  0.221030  0.671110  0.980180  1.0  0.1249
  H  H103  1  0.280200  0.830420  0.978350  1.0  0.13
  H  H104  1  0.331220  0.780030  0.030540  1.0  0.1267
  H  H105  1  0.020490  0.104780  0.215310  1.0  0.1222
  H  H106  1  0.970290  0.213820  0.105240  1.0  0.1182
  H  H107  1  0.021100  0.394400  0.285350  1.0  0.1165
  H  H108  1  0.970000  0.285770  0.395410  1.0  0.1214
  H  H109  1  0.968240  0.278610  0.170370  1.0  0.1299
  H  H110  1  0.020780  0.329170  0.220740  1.0  0.1273
  H  H111  1  0.020210  0.169920  0.280040  1.0  0.1277
  H  H112  1  0.967930  0.220860  0.330370  1.0  0.1267
  H  H113  1  0.469310  0.286720  0.894240  1.0  0.1127
  H  H114  1  0.520890  0.395470  0.784520  1.0  0.1221
  H  H115  1  0.470560  0.214680  0.604070  1.0  0.1193
  H  H116  1  0.520260  0.105870  0.714610  1.0  0.1192
  H  H117  1  0.520540  0.330350  0.719750  1.0  0.1272
  H  H118  1  0.468360  0.279650  0.669050  1.0  0.1284
  H  H119  1  0.467190  0.221980  0.829080  1.0  0.1258
  H  H120  1  0.519820  0.171140  0.779150  1.0  0.1278
  H  H121  1  0.020570  0.785070  0.894670  1.0  0.122
  H  H122  1  0.972160  0.895740  0.785430  1.0  0.1263
  H  H123  1  0.022380  0.715010  0.604980  1.0  0.1144
  H  H124  1  0.969800  0.605540  0.713490  1.0  0.1142
  H  H125  1  0.970040  0.830720  0.720520  1.0  0.1325
  H  H126  1  0.022200  0.779750  0.670140  1.0  0.1269
  H  H127  1  0.020240  0.720460  0.829450  1.0  0.1281
  H  H128  1  0.967840  0.670680  0.778280  1.0  0.1243
  H  H129  1  0.472490  0.603950  0.214860  1.0  0.1188
  H  H130  1  0.520470  0.714820  0.105610  1.0  0.121
  H  H131  1  0.469630  0.894110  0.286840  1.0  0.1137
  H  H132  1  0.522670  0.784830  0.395310  1.0  0.115
  H  H133  1  0.520190  0.779340  0.170890  1.0  0.1236
  H  H134  1  0.467690  0.828940  0.222100  1.0  0.1242
  H  H135  1  0.470430  0.668920  0.279840  1.0  0.1323
  H  H136  1  0.522510  0.720040  0.330180  1.0  0.1259
  H  H137  1  0.030050  0.785690  0.104550  1.0  0.1154
  H  H138  1  0.979360  0.894420  0.214710  1.0  0.1179
  H  H139  1  0.030110  0.713730  0.394720  1.0  0.12
  H  H140  1  0.979310  0.604860  0.284760  1.0  0.1169
  H  H141  1  0.979710  0.829200  0.279330  1.0  0.1252
  H  H142  1  0.032240  0.778520  0.329590  1.0  0.1297
  H  H143  1  0.032160  0.720790  0.169610  1.0  0.1279
  H  H144  1  0.979710  0.670000  0.220020  1.0  0.1239
  H  H145  1  0.479340  0.606020  0.785610  1.0  0.1166
  H  H146  1  0.530700  0.714450  0.895750  1.0  0.115
  H  H147  1  0.480120  0.895620  0.715710  1.0  0.122
  H  H148  1  0.529940  0.786510  0.605540  1.0  0.1179
  H  H149  1  0.532880  0.779420  0.830740  1.0  0.1268
  H  H150  1  0.480620  0.830500  0.780480  1.0  0.1221
  H  H151  1  0.479740  0.671290  0.721070  1.0  0.1268
  H  H152  1  0.532220  0.721770  0.670680  1.0  0.1251
  H  H153  1  0.478590  0.284390  0.104320  1.0  0.1177
  H  H154  1  0.528050  0.394480  0.213680  1.0  0.1192
  H  H155  1  0.477490  0.214200  0.394030  1.0  0.1153
  H  H156  1  0.529130  0.104310  0.285500  1.0  0.1205
  H  H157  1  0.529990  0.329320  0.278410  1.0  0.1269
  H  H158  1  0.477540  0.278780  0.328770  1.0  0.1321
  H  H159  1  0.478750  0.219600  0.169420  1.0  0.1264
  H  H160  1  0.530940  0.169330  0.220540  1.0  0.1258
  H  H161  1  0.028720  0.105280  0.786130  1.0  0.1154
  H  H162  1  0.978600  0.215300  0.895260  1.0  0.1182
  H  H163  1  0.029170  0.395460  0.714290  1.0  0.1266
  H  H164  1  0.978000  0.285500  0.605610  1.0  0.1158
  H  H165  1  0.978820  0.280060  0.830130  1.0  0.1293
  H  H166  1  0.031110  0.330400  0.779200  1.0  0.1281
  H  H167  1  0.030700  0.170420  0.721360  1.0  0.1263
  H  H168  1  0.978200  0.220860  0.670830  1.0  0.1315
  H  H169  1  0.214950  0.021790  0.105400  1.0  0.1156
  H  H170  1  0.105080  0.969710  0.213750  1.0  0.1202
  H  H171  1  0.284840  0.019580  0.395010  1.0  0.1223
  H  H172  1  0.395240  0.970410  0.285840  1.0  0.1142
  H  H173  1  0.170150  0.967310  0.278590  1.0  0.1235
  H  H174  1  0.220210  0.019440  0.329810  1.0  0.1275
  H  H175  1  0.279630  0.021150  0.170600  1.0  0.1246
  H  H176  1  0.330190  0.968490  0.220940  1.0  0.1265
  H  H177  1  0.394880  0.522330  0.784930  1.0  0.1143
  H  H178  1  0.286240  0.471210  0.894950  1.0  0.1191
  H  H179  1  0.105110  0.520960  0.715030  1.0  0.123
  H  H180  1  0.214150  0.471060  0.604830  1.0  0.1153
  H  H181  1  0.221390  0.468960  0.829910  1.0  0.126
  H  H182  1  0.170350  0.521000  0.779640  1.0  0.1243
  H  H183  1  0.329660  0.521860  0.720250  1.0  0.1238
  H  H184  1  0.279070  0.469320  0.669850  1.0  0.1265
  H  H185  1  0.895100  0.019970  0.784910  1.0  0.1209
  H  H186  1  0.785600  0.971610  0.895360  1.0  0.1198
  H  H187  1  0.605480  0.022940  0.714720  1.0  0.1176
  H  H188  1  0.713780  0.970270  0.605100  1.0  0.1154
  H  H189  1  0.720760  0.969810  0.830260  1.0  0.1268
  H  H190  1  0.670640  0.022370  0.779450  1.0  0.1234
  H  H191  1  0.829950  0.019950  0.720240  1.0  0.1279
  H  H192  1  0.778580  0.967920  0.670230  1.0  0.1249
  H  H193  1  0.714020  0.470110  0.104980  1.0  0.1141
  H  H194  1  0.604770  0.519000  0.215440  1.0  0.1226
  H  H195  1  0.786260  0.469390  0.395120  1.0  0.1149
  H  H196  1  0.894420  0.521680  0.285170  1.0  0.1141
  H  H197  1  0.669990  0.518850  0.280060  1.0  0.1287
  H  H198  1  0.721370  0.466830  0.330100  1.0  0.1259
  H  H199  1  0.778900  0.468180  0.170010  1.0  0.1262
  H  H200  1  0.829160  0.520890  0.220540  1.0  0.1238
  H  H201  1  0.214620  0.978480  0.894550  1.0  0.1165
  H  H202  1  0.105080  0.031270  0.786220  1.0  0.1185
  H  H203  1  0.284680  0.980320  0.604990  1.0  0.121
  H  H204  1  0.395300  0.028700  0.714310  1.0  0.1182
  H  H205  1  0.170200  0.033310  0.721370  1.0  0.1237
  H  H206  1  0.220000  0.980860  0.670140  1.0  0.1297
  H  H207  1  0.279310  0.978750  0.829370  1.0  0.1325
  H  H208  1  0.330220  0.031030  0.779120  1.0  0.1268
  H  H209  1  0.394980  0.480150  0.215060  1.0  0.1242
  H  H210  1  0.285460  0.528370  0.104570  1.0  0.1187
  H  H211  1  0.105450  0.477260  0.285370  1.0  0.1162
  H  H212  1  0.213790  0.530090  0.394870  1.0  0.115
  H  H213  1  0.220640  0.530260  0.169700  1.0  0.1255
  H  H214  1  0.170560  0.477770  0.220600  1.0  0.1232
  H  H215  1  0.329870  0.480250  0.279740  1.0  0.1278
  H  H216  1  0.278550  0.532380  0.329690  1.0  0.1258
  H  H217  1  0.894760  0.977910  0.214980  1.0  0.1154
  H  H218  1  0.786200  0.029360  0.105030  1.0  0.1114
  H  H219  1  0.605080  0.979190  0.284920  1.0  0.1225
  H  H220  1  0.714140  0.028920  0.395190  1.0  0.1155
  H  H221  1  0.721340  0.031570  0.170090  1.0  0.124
  H  H222  1  0.670280  0.979370  0.220280  1.0  0.1227
  H  H223  1  0.829540  0.978360  0.279650  1.0  0.1245
  H  H224  1  0.779010  0.030870  0.330140  1.0  0.1279
  H  H225  1  0.715270  0.478710  0.894930  1.0  0.1182
  H  H226  1  0.605160  0.529920  0.786400  1.0  0.1188
  H  H227  1  0.784860  0.479920  0.605170  1.0  0.1212
  H  H228  1  0.895270  0.529660  0.714060  1.0  0.1144
  H  H229  1  0.670160  0.532270  0.721530  1.0  0.1246
  H  H230  1  0.720300  0.480140  0.670450  1.0  0.1269
  H  H231  1  0.779890  0.479270  0.829670  1.0  0.1231
  H  H232  1  0.830300  0.531690  0.779020  1.0  0.1269
  C  C233  1  0.114540  0.115500  0.997480  1.0  0.6768
  C  C234  1  0.884570  0.114570  0.002890  1.0  0.6787
  C  C235  1  0.002210  0.115370  0.885340  1.0  0.6819
  C  C236  1  0.997020  0.114660  0.115350  1.0  0.6785
  C  C237  1  0.885510  0.884590  0.997330  1.0  0.6817
  C  C238  1  0.115630  0.885610  0.002550  1.0  0.6744
  C  C239  1  0.885080  0.997250  0.885030  1.0  0.6752
  C  C240  1  0.885190  0.002140  0.115180  1.0  0.6752
  C  C241  1  0.115190  0.997390  0.114880  1.0  0.6758
  C  C242  1  0.115030  0.003330  0.885050  1.0  0.6762
  C  C243  1  0.997860  0.885210  0.884870  1.0  0.6792
  C  C244  1  0.003130  0.884800  0.114850  1.0  0.675
  C  C245  1  0.615830  0.614160  0.997790  1.0  0.6723
  C  C246  1  0.385660  0.615620  0.002770  1.0  0.6806
  C  C247  1  0.503410  0.615430  0.885400  1.0  0.6758
  C  C248  1  0.497870  0.614640  0.115340  1.0  0.6822
  C  C249  1  0.384190  0.385800  0.996730  1.0  0.6783
  C  C250  1  0.614150  0.384130  0.002540  1.0  0.6796
  C  C251  1  0.385270  0.498230  0.884780  1.0  0.6754
  C  C252  1  0.384960  0.502820  0.114940  1.0  0.6808
  C  C253  1  0.614720  0.496300  0.115310  1.0  0.679
  C  C254  1  0.615350  0.502600  0.885370  1.0  0.6836
  C  C255  1  0.496850  0.385650  0.884360  1.0  0.6758
  C  C256  1  0.501910  0.384420  0.114370  1.0  0.6761
  C  C257  1  0.115330  0.614690  0.497230  1.0  0.6779
  C  C258  1  0.885420  0.615380  0.502430  1.0  0.6801
  C  C259  1  0.003110  0.614660  0.384650  1.0  0.6787
  C  C260  1  0.997530  0.615370  0.614610  1.0  0.6719
  C  C261  1  0.884690  0.385260  0.497450  1.0  0.6792
  C  C262  1  0.114560  0.384620  0.502830  1.0  0.6832
  C  C263  1  0.885040  0.497300  0.384930  1.0  0.677
  C  C264  1  0.884890  0.503110  0.614870  1.0  0.679
  C  C265  1  0.114890  0.497450  0.615080  1.0  0.6797
  C  C266  1  0.114970  0.502170  0.384960  1.0  0.6775
  C  C267  1  0.996990  0.384860  0.385150  1.0  0.6768
  C  C268  1  0.002290  0.385260  0.615170  1.0  0.6701
  C  C269  1  0.614510  0.115450  0.496940  1.0  0.6786
  C  C270  1  0.384630  0.114660  0.502360  1.0  0.6833
  C  C271  1  0.502150  0.114540  0.384620  1.0  0.6774
  C  C272  1  0.496930  0.115430  0.614630  1.0  0.6809
  C  C273  1  0.385530  0.884510  0.497730  1.0  0.6803
  C  C274  1  0.615400  0.885390  0.502990  1.0  0.6767
  C  C275  1  0.384900  0.996650  0.385130  1.0  0.6773
  C  C276  1  0.384870  0.002790  0.614930  1.0  0.6818
  C  C277  1  0.614940  0.998120  0.615070  1.0  0.6782
  C  C278  1  0.614890  0.002500  0.384930  1.0  0.6838
  C  C279  1  0.497610  0.884430  0.385640  1.0  0.6731
  C  C280  1  0.503210  0.885650  0.615640  1.0  0.6816
  C  C281  1  0.229280  0.230950  0.994350  1.0  0.0753
  C  C282  1  0.179330  0.242010  0.980240  1.0  -0.1317
  C  C283  1  0.142100  0.204640  0.981360  1.0  -0.0633
  C  C284  1  0.153970  0.155140  0.996120  1.0  -0.093
  C  C285  1  0.203940  0.143910  0.009810  1.0  -0.0699
  C  C286  1  0.241030  0.181380  0.009190  1.0  -0.1281
  C  C287  1  0.268840  0.270920  0.994020  1.0  0.0721
  C  C288  1  0.318810  0.259520  0.980260  1.0  -0.1397
  C  C289  1  0.356160  0.296750  0.981080  1.0  -0.0922
  C  C290  1  0.344430  0.346480  0.995200  1.0  -0.0856
  C  C291  1  0.294400  0.358110  0.008310  1.0  -0.0739
  C  C292  1  0.257150  0.320770  0.007970  1.0  -0.1211
  C  C293  1  0.230620  0.729620  0.494730  1.0  0.0664
  C  C294  1  0.180920  0.741310  0.509180  1.0  -0.1229
  C  C295  1  0.143510  0.704160  0.509540  1.0  -0.0633
  C  C296  1  0.154900  0.654200  0.495970  1.0  -0.0844
  C  C297  1  0.204520  0.642400  0.481520  1.0  -0.0807
  C  C298  1  0.241840  0.679680  0.480670  1.0  -0.1317
  C  C299  1  0.270570  0.769230  0.494750  1.0  0.0748
  C  C300  1  0.320320  0.757550  0.509040  1.0  -0.1282
  C  C301  1  0.357660  0.794800  0.509570  1.0  -0.0777
  C  C302  1  0.346120  0.844810  0.496320  1.0  -0.0881
  C  C303  1  0.296460  0.856550  0.481980  1.0  -0.0663
  C  C304  1  0.259230  0.819200  0.480960  1.0  -0.1271
  C  C305  1  0.770730  0.769080  0.994730  1.0  0.0707
  C  C306  1  0.758860  0.818860  0.008740  1.0  -0.1188
  C  C307  1  0.795950  0.856340  0.009120  1.0  -0.0717
  C  C308  1  0.846040  0.844940  0.996030  1.0  -0.0811
  C  C309  1  0.858010  0.795230  0.982030  1.0  -0.083
  C  C310  1  0.820790  0.757840  0.981150  1.0  -0.1357
  C  C311  1  0.731150  0.729080  0.994710  1.0  0.0673
  C  C312  1  0.742760  0.679410  0.009350  1.0  -0.1111
  C  C313  1  0.705510  0.642060  0.009880  1.0  -0.0749
  C  C314  1  0.655570  0.653510  0.996300  1.0  -0.0888
  C  C315  1  0.643910  0.703080  0.981570  1.0  -0.0684
  C  C316  1  0.681260  0.740310  0.980530  1.0  -0.1171
  C  C317  1  0.769420  0.270320  0.494300  1.0  0.0911
  C  C318  1  0.758200  0.320330  0.480520  1.0  -0.1266
  C  C319  1  0.795510  0.357610  0.481620  1.0  -0.0674
  C  C320  1  0.845120  0.345740  0.496040  1.0  -0.0823
  C  C321  1  0.856510  0.295710  0.509350  1.0  -0.0702
  C  C322  1  0.819100  0.258550  0.508740  1.0  -0.1306
  C  C323  1  0.729460  0.230720  0.494100  1.0  0.0697
  C  C324  1  0.740760  0.180800  0.480070  1.0  -0.123
  C  C325  1  0.703530  0.143450  0.480970  1.0  -0.0728
  C  C326  1  0.653890  0.155150  0.495440  1.0  -0.0964
  C  C327  1  0.642370  0.205120  0.508880  1.0  -0.0666
  C  C328  1  0.679720  0.242350  0.508470  1.0  -0.1231
  C  C329  1  0.769070  0.229290  0.005620  1.0  0.0699
  C  C330  1  0.757910  0.179280  0.019450  1.0  -0.1305
  C  C331  1  0.795300  0.142070  0.018530  1.0  -0.0781
  C  C332  1  0.844930  0.154010  0.004240  1.0  -0.0868
  C  C333  1  0.856260  0.204050  0.990880  1.0  -0.0639
  C  C334  1  0.818780  0.241120  0.991310  1.0  -0.1216
  C  C335  1  0.729070  0.268830  0.005680  1.0  0.0719
  C  C336  1  0.740310  0.318750  0.019750  1.0  -0.124
  C  C337  1  0.703080  0.356080  0.018730  1.0  -0.0721
  C  C338  1  0.653490  0.344390  0.004080  1.0  -0.0881
  C  C339  1  0.642020  0.294420  0.990610  1.0  -0.0701
  C  C340  1  0.679380  0.257180  0.991160  1.0  -0.0982
  C  C341  1  0.770540  0.730740  0.505580  1.0  0.0721
  C  C342  1  0.759200  0.680780  0.519440  1.0  -0.1302
  C  C343  1  0.796390  0.643400  0.518370  1.0  -0.0661
  C  C344  1  0.846020  0.655080  0.503900  1.0  -0.0966
  C  C345  1  0.857570  0.705080  0.490590  1.0  -0.0632
  C  C346  1  0.820260  0.742360  0.491170  1.0  -0.125
  C  C347  1  0.730620  0.770380  0.505610  1.0  0.0669
  C  C348  1  0.741890  0.820340  0.519550  1.0  -0.1343
  C  C349  1  0.704600  0.857660  0.518660  1.0  -0.0798
  C  C350  1  0.654960  0.845860  0.504300  1.0  -0.0854
  C  C351  1  0.643510  0.795880  0.490850  1.0  -0.0821
  C  C352  1  0.680900  0.758700  0.491250  1.0  -0.1302
  C  C353  1  0.229460  0.269290  0.505470  1.0  0.0729
  C  C354  1  0.240790  0.319170  0.519620  1.0  -0.1282
  C  C355  1  0.203580  0.356550  0.518760  1.0  -0.0813
  C  C356  1  0.153950  0.344910  0.504230  1.0  -0.0963
  C  C357  1  0.142410  0.294980  0.490660  1.0  -0.0653
  C  C358  1  0.179740  0.257720  0.491030  1.0  -0.1258
  C  C359  1  0.269380  0.229650  0.505280  1.0  0.0893
  C  C360  1  0.258100  0.179630  0.518960  1.0  -0.1268
  C  C361  1  0.295390  0.142320  0.517920  1.0  -0.0672
  C  C362  1  0.345050  0.154180  0.503650  1.0  -0.0824
  C  C363  1  0.356490  0.204220  0.490400  1.0  -0.0719
  C  C364  1  0.319100  0.241400  0.490960  1.0  -0.1327
  C  C365  1  0.231100  0.770880  0.005500  1.0  0.0693
  C  C366  1  0.242540  0.820490  0.990580  1.0  -0.1077
  C  C367  1  0.205230  0.857770  0.990060  1.0  -0.0782
  C  C368  1  0.155380  0.846290  0.003970  1.0  -0.0848
  C  C369  1  0.143860  0.796770  0.018950  1.0  -0.068
  C  C370  1  0.181280  0.759620  0.019960  1.0  -0.1239
  C  C371  1  0.270740  0.730970  0.005450  1.0  0.0772
  C  C372  1  0.258910  0.681150  0.991600  1.0  -0.1266
  C  C373  1  0.296070  0.643750  0.991160  1.0  -0.0705
  C  C374  1  0.346180  0.655260  0.004060  1.0  -0.0796
  C  C375  1  0.358130  0.705020  0.017880  1.0  -0.0547
  C  C376  1  0.320840  0.742340  0.018800  1.0  -0.1347
  C  C377  1  0.994200  0.229670  0.230570  1.0  0.0757
  C  C378  1  0.008450  0.179920  0.242250  1.0  -0.1259
  C  C379  1  0.008890  0.142560  0.205020  1.0  -0.0701
  C  C380  1  0.995580  0.154090  0.155020  1.0  -0.099
  C  C381  1  0.981260  0.203760  0.143270  1.0  -0.0648
  C  C382  1  0.980340  0.241000  0.180610  1.0  -0.1255
  C  C383  1  0.994270  0.269610  0.270180  1.0  0.075
  C  C384  1  0.008830  0.319280  0.258490  1.0  -0.1336
  C  C385  1  0.009280  0.356690  0.295650  1.0  -0.0817
  C  C386  1  0.995670  0.345310  0.345610  1.0  -0.0846
  C  C387  1  0.981160  0.295710  0.357400  1.0  -0.0676
  C  C388  1  0.980220  0.258410  0.320110  1.0  -0.131
  C  C389  1  0.493860  0.270760  0.769050  1.0  0.0756
  C  C390  1  0.479610  0.259510  0.818920  1.0  -0.1235
  C  C391  1  0.480560  0.296730  0.856270  1.0  -0.0726
  C  C392  1  0.495310  0.346290  0.844630  1.0  -0.0897
  C  C393  1  0.508960  0.357760  0.794710  1.0  -0.0707
  C  C394  1  0.508490  0.320420  0.757470  1.0  -0.1203
  C  C395  1  0.493990  0.230800  0.729470  1.0  0.0729
  C  C396  1  0.480380  0.242040  0.679420  1.0  -0.126
  C  C397  1  0.481380  0.204700  0.642170  1.0  -0.0651
  C  C398  1  0.495550  0.155040  0.654110  1.0  -0.0773
  C  C399  1  0.508720  0.143630  0.704170  1.0  -0.0699
  C  C400  1  0.508200  0.181060  0.741300  1.0  -0.1256
  C  C401  1  0.995080  0.770210  0.769570  1.0  0.0765
  C  C402  1  0.008890  0.758360  0.819410  1.0  -0.1248
  C  C403  1  0.009370  0.795530  0.856820  1.0  -0.0666
  C  C404  1  0.996550  0.845670  0.845290  1.0  -0.0758
  C  C405  1  0.982730  0.857600  0.795520  1.0  -0.0575
  C  C406  1  0.981780  0.820320  0.758200  1.0  -0.1348
  C  C407  1  0.994990  0.730600  0.729620  1.0  0.0691
  C  C408  1  0.009890  0.742100  0.680010  1.0  -0.1211
  C  C409  1  0.010260  0.704870  0.642650  1.0  -0.0674
  C  C410  1  0.996240  0.655040  0.654030  1.0  -0.0852
  C  C411  1  0.981310  0.643450  0.703550  1.0  -0.072
  C  C412  1  0.980450  0.680790  0.740800  1.0  -0.1263
  C  C413  1  0.495230  0.729510  0.230780  1.0  0.0884
  C  C414  1  0.482050  0.679370  0.242130  1.0  -0.1279
  C  C415  1  0.482970  0.642120  0.204780  1.0  -0.0711
  C  C416  1  0.496640  0.654130  0.154980  1.0  -0.0794
  C  C417  1  0.509370  0.704290  0.143480  1.0  -0.0656
  C  C418  1  0.508930  0.741420  0.180920  1.0  -0.1241
  C  C419  1  0.495090  0.769110  0.270730  1.0  0.0698
  C  C420  1  0.480400  0.818870  0.259560  1.0  -0.1275
  C  C421  1  0.481250  0.856240  0.296770  1.0  -0.0699
  C  C422  1  0.496310  0.844710  0.346270  1.0  -0.0873
  C  C423  1  0.510460  0.794910  0.357670  1.0  -0.0748
  C  C424  1  0.510100  0.757660  0.320320  1.0  -0.129
  C  C425  1  0.006000  0.769600  0.229840  1.0  0.0714
  C  C426  1  0.019940  0.758360  0.179880  1.0  -0.1345
  C  C427  1  0.018990  0.795660  0.142580  1.0  -0.0755
  C  C428  1  0.004540  0.845270  0.154390  1.0  -0.0846
  C  C429  1  0.991090  0.856690  0.204390  1.0  -0.0674
  C  C430  1  0.991570  0.819290  0.241550  1.0  -0.117
  C  C431  1  0.006020  0.729650  0.269430  1.0  0.0761
  C  C432  1  0.020000  0.740940  0.319370  1.0  -0.1325
  C  C433  1  0.019030  0.703710  0.356710  1.0  -0.0656
  C  C434  1  0.004550  0.654080  0.344980  1.0  -0.0881
  C  C435  1  0.991080  0.642600  0.295010  1.0  -0.0727
  C  C436  1  0.991570  0.679950  0.257780  1.0  -0.1207
  C  C437  1  0.506390  0.730760  0.770530  1.0  0.0701
  C  C438  1  0.491750  0.681130  0.758820  1.0  -0.1185
  C  C439  1  0.491240  0.643700  0.795940  1.0  -0.0652
  C  C440  1  0.504860  0.655020  0.845910  1.0  -0.0855
  C  C441  1  0.519520  0.704570  0.857730  1.0  -0.0779
  C  C442  1  0.520510  0.741900  0.820470  1.0  -0.1357
  C  C443  1  0.506450  0.770730  0.730950  1.0  0.0746
  C  C444  1  0.492250  0.820500  0.742650  1.0  -0.1281
  C  C445  1  0.491680  0.857830  0.705410  1.0  -0.08
  C  C446  1  0.504810  0.846270  0.655360  1.0  -0.0923
  C  C447  1  0.519100  0.796600  0.643600  1.0  -0.0679
  C  C448  1  0.520150  0.759380  0.680950  1.0  -0.1324
  C  C449  1  0.504380  0.269080  0.229320  1.0  0.0728
  C  C450  1  0.490360  0.257410  0.179490  1.0  -0.1231
  C  C451  1  0.489990  0.294680  0.142160  1.0  -0.0678
  C  C452  1  0.503150  0.344700  0.153780  1.0  -0.0871
  C  C453  1  0.517210  0.356430  0.203530  1.0  -0.0731
  C  C454  1  0.518060  0.319070  0.240740  1.0  -0.1249
  C  C455  1  0.504320  0.229440  0.269250  1.0  0.0721
  C  C456  1  0.489660  0.241070  0.318900  1.0  -0.1061
  C  C457  1  0.489370  0.203930  0.356330  1.0  -0.0659
  C  C458  1  0.503220  0.154030  0.345000  1.0  -0.0928
  C  C459  1  0.517790  0.142270  0.295410  1.0  -0.0682
  C  C460  1  0.518570  0.179550  0.258070  1.0  -0.1297
  C  C461  1  0.004780  0.230620  0.770340  1.0  0.0725
  C  C462  1  0.018620  0.180660  0.758980  1.0  -0.1336
  C  C463  1  0.017750  0.143310  0.796220  1.0  -0.0726
  C  C464  1  0.003490  0.155040  0.845910  1.0  -0.0818
  C  C465  1  0.990160  0.205030  0.857460  1.0  -0.0694
  C  C466  1  0.990560  0.242270  0.820120  1.0  -0.1252
  C  C467  1  0.004730  0.270250  0.730410  1.0  0.0749
  C  C468  1  0.018820  0.320170  0.741640  1.0  -0.1282
  C  C469  1  0.017970  0.357470  0.704340  1.0  -0.0604
  C  C470  1  0.003470  0.345710  0.654730  1.0  -0.0938
  C  C471  1  0.989810  0.295780  0.643330  1.0  -0.0646
  C  C472  1  0.990180  0.258600  0.680730  1.0  -0.1051
  C  C473  1  0.230260  0.994140  0.230000  1.0  0.0745
  C  C474  1  0.241900  0.009060  0.180420  1.0  -0.1298
  C  C475  1  0.204710  0.009700  0.143040  1.0  -0.0776
  C  C476  1  0.154780  0.995930  0.154360  1.0  -0.0888
  C  C477  1  0.143060  0.981030  0.203860  1.0  -0.0664
  C  C478  1  0.180370  0.979900  0.241130  1.0  -0.1239
  C  C479  1  0.269840  0.993950  0.269960  1.0  0.0773
  C  C480  1  0.258050  0.007870  0.319790  1.0  -0.1157
  C  C481  1  0.295220  0.008230  0.357180  1.0  -0.0652
  C  C482  1  0.345290  0.995190  0.345640  1.0  -0.09
  C  C483  1  0.357150  0.981170  0.295910  1.0  -0.0798
  C  C484  1  0.319860  0.980330  0.258610  1.0  -0.1361
  C  C485  1  0.270110  0.495340  0.769700  1.0  0.071
  C  C486  1  0.319770  0.509950  0.758020  1.0  -0.1313
  C  C487  1  0.357170  0.510490  0.795210  1.0  -0.0763
  C  C488  1  0.345780  0.496940  0.845180  1.0  -0.0871
  C  C489  1  0.296190  0.482360  0.856950  1.0  -0.0676
  C  C490  1  0.258910  0.481330  0.819650  1.0  -0.1231
  C  C491  1  0.230130  0.495160  0.730110  1.0  0.0696
  C  C492  1  0.180340  0.509240  0.741850  1.0  -0.1193
  C  C493  1  0.142920  0.509490  0.704690  1.0  -0.0655
  C  C494  1  0.154400  0.496170  0.654680  1.0  -0.0898
  C  C495  1  0.204110  0.482030  0.642870  1.0  -0.0798
  C  C496  1  0.241430  0.481290  0.680150  1.0  -0.1333
  C  C497  1  0.769950  0.994860  0.769860  1.0  0.0731
  C  C498  1  0.819840  0.008540  0.758100  1.0  -0.1245
  C  C499  1  0.857210  0.008830  0.795310  1.0  -0.0665
  C  C500  1  0.845580  0.995950  0.845410  1.0  -0.0811
  C  C501  1  0.795770  0.982220  0.857260  1.0  -0.079
  C  C502  1  0.758490  0.981460  0.819920  1.0  -0.1304
  C  C503  1  0.730020  0.995070  0.730230  1.0  0.0724
  C  C504  1  0.680460  0.010140  0.741770  1.0  -0.1273
  C  C505  1  0.643110  0.010740  0.704550  1.0  -0.0695
  C  C506  1  0.654430  0.996790  0.654670  1.0  -0.0909
  C  C507  1  0.703910  0.981740  0.643030  1.0  -0.073
  C  C508  1  0.741150  0.980640  0.680380  1.0  -0.1362
  C  C509  1  0.729860  0.493510  0.230400  1.0  0.0744
  C  C510  1  0.741220  0.479950  0.180360  1.0  -0.131
  C  C511  1  0.703920  0.480800  0.143080  1.0  -0.0659
  C  C512  1  0.654170  0.494750  0.154950  1.0  -0.0842
  C  C513  1  0.642610  0.507700  0.205040  1.0  -0.0701
  C  C514  1  0.680020  0.507340  0.242210  1.0  -0.1176
  C  C515  1  0.769860  0.493770  0.269950  1.0  0.0771
  C  C516  1  0.758800  0.479500  0.319850  1.0  -0.1393
  C  C517  1  0.796090  0.480720  0.357130  1.0  -0.0727
  C  C518  1  0.845540  0.495750  0.345370  1.0  -0.0929
  C  C519  1  0.856810  0.509510  0.295430  1.0  -0.0632
  C  C520  1  0.819400  0.508780  0.258270  1.0  -0.1204
  C  C521  1  0.230130  0.006090  0.769970  1.0  0.0688
  C  C522  1  0.241660  0.991100  0.819550  1.0  -0.1008
  C  C523  1  0.204470  0.990680  0.856920  1.0  -0.0679
  C  C524  1  0.154630  0.004730  0.845580  1.0  -0.0951
  C  C525  1  0.142990  0.019740  0.796100  1.0  -0.0725
  C  C526  1  0.180320  0.020650  0.758830  1.0  -0.1267
  C  C527  1  0.269730  0.006000  0.730030  1.0  0.0743
  C  C528  1  0.257900  0.992160  0.680200  1.0  -0.1307
  C  C529  1  0.295110  0.991560  0.642840  1.0  -0.0812
  C  C530  1  0.345260  0.004290  0.654420  1.0  -0.0796
  C  C531  1  0.357160  0.018180  0.704180  1.0  -0.0654
  C  C532  1  0.319840  0.019260  0.741440  1.0  -0.1252
  C  C533  1  0.269850  0.505290  0.230100  1.0  0.0713
  C  C534  1  0.319740  0.491620  0.241870  1.0  -0.1189
  C  C535  1  0.357090  0.491280  0.204650  1.0  -0.0677
  C  C536  1  0.345450  0.504110  0.154550  1.0  -0.0829
  C  C537  1  0.295640  0.517810  0.142690  1.0  -0.0643
  C  C538  1  0.258380  0.518630  0.180030  1.0  -0.128
  C  C539  1  0.229950  0.505150  0.269760  1.0  0.0742
  C  C540  1  0.180400  0.490050  0.258260  1.0  -0.1251
  C  C541  1  0.143070  0.489490  0.295510  1.0  -0.0627
  C  C542  1  0.154430  0.503500  0.345350  1.0  -0.0944
  C  C543  1  0.203900  0.518580  0.356950  1.0  -0.068
  C  C544  1  0.241110  0.519640  0.319580  1.0  -0.1261
  C  C545  1  0.770030  0.005030  0.230250  1.0  0.0729
  C  C546  1  0.819670  0.990350  0.241900  1.0  -0.1212
  C  C547  1  0.857070  0.989820  0.204710  1.0  -0.0689
  C  C548  1  0.845690  0.003470  0.154770  1.0  -0.0883
  C  C549  1  0.796130  0.018140  0.143020  1.0  -0.068
  C  C550  1  0.758850  0.019150  0.180330  1.0  -0.1244
  C  C551  1  0.730060  0.005140  0.269840  1.0  0.0707
  C  C552  1  0.680280  0.991040  0.258090  1.0  -0.1145
  C  C553  1  0.642880  0.990660  0.295280  1.0  -0.0646
  C  C554  1  0.654380  0.003860  0.345320  1.0  -0.0886
  C  C555  1  0.704080  0.018030  0.357130  1.0  -0.0815
  C  C556  1  0.741380  0.018890  0.319830  1.0  -0.134
  C  C557  1  0.730390  0.505830  0.770180  1.0  0.074
  C  C558  1  0.742120  0.491190  0.819820  1.0  -0.1276
  C  C559  1  0.704950  0.490590  0.857240  1.0  -0.0747
  C  C560  1  0.654960  0.504110  0.845890  1.0  -0.0886
  C  C561  1  0.643170  0.518790  0.796330  1.0  -0.0619
  C  C562  1  0.680450  0.519870  0.759030  1.0  -0.1224
  C  C563  1  0.769930  0.505940  0.730160  1.0  0.0686
  C  C564  1  0.758120  0.491820  0.680390  1.0  -0.1144
  C  C565  1  0.795250  0.491410  0.642950  1.0  -0.0639
  C  C566  1  0.845310  0.504590  0.654390  1.0  -0.0903
  C  C567  1  0.857190  0.518790  0.704060  1.0  -0.0825
  C  C568  1  0.819940  0.519690  0.741400  1.0  -0.1316
  O  O569  1  0.129510  0.068870  0.998590  1.0  -0.597
  O  O570  1  0.869970  0.067800  0.002290  1.0  -0.5797
  O  O571  1  0.000840  0.130030  0.932060  1.0  -0.5907
  O  O572  1  0.997360  0.129570  0.068670  1.0  -0.6007
  O  O573  1  0.998520  0.067940  0.130010  1.0  -0.5977
  O  O574  1  0.001920  0.068690  0.870450  1.0  -0.5857
  O  O575  1  0.931200  0.129530  0.001720  1.0  -0.5964
  O  O576  1  0.067770  0.130110  0.998100  1.0  -0.592
  O  O577  1  0.954160  0.045470  0.045940  1.0  -0.9215
  O  O578  1  0.045590  0.046100  0.954370  1.0  -0.9337
  O  O579  1  0.954250  0.045480  0.954600  1.0  -0.838
  O  O580  1  0.045420  0.045690  0.045670  1.0  -0.8382
  O  O581  1  0.870550  0.931220  0.998750  1.0  -0.5939
  O  O582  1  0.130190  0.932370  0.001370  1.0  -0.5854
  O  O583  1  0.931770  0.998790  0.870260  1.0  -0.6006
  O  O584  1  0.931890  0.000990  0.129910  1.0  -0.5954
  O  O585  1  0.068490  0.997630  0.129710  1.0  -0.5947
  O  O586  1  0.068330  0.002620  0.870240  1.0  -0.5901
  O  O587  1  0.999300  0.870350  0.931530  1.0  -0.5999
  O  O588  1  0.002670  0.870090  0.068120  1.0  -0.5892
  O  O589  1  0.998110  0.931970  0.870170  1.0  -0.5972
  O  O590  1  0.001780  0.931460  0.129700  1.0  -0.5816
  O  O591  1  0.870300  0.997490  0.931760  1.0  -0.5959
  O  O592  1  0.129810  0.002180  0.931730  1.0  -0.5841
  O  O593  1  0.129920  0.998920  0.068200  1.0  -0.5961
  O  O594  1  0.870360  0.001610  0.068490  1.0  -0.5896
  O  O595  1  0.932290  0.869980  0.997680  1.0  -0.6016
  O  O596  1  0.069000  0.870590  0.001990  1.0  -0.5934
  O  O597  1  0.046070  0.954360  0.045680  1.0  -0.9243
  O  O598  1  0.954530  0.954220  0.954260  1.0  -0.9328
  O  O599  1  0.045790  0.954760  0.954350  1.0  -0.8387
  O  O600  1  0.954720  0.954150  0.045530  1.0  -0.8396
  O  O601  1  0.630320  0.567370  0.999100  1.0  -0.5887
  O  O602  1  0.370650  0.569020  0.001320  1.0  -0.5924
  O  O603  1  0.502940  0.630070  0.932160  1.0  -0.5926
  O  O604  1  0.499470  0.629570  0.068710  1.0  -0.5973
  O  O605  1  0.497910  0.567870  0.129950  1.0  -0.5941
  O  O606  1  0.502000  0.568810  0.870480  1.0  -0.5961
  O  O607  1  0.432470  0.630170  0.002490  1.0  -0.6006
  O  O608  1  0.569220  0.629240  0.998280  1.0  -0.5905
  O  O609  1  0.454510  0.545860  0.045830  1.0  -0.9311
  O  O610  1  0.546190  0.545610  0.954570  1.0  -0.9243
  O  O611  1  0.454820  0.546040  0.954560  1.0  -0.8401
  O  O612  1  0.545800  0.545090  0.045820  1.0  -0.8398
  O  O613  1  0.369710  0.432570  0.998280  1.0  -0.5902
  O  O614  1  0.629230  0.430740  0.002310  1.0  -0.5906
  O  O615  1  0.431990  0.499390  0.870070  1.0  -0.5984
  O  O616  1  0.431620  0.501120  0.129740  1.0  -0.5974
  O  O617  1  0.568010  0.497840  0.129980  1.0  -0.5955
  O  O618  1  0.568670  0.502580  0.870500  1.0  -0.5953
  O  O619  1  0.497070  0.370630  0.930990  1.0  -0.5902
  O  O620  1  0.500450  0.369840  0.067620  1.0  -0.5959
  O  O621  1  0.498530  0.432390  0.869810  1.0  -0.601
  O  O622  1  0.501750  0.431080  0.129350  1.0  -0.5974
  O  O623  1  0.370420  0.498670  0.931470  1.0  -0.5939
  O  O624  1  0.630030  0.500790  0.932080  1.0  -0.5906
  O  O625  1  0.629600  0.496740  0.068640  1.0  -0.5841
  O  O626  1  0.370220  0.502770  0.068200  1.0  -0.589
  O  O627  1  0.430800  0.370730  0.997090  1.0  -0.5951
  O  O628  1  0.567370  0.369650  0.000920  1.0  -0.5986
  O  O629  1  0.545320  0.453700  0.045620  1.0  -0.8853
  O  O630  1  0.454040  0.454780  0.953920  1.0  -0.8834
  O  O631  1  0.545380  0.454330  0.954310  1.0  -0.8387
  O  O632  1  0.454100  0.454520  0.045280  1.0  -0.8412
  O  O633  1  0.130010  0.567940  0.497880  1.0  -0.5845
  O  O634  1  0.870470  0.568710  0.501990  1.0  -0.5953
  O  O635  1  0.002710  0.629560  0.431310  1.0  -0.5982
  O  O636  1  0.998880  0.630010  0.567880  1.0  -0.5954
  O  O637  1  0.997890  0.568700  0.629520  1.0  -0.5927
  O  O638  1  0.001690  0.567950  0.369980  1.0  -0.5947
  O  O639  1  0.932150  0.630010  0.501080  1.0  -0.5965
  O  O640  1  0.068680  0.629580  0.498310  1.0  -0.5886
  O  O641  1  0.954360  0.546000  0.545540  1.0  -0.9223
  O  O642  1  0.045920  0.545510  0.454110  1.0  -0.9251
  O  O643  1  0.954550  0.545600  0.454300  1.0  -0.8388
  O  O644  1  0.045690  0.545540  0.545440  1.0  -0.8381
  O  O645  1  0.870010  0.432000  0.497880  1.0  -0.5807
  O  O646  1  0.129520  0.431270  0.502200  1.0  -0.5914
  O  O647  1  0.931740  0.498350  0.370170  1.0  -0.5955
  O  O648  1  0.931590  0.502580  0.629680  1.0  -0.5929
  O  O649  1  0.068190  0.498910  0.629820  1.0  -0.5995
  O  O650  1  0.068270  0.501090  0.370200  1.0  -0.5948
  O  O651  1  0.997340  0.370150  0.431880  1.0  -0.595
  O  O652  1  0.001060  0.370400  0.568500  1.0  -0.6024
  O  O653  1  0.998380  0.431510  0.370300  1.0  -0.5933
  O  O654  1  0.001890  0.432000  0.629870  1.0  -0.5904
  O  O655  1  0.870220  0.498100  0.431620  1.0  -0.5846
  O  O656  1  0.129790  0.501580  0.431670  1.0  -0.5888
  O  O657  1  0.129710  0.497750  0.568370  1.0  -0.5931
  O  O658  1  0.870120  0.501740  0.568180  1.0  -0.5953
  O  O659  1  0.931340  0.370390  0.498780  1.0  -0.5971
  O  O660  1  0.067820  0.370000  0.501640  1.0  -0.5995
  O  O661  1  0.045540  0.454260  0.545820  1.0  -0.9268
  O  O662  1  0.954090  0.454280  0.454270  1.0  -0.9307
  O  O663  1  0.045430  0.454220  0.454530  1.0  -0.8389
  O  O664  1  0.954270  0.454690  0.545630  1.0  -0.8394
  O  O665  1  0.629490  0.068800  0.497690  1.0  -0.5919
  O  O666  1  0.369990  0.067900  0.502090  1.0  -0.5876
  O  O667  1  0.500940  0.129480  0.431250  1.0  -0.5968
  O  O668  1  0.497260  0.130030  0.567860  1.0  -0.5937
  O  O669  1  0.498390  0.068810  0.629570  1.0  -0.5983
  O  O670  1  0.501810  0.067770  0.369990  1.0  -0.5951
  O  O671  1  0.431260  0.129560  0.500970  1.0  -0.5969
  O  O672  1  0.567760  0.130050  0.498090  1.0  -0.5973
  O  O673  1  0.454020  0.045800  0.545620  1.0  -0.9301
  O  O674  1  0.545510  0.045700  0.454110  1.0  -0.9262
  O  O675  1  0.454240  0.045180  0.454300  1.0  -0.8397
  O  O676  1  0.545400  0.045930  0.545390  1.0  -0.8385
  O  O677  1  0.370560  0.931160  0.497980  1.0  -0.5938
  O  O678  1  0.630060  0.932140  0.502260  1.0  -0.5823
  O  O679  1  0.431600  0.997180  0.370320  1.0  -0.5942
  O  O680  1  0.431590  0.002670  0.629720  1.0  -0.594
  O  O681  1  0.568250  0.999270  0.629840  1.0  -0.5956
  O  O682  1  0.568190  0.000960  0.370190  1.0  -0.5989
  O  O683  1  0.498980  0.869860  0.432390  1.0  -0.5972
  O  O684  1  0.502870  0.870660  0.569000  1.0  -0.5969
  O  O685  1  0.497940  0.931060  0.370630  1.0  -0.5911
  O  O686  1  0.501630  0.932390  0.630210  1.0  -0.5961
  O  O687  1  0.370140  0.998030  0.431820  1.0  -0.5925
  O  O688  1  0.629710  0.002260  0.431640  1.0  -0.5952
  O  O689  1  0.629760  0.998620  0.568370  1.0  -0.588
  O  O690  1  0.370120  0.001090  0.568260  1.0  -0.5934
  O  O691  1  0.432270  0.869910  0.499210  1.0  -0.5975
  O  O692  1  0.568760  0.870480  0.501960  1.0  -0.5975
  O  O693  1  0.545920  0.954670  0.546010  1.0  -0.9247
  O  O694  1  0.454410  0.953860  0.454540  1.0  -0.9231
  O  O695  1  0.545720  0.954420  0.454660  1.0  -0.8383
  O  O696  1  0.454600  0.954470  0.545820  1.0  -0.8396
