# generated using pymatgen
data_Zr3H40(C21O4)4
_symmetry_space_group_name_H-M   'P 1'
_cell_length_a   23.14390000
_cell_length_b   23.14390000
_cell_length_c   23.14390000
_cell_angle_alpha   60.00000000
_cell_angle_beta   60.00000000
_cell_angle_gamma   60.00000000
_symmetry_Int_Tables_number   1
_chemical_formula_structural   Zr3H40(C21O4)4
_chemical_formula_sum   'Zr6 H80 C168 O32'
_cell_volume   8765.86210675
_cell_formula_units_Z   2
loop_
 _symmetry_equiv_pos_site_id
 _symmetry_equiv_pos_as_xyz
  1  'x, y, z'
loop_
 _atom_site_type_symbol
 _atom_site_label
 _atom_site_symmetry_multiplicity
 _atom_site_fract_x
 _atom_site_fract_y
 _atom_site_fract_z
 _atom_site_occupancy
 _atom_site_charge
  Zr  Zr1  1  0.575490  0.575490  0.424510  1.0  1.7417
  Zr  Zr2  1  0.424510  0.424510  0.575490  1.0  1.7484
  Zr  Zr3  1  0.424510  0.575490  0.575490  1.0  1.7466
  Zr  Zr4  1  0.575490  0.424510  0.424510  1.0  1.744
  Zr  Zr5  1  0.575490  0.424510  0.575490  1.0  1.7477
  Zr  Zr6  1  0.424510  0.575490  0.424510  1.0  1.7445
  H  H7  1  0.551730  0.551730  0.344800  1.0  0.3066
  H  H8  1  0.551730  0.551730  0.551730  1.0  0.3069
  H  H9  1  0.344800  0.551730  0.551730  1.0  0.3074
  H  H10  1  0.551730  0.344800  0.551730  1.0  0.308
  H  H11  1  0.448270  0.448270  0.448270  1.0  0.3081
  H  H12  1  0.448270  0.448270  0.655200  1.0  0.3074
  H  H13  1  0.655200  0.448270  0.448270  1.0  0.308
  H  H14  1  0.448270  0.655200  0.448270  1.0  0.3087
  H  H15  1  0.764000  0.588000  0.412000  1.0  0.0665
  H  H16  1  0.866300  0.587700  0.412300  1.0  0.0637
  H  H17  1  0.588000  0.764000  0.236000  1.0  0.0655
  H  H18  1  0.587700  0.866300  0.133700  1.0  0.0619
  H  H19  1  0.412000  0.236000  0.764000  1.0  0.0659
  H  H20  1  0.412300  0.133700  0.866300  1.0  0.0632
  H  H21  1  0.236000  0.412000  0.588000  1.0  0.0664
  H  H22  1  0.133700  0.412300  0.587700  1.0  0.062
  H  H23  1  0.412000  0.764000  0.588000  1.0  0.0659
  H  H24  1  0.412300  0.866300  0.587700  1.0  0.0622
  H  H25  1  0.236000  0.588000  0.764000  1.0  0.0665
  H  H26  1  0.133700  0.587700  0.866300  1.0  0.063
  H  H27  1  0.764000  0.412000  0.236000  1.0  0.0666
  H  H28  1  0.866300  0.412300  0.133700  1.0  0.0626
  H  H29  1  0.588000  0.236000  0.412000  1.0  0.0654
  H  H30  1  0.587700  0.133700  0.412300  1.0  0.0629
  H  H31  1  0.588000  0.412000  0.764000  1.0  0.0655
  H  H32  1  0.587700  0.412300  0.866300  1.0  0.0615
  H  H33  1  0.764000  0.236000  0.588000  1.0  0.0661
  H  H34  1  0.866300  0.133700  0.587700  1.0  0.0628
  H  H35  1  0.236000  0.764000  0.412000  1.0  0.0654
  H  H36  1  0.133700  0.866300  0.412300  1.0  0.0633
  H  H37  1  0.412000  0.588000  0.236000  1.0  0.0658
  H  H38  1  0.412300  0.587700  0.133700  1.0  0.0632
  H  H39  1  0.236000  0.412000  0.764000  1.0  0.0659
  H  H40  1  0.133700  0.412300  0.866300  1.0  0.062
  H  H41  1  0.412000  0.236000  0.588000  1.0  0.0659
  H  H42  1  0.412300  0.133700  0.587700  1.0  0.0631
  H  H43  1  0.588000  0.764000  0.412000  1.0  0.0659
  H  H44  1  0.587700  0.866300  0.412300  1.0  0.0623
  H  H45  1  0.764000  0.588000  0.236000  1.0  0.066
  H  H46  1  0.866300  0.587700  0.133700  1.0  0.0633
  H  H47  1  0.588000  0.236000  0.764000  1.0  0.0655
  H  H48  1  0.587700  0.133700  0.866300  1.0  0.0625
  H  H49  1  0.764000  0.412000  0.588000  1.0  0.0675
  H  H50  1  0.866300  0.412300  0.587700  1.0  0.0629
  H  H51  1  0.236000  0.588000  0.412000  1.0  0.0662
  H  H52  1  0.133700  0.587700  0.412300  1.0  0.0633
  H  H53  1  0.412000  0.764000  0.236000  1.0  0.0655
  H  H54  1  0.412300  0.866300  0.133700  1.0  0.0622
  H  H55  1  0.412000  0.588000  0.764000  1.0  0.0656
  H  H56  1  0.412300  0.587700  0.866300  1.0  0.0626
  H  H57  1  0.236000  0.764000  0.588000  1.0  0.0656
  H  H58  1  0.133700  0.866300  0.587700  1.0  0.0623
  H  H59  1  0.764000  0.236000  0.412000  1.0  0.0661
  H  H60  1  0.866300  0.133700  0.412300  1.0  0.0632
  H  H61  1  0.588000  0.412000  0.236000  1.0  0.0657
  H  H62  1  0.587700  0.412300  0.133700  1.0  0.0622
  H  H63  1  0.008300  0.374300  0.374300  1.0  0.1077
  H  H64  1  0.374300  0.008300  0.243100  1.0  0.1111
  H  H65  1  0.374300  0.243100  0.008300  1.0  0.1119
  H  H66  1  0.243100  0.374300  0.374300  1.0  0.1076
  H  H67  1  0.374300  0.008300  0.374300  1.0  0.1031
  H  H68  1  0.243100  0.374300  0.008300  1.0  0.1023
  H  H69  1  0.008300  0.374300  0.243100  1.0  0.1048
  H  H70  1  0.374300  0.243100  0.374300  1.0  0.1065
  H  H71  1  0.374300  0.374300  0.008300  1.0  0.1006
  H  H72  1  0.008300  0.243100  0.374300  1.0  0.1037
  H  H73  1  0.243100  0.008300  0.374300  1.0  0.0995
  H  H74  1  0.374300  0.374300  0.243100  1.0  0.1024
  H  H75  1  0.991700  0.625700  0.756900  1.0  0.1085
  H  H76  1  0.625700  0.991700  0.625700  1.0  0.1103
  H  H77  1  0.625700  0.756900  0.625700  1.0  0.1088
  H  H78  1  0.756900  0.625700  0.991700  1.0  0.1114
  H  H79  1  0.625700  0.991700  0.756900  1.0  0.1025
  H  H80  1  0.756900  0.625700  0.625700  1.0  0.1055
  H  H81  1  0.991700  0.625700  0.625700  1.0  0.1051
  H  H82  1  0.625700  0.756900  0.991700  1.0  0.1032
  H  H83  1  0.625700  0.625700  0.756900  1.0  0.1006
  H  H84  1  0.991700  0.756900  0.625700  1.0  0.1027
  H  H85  1  0.756900  0.991700  0.625700  1.0  0.1015
  H  H86  1  0.625700  0.625700  0.991700  1.0  0.1019
  C  C87  1  0.784800  0.552600  0.447400  1.0  -0.1446
  C  C88  1  0.845300  0.552300  0.447700  1.0  -0.1656
  C  C89  1  0.552600  0.784800  0.215200  1.0  -0.142
  C  C90  1  0.552300  0.845300  0.154700  1.0  -0.1626
  C  C91  1  0.447400  0.215200  0.784800  1.0  -0.1426
  C  C92  1  0.447700  0.154700  0.845300  1.0  -0.1641
  C  C93  1  0.215200  0.447400  0.552600  1.0  -0.1443
  C  C94  1  0.154700  0.447700  0.552300  1.0  -0.1656
  C  C95  1  0.447400  0.784800  0.552600  1.0  -0.14
  C  C96  1  0.447700  0.845300  0.552300  1.0  -0.1653
  C  C97  1  0.215200  0.552600  0.784800  1.0  -0.1406
  C  C98  1  0.154700  0.552300  0.845300  1.0  -0.1657
  C  C99  1  0.784800  0.447400  0.215200  1.0  -0.1429
  C  C100  1  0.845300  0.447700  0.154700  1.0  -0.1668
  C  C101  1  0.552600  0.215200  0.447400  1.0  -0.1404
  C  C102  1  0.552300  0.154700  0.447700  1.0  -0.1667
  C  C103  1  0.552600  0.447400  0.784800  1.0  -0.143
  C  C104  1  0.552300  0.447700  0.845300  1.0  -0.1658
  C  C105  1  0.784800  0.215200  0.552600  1.0  -0.1431
  C  C106  1  0.845300  0.154700  0.552300  1.0  -0.1658
  C  C107  1  0.215200  0.784800  0.447400  1.0  -0.14
  C  C108  1  0.154700  0.845300  0.447700  1.0  -0.1645
  C  C109  1  0.447400  0.552600  0.215200  1.0  -0.1418
  C  C110  1  0.447700  0.552300  0.154700  1.0  -0.1657
  C  C111  1  0.215200  0.447400  0.784800  1.0  -0.145
  C  C112  1  0.154700  0.447700  0.845300  1.0  -0.1672
  C  C113  1  0.447400  0.215200  0.552600  1.0  -0.1434
  C  C114  1  0.447700  0.154700  0.552300  1.0  -0.1644
  C  C115  1  0.552600  0.784800  0.447400  1.0  -0.1424
  C  C116  1  0.552300  0.845300  0.447700  1.0  -0.1637
  C  C117  1  0.784800  0.552600  0.215200  1.0  -0.1455
  C  C118  1  0.845300  0.552300  0.154700  1.0  -0.1657
  C  C119  1  0.552600  0.215200  0.784800  1.0  -0.1407
  C  C120  1  0.552300  0.154700  0.845300  1.0  -0.1647
  C  C121  1  0.784800  0.447400  0.552600  1.0  -0.1429
  C  C122  1  0.845300  0.447700  0.552300  1.0  -0.1651
  C  C123  1  0.215200  0.552600  0.447400  1.0  -0.1411
  C  C124  1  0.154700  0.552300  0.447700  1.0  -0.1675
  C  C125  1  0.447400  0.784800  0.215200  1.0  -0.1393
  C  C126  1  0.447700  0.845300  0.154700  1.0  -0.1672
  C  C127  1  0.447400  0.552600  0.784800  1.0  -0.1413
  C  C128  1  0.447700  0.552300  0.845300  1.0  -0.167
  C  C129  1  0.215200  0.784800  0.552600  1.0  -0.142
  C  C130  1  0.154700  0.845300  0.552300  1.0  -0.1661
  C  C131  1  0.784800  0.215200  0.447400  1.0  -0.1414
  C  C132  1  0.845300  0.154700  0.447700  1.0  -0.1656
  C  C133  1  0.552600  0.447400  0.215200  1.0  -0.1431
  C  C134  1  0.552300  0.447700  0.154700  1.0  -0.1657
  C  C135  1  0.692320  0.500000  0.500000  1.0  0.5754
  C  C136  1  0.756200  0.500000  0.500000  1.0  -0.1648
  C  C137  1  0.874000  0.500000  0.500000  1.0  -0.0205
  C  C138  1  0.942000  0.500000  0.500000  1.0  -0.1117
  C  C139  1  0.500000  0.692320  0.307680  1.0  0.572
  C  C140  1  0.500000  0.756200  0.243800  1.0  -0.163
  C  C141  1  0.500000  0.874000  0.126000  1.0  -0.0188
  C  C142  1  0.500000  0.942000  0.058000  1.0  -0.1113
  C  C143  1  0.500000  0.307680  0.692320  1.0  0.5727
  C  C144  1  0.500000  0.243800  0.756200  1.0  -0.1625
  C  C145  1  0.500000  0.126000  0.874000  1.0  -0.0202
  C  C146  1  0.500000  0.058000  0.942000  1.0  -0.1117
  C  C147  1  0.307680  0.500000  0.500000  1.0  0.5758
  C  C148  1  0.243800  0.500000  0.500000  1.0  -0.1639
  C  C149  1  0.126000  0.500000  0.500000  1.0  -0.0201
  C  C150  1  0.058000  0.500000  0.500000  1.0  -0.1119
  C  C151  1  0.500000  0.692320  0.500000  1.0  0.5722
  C  C152  1  0.500000  0.756200  0.500000  1.0  -0.163
  C  C153  1  0.500000  0.874000  0.500000  1.0  -0.0194
  C  C154  1  0.500000  0.942000  0.500000  1.0  -0.1115
  C  C155  1  0.307680  0.500000  0.692320  1.0  0.5762
  C  C156  1  0.243800  0.500000  0.756200  1.0  -0.164
  C  C157  1  0.126000  0.500000  0.874000  1.0  -0.0209
  C  C158  1  0.058000  0.500000  0.942000  1.0  -0.112
  C  C159  1  0.692320  0.500000  0.307680  1.0  0.5754
  C  C160  1  0.756200  0.500000  0.243800  1.0  -0.1649
  C  C161  1  0.874000  0.500000  0.126000  1.0  -0.0199
  C  C162  1  0.942000  0.500000  0.058000  1.0  -0.1116
  C  C163  1  0.500000  0.307680  0.500000  1.0  0.5722
  C  C164  1  0.500000  0.243800  0.500000  1.0  -0.1621
  C  C165  1  0.500000  0.126000  0.500000  1.0  -0.0194
  C  C166  1  0.500000  0.058000  0.500000  1.0  -0.1115
  C  C167  1  0.500000  0.500000  0.692320  1.0  0.5734
  C  C168  1  0.500000  0.500000  0.756200  1.0  -0.166
  C  C169  1  0.500000  0.500000  0.874000  1.0  -0.0193
  C  C170  1  0.500000  0.500000  0.942000  1.0  -0.112
  C  C171  1  0.692320  0.307680  0.500000  1.0  0.5753
  C  C172  1  0.756200  0.243800  0.500000  1.0  -0.1635
  C  C173  1  0.874000  0.126000  0.500000  1.0  -0.0202
  C  C174  1  0.942000  0.058000  0.500000  1.0  -0.1116
  C  C175  1  0.307680  0.692320  0.500000  1.0  0.575
  C  C176  1  0.243800  0.756200  0.500000  1.0  -0.1631
  C  C177  1  0.126000  0.874000  0.500000  1.0  -0.0191
  C  C178  1  0.058000  0.942000  0.500000  1.0  -0.1121
  C  C179  1  0.500000  0.500000  0.307680  1.0  0.5739
  C  C180  1  0.500000  0.500000  0.243800  1.0  -0.1647
  C  C181  1  0.500000  0.500000  0.126000  1.0  -0.0202
  C  C182  1  0.500000  0.500000  0.058000  1.0  -0.1117
  C  C183  1  0.007660  0.462000  0.462000  1.0  -0.0173
  C  C184  1  0.010300  0.426100  0.426100  1.0  0.1848
  C  C185  1  0.009100  0.397700  0.397700  1.0  0.1831
  C  C186  1  0.462000  0.007660  0.068340  1.0  -0.0182
  C  C187  1  0.426100  0.010300  0.137500  1.0  0.1809
  C  C188  1  0.397700  0.009100  0.195500  1.0  0.1836
  C  C189  1  0.462000  0.068340  0.007660  1.0  -0.0168
  C  C190  1  0.426100  0.137500  0.010300  1.0  0.1863
  C  C191  1  0.397700  0.195500  0.009100  1.0  0.1838
  C  C192  1  0.068340  0.462000  0.462000  1.0  -0.0166
  C  C193  1  0.137500  0.426100  0.426100  1.0  0.1851
  C  C194  1  0.195500  0.397700  0.397700  1.0  0.1828
  C  C195  1  0.462000  0.007660  0.462000  1.0  -0.0175
  C  C196  1  0.426100  0.010300  0.426100  1.0  0.1828
  C  C197  1  0.397700  0.009100  0.397700  1.0  0.1847
  C  C198  1  0.068340  0.462000  0.007660  1.0  -0.0213
  C  C199  1  0.137500  0.426100  0.010300  1.0  0.1861
  C  C200  1  0.195500  0.397700  0.009100  1.0  0.1827
  C  C201  1  0.007660  0.462000  0.068340  1.0  -0.0167
  C  C202  1  0.010300  0.426100  0.137500  1.0  0.1841
  C  C203  1  0.009100  0.397700  0.195500  1.0  0.1822
  C  C204  1  0.462000  0.068340  0.462000  1.0  -0.0162
  C  C205  1  0.426100  0.137500  0.426100  1.0  0.1876
  C  C206  1  0.397700  0.195500  0.397700  1.0  0.1842
  C  C207  1  0.462000  0.462000  0.007660  1.0  -0.0206
  C  C208  1  0.426100  0.426100  0.010300  1.0  0.1807
  C  C209  1  0.397700  0.397700  0.009100  1.0  0.1834
  C  C210  1  0.007660  0.068340  0.462000  1.0  -0.0203
  C  C211  1  0.010300  0.137500  0.426100  1.0  0.185
  C  C212  1  0.009100  0.195500  0.397700  1.0  0.1831
  C  C213  1  0.068340  0.007660  0.462000  1.0  -0.0157
  C  C214  1  0.137500  0.010300  0.426100  1.0  0.1851
  C  C215  1  0.195500  0.009100  0.397700  1.0  0.1838
  C  C216  1  0.462000  0.462000  0.068340  1.0  -0.0153
  C  C217  1  0.426100  0.426100  0.137500  1.0  0.1801
  C  C218  1  0.397700  0.397700  0.195500  1.0  0.1831
  C  C219  1  0.992340  0.538000  0.931660  1.0  -0.0207
  C  C220  1  0.989700  0.573900  0.862500  1.0  0.1865
  C  C221  1  0.990900  0.602300  0.804500  1.0  0.1845
  C  C222  1  0.538000  0.992340  0.538000  1.0  -0.0221
  C  C223  1  0.573900  0.989700  0.573900  1.0  0.1837
  C  C224  1  0.602300  0.990900  0.602300  1.0  0.1821
  C  C225  1  0.538000  0.931660  0.538000  1.0  -0.0233
  C  C226  1  0.573900  0.862500  0.573900  1.0  0.1869
  C  C227  1  0.602300  0.804500  0.602300  1.0  0.1834
  C  C228  1  0.931660  0.538000  0.992340  1.0  -0.0213
  C  C229  1  0.862500  0.573900  0.989700  1.0  0.1814
  C  C230  1  0.804500  0.602300  0.990900  1.0  0.1845
  C  C231  1  0.538000  0.992340  0.931660  1.0  -0.0168
  C  C232  1  0.573900  0.989700  0.862500  1.0  0.1839
  C  C233  1  0.602300  0.990900  0.804500  1.0  0.1827
  C  C234  1  0.931660  0.538000  0.538000  1.0  -0.024
  C  C235  1  0.862500  0.573900  0.573900  1.0  0.1802
  C  C236  1  0.804500  0.602300  0.602300  1.0  0.1841
  C  C237  1  0.992340  0.538000  0.538000  1.0  -0.0215
  C  C238  1  0.989700  0.573900  0.573900  1.0  0.185
  C  C239  1  0.990900  0.602300  0.602300  1.0  0.1832
  C  C240  1  0.538000  0.931660  0.992340  1.0  -0.0232
  C  C241  1  0.573900  0.862500  0.989700  1.0  0.1869
  C  C242  1  0.602300  0.804500  0.990900  1.0  0.1831
  C  C243  1  0.538000  0.538000  0.931660  1.0  -0.0228
  C  C244  1  0.573900  0.573900  0.862500  1.0  0.1842
  C  C245  1  0.602300  0.602300  0.804500  1.0  0.1838
  C  C246  1  0.992340  0.931660  0.538000  1.0  -0.0206
  C  C247  1  0.989700  0.862500  0.573900  1.0  0.1847
  C  C248  1  0.990900  0.804500  0.602300  1.0  0.1835
  C  C249  1  0.931660  0.992340  0.538000  1.0  -0.0203
  C  C250  1  0.862500  0.989700  0.573900  1.0  0.18
  C  C251  1  0.804500  0.990900  0.602300  1.0  0.1829
  C  C252  1  0.538000  0.538000  0.992340  1.0  -0.016
  C  C253  1  0.573900  0.573900  0.989700  1.0  0.184
  C  C254  1  0.602300  0.602300  0.990900  1.0  0.1831
  O  O255  1  0.536620  0.536620  0.390140  1.0  -0.8967
  O  O256  1  0.536620  0.536620  0.536620  1.0  -0.8968
  O  O257  1  0.390140  0.536620  0.536620  1.0  -0.8958
  O  O258  1  0.536620  0.390140  0.536620  1.0  -0.8943
  O  O259  1  0.463380  0.463380  0.463380  1.0  -0.8975
  O  O260  1  0.463380  0.463380  0.609860  1.0  -0.8986
  O  O261  1  0.609860  0.463380  0.463380  1.0  -0.8922
  O  O262  1  0.463380  0.609860  0.463380  1.0  -0.8947
  O  O263  1  0.667790  0.550890  0.449110  1.0  -0.6546
  O  O264  1  0.550890  0.667790  0.332210  1.0  -0.6521
  O  O265  1  0.449110  0.332210  0.667790  1.0  -0.6555
  O  O266  1  0.332210  0.449110  0.550890  1.0  -0.6537
  O  O267  1  0.449110  0.667790  0.550890  1.0  -0.6523
  O  O268  1  0.332210  0.550890  0.667790  1.0  -0.6556
  O  O269  1  0.667790  0.449110  0.332210  1.0  -0.6556
  O  O270  1  0.550890  0.332210  0.449110  1.0  -0.6528
  O  O271  1  0.550890  0.449110  0.667790  1.0  -0.6517
  O  O272  1  0.667790  0.332210  0.550890  1.0  -0.652
  O  O273  1  0.332210  0.667790  0.449110  1.0  -0.655
  O  O274  1  0.449110  0.550890  0.332210  1.0  -0.6523
  O  O275  1  0.332210  0.449110  0.667790  1.0  -0.6563
  O  O276  1  0.449110  0.332210  0.550890  1.0  -0.6538
  O  O277  1  0.550890  0.667790  0.449110  1.0  -0.6533
  O  O278  1  0.667790  0.550890  0.332210  1.0  -0.6537
  O  O279  1  0.550890  0.332210  0.667790  1.0  -0.6513
  O  O280  1  0.667790  0.449110  0.550890  1.0  -0.6549
  O  O281  1  0.332210  0.550890  0.449110  1.0  -0.6558
  O  O282  1  0.449110  0.667790  0.332210  1.0  -0.6527
  O  O283  1  0.449110  0.550890  0.667790  1.0  -0.6526
  O  O284  1  0.332210  0.667790  0.550890  1.0  -0.6535
  O  O285  1  0.667790  0.332210  0.449110  1.0  -0.6549
  O  O286  1  0.550890  0.449110  0.332210  1.0  -0.6521
