# generated using pymatgen
data_Cu3H15C36NO12
_symmetry_space_group_name_H-M   'P 1'
_cell_length_a   14.46930000
_cell_length_b   28.88880000
_cell_length_c   33.36290000
_cell_angle_alpha   90.00000000
_cell_angle_beta   102.52400000
_cell_angle_gamma   90.00000000
_symmetry_Int_Tables_number   1
_chemical_formula_structural   Cu3H15C36NO12
_chemical_formula_sum   'Cu24 H120 C288 N8 O96'
_cell_volume   13613.88132152
_cell_formula_units_Z   8
loop_
 _symmetry_equiv_pos_site_id
 _symmetry_equiv_pos_as_xyz
  1  'x, y, z'
loop_
 _atom_site_type_symbol
 _atom_site_label
 _atom_site_symmetry_multiplicity
 _atom_site_fract_x
 _atom_site_fract_y
 _atom_site_fract_z
 _atom_site_occupancy
 _atom_site_charge
  Cu  Cu1  1  0.395290  0.867020  0.790580  1.0  0.891
  Cu  Cu2  1  0.130000  0.829930  0.260000  1.0  0.9148
  Cu  Cu3  1  0.870000  0.329930  0.740000  1.0  0.9145
  Cu  Cu4  1  0.073340  0.213160  0.146680  1.0  0.8556
  Cu  Cu5  1  0.604710  0.367020  0.209420  1.0  0.892
  Cu  Cu6  1  0.926660  0.713160  0.853320  1.0  0.8547
  Cu  Cu7  1  0.842140  0.118670  0.684280  1.0  0.8607
  Cu  Cu8  1  0.434330  0.490240  0.868660  1.0  0.9221
  Cu  Cu9  1  0.724430  0.789300  0.448860  1.0  0.9194
  Cu  Cu10  1  0.275570  0.289300  0.551140  1.0  0.9201
  Cu  Cu11  1  0.176970  0.537580  0.353940  1.0  0.8901
  Cu  Cu12  1  0.121110  0.921100  0.242220  1.0  0.8472
  Cu  Cu13  1  0.526870  0.961720  0.053740  1.0  0.9131
  Cu  Cu14  1  0.092890  0.132700  0.185780  1.0  0.8797
  Cu  Cu15  1  0.157860  0.618670  0.315720  1.0  0.8623
  Cu  Cu16  1  0.314520  0.260120  0.629040  1.0  0.9087
  Cu  Cu17  1  0.473130  0.461720  0.946260  1.0  0.9122
  Cu  Cu18  1  0.685480  0.760120  0.370960  1.0  0.9086
  Cu  Cu19  1  0.644030  0.385200  0.288060  1.0  0.8954
  Cu  Cu20  1  0.823030  0.037580  0.646060  1.0  0.8896
  Cu  Cu21  1  0.907110  0.632700  0.814220  1.0  0.8791
  Cu  Cu22  1  0.355970  0.885200  0.711940  1.0  0.8947
  Cu  Cu23  1  0.565670  0.990240  0.131340  1.0  0.9193
  Cu  Cu24  1  0.878890  0.421100  0.757780  1.0  0.8477
  H  H25  1  0.028900  0.470500  0.531200  1.0  0.0439
  H  H26  1  0.007500  0.675000  0.708600  1.0  0.108
  H  H27  1  0.670400  0.123800  0.836800  1.0  0.1122
  H  H28  1  0.550200  0.751300  0.609000  1.0  0.1258
  H  H29  1  0.894400  0.484800  0.291000  1.0  0.1013
  H  H30  1  0.918700  0.833900  0.338800  1.0  0.1
  H  H31  1  0.989300  0.465100  0.653000  1.0  0.1083
  H  H32  1  0.333800  0.913900  0.166600  1.0  0.1201
  H  H33  1  0.489200  0.766400  0.672600  1.0  0.125
  H  H34  1  0.992500  0.175000  0.291400  1.0  0.1084
  H  H35  1  0.407900  0.126200  0.335800  1.0  0.1105
  H  H36  1  0.908800  0.087900  0.534600  1.0  0.1041
  H  H37  1  0.334600  0.061300  0.004800  1.0  0.1186
  H  H38  1  0.276800  0.500900  0.106600  1.0  0.1032
  H  H39  1  0.298900  0.175000  0.291400  1.0  0.1058
  H  H40  1  0.132900  0.418000  0.572600  1.0  0.1143
  H  H41  1  0.380600  0.832700  0.074800  1.0  0.1089
  H  H42  1  0.850600  0.652900  0.969400  1.0  0.1044
  H  H43  1  0.579900  0.333900  0.661200  1.0  0.1019
  H  H44  1  0.739100  0.076400  0.788800  1.0  0.1279
  H  H45  1  0.694200  0.832700  0.074800  1.0  0.106
  H  H46  1  0.316900  0.715100  0.136800  1.0  0.078
  H  H47  1  0.351700  0.279300  0.219200  1.0  0.086
  H  H48  1  0.950300  0.576400  0.211200  1.0  0.1261
  H  H49  1  0.867500  0.279300  0.219200  1.0  0.087
  H  H50  1  0.832800  0.913900  0.166600  1.0  0.1208
  H  H51  1  0.439700  0.418000  0.572600  1.0  0.111
  H  H52  1  0.670200  0.061300  0.004800  1.0  0.1204
  H  H53  1  0.329800  0.561300  0.995200  1.0  0.1191
  H  H54  1  0.105600  0.984800  0.709000  1.0  0.1018
  H  H55  1  0.118800  0.652900  0.969400  1.0  0.1026
  H  H56  1  0.407900  0.170400  0.506400  1.0  0.0482
  H  H57  1  0.925200  0.032200  0.360800  1.0  0.1539
  H  H58  1  0.497700  0.970500  0.468800  1.0  0.0429
  H  H59  1  0.510800  0.266400  0.327400  1.0  0.1248
  H  H60  1  0.396600  0.484800  0.291000  1.0  0.1011
  H  H61  1  0.420100  0.833900  0.338800  1.0  0.1017
  H  H62  1  0.329600  0.623800  0.163200  1.0  0.1133
  H  H63  1  0.416600  0.480800  0.168600  1.0  0.1071
  H  H64  1  0.744600  0.717400  0.989000  1.0  0.1204
  H  H65  1  0.775500  0.530100  0.042600  1.0  0.1048
  H  H66  1  0.318300  0.083800  0.121600  1.0  0.0886
  H  H67  1  0.933500  0.669900  0.378400  1.0  0.1227
  H  H68  1  0.663700  0.465100  0.653000  1.0  0.1084
  H  H69  1  0.485900  0.532900  0.494800  1.0  0.1153
  H  H70  1  0.560300  0.918000  0.427400  1.0  0.1116
  H  H71  1  0.920700  0.786700  0.151400  1.0  0.0901
  H  H72  1  0.625800  0.087900  0.534600  1.0  0.1024
  H  H73  1  0.008900  0.532900  0.494800  1.0  0.1166
  H  H74  1  0.833600  0.623800  0.163200  1.0  0.1127
  H  H75  1  0.901500  0.670400  0.493600  1.0  0.0515
  H  H76  1  0.971100  0.970500  0.468800  1.0  0.0444
  H  H77  1  0.230700  0.786700  0.151400  1.0  0.0906
  H  H78  1  0.497600  0.719100  0.549400  1.0  0.1377
  H  H79  1  0.648300  0.779300  0.780800  1.0  0.0861
  H  H80  1  0.260900  0.576400  0.211200  1.0  0.1286
  H  H81  1  0.867100  0.918000  0.427400  1.0  0.1146
  H  H82  1  0.927900  0.126200  0.335800  1.0  0.1119
  H  H83  1  0.881200  0.152900  0.030600  1.0  0.1034
  H  H84  1  0.681700  0.583800  0.878400  1.0  0.0889
  H  H85  1  0.051800  0.719100  0.549400  1.0  0.1346
  H  H86  1  0.180100  0.215100  0.863200  1.0  0.0799
  H  H87  1  0.267100  0.530100  0.042600  1.0  0.1069
  H  H88  1  0.091200  0.587900  0.465400  1.0  0.1043
  H  H89  1  0.948200  0.219100  0.450600  1.0  0.135
  H  H90  1  0.010700  0.965100  0.347000  1.0  0.1086
  H  H91  1  0.736400  0.284900  0.972200  1.0  0.1208
  H  H92  1  0.074800  0.532200  0.639200  1.0  0.1546
  H  H93  1  0.132500  0.779300  0.780800  1.0  0.0865
  H  H94  1  0.755600  0.217400  0.011000  1.0  0.119
  H  H95  1  0.752000  0.480800  0.168600  1.0  0.1077
  H  H96  1  0.583400  0.980800  0.831400  1.0  0.1069
  H  H97  1  0.619400  0.332700  0.925200  1.0  0.1087
  H  H98  1  0.374200  0.587900  0.465400  1.0  0.1028
  H  H99  1  0.255400  0.217400  0.011000  1.0  0.1199
  H  H100  1  0.732900  0.030100  0.957400  1.0  0.1048
  H  H101  1  0.049700  0.076400  0.788800  1.0  0.1269
  H  H102  1  0.149400  0.152900  0.030600  1.0  0.104
  H  H103  1  0.683100  0.215100  0.863200  1.0  0.0776
  H  H104  1  0.081300  0.333900  0.661200  1.0  0.1005
  H  H105  1  0.244400  0.717400  0.989000  1.0  0.1196
  H  H106  1  0.183400  0.766400  0.672600  1.0  0.1243
  H  H107  1  0.603400  0.984800  0.709000  1.0  0.1032
  H  H108  1  0.444900  0.669900  0.378400  1.0  0.1217
  H  H109  1  0.991100  0.032900  0.505200  1.0  0.1169
  H  H110  1  0.819900  0.715100  0.136800  1.0  0.0804
  H  H111  1  0.564400  0.532200  0.639200  1.0  0.1523
  H  H112  1  0.666200  0.413900  0.833400  1.0  0.1203
  H  H113  1  0.829800  0.500900  0.106600  1.0  0.102
  H  H114  1  0.723200  0.000900  0.893400  1.0  0.1023
  H  H115  1  0.263600  0.784900  0.027800  1.0  0.1225
  H  H116  1  0.816600  0.266400  0.327400  1.0  0.1246
  H  H117  1  0.449800  0.251300  0.391000  1.0  0.1268
  H  H118  1  0.098500  0.170400  0.506400  1.0  0.0517
  H  H119  1  0.435600  0.032200  0.360800  1.0  0.1521
  H  H120  1  0.803300  0.083800  0.121600  1.0  0.0899
  H  H121  1  0.224500  0.030100  0.957400  1.0  0.1062
  H  H122  1  0.058800  0.751300  0.609000  1.0  0.1236
  H  H123  1  0.764200  0.784900  0.027800  1.0  0.1204
  H  H124  1  0.555100  0.169900  0.621600  1.0  0.1219
  H  H125  1  0.079300  0.286700  0.848600  1.0  0.0896
  H  H126  1  0.665400  0.561300  0.995200  1.0  0.1206
  H  H127  1  0.196700  0.583800  0.878400  1.0  0.09
  H  H128  1  0.502400  0.219100  0.450600  1.0  0.1367
  H  H129  1  0.769300  0.286700  0.848600  1.0  0.0908
  H  H130  1  0.166400  0.123800  0.836800  1.0  0.1122
  H  H131  1  0.592100  0.670400  0.493600  1.0  0.0482
  H  H132  1  0.941200  0.251300  0.391000  1.0  0.1244
  H  H133  1  0.701100  0.675000  0.708600  1.0  0.1069
  H  H134  1  0.502300  0.470500  0.531200  1.0  0.0424
  H  H135  1  0.592100  0.626200  0.664200  1.0  0.1116
  H  H136  1  0.170200  0.000900  0.893400  1.0  0.1018
  H  H137  1  0.167200  0.413900  0.833400  1.0  0.1205
  H  H138  1  0.248000  0.980800  0.831400  1.0  0.1074
  H  H139  1  0.066500  0.169900  0.621600  1.0  0.1235
  H  H140  1  0.072100  0.626200  0.664200  1.0  0.1117
  H  H141  1  0.305800  0.332700  0.925200  1.0  0.1065
  H  H142  1  0.336300  0.965100  0.347000  1.0  0.1084
  H  H143  1  0.235800  0.284900  0.972200  1.0  0.1207
  H  H144  1  0.514100  0.032900  0.505200  1.0  0.1163
  C  C145  1  0.937470  0.219300  0.393140  1.0  -0.1509
  C  C146  1  0.912870  0.679700  0.437940  1.0  -0.0618
  C  C147  1  0.822000  0.605200  0.139800  1.0  -0.0109
  C  C148  1  0.707500  0.257100  0.910000  1.0  -0.1117
  C  C149  1  0.904100  0.210600  0.320200  1.0  0.0285
  C  C150  1  0.832650  0.710700  0.424900  1.0  0.685
  C  C151  1  0.807600  0.804700  0.109400  1.0  0.0784
  C  C152  1  0.121700  0.310800  0.857200  1.0  -0.0731
  C  C153  1  0.510500  0.914000  0.404800  1.0  -0.0871
  C  C154  1  0.367300  0.879700  0.118400  1.0  -0.1968
  C  C155  1  0.087130  0.179700  0.562060  1.0  -0.0621
  C  C156  1  0.768290  0.699300  0.785580  1.0  0.7256
  C  C157  1  0.288780  0.578700  0.975560  1.0  -0.147
  C  C158  1  0.442300  0.274300  0.268200  1.0  0.033
  C  C159  1  0.065900  0.641500  0.883600  1.0  0.6879
  C  C160  1  0.193580  0.216000  0.891760  1.0  -0.0198
  C  C161  1  0.915400  0.550700  0.215800  1.0  -0.0905
  C  C162  1  0.952900  0.660600  0.405800  1.0  -0.0884
  C  C163  1  0.200900  0.133600  0.039800  1.0  -0.0727
  C  C164  1  0.326600  0.886200  0.152200  1.0  -0.0266
  C  C165  1  0.464980  0.163900  0.524560  1.0  -0.1165
  C  C166  1  0.730310  0.388800  0.694620  1.0  0.683
  C  C167  1  0.235600  0.617000  0.986000  1.0  0.1089
  C  C168  1  0.265720  0.546800  0.287240  1.0  0.6863
  C  C169  1  0.723390  0.096800  0.936180  1.0  0.035
  C  C170  1  0.632700  0.379700  0.881600  1.0  -0.1972
  C  C171  1  0.680500  0.059600  0.857400  1.0  -0.0714
  C  C172  1  0.981320  0.896800  0.338440  1.0  -0.0743
  C  C173  1  0.947000  0.076200  0.412800  1.0  0.1165
  C  C174  1  0.646470  0.337600  0.902740  1.0  -0.0668
  C  C175  1  0.069100  0.642400  0.639800  1.0  -0.0725
  C  C176  1  0.250160  0.812200  0.737920  1.0  0.6783
  C  C177  1  0.178000  0.105200  0.860200  1.0  -0.0132
  C  C178  1  0.313220  0.078700  0.024440  1.0  -0.1467
  C  C179  1  0.925300  0.862600  0.351600  1.0  0.0275
  C  C180  1  0.292500  0.757100  0.090000  1.0  -0.1118
  C  C181  1  0.734280  0.046800  0.712760  1.0  0.6856
  C  C182  1  0.174400  0.386200  0.847800  1.0  -0.0304
  C  C183  1  0.016910  0.440300  0.642220  1.0  -0.0866
  C  C184  1  0.181410  0.332600  0.604620  1.0  0.6935
  C  C185  1  0.979200  0.033900  0.476600  1.0  -0.1091
  C  C186  1  0.939100  0.033900  0.389200  1.0  -0.1493
  C  C187  1  0.374690  0.940300  0.357780  1.0  -0.0861
  C  C188  1  0.724300  0.048900  0.934200  1.0  -0.0916
  C  C189  1  0.549900  0.533900  0.610800  1.0  -0.1572
  C  C190  1  0.825900  0.274300  0.268200  1.0  0.0415
  C  C191  1  0.514500  0.498200  0.545600  1.0  -0.0802
  C  C192  1  0.619530  0.997000  0.735460  1.0  0.0557
  C  C193  1  0.751100  0.879700  0.118400  1.0  -0.2046
  C  C194  1  0.940420  0.663900  0.475440  1.0  -0.1132
  C  C195  1  0.218600  0.174700  0.959600  1.0  0.1847
  C  C196  1  0.248900  0.379700  0.881600  1.0  -0.2048
  C  C197  1  0.642880  0.396800  0.661560  1.0  -0.0644
  C  C198  1  0.703140  0.125000  0.900880  1.0  -0.0904
  C  C199  1  0.237700  0.216700  0.982600  1.0  -0.1085
  C  C200  1  0.655400  0.029800  0.072600  1.0  0.4653
  C  C201  1  0.884070  0.497000  0.264540  1.0  0.0303
  C  C202  1  0.978000  0.859100  0.198800  1.0  0.6618
  C  C203  1  0.249600  0.117000  0.014000  1.0  0.1092
  C  C204  1  0.628320  0.761500  0.757240  1.0  -0.0042
  C  C205  1  0.227440  0.256500  0.958680  1.0  -0.0763
  C  C206  1  0.051950  0.698800  0.713700  1.0  -0.0443
  C  C207  1  0.203400  0.591100  0.906000  1.0  -0.0333
  C  C208  1  0.582800  0.529800  0.927400  1.0  0.4706
  C  C209  1  0.505900  0.933400  0.764000  1.0  0.6576
  C  C210  1  0.947000  0.200000  0.428200  1.0  -0.0744
  C  C211  1  0.357120  0.896800  0.338440  1.0  -0.0643
  C  C212  1  0.192400  0.304700  0.890600  1.0  0.0796
  C  C213  1  0.603300  0.994800  0.809600  1.0  -0.059
  C  C214  1  0.395560  0.627200  0.418320  1.0  -0.0935
  C  C215  1  0.764400  0.117000  0.014000  1.0  0.1083
  C  C216  1  0.592250  0.710700  0.424900  1.0  0.6871
  C  C217  1  0.743730  0.837600  0.097260  1.0  -0.0697
  C  C218  1  0.673400  0.386200  0.847800  1.0  -0.0277
  C  C219  1  0.882390  0.870300  0.381980  1.0  -0.08
  C  C220  1  0.084600  0.050700  0.784200  1.0  -0.089
  C  C221  1  0.934100  0.141500  0.116400  1.0  0.6873
  C  C222  1  0.452900  0.117000  0.397400  1.0  -0.0948
  C  C223  1  0.790100  0.548900  0.065800  1.0  -0.0886
  C  C224  1  0.563100  0.692100  0.641600  1.0  0.0594
  C  C225  1  0.956600  0.993600  0.417400  1.0  0.0591
  C  C226  1  0.818590  0.832600  0.395380  1.0  0.6947
  C  C227  1  0.053000  0.700000  0.571800  1.0  -0.0748
  C  C228  1  0.145050  0.621000  0.916100  1.0  -0.047
  C  C229  1  0.259000  0.674700  0.040400  1.0  0.1849
  C  C230  1  0.815500  0.532300  0.103800  1.0  -0.0987
  C  C231  1  0.344600  0.529800  0.927400  1.0  0.4673
  C  C232  1  0.479500  0.147200  0.436200  1.0  0.1148
  C  C233  1  0.933060  0.217800  0.247920  1.0  -0.133
  C  C234  1  0.228950  0.121000  0.083900  1.0  -0.0571
  C  C235  1  0.426300  0.862600  0.351600  1.0  0.029
  C  C236  1  0.264500  0.810800  0.142800  1.0  -0.0742
  C  C237  1  0.485500  0.998200  0.454400  1.0  -0.0824
  C  C238  1  0.406920  0.613300  0.458440  1.0  -0.0745
  C  C239  1  0.105700  0.414000  0.595200  1.0  -0.0795
  C  C240  1  0.314860  0.217800  0.247920  1.0  -0.1371
  C  C241  1  0.741900  0.433400  0.236000  1.0  0.6603
  C  C242  1  0.017290  0.699300  0.785580  1.0  0.7299
  C  C243  1  0.043400  0.493600  0.582600  1.0  0.0562
  C  C244  1  0.450100  0.033900  0.389200  1.0  -0.1597
  C  C245  1  0.423210  0.332600  0.604620  1.0  0.6951
  C  C246  1  0.525070  0.679700  0.437940  1.0  -0.0626
  C  C247  1  0.156160  0.031100  0.815520  1.0  -0.035
  C  C248  1  0.804700  0.478300  0.229600  1.0  -0.164
  C  C249  1  0.055500  0.617000  0.602600  1.0  -0.0948
  C  C250  1  0.762300  0.716700  0.017400  1.0  -0.1096
  C  C251  1  0.184500  0.032300  0.896200  1.0  -0.0992
  C  C252  1  0.276610  0.596800  0.063820  1.0  0.0349
  C  C253  1  0.535020  0.663900  0.475440  1.0  -0.1158
  C  C254  1  0.699600  0.050700  0.784200  1.0  -0.0899
  C  C255  1  0.512240  0.312200  0.262080  1.0  0.6701
  C  C256  1  0.806420  0.716000  0.108240  1.0  -0.0217
  C  C257  1  0.269690  0.888800  0.305380  1.0  0.6832
  C  C258  1  0.115930  0.997000  0.735460  1.0  0.0319
  C  C259  1  0.029610  0.577700  0.547220  1.0  0.1393
  C  C260  1  0.948480  0.113300  0.541560  1.0  -0.0664
  C  C261  1  0.274900  0.849800  0.163600  1.0  -0.0779
  C  C262  1  0.051520  0.613300  0.458440  1.0  -0.068
  C  C263  1  0.371680  0.261500  0.242760  1.0  -0.0074
  C  C264  1  0.256270  0.337600  0.902740  1.0  -0.0689
  C  C265  1  0.520500  0.647200  0.563800  1.0  0.1122
  C  C266  1  0.288300  0.532300  0.103800  1.0  -0.0945
  C  C267  1  0.921500  0.192100  0.358400  1.0  0.059
  C  C268  1  0.823100  0.559600  0.142600  1.0  -0.0718
  C  C269  1  0.854950  0.121000  0.083900  1.0  -0.0462
  C  C270  1  0.340640  0.531100  0.184480  1.0  -0.0353
  C  C271  1  0.434720  0.913100  0.107240  1.0  0.6563
  C  C272  1  0.749840  0.312200  0.262080  1.0  0.6794
  C  C273  1  0.075220  0.606400  0.383840  1.0  0.7063
  C  C274  1  0.797500  0.757100  0.090000  1.0  -0.1161
  C  C275  1  0.174100  0.774300  0.731800  1.0  0.0431
  C  C276  1  0.711220  0.078700  0.024440  1.0  -0.148
  C  C277  1  0.772560  0.756500  0.041320  1.0  -0.0779
  C  C278  1  0.203210  0.175200  0.912620  1.0  -0.1121
  C  C279  1  0.796600  0.091100  0.094000  1.0  -0.0318
  C  C280  1  0.455670  0.219300  0.393140  1.0  -0.1541
  C  C281  1  0.021520  0.546800  0.287240  1.0  0.6902
  C  C282  1  0.206300  0.994800  0.809600  1.0  -0.0556
  C  C283  1  0.825600  0.886200  0.152200  1.0  -0.0293
  C  C284  1  0.779200  0.359100  0.801200  1.0  0.6622
  C  C285  1  0.167350  0.210700  0.575100  1.0  0.685
  C  C286  1  0.741000  0.174700  0.959600  1.0  0.1847
  C  C287  1  0.472200  0.639600  0.490200  1.0  0.1149
  C  C288  1  0.481200  0.200000  0.428200  1.0  -0.0739
  C  C289  1  0.817700  0.641500  0.883600  1.0  0.6916
  C  C290  1  0.308620  0.606400  0.383840  1.0  0.7083
  C  C291  1  0.482390  0.077700  0.452780  1.0  0.116
  C  C292  1  0.301800  0.804700  0.109400  1.0  0.0783
  C  C293  1  0.534200  0.576200  0.587200  1.0  0.1525
  C  C294  1  0.176900  0.059600  0.857400  1.0  -0.0707
  C  C295  1  0.711700  0.032300  0.896200  1.0  -0.0936
  C  C296  1  0.930900  0.142400  0.360200  1.0  -0.0744
  C  C297  1  0.497400  0.033900  0.476600  1.0  -0.1159
  C  C298  1  0.956700  0.147200  0.436200  1.0  0.1103
  C  C299  1  0.296860  0.625000  0.099120  1.0  -0.0903
  C  C300  1  0.750400  0.617000  0.986000  1.0  0.1088
  C  C301  1  0.871080  0.261500  0.242760  1.0  -0.0023
  C  C302  1  0.970390  0.077700  0.452780  1.0  0.1371
  C  C303  1  0.983090  0.940300  0.357780  1.0  -0.0874
  C  C304  1  0.117610  0.370300  0.618020  1.0  -0.08
  C  C305  1  0.258100  0.933400  0.764000  1.0  0.6617
  C  C306  1  0.888700  0.849800  0.163600  1.0  -0.0741
  C  C307  1  0.212790  0.096800  0.936180  1.0  0.0343
  C  C308  1  0.047100  0.160600  0.594200  1.0  -0.0871
  C  C309  1  0.518800  0.700000  0.571800  1.0  -0.0752
  C  C310  1  0.686780  0.578700  0.975560  1.0  -0.1486
  C  C311  1  0.672520  0.913100  0.107240  1.0  0.6549
  C  C312  1  0.573700  0.362600  0.648400  1.0  0.0303
  C  C313  1  0.209900  0.048900  0.934200  1.0  -0.0876
  C  C314  1  0.698180  0.216000  0.891760  1.0  -0.028
  C  C315  1  0.202500  0.257100  0.910000  1.0  -0.1157
  C  C316  1  0.231710  0.199300  0.214420  1.0  0.7258
  C  C317  1  0.725680  0.069600  0.066160  1.0  -0.1165
  C  C318  1  0.771050  0.621000  0.916100  1.0  -0.0479
  C  C319  1  0.436900  0.192100  0.358400  1.0  0.0597
  C  C320  1  0.964310  0.388800  0.694620  1.0  0.6817
  C  C321  1  0.487760  0.812200  0.737920  1.0  0.6698
  C  C322  1  0.544330  0.719300  0.606860  1.0  -0.1537
  C  C323  1  0.300400  0.550700  0.215800  1.0  -0.0891
  C  C324  1  0.317800  0.605200  0.139800  1.0  -0.0102
  C  C325  1  0.557700  0.774300  0.731800  1.0  0.0349
  C  C326  1  0.022000  0.359100  0.801200  1.0  0.6616
  C  C327  1  0.022760  0.627200  0.418320  1.0  -0.0917
  C  C328  1  0.301820  0.716000  0.108240  1.0  -0.027
  C  C329  1  0.924780  0.106400  0.616160  1.0  0.7067
  C  C330  1  0.074700  0.362600  0.648400  1.0  0.0279
  C  C331  1  0.661750  0.698800  0.713700  1.0  -0.0423
  C  C332  1  0.319500  0.559600  0.142600  1.0  -0.0717
  C  C333  1  0.500410  0.370300  0.618020  1.0  -0.0794
  C  C334  1  0.536840  0.752900  0.692480  1.0  -0.0513
  C  C335  1  0.407750  0.210700  0.575100  1.0  0.6886
  C  C336  1  0.062530  0.719300  0.606860  1.0  -0.1558
  C  C337  1  0.268760  0.756500  0.041320  1.0  -0.0776
  C  C338  1  0.220800  0.859100  0.198800  1.0  0.6622
  C  C339  1  0.416100  0.210600  0.320200  1.0  0.0224
  C  C340  1  0.060900  0.533900  0.610800  1.0  -0.145
  C  C341  1  0.043300  0.647200  0.563800  1.0  0.1078
  C  C342  1  0.527800  0.139600  0.509800  1.0  0.1161
  C  C343  1  0.275700  0.548900  0.065800  1.0  -0.0915
  C  C344  1  0.982710  0.199300  0.214420  1.0  0.7304
  C  C345  1  0.674510  0.027500  0.743620  1.0  0.1035
  C  C346  1  0.547100  0.617000  0.602600  1.0  -0.0952
  C  C347  1  0.197740  0.125000  0.900880  1.0  -0.0897
  C  C348  1  0.078500  0.692100  0.641600  1.0  0.0592
  C  C349  1  0.551910  0.447900  0.607220  1.0  0.0031
  C  C350  1  0.604440  0.127200  0.581680  1.0  -0.0918
  C  C351  1  0.625310  0.440300  0.642220  1.0  -0.0866
  C  C352  1  0.565280  0.413100  0.892760  1.0  0.6564
  C  C353  1  0.735500  0.310800  0.857200  1.0  -0.0752
  C  C354  1  0.547100  0.160600  0.594200  1.0  -0.0844
  C  C355  1  0.583900  0.710600  0.679800  1.0  0.0224
  C  C356  1  0.787210  0.596800  0.063820  1.0  0.034
  C  C357  1  0.517610  0.577700  0.547220  1.0  0.115
  C  C358  1  0.725100  0.349800  0.836400  1.0  -0.0765
  C  C359  1  0.744900  0.216700  0.982600  1.0  -0.1093
  C  C360  1  0.796790  0.675200  0.087380  1.0  -0.1096
  C  C361  1  0.325490  0.527500  0.256380  1.0  0.1024
  C  C362  1  0.059580  0.163900  0.524560  1.0  -0.1164
  C  C363  1  0.659520  0.569600  0.933840  1.0  -0.1165
  C  C364  1  0.055310  0.447900  0.607220  1.0  0.0006
  C  C365  1  0.878300  0.810800  0.142800  1.0  -0.0718
  C  C366  1  0.380470  0.497000  0.264540  1.0  0.0581
  C  C367  1  0.731240  0.256500  0.958680  1.0  -0.0749
  C  C368  1  0.338250  0.198800  0.286300  1.0  -0.0414
  C  C369  1  0.035690  0.888800  0.305380  1.0  0.6806
  C  C370  1  0.182300  0.141500  0.116400  1.0  0.6923
  C  C371  1  0.069110  0.027500  0.743620  1.0  0.1011
  C  C372  1  0.053000  0.576200  0.587200  1.0  0.1263
  C  C373  1  0.327480  0.413100  0.892760  1.0  0.6557
  C  C374  1  0.502600  0.533900  0.523400  1.0  -0.1154
  C  C375  1  0.709410  0.175200  0.912620  1.0  -0.1135
  C  C376  1  0.452900  0.660600  0.405800  1.0  -0.085
  C  C377  1  0.155640  0.752900  0.692480  1.0  -0.0487
  C  C378  1  0.575100  0.978300  0.770400  1.0  -0.1666
  C  C379  1  0.353530  0.837600  0.097260  1.0  -0.0666
  C  C380  1  0.702600  0.591100  0.906000  1.0  -0.0355
  C  C381  1  0.417200  0.029800  0.072600  1.0  0.4708
  C  C382  1  0.685140  0.717800  0.752080  1.0  -0.1374
  C  C383  1  0.018000  0.639600  0.490200  1.0  0.1097
  C  C384  1  0.255100  0.716700  0.017400  1.0  -0.1097
  C  C385  1  0.944690  0.947900  0.392780  1.0  0.0007
  C  C386  1  0.463160  0.252900  0.307520  1.0  -0.0517
  C  C387  1  0.968900  0.998200  0.454400  1.0  -0.0764
  C  C388  1  0.066940  0.717800  0.752080  1.0  -0.1342
  C  C389  1  0.429300  0.142400  0.360200  1.0  -0.079
  C  C390  1  0.111300  0.349800  0.836400  1.0  -0.0735
  C  C391  1  0.844360  0.252900  0.307520  1.0  -0.0474
  C  C392  1  0.978480  0.046800  0.712760  1.0  0.6917
  C  C393  1  0.424900  0.478300  0.229600  1.0  -0.1652
  C  C394  1  0.944500  0.117000  0.397400  1.0  -0.0923
  C  C395  1  0.128920  0.761500  0.757240  1.0  1e-04
  C  C396  1  0.948050  0.198800  0.286300  1.0  -0.0462
  C  C397  1  0.593080  0.113300  0.541560  1.0  -0.0754
  C  C398  1  0.793700  0.494800  0.190400  1.0  -0.0558
  C  C399  1  0.659360  0.031100  0.815520  1.0  -0.0356
  C  C400  1  0.020800  0.533900  0.523400  1.0  -0.109
  C  C401  1  0.781400  0.674700  0.040400  1.0  0.185
  C  C402  1  0.340480  0.069600  0.066160  1.0  -0.1174
  C  C403  1  0.982000  0.139600  0.509800  1.0  0.1121
  C  C404  1  0.290590  0.675200  0.087380  1.0  -0.1117
  C  C405  1  0.095900  0.710600  0.679800  1.0  0.0287
  C  C406  1  0.691380  0.106400  0.616160  1.0  0.7082
  C  C407  1  0.977240  0.127200  0.581680  1.0  -0.0895
  C  C408  1  0.274320  0.569600  0.933840  1.0  -0.1169
  C  C409  1  0.698200  0.304700  0.890600  1.0  0.0782
  C  C410  1  0.465800  0.076200  0.412800  1.0  0.1506
  C  C411  1  0.843840  0.531100  0.184480  1.0  -0.0347
  C  C412  1  0.894300  0.914000  0.404800  1.0  -0.0777
  C  C413  1  0.474930  0.179700  0.562060  1.0  -0.0623
  C  C414  1  0.396700  0.494800  0.190400  1.0  -0.0588
  C  C415  1  0.448090  0.947900  0.392780  1.0  0.0026
  C  C416  1  0.031100  0.498200  0.545600  1.0  -0.0786
  C  C417  1  0.930890  0.527500  0.256380  1.0  0.1014
  C  C418  1  0.297400  0.091100  0.094000  1.0  -0.034
  C  C419  1  0.570700  0.642400  0.639800  1.0  -0.0782
  C  C420  1  0.018680  0.396800  0.661560  1.0  -0.0821
  C  C421  1  0.682200  0.105200  0.860200  1.0  -0.0093
  C  C422  1  0.539200  0.493600  0.582600  1.0  0.0621
  C  C423  1  0.161100  0.633600  0.960200  1.0  -0.075
  C  C424  1  0.799100  0.633600  0.960200  1.0  -0.0723
  C  C425  1  0.195300  0.978300  0.770400  1.0  -0.1641
  C  C426  1  0.576790  0.832600  0.395380  1.0  0.6944
  C  C427  1  0.460800  0.993600  0.417400  1.0  0.0616
  C  C428  1  0.489500  0.414000  0.595200  1.0  -0.0883
  C  C429  1  0.802260  0.625000  0.099120  1.0  -0.0872
  C  C430  1  0.838900  0.133600  0.039800  1.0  -0.0759
  C  C431  1  0.499590  0.870300  0.381980  1.0  -0.0787
  C  C432  1  0.494100  0.433400  0.236000  1.0  0.6586
  N  N433  1  0.226450  0.133100  0.970100  1.0  -0.1658
  N  N434  1  0.743650  0.133100  0.970100  1.0  -0.1654
  N  N435  1  0.773550  0.633100  0.029900  1.0  -0.1664
  N  N436  1  0.030920  0.624900  0.531840  1.0  -0.0966
  N  N437  1  0.499080  0.124900  0.468160  1.0  -0.0962
  N  N438  1  0.256350  0.633100  0.029900  1.0  -0.1657
  N  N439  1  0.500920  0.624900  0.531840  1.0  -0.0968
  N  N440  1  0.969080  0.124900  0.468160  1.0  -0.0959
  O  O441  1  0.255660  0.519200  0.313720  1.0  -0.5633
  O  O442  1  0.401860  0.215100  0.612320  1.0  -0.5741
  O  O443  1  0.028580  0.614800  0.855760  1.0  -0.5822
  O  O444  1  0.204480  0.160200  0.220160  1.0  -0.577
  O  O445  1  0.733150  0.429000  0.273300  1.0  -0.5703
  O  O446  1  0.944610  0.347300  0.701020  1.0  -0.5749
  O  O447  1  0.348380  0.532600  0.885960  1.0  -0.583
  O  O448  1  0.799510  0.401100  0.796220  1.0  -0.57
  O  O449  1  0.692370  0.415300  0.203940  1.0  -0.574
  O  O450  1  0.222600  0.305800  0.632800  1.0  -0.5947
  O  O451  1  0.210460  0.215100  0.612320  1.0  -0.5782
  O  O452  1  0.369290  0.239800  0.546780  1.0  -0.6117
  O  O453  1  0.058060  0.519200  0.313720  1.0  -0.564
  O  O454  1  0.789540  0.715100  0.387680  1.0  -0.579
  O  O455  1  0.046640  0.922300  0.285480  1.0  -0.5579
  O  O456  1  0.285860  0.566300  0.389920  1.0  -0.5839
  O  O457  1  0.630710  0.739800  0.453220  1.0  -0.6116
  O  O458  1  0.895940  0.066300  0.610080  1.0  -0.5843
  O  O459  1  0.372730  0.412400  0.929660  1.0  -0.5834
  O  O460  1  0.189380  0.330800  0.567560  1.0  -0.572
  O  O461  1  0.459850  0.929000  0.726700  1.0  -0.5735
  O  O462  1  0.307630  0.915300  0.796060  1.0  -0.5741
  O  O463  1  0.916060  0.131100  0.642520  1.0  -0.5512
  O  O464  1  0.237840  0.587600  0.280880  1.0  -0.5805
  O  O465  1  0.511040  0.318900  0.222880  1.0  -0.5842
  O  O466  1  0.488960  0.818900  0.777120  1.0  -0.5827
  O  O467  1  0.984320  0.660200  0.779840  1.0  -0.5781
  O  O468  1  0.971420  0.114800  0.144240  1.0  -0.5831
  O  O469  1  0.651620  0.032600  0.114040  1.0  -0.5801
  O  O470  1  0.762160  0.087600  0.719120  1.0  -0.5802
  O  O471  1  0.015150  0.823700  0.216900  1.0  -0.565
  O  O472  1  0.172820  0.114800  0.144240  1.0  -0.5834
  O  O473  1  0.996710  0.401100  0.796220  1.0  -0.5689
  O  O474  1  0.273540  0.631100  0.357480  1.0  -0.5513
  O  O475  1  0.148270  0.182200  0.110140  1.0  -0.581
  O  O476  1  0.756410  0.347300  0.701020  1.0  -0.5798
  O  O477  1  0.527770  0.442300  0.864140  1.0  -0.5887
  O  O478  1  0.462420  0.032600  0.114040  1.0  -0.5754
  O  O479  1  0.511570  0.415300  0.203940  1.0  -0.5747
  O  O480  1  0.537580  0.532600  0.885960  1.0  -0.5781
  O  O481  1  0.761160  0.422300  0.714520  1.0  -0.5599
  O  O482  1  0.238840  0.922300  0.285480  1.0  -0.559
  O  O483  1  0.621820  0.830800  0.432440  1.0  -0.5827
  O  O484  1  0.739720  0.334300  0.290040  1.0  -0.5439
  O  O485  1  0.043040  0.587600  0.280880  1.0  -0.5724
  O  O486  1  0.200490  0.901100  0.203780  1.0  -0.5686
  O  O487  1  0.617620  0.007100  0.048840  1.0  -0.561
  O  O488  1  0.488430  0.915300  0.796060  1.0  -0.5748
  O  O489  1  0.288160  0.818900  0.777120  1.0  -0.5871
  O  O490  1  0.003290  0.901100  0.203780  1.0  -0.5702
  O  O491  1  0.266850  0.929000  0.726700  1.0  -0.5716
  O  O492  1  0.777400  0.805800  0.367200  1.0  -0.5956
  O  O493  1  0.827180  0.614800  0.855760  1.0  -0.5848
  O  O494  1  0.711840  0.318900  0.222880  1.0  -0.5878
  O  O495  1  0.726460  0.131100  0.642520  1.0  -0.5509
  O  O496  1  0.941940  0.019200  0.686280  1.0  -0.5637
  O  O497  1  0.194320  0.226600  0.187440  1.0  -0.589
  O  O498  1  0.627270  0.912400  0.070340  1.0  -0.5828
  O  O499  1  0.260280  0.834300  0.709960  1.0  -0.5435
  O  O500  1  0.798250  0.323700  0.783100  1.0  -0.5607
  O  O501  1  0.568780  0.507100  0.951160  1.0  -0.5638
  O  O502  1  0.810620  0.830800  0.432440  1.0  -0.5735
  O  O503  1  0.550320  0.334300  0.290040  1.0  -0.5446
  O  O504  1  0.714140  0.066300  0.610080  1.0  -0.5823
  O  O505  1  0.038130  0.682200  0.889860  1.0  -0.5787
  O  O506  1  0.449680  0.834300  0.709960  1.0  -0.5457
  O  O507  1  0.006880  0.726600  0.812560  1.0  -0.5853
  O  O508  1  0.382380  0.507100  0.951160  1.0  -0.5623
  O  O509  1  0.805680  0.726600  0.812560  1.0  -0.5886
  O  O510  1  0.177490  0.239800  0.546780  1.0  -0.6105
  O  O511  1  0.243590  0.847300  0.298980  1.0  -0.5796
  O  O512  1  0.961870  0.182200  0.110140  1.0  -0.58
  O  O513  1  0.956960  0.087600  0.719120  1.0  -0.5714
  O  O514  1  0.744340  0.019200  0.686280  1.0  -0.5631
  O  O515  1  0.083940  0.631100  0.357480  1.0  -0.5511
  O  O516  1  0.953360  0.422300  0.714520  1.0  -0.5572
  O  O517  1  0.055390  0.847300  0.298980  1.0  -0.5749
  O  O518  1  0.993120  0.226600  0.187440  1.0  -0.5856
  O  O519  1  0.822510  0.739800  0.453220  1.0  -0.611
  O  O520  1  0.336370  0.442300  0.864140  1.0  -0.5807
  O  O521  1  0.984850  0.323700  0.783100  1.0  -0.5678
  O  O522  1  0.795520  0.660200  0.779840  1.0  -0.5765
  O  O523  1  0.431220  0.007100  0.048840  1.0  -0.5638
  O  O524  1  0.598140  0.715100  0.387680  1.0  -0.5752
  O  O525  1  0.410200  0.305800  0.632800  1.0  -0.5927
  O  O526  1  0.851730  0.682200  0.889860  1.0  -0.5804
  O  O527  1  0.556930  0.412400  0.929660  1.0  -0.5818
  O  O528  1  0.104060  0.566300  0.389920  1.0  -0.584
  O  O529  1  0.201750  0.823700  0.216900  1.0  -0.5603
  O  O530  1  0.663630  0.942300  0.135860  1.0  -0.5798
  O  O531  1  0.472230  0.942300  0.135860  1.0  -0.5885
  O  O532  1  0.443070  0.912400  0.070340  1.0  -0.5806
  O  O533  1  0.378180  0.330800  0.567560  1.0  -0.5817
  O  O534  1  0.015680  0.160200  0.220160  1.0  -0.5774
  O  O535  1  0.540150  0.429000  0.273300  1.0  -0.5722
  O  O536  1  0.589800  0.805800  0.367200  1.0  -0.594
