# generated using pymatgen
data_YbCdH12(C4O5)3
_symmetry_space_group_name_H-M   'P 1'
_cell_length_a   18.36520000
_cell_length_b   18.36520000
_cell_length_c   18.36520000
_cell_angle_alpha   60.00000000
_cell_angle_beta   60.00000000
_cell_angle_gamma   60.00000000
_symmetry_Int_Tables_number   1
_chemical_formula_structural   YbCdH12(C4O5)3
_chemical_formula_sum   'Yb8 Cd8 H96 C96 O120'
_cell_volume   4379.97860300
_cell_formula_units_Z   8
loop_
 _symmetry_equiv_pos_site_id
 _symmetry_equiv_pos_as_xyz
  1  'x, y, z'
loop_
 _atom_site_type_symbol
 _atom_site_label
 _atom_site_symmetry_multiplicity
 _atom_site_fract_x
 _atom_site_fract_y
 _atom_site_fract_z
 _atom_site_occupancy
 _atom_site_charge
  Yb  Yb1  1  0.250000  0.250000  0.250000  1.0  1.1579
  Yb  Yb2  1  0.750000  0.750000  0.250000  1.0  1.1579
  Yb  Yb3  1  0.250000  0.750000  0.750000  1.0  1.1579
  Yb  Yb4  1  0.750000  0.750000  0.750000  1.0  1.1579
  Yb  Yb5  1  0.250000  0.750000  0.250000  1.0  1.1579
  Yb  Yb6  1  0.250000  0.250000  0.750000  1.0  1.1579
  Yb  Yb7  1  0.750000  0.250000  0.750000  1.0  1.1579
  Yb  Yb8  1  0.750000  0.250000  0.250000  1.0  1.1579
  Cd  Cd9  1  0.000000  0.500000  0.000000  1.0  1.072
  Cd  Cd10  1  0.500000  0.500000  0.500000  1.0  1.072
  Cd  Cd11  1  0.000000  0.000000  0.500000  1.0  1.072
  Cd  Cd12  1  0.000000  0.000000  0.000000  1.0  1.072
  Cd  Cd13  1  0.000000  0.500000  0.500000  1.0  1.072
  Cd  Cd14  1  0.500000  0.000000  0.000000  1.0  1.072
  Cd  Cd15  1  0.500000  0.000000  0.500000  1.0  1.072
  Cd  Cd16  1  0.500000  0.500000  0.000000  1.0  1.072
  H  H17  1  0.421200  0.511000  0.220000  1.0  0.1201
  H  H18  1  0.578800  0.489000  0.780000  1.0  0.1196
  H  H19  1  0.427200  0.519800  0.348600  1.0  0.1207
  H  H20  1  0.280000  0.078800  0.489000  1.0  0.1184
  H  H21  1  0.980200  0.651400  0.072800  1.0  0.1197
  H  H22  1  0.848600  0.519800  0.704400  1.0  0.1214
  H  H23  1  0.204400  0.927200  0.348600  1.0  0.1193
  H  H24  1  0.921200  0.011000  0.347800  1.0  0.1201
  H  H25  1  0.019800  0.704400  0.348600  1.0  0.1203
  H  H26  1  0.847800  0.720000  0.421200  1.0  0.1183
  H  H27  1  0.704400  0.019800  0.848600  1.0  0.1208
  H  H28  1  0.295600  0.572800  0.980200  1.0  0.1192
  H  H29  1  0.511000  0.421200  0.720000  1.0  0.121
  H  H30  1  0.078800  0.652200  0.280000  1.0  0.1178
  H  H31  1  0.489000  0.652200  0.578800  1.0  0.1199
  H  H32  1  0.980200  0.295600  0.651400  1.0  0.1199
  H  H33  1  0.220000  0.421200  0.347800  1.0  0.1187
  H  H34  1  0.921200  0.347800  0.720000  1.0  0.1183
  H  H35  1  0.348600  0.019800  0.427200  1.0  0.1201
  H  H36  1  0.847800  0.011000  0.720000  1.0  0.1197
  H  H37  1  0.348600  0.204400  0.019800  1.0  0.1194
  H  H38  1  0.480200  0.572800  0.151400  1.0  0.117
  H  H39  1  0.347800  0.921200  0.220000  1.0  0.1187
  H  H40  1  0.704400  0.427200  0.019800  1.0  0.1187
  H  H41  1  0.347800  0.220000  0.511000  1.0  0.1183
  H  H42  1  0.780000  0.578800  0.652200  1.0  0.1181
  H  H43  1  0.151400  0.295600  0.072800  1.0  0.1209
  H  H44  1  0.078800  0.280000  0.989000  1.0  0.1184
  H  H45  1  0.347800  0.511000  0.921200  1.0  0.1194
  H  H46  1  0.927200  0.848600  0.019800  1.0  0.1192
  H  H47  1  0.152200  0.989000  0.280000  1.0  0.1188
  H  H48  1  0.652200  0.780000  0.489000  1.0  0.1185
  H  H49  1  0.651400  0.572800  0.795600  1.0  0.1196
  H  H50  1  0.011000  0.847800  0.220000  1.0  0.1199
  H  H51  1  0.578800  0.780000  0.152200  1.0  0.1181
  H  H52  1  0.220000  0.011000  0.421200  1.0  0.1192
  H  H53  1  0.489000  0.578800  0.280000  1.0  0.1212
  H  H54  1  0.652200  0.078800  0.780000  1.0  0.1177
  H  H55  1  0.295600  0.151400  0.572800  1.0  0.1193
  H  H56  1  0.848600  0.927200  0.519800  1.0  0.1185
  H  H57  1  0.204400  0.519800  0.927200  1.0  0.1204
  H  H58  1  0.572800  0.295600  0.480200  1.0  0.1197
  H  H59  1  0.511000  0.347800  0.421200  1.0  0.1201
  H  H60  1  0.989000  0.078800  0.152200  1.0  0.121
  H  H61  1  0.480200  0.795600  0.572800  1.0  0.1205
  H  H62  1  0.519800  0.204400  0.427200  1.0  0.1207
  H  H63  1  0.072800  0.151400  0.980200  1.0  0.1195
  H  H64  1  0.780000  0.989000  0.578800  1.0  0.1189
  H  H65  1  0.795600  0.480200  0.072800  1.0  0.1195
  H  H66  1  0.704400  0.848600  0.427200  1.0  0.1191
  H  H67  1  0.152200  0.280000  0.578800  1.0  0.1183
  H  H68  1  0.980200  0.072800  0.295600  1.0  0.117
  H  H69  1  0.578800  0.152200  0.489000  1.0  0.1183
  H  H70  1  0.921200  0.720000  0.011000  1.0  0.1178
  H  H71  1  0.280000  0.489000  0.152200  1.0  0.1187
  H  H72  1  0.795600  0.651400  0.480200  1.0  0.1196
  H  H73  1  0.427200  0.348600  0.704400  1.0  0.1196
  H  H74  1  0.421200  0.220000  0.847800  1.0  0.1186
  H  H75  1  0.280000  0.152200  0.078800  1.0  0.1188
  H  H76  1  0.421200  0.847800  0.511000  1.0  0.1176
  H  H77  1  0.348600  0.427200  0.204400  1.0  0.1193
  H  H78  1  0.989000  0.780000  0.078800  1.0  0.1195
  H  H79  1  0.511000  0.720000  0.347800  1.0  0.1198
  H  H80  1  0.720000  0.511000  0.847800  1.0  0.1196
  H  H81  1  0.651400  0.980200  0.572800  1.0  0.1204
  H  H82  1  0.927200  0.204400  0.848600  1.0  0.1191
  H  H83  1  0.019800  0.927200  0.704400  1.0  0.1182
  H  H84  1  0.795600  0.072800  0.651400  1.0  0.1192
  H  H85  1  0.927200  0.019800  0.204400  1.0  0.1203
  H  H86  1  0.072800  0.795600  0.151400  1.0  0.1194
  H  H87  1  0.780000  0.652200  0.989000  1.0  0.1191
  H  H88  1  0.204400  0.348600  0.519800  1.0  0.1189
  H  H89  1  0.480200  0.151400  0.795600  1.0  0.1182
  H  H90  1  0.072800  0.980200  0.795600  1.0  0.1193
  H  H91  1  0.151400  0.072800  0.480200  1.0  0.1199
  H  H92  1  0.847800  0.421200  0.011000  1.0  0.1181
  H  H93  1  0.720000  0.847800  0.921200  1.0  0.1188
  H  H94  1  0.651400  0.795600  0.980200  1.0  0.1212
  H  H95  1  0.848600  0.704400  0.927200  1.0  0.1197
  H  H96  1  0.572800  0.480200  0.651400  1.0  0.1194
  H  H97  1  0.011000  0.220000  0.921200  1.0  0.1197
  H  H98  1  0.220000  0.347800  0.011000  1.0  0.1188
  H  H99  1  0.519800  0.848600  0.204400  1.0  0.1197
  H  H100  1  0.019800  0.348600  0.927200  1.0  0.1192
  H  H101  1  0.152200  0.578800  0.989000  1.0  0.1184
  H  H102  1  0.519800  0.427200  0.848600  1.0  0.1182
  H  H103  1  0.989000  0.152200  0.780000  1.0  0.1196
  H  H104  1  0.011000  0.921200  0.847800  1.0  0.1211
  H  H105  1  0.427200  0.704400  0.519800  1.0  0.1189
  H  H106  1  0.720000  0.921200  0.511000  1.0  0.1182
  H  H107  1  0.151400  0.480200  0.295600  1.0  0.12
  H  H108  1  0.295600  0.980200  0.151400  1.0  0.12
  H  H109  1  0.652200  0.489000  0.078800  1.0  0.1187
  H  H110  1  0.489000  0.280000  0.652200  1.0  0.119
  H  H111  1  0.078800  0.989000  0.652200  1.0  0.1196
  H  H112  1  0.572800  0.651400  0.295600  1.0  0.1191
  C  C113  1  0.572300  0.319900  0.419700  1.0  -0.0101
  C  C114  1  0.811900  0.580300  0.680100  1.0  -0.0098
  C  C115  1  0.080300  0.680100  0.311900  1.0  -0.0098
  C  C116  1  0.319900  0.919700  0.188100  1.0  -0.0089
  C  C117  1  0.319900  0.188100  0.572300  1.0  -0.0063
  C  C118  1  0.138000  0.368200  0.879600  1.0  0.7384
  C  C119  1  0.927700  0.811900  0.080300  1.0  -0.0103
  C  C120  1  0.819900  0.419700  0.072300  1.0  -0.0091
  C  C121  1  0.819900  0.072300  0.688100  1.0  -0.0093
  C  C122  1  0.680100  0.080300  0.811900  1.0  -0.0104
  C  C123  1  0.379600  0.368200  0.614200  1.0  0.7442
  C  C124  1  0.120400  0.131800  0.862000  1.0  0.7426
  C  C125  1  0.885800  0.362000  0.120400  1.0  0.7443
  C  C126  1  0.927700  0.080300  0.180100  1.0  -0.0103
  C  C127  1  0.080300  0.311900  0.927700  1.0  -0.0093
  C  C128  1  0.385800  0.131800  0.620400  1.0  0.7434
  C  C129  1  0.362000  0.620400  0.131800  1.0  0.7441
  C  C130  1  0.131800  0.385800  0.120400  1.0  0.7442
  C  C131  1  0.114200  0.638000  0.879600  1.0  0.7451
  C  C132  1  0.427700  0.580300  0.311900  1.0  -0.0102
  C  C133  1  0.862000  0.385800  0.631800  1.0  0.7445
  C  C134  1  0.631800  0.620400  0.885800  1.0  0.7427
  C  C135  1  0.572300  0.419700  0.688100  1.0  -0.0097
  C  C136  1  0.120400  0.862000  0.885800  1.0  0.7451
  C  C137  1  0.919700  0.688100  0.072300  1.0  -0.0095
  C  C138  1  0.614200  0.379600  0.138000  1.0  0.7367
  C  C139  1  0.879600  0.114200  0.868200  1.0  0.7376
  C  C140  1  0.072300  0.819900  0.188100  1.0  -0.0095
  C  C141  1  0.131800  0.120400  0.362000  1.0  0.7429
  C  C142  1  0.072300  0.188100  0.919700  1.0  -0.0091
  C  C143  1  0.427700  0.311900  0.680100  1.0  -0.0101
  C  C144  1  0.379600  0.638000  0.368200  1.0  0.7443
  C  C145  1  0.631800  0.862000  0.620400  1.0  0.7378
  C  C146  1  0.862000  0.631800  0.120400  1.0  0.7359
  C  C147  1  0.580300  0.811900  0.180100  1.0  -0.0089
  C  C148  1  0.385800  0.862000  0.131800  1.0  0.7446
  C  C149  1  0.620400  0.631800  0.385800  1.0  0.743
  C  C150  1  0.680100  0.811900  0.427700  1.0  -0.0056
  C  C151  1  0.419700  0.819900  0.572300  1.0  -0.0105
  C  C152  1  0.885800  0.120400  0.631800  1.0  0.7376
  C  C153  1  0.868200  0.614200  0.879600  1.0  0.7433
  C  C154  1  0.862000  0.120400  0.385800  1.0  0.7437
  C  C155  1  0.614200  0.868200  0.379600  1.0  0.7441
  C  C156  1  0.131800  0.362000  0.385800  1.0  0.7383
  C  C157  1  0.879600  0.868200  0.138000  1.0  0.7436
  C  C158  1  0.885800  0.631800  0.362000  1.0  0.7423
  C  C159  1  0.180100  0.311900  0.580300  1.0  -0.0075
  C  C160  1  0.362000  0.885800  0.620400  1.0  0.7441
  C  C161  1  0.919700  0.072300  0.319900  1.0  -0.0088
  C  C162  1  0.879600  0.138000  0.114200  1.0  0.7438
  C  C163  1  0.385800  0.620400  0.862000  1.0  0.7381
  C  C164  1  0.368200  0.114200  0.138000  1.0  0.7447
  C  C165  1  0.580300  0.180100  0.427700  1.0  -0.0103
  C  C166  1  0.819900  0.688100  0.419700  1.0  -0.0051
  C  C167  1  0.114200  0.368200  0.638000  1.0  0.7442
  C  C168  1  0.614200  0.138000  0.868200  1.0  0.7444
  C  C169  1  0.188100  0.419700  0.319900  1.0  -0.0084
  C  C170  1  0.180100  0.927700  0.311900  1.0  -0.0075
  C  C171  1  0.114200  0.879600  0.368200  1.0  0.7367
  C  C172  1  0.311900  0.180100  0.080300  1.0  -0.0079
  C  C173  1  0.688100  0.819900  0.919700  1.0  -0.0061
  C  C174  1  0.319900  0.572300  0.919700  1.0  -0.0098
  C  C175  1  0.919700  0.319900  0.688100  1.0  -0.0102
  C  C176  1  0.080300  0.927700  0.680100  1.0  -0.0079
  C  C177  1  0.427700  0.680100  0.580300  1.0  -0.0113
  C  C178  1  0.927700  0.180100  0.811900  1.0  -0.0109
  C  C179  1  0.311900  0.080300  0.427700  1.0  -0.0104
  C  C180  1  0.688100  0.919700  0.572300  1.0  -0.0084
  C  C181  1  0.419700  0.188100  0.819900  1.0  -0.0093
  C  C182  1  0.680100  0.427700  0.080300  1.0  -0.0079
  C  C183  1  0.419700  0.572300  0.188100  1.0  -0.0088
  C  C184  1  0.368200  0.379600  0.114200  1.0  0.7422
  C  C185  1  0.631800  0.885800  0.862000  1.0  0.7435
  C  C186  1  0.620400  0.362000  0.631800  1.0  0.7444
  C  C187  1  0.188100  0.072300  0.419700  1.0  -0.0092
  C  C188  1  0.188100  0.319900  0.072300  1.0  -0.0072
  C  C189  1  0.868200  0.879600  0.638000  1.0  0.7425
  C  C190  1  0.572300  0.688100  0.319900  1.0  -0.0091
  C  C191  1  0.638000  0.868200  0.114200  1.0  0.7379
  C  C192  1  0.868200  0.638000  0.614200  1.0  0.7379
  C  C193  1  0.811900  0.680100  0.927700  1.0  -0.0066
  C  C194  1  0.638000  0.379600  0.868200  1.0  0.7426
  C  C195  1  0.362000  0.131800  0.885800  1.0  0.7365
  C  C196  1  0.620400  0.385800  0.362000  1.0  0.7384
  C  C197  1  0.311900  0.427700  0.180100  1.0  -0.0074
  C  C198  1  0.368200  0.138000  0.379600  1.0  0.7384
  C  C199  1  0.120400  0.885800  0.131800  1.0  0.7382
  C  C200  1  0.379600  0.614200  0.638000  1.0  0.7376
  C  C201  1  0.638000  0.114200  0.379600  1.0  0.7444
  C  C202  1  0.180100  0.580300  0.927700  1.0  -0.0108
  C  C203  1  0.138000  0.614200  0.368200  1.0  0.7439
  C  C204  1  0.580300  0.427700  0.811900  1.0  -0.0076
  C  C205  1  0.072300  0.919700  0.819900  1.0  -0.0096
  C  C206  1  0.811900  0.927700  0.580300  1.0  -0.0074
  C  C207  1  0.688100  0.572300  0.819900  1.0  -0.0087
  C  C208  1  0.138000  0.879600  0.614200  1.0  0.7423
  O  O209  1  0.620900  0.045300  0.406900  1.0  -0.6173
  O  O210  1  0.593100  0.379100  0.573100  1.0  -0.6154
  O  O211  1  0.250000  0.880600  0.250000  1.0  -0.3036
  O  O212  1  0.880600  0.750000  0.119400  1.0  -0.3038
  O  O213  1  0.379100  0.954700  0.593100  1.0  -0.6189
  O  O214  1  0.373600  0.146000  0.685200  1.0  -0.5772
  O  O215  1  0.126400  0.354000  0.704800  1.0  -0.5767
  O  O216  1  0.126400  0.704800  0.814800  1.0  -0.5778
  O  O217  1  0.354000  0.126400  0.204800  1.0  -0.5773
  O  O218  1  0.045300  0.426900  0.620900  1.0  -0.6145
  O  O219  1  0.073100  0.454700  0.093100  1.0  -0.6156
  O  O220  1  0.854000  0.704800  0.626400  1.0  -0.5747
  O  O221  1  0.685200  0.646000  0.373600  1.0  -0.575
  O  O222  1  0.573100  0.879100  0.593100  1.0  -0.615
  O  O223  1  0.926900  0.545300  0.906900  1.0  -0.6158
  O  O224  1  0.704800  0.314800  0.854000  1.0  -0.5745
  O  O225  1  0.814800  0.204800  0.126400  1.0  -0.5743
  O  O226  1  0.093100  0.954700  0.073100  1.0  -0.6175
  O  O227  1  0.379100  0.593100  0.073100  1.0  -0.6119
  O  O228  1  0.880600  0.250000  0.750000  1.0  -0.304
  O  O229  1  0.406900  0.620900  0.426900  1.0  -0.6157
  O  O230  1  0.750000  0.380600  0.119400  1.0  -0.303
  O  O231  1  0.093100  0.879100  0.954700  1.0  -0.6166
  O  O232  1  0.354000  0.204800  0.314800  1.0  -0.574
  O  O233  1  0.626400  0.854000  0.314800  1.0  -0.5761
  O  O234  1  0.373600  0.795200  0.146000  1.0  -0.5788
  O  O235  1  0.454700  0.593100  0.879100  1.0  -0.614
  O  O236  1  0.120900  0.545300  0.426900  1.0  -0.6191
  O  O237  1  0.379100  0.073100  0.954700  1.0  -0.6162
  O  O238  1  0.314800  0.704800  0.354000  1.0  -0.5755
  O  O239  1  0.685200  0.295200  0.646000  1.0  -0.575
  O  O240  1  0.545300  0.406900  0.120900  1.0  -0.6153
  O  O241  1  0.045300  0.620900  0.906900  1.0  -0.6158
  O  O242  1  0.619400  0.380600  0.750000  1.0  -0.3033
  O  O243  1  0.250000  0.250000  0.619400  1.0  -0.3009
  O  O244  1  0.120900  0.906900  0.545300  1.0  -0.612
  O  O245  1  0.795200  0.373600  0.646000  1.0  -0.5753
  O  O246  1  0.146000  0.373600  0.185200  1.0  -0.5765
  O  O247  1  0.750000  0.750000  0.880600  1.0  -0.3041
  O  O248  1  0.626400  0.204800  0.854000  1.0  -0.578
  O  O249  1  0.073100  0.093100  0.379100  1.0  -0.6151
  O  O250  1  0.406900  0.426900  0.545300  1.0  -0.6167
  O  O251  1  0.646000  0.795200  0.685200  1.0  -0.5756
  O  O252  1  0.250000  0.619400  0.880600  1.0  -0.3034
  O  O253  1  0.879100  0.093100  0.454700  1.0  -0.6145
  O  O254  1  0.626400  0.314800  0.204800  1.0  -0.5741
  O  O255  1  0.119400  0.750000  0.250000  1.0  -0.3026
  O  O256  1  0.854000  0.814800  0.704800  1.0  -0.577
  O  O257  1  0.426900  0.406900  0.045300  1.0  -0.6152
  O  O258  1  0.620900  0.926900  0.045300  1.0  -0.6156
  O  O259  1  0.250000  0.119400  0.380600  1.0  -0.3034
  O  O260  1  0.646000  0.873600  0.795200  1.0  -0.5755
  O  O261  1  0.954700  0.573100  0.379100  1.0  -0.6149
  O  O262  1  0.185200  0.873600  0.146000  1.0  -0.5733
  O  O263  1  0.204800  0.814800  0.626400  1.0  -0.5734
  O  O264  1  0.954700  0.093100  0.573100  1.0  -0.6162
  O  O265  1  0.146000  0.185200  0.295200  1.0  -0.5764
  O  O266  1  0.750000  0.119400  0.750000  1.0  -0.303
  O  O267  1  0.380600  0.250000  0.750000  1.0  -0.304
  O  O268  1  0.873600  0.295200  0.185200  1.0  -0.5786
  O  O269  1  0.314800  0.626400  0.704800  1.0  -0.5738
  O  O270  1  0.354000  0.314800  0.126400  1.0  -0.5777
  O  O271  1  0.204800  0.626400  0.354000  1.0  -0.5766
  O  O272  1  0.593100  0.454700  0.379100  1.0  -0.6164
  O  O273  1  0.873600  0.646000  0.295200  1.0  -0.5772
  O  O274  1  0.454700  0.073100  0.593100  1.0  -0.6153
  O  O275  1  0.295200  0.685200  0.146000  1.0  -0.5737
  O  O276  1  0.573100  0.593100  0.954700  1.0  -0.6154
  O  O277  1  0.704800  0.854000  0.126400  1.0  -0.5749
  O  O278  1  0.185200  0.795200  0.873600  1.0  -0.5758
  O  O279  1  0.204800  0.354000  0.814800  1.0  -0.5748
  O  O280  1  0.795200  0.185200  0.373600  1.0  -0.5745
  O  O281  1  0.120900  0.426900  0.906900  1.0  -0.6149
  O  O282  1  0.926900  0.620900  0.545300  1.0  -0.616
  O  O283  1  0.854000  0.626400  0.814800  1.0  -0.5767
  O  O284  1  0.250000  0.250000  0.119400  1.0  -0.3009
  O  O285  1  0.704800  0.126400  0.314800  1.0  -0.5769
  O  O286  1  0.093100  0.073100  0.879100  1.0  -0.6169
  O  O287  1  0.426900  0.045300  0.120900  1.0  -0.6155
  O  O288  1  0.750000  0.880600  0.619400  1.0  -0.303
  O  O289  1  0.045300  0.906900  0.426900  1.0  -0.6158
  O  O290  1  0.119400  0.880600  0.750000  1.0  -0.3033
  O  O291  1  0.879100  0.573100  0.093100  1.0  -0.6147
  O  O292  1  0.620900  0.406900  0.926900  1.0  -0.6142
  O  O293  1  0.406900  0.545300  0.620900  1.0  -0.6167
  O  O294  1  0.593100  0.573100  0.454700  1.0  -0.6162
  O  O295  1  0.295200  0.873600  0.685200  1.0  -0.5754
  O  O296  1  0.685200  0.373600  0.295200  1.0  -0.5736
  O  O297  1  0.906900  0.045300  0.926900  1.0  -0.6159
  O  O298  1  0.185200  0.146000  0.795200  1.0  -0.576
  O  O299  1  0.814800  0.854000  0.204800  1.0  -0.5756
  O  O300  1  0.873600  0.185200  0.646000  1.0  -0.5737
  O  O301  1  0.646000  0.685200  0.873600  1.0  -0.5762
  O  O302  1  0.926900  0.906900  0.620900  1.0  -0.6145
  O  O303  1  0.373600  0.685200  0.795200  1.0  -0.5736
  O  O304  1  0.954700  0.379100  0.093100  1.0  -0.6177
  O  O305  1  0.250000  0.380600  0.250000  1.0  -0.3036
  O  O306  1  0.750000  0.750000  0.380600  1.0  -0.3041
  O  O307  1  0.619400  0.250000  0.380600  1.0  -0.3032
  O  O308  1  0.073100  0.379100  0.454700  1.0  -0.6159
  O  O309  1  0.750000  0.619400  0.750000  1.0  -0.303
  O  O310  1  0.295200  0.146000  0.873600  1.0  -0.5751
  O  O311  1  0.314800  0.354000  0.626400  1.0  -0.5759
  O  O312  1  0.906900  0.926900  0.120900  1.0  -0.6173
  O  O313  1  0.146000  0.295200  0.373600  1.0  -0.5759
  O  O314  1  0.126400  0.814800  0.354000  1.0  -0.5742
  O  O315  1  0.545300  0.120900  0.926900  1.0  -0.617
  O  O316  1  0.545300  0.926900  0.406900  1.0  -0.6159
  O  O317  1  0.380600  0.619400  0.250000  1.0  -0.3046
  O  O318  1  0.880600  0.119400  0.250000  1.0  -0.3046
  O  O319  1  0.454700  0.879100  0.073100  1.0  -0.6178
  O  O320  1  0.814800  0.126400  0.854000  1.0  -0.5736
  O  O321  1  0.619400  0.750000  0.250000  1.0  -0.3026
  O  O322  1  0.573100  0.954700  0.879100  1.0  -0.6159
  O  O323  1  0.426900  0.120900  0.406900  1.0  -0.616
  O  O324  1  0.879100  0.454700  0.573100  1.0  -0.618
  O  O325  1  0.380600  0.750000  0.619400  1.0  -0.3038
  O  O326  1  0.795200  0.646000  0.185200  1.0  -0.5751
  O  O327  1  0.906900  0.120900  0.045300  1.0  -0.6145
  O  O328  1  0.119400  0.250000  0.880600  1.0  -0.3032
