# generated using pymatgen
data_ZnH18C18N4O5
_symmetry_space_group_name_H-M   'P 1'
_cell_length_a   5.62600000
_cell_length_b   17.65500000
_cell_length_c   21.73300000
_cell_angle_alpha   90.00000000
_cell_angle_beta   90.00000000
_cell_angle_gamma   90.00000000
_symmetry_Int_Tables_number   1
_chemical_formula_structural   ZnH18C18N4O5
_chemical_formula_sum   'Zn4 H72 C72 N16 O20'
_cell_volume   2158.67434299
_cell_formula_units_Z   4
loop_
 _symmetry_equiv_pos_site_id
 _symmetry_equiv_pos_as_xyz
  1  'x, y, z'
loop_
 _atom_site_type_symbol
 _atom_site_label
 _atom_site_symmetry_multiplicity
 _atom_site_fract_x
 _atom_site_fract_y
 _atom_site_fract_z
 _atom_site_occupancy
 _atom_site_charge
  Zn  Zn1  1  0.154680  0.327580  0.204050  1.0  0.8731
  Zn  Zn2  1  0.845320  0.827580  0.295950  1.0  0.8737
  Zn  Zn3  1  0.154680  0.672420  0.795950  1.0  0.8731
  Zn  Zn4  1  0.845320  0.172420  0.704050  1.0  0.8736
  H  H5  1  0.753000  0.172500  0.201300  1.0  0.106
  H  H6  1  0.230000  0.537900  0.316000  1.0  0.1028
  H  H7  1  0.899400  0.195900  0.395300  1.0  0.1025
  H  H8  1  0.143400  0.762200  0.912000  1.0  0.0748
  H  H9  1  0.230000  0.462100  0.684000  1.0  0.1009
  H  H10  1  0.143400  0.237800  0.088000  1.0  0.0744
  H  H11  1  0.753000  0.827500  0.798700  1.0  0.1068
  H  H12  1  0.764600  0.442300  0.937600  1.0  0.317
  H  H13  1  0.494700  0.037000  0.194500  1.0  0.0895
  H  H14  1  0.129700  0.219900  0.310500  1.0  0.0759
  H  H15  1  0.880700  0.561300  0.123900  1.0  0.3164
  H  H16  1  0.381300  0.694600  0.559400  1.0  0.0889
  H  H17  1  0.770000  0.037900  0.184000  1.0  0.1006
  H  H18  1  0.730300  0.607800  0.734600  1.0  0.0715
  H  H19  1  0.791000  0.096200  0.288200  1.0  0.0819
  H  H20  1  0.718400  0.397000  0.147500  1.0  0.0749
  H  H21  1  0.347600  0.643800  0.361600  1.0  0.1226
  H  H22  1  0.856600  0.737800  0.412000  1.0  0.0755
  H  H23  1  0.730300  0.392200  0.265400  1.0  0.072
  H  H24  1  0.119300  0.938700  0.623900  1.0  0.312
  H  H25  1  0.331300  0.923700  0.710600  1.0  0.2764
  H  H26  1  0.870300  0.280100  0.810500  1.0  0.0753
  H  H27  1  0.281600  0.897000  0.352500  1.0  0.0745
  H  H28  1  0.209000  0.596200  0.211800  1.0  0.0825
  H  H29  1  0.494700  0.963000  0.805500  1.0  0.091
  H  H30  1  0.902700  0.216200  0.004800  1.0  0.117
  H  H31  1  0.129700  0.780100  0.689500  1.0  0.0752
  H  H32  1  0.668700  0.423700  0.789400  1.0  0.2774
  H  H33  1  0.281600  0.103000  0.647500  1.0  0.0747
  H  H34  1  0.381300  0.305400  0.440600  1.0  0.0888
  H  H35  1  0.718400  0.603000  0.852500  1.0  0.0749
  H  H36  1  0.505300  0.463000  0.694500  1.0  0.0918
  H  H37  1  0.870300  0.719900  0.189500  1.0  0.0757
  H  H38  1  0.235400  0.057700  0.437600  1.0  0.3173
  H  H39  1  0.269700  0.892200  0.234600  1.0  0.0713
  H  H40  1  0.515900  0.129200  0.848300  1.0  0.1148
  H  H41  1  0.097300  0.283800  0.504800  1.0  0.117
  H  H42  1  0.668700  0.576300  0.210600  1.0  0.2775
  H  H43  1  0.484100  0.370800  0.348300  1.0  0.1147
  H  H44  1  0.902700  0.783800  0.995200  1.0  0.1166
  H  H45  1  0.764600  0.557700  0.062400  1.0  0.318
  H  H46  1  0.625800  0.177200  0.468200  1.0  0.0886
  H  H47  1  0.899400  0.804100  0.604700  1.0  0.1022
  H  H48  1  0.100600  0.304100  0.895300  1.0  0.1023
  H  H49  1  0.618700  0.805400  0.059400  1.0  0.0891
  H  H50  1  0.247000  0.327500  0.701300  1.0  0.1069
  H  H51  1  0.625800  0.822800  0.531800  1.0  0.0883
  H  H52  1  0.269700  0.107800  0.765400  1.0  0.0714
  H  H53  1  0.791000  0.903800  0.711800  1.0  0.0818
  H  H54  1  0.209000  0.403800  0.788200  1.0  0.083
  H  H55  1  0.618700  0.194600  0.940600  1.0  0.0896
  H  H56  1  0.856600  0.262200  0.588000  1.0  0.0746
  H  H57  1  0.247000  0.672500  0.298700  1.0  0.1067
  H  H58  1  0.515900  0.870800  0.151700  1.0  0.1146
  H  H59  1  0.119300  0.061300  0.376100  1.0  0.3113
  H  H60  1  0.652400  0.856200  0.861600  1.0  0.1232
  H  H61  1  0.097300  0.716200  0.495200  1.0  0.1172
  H  H62  1  0.522000  0.116500  0.563500  1.0  0.1204
  H  H63  1  0.652400  0.143800  0.138400  1.0  0.1212
  H  H64  1  0.522000  0.883500  0.436500  1.0  0.1209
  H  H65  1  0.478000  0.616500  0.936500  1.0  0.121
  H  H66  1  0.235400  0.942300  0.562400  1.0  0.3183
  H  H67  1  0.478000  0.383500  0.063500  1.0  0.121
  H  H68  1  0.347600  0.356200  0.638400  1.0  0.1218
  H  H69  1  0.484100  0.629200  0.651700  1.0  0.1144
  H  H70  1  0.100600  0.695900  0.104700  1.0  0.1023
  H  H71  1  0.770000  0.962100  0.816000  1.0  0.1017
  H  H72  1  0.880700  0.438700  0.876100  1.0  0.3154
  H  H73  1  0.505300  0.537000  0.305500  1.0  0.0926
  H  H74  1  0.374200  0.322800  0.968200  1.0  0.0882
  H  H75  1  0.331300  0.076300  0.289400  1.0  0.2764
  H  H76  1  0.374200  0.677200  0.031800  1.0  0.0884
  C  C77  1  0.999900  0.249000  0.818600  1.0  0.1566
  C  C78  1  0.500100  0.769400  0.065300  1.0  -0.1172
  C  C79  1  0.200900  0.480050  0.213080  1.0  0.6464
  C  C80  1  0.359400  0.563160  0.294800  1.0  -0.1359
  C  C81  1  0.384700  0.160300  0.841900  1.0  -0.1765
  C  C82  1  0.640600  0.936840  0.794800  1.0  -0.1366
  C  C83  1  0.319200  0.443860  0.775430  1.0  0.0407
  C  C84  1  0.000100  0.749000  0.681400  1.0  0.1553
  C  C85  1  0.492800  0.286700  0.973610  1.0  -0.1108
  C  C86  1  0.538200  0.559100  0.129140  1.0  0.5386
  C  C87  1  0.243600  0.860500  0.381800  1.0  0.1672
  C  C88  1  0.337600  0.218700  0.881960  1.0  0.1158
  C  C89  1  0.507200  0.213300  0.473610  1.0  -0.1112
  C  C90  1  0.337600  0.781300  0.118040  1.0  0.1169
  C  C91  1  0.999900  0.751000  0.181400  1.0  0.1563
  C  C92  1  0.200900  0.519950  0.786920  1.0  0.6467
  C  C93  1  0.609500  0.647900  0.931810  1.0  -0.2295
  C  C94  1  0.680800  0.943860  0.724570  1.0  0.0408
  C  C95  1  0.235600  0.147700  0.791800  1.0  0.1775
  C  C96  1  0.393400  0.185100  0.194900  1.0  0.7203
  C  C97  1  0.656400  0.297300  0.025070  1.0  0.1146
  C  C98  1  0.499900  0.730600  0.565300  1.0  -0.1161
  C  C99  1  0.538200  0.440900  0.870860  1.0  0.5368
  C  C100  1  0.756400  0.360500  0.118200  1.0  0.1647
  C  C101  1  0.625100  0.856200  0.817500  1.0  -0.3472
  C  C102  1  0.861200  0.764000  0.630610  1.0  -0.1623
  C  C103  1  0.500100  0.230600  0.934700  1.0  -0.1168
  C  C104  1  0.680800  0.056140  0.275430  1.0  0.0408
  C  C105  1  0.606600  0.685100  0.305100  1.0  0.7197
  C  C106  1  0.374900  0.356200  0.682500  1.0  -0.3506
  C  C107  1  0.359400  0.436840  0.705200  1.0  -0.1328
  C  C108  1  0.137100  0.753500  0.466770  1.0  -0.1725
  C  C109  1  0.374900  0.643800  0.317500  1.0  -0.3494
  C  C110  1  0.764400  0.352300  0.291800  1.0  0.1772
  C  C111  1  0.994800  0.233700  0.583530  1.0  0.1583
  C  C112  1  0.243600  0.139500  0.618200  1.0  0.166
  C  C113  1  0.343600  0.202700  0.525070  1.0  0.1142
  C  C114  1  0.393400  0.814900  0.805100  1.0  0.7195
  C  C115  1  0.005200  0.733700  0.916470  1.0  0.1579
  C  C116  1  0.662400  0.281300  0.381960  1.0  0.1178
  C  C117  1  0.615300  0.339700  0.341900  1.0  -0.1709
  C  C118  1  0.492800  0.713300  0.026390  1.0  -0.1082
  C  C119  1  0.138800  0.264000  0.869390  1.0  -0.163
  C  C120  1  0.625100  0.143800  0.182500  1.0  -0.3497
  C  C121  1  0.799100  0.019950  0.713080  1.0  0.6471
  C  C122  1  0.319200  0.556140  0.224570  1.0  0.0404
  C  C123  1  0.656400  0.702700  0.974930  1.0  0.1144
  C  C124  1  0.640600  0.063160  0.205200  1.0  -0.1338
  C  C125  1  0.138800  0.736000  0.130610  1.0  -0.1627
  C  C126  1  0.390500  0.147900  0.568190  1.0  -0.228
  C  C127  1  0.994800  0.766300  0.416470  1.0  0.1616
  C  C128  1  0.384700  0.839700  0.158100  1.0  -0.1666
  C  C129  1  0.507200  0.786700  0.526390  1.0  -0.1108
  C  C130  1  0.764400  0.647700  0.708200  1.0  0.1778
  C  C131  1  0.235600  0.852300  0.208200  1.0  0.1783
  C  C132  1  0.862900  0.746500  0.966770  1.0  -0.1741
  C  C133  1  0.756400  0.639500  0.881800  1.0  0.1664
  C  C134  1  0.861200  0.236000  0.369390  1.0  -0.162
  C  C135  1  0.499900  0.269400  0.434700  1.0  -0.1182
  C  C136  1  0.390500  0.852100  0.431810  1.0  -0.2368
  C  C137  1  0.461800  0.059100  0.370860  1.0  0.5385
  C  C138  1  0.662400  0.718700  0.618040  1.0  0.116
  C  C139  1  0.000100  0.251000  0.318600  1.0  0.1564
  C  C140  1  0.799100  0.980050  0.286920  1.0  0.6463
  C  C141  1  0.615300  0.660300  0.658100  1.0  -0.1704
  C  C142  1  0.461800  0.940900  0.629140  1.0  0.5405
  C  C143  1  0.606600  0.314900  0.694900  1.0  0.721
  C  C144  1  0.862900  0.253500  0.033230  1.0  -0.1736
  C  C145  1  0.609500  0.352100  0.068190  1.0  -0.2332
  C  C146  1  0.343600  0.797300  0.474930  1.0  0.1148
  C  C147  1  0.137100  0.246500  0.533230  1.0  -0.1733
  C  C148  1  0.005200  0.266300  0.083530  1.0  0.1584
  N  N149  1  0.246000  0.940600  0.601840  1.0  -0.6443
  N  N150  1  0.045400  0.190840  0.780330  1.0  -0.3378
  N  N151  1  0.460900  0.066060  0.308700  1.0  -0.4025
  N  N152  1  0.754000  0.440600  0.898160  1.0  -0.6425
  N  N153  1  0.539100  0.566060  0.191300  1.0  -0.4011
  N  N154  1  0.047400  0.818370  0.373340  1.0  -0.3351
  N  N155  1  0.952600  0.318370  0.126660  1.0  -0.3357
  N  N156  1  0.539100  0.433940  0.808700  1.0  -0.4003
  N  N157  1  0.954600  0.309160  0.280330  1.0  -0.3379
  N  N158  1  0.045400  0.809160  0.219670  1.0  -0.3379
  N  N159  1  0.246000  0.059400  0.398160  1.0  -0.6431
  N  N160  1  0.047400  0.181630  0.626660  1.0  -0.3347
  N  N161  1  0.952600  0.681630  0.873340  1.0  -0.3368
  N  N162  1  0.754000  0.559400  0.101840  1.0  -0.6434
  N  N163  1  0.460900  0.933940  0.691300  1.0  -0.4019
  N  N164  1  0.954600  0.690840  0.719670  1.0  -0.3366
  O  O165  1  0.348100  0.443590  0.899720  1.0  -0.5646
  O  O166  1  0.651900  0.056410  0.399720  1.0  -0.5639
  O  O167  1  0.982500  0.523060  0.789490  1.0  -0.5545
  O  O168  1  0.416400  0.256460  0.201490  1.0  -0.5888
  O  O169  1  0.017500  0.023060  0.710510  1.0  -0.5572
  O  O170  1  0.337400  0.422150  0.209370  1.0  -0.6154
  O  O171  1  0.017500  0.976940  0.289490  1.0  -0.5573
  O  O172  1  0.203700  0.848200  0.804590  1.0  -0.5586
  O  O173  1  0.583600  0.243540  0.701490  1.0  -0.5878
  O  O174  1  0.337400  0.577850  0.790630  1.0  -0.6151
  O  O175  1  0.651900  0.943590  0.600280  1.0  -0.5643
  O  O176  1  0.796300  0.348200  0.695410  1.0  -0.5583
  O  O177  1  0.203700  0.151800  0.195410  1.0  -0.5584
  O  O178  1  0.662600  0.077850  0.709370  1.0  -0.6157
  O  O179  1  0.982500  0.476940  0.210510  1.0  -0.5549
  O  O180  1  0.583600  0.756460  0.298510  1.0  -0.5878
  O  O181  1  0.348100  0.556410  0.100280  1.0  -0.5645
  O  O182  1  0.416400  0.743540  0.798510  1.0  -0.5879
  O  O183  1  0.796300  0.651800  0.304590  1.0  -0.5593
  O  O184  1  0.662600  0.922150  0.290630  1.0  -0.6158
