# generated using pymatgen
data_Zn2H24C39NO6
_symmetry_space_group_name_H-M   'P 1'
_cell_length_a   24.56210000
_cell_length_b   24.56210000
_cell_length_c   24.56210000
_cell_angle_alpha   60.00000000
_cell_angle_beta   60.00000000
_cell_angle_gamma   60.00000000
_symmetry_Int_Tables_number   1
_chemical_formula_structural   Zn2H24C39NO6
_chemical_formula_sum   'Zn16 H192 C312 N8 O48'
_cell_volume   10478.07463800
_cell_formula_units_Z   8
loop_
 _symmetry_equiv_pos_site_id
 _symmetry_equiv_pos_as_xyz
  1  'x, y, z'
loop_
 _atom_site_type_symbol
 _atom_site_label
 _atom_site_symmetry_multiplicity
 _atom_site_fract_x
 _atom_site_fract_y
 _atom_site_fract_z
 _atom_site_occupancy
 _atom_site_charge
  Zn  Zn1  1  0.755270  0.414910  0.414910  1.0  0.585
  Zn  Zn2  1  0.356400  0.356400  0.930800  1.0  0.4732
  Zn  Zn3  1  0.356400  0.356400  0.356400  1.0  0.4756
  Zn  Zn4  1  0.414920  0.414910  0.414910  1.0  0.6936
  Zn  Zn5  1  0.356400  0.930800  0.356400  1.0  0.4757
  Zn  Zn6  1  0.414920  0.414910  0.755260  1.0  0.6915
  Zn  Zn7  1  0.930800  0.356400  0.356400  1.0  0.4756
  Zn  Zn8  1  0.414920  0.755260  0.414910  1.0  0.6919
  Zn  Zn9  1  0.585080  0.585090  0.585090  1.0  0.6895
  Zn  Zn10  1  0.643600  0.069200  0.643600  1.0  0.4742
  Zn  Zn11  1  0.643600  0.643600  0.069200  1.0  0.4757
  Zn  Zn12  1  0.585080  0.244740  0.585090  1.0  0.6925
  Zn  Zn13  1  0.585080  0.585090  0.244740  1.0  0.69
  Zn  Zn14  1  0.643600  0.643600  0.643600  1.0  0.4742
  Zn  Zn15  1  0.244730  0.585090  0.585090  1.0  0.591
  Zn  Zn16  1  0.069200  0.643600  0.643600  1.0  0.4674
  H  H17  1  0.034400  0.760200  0.491000  1.0  0.1011
  H  H18  1  0.501200  0.937000  0.763600  1.0  0.127
  H  H19  1  0.940500  0.355100  0.010500  1.0  0.1149
  H  H20  1  0.760200  0.491000  0.034400  1.0  0.1016
  H  H21  1  0.746500  0.662500  0.450500  1.0  0.1127
  H  H22  1  0.945300  0.375100  0.083300  1.0  0.1155
  H  H23  1  0.364500  0.183100  0.942100  1.0  0.1271
  H  H24  1  0.780600  0.943800  0.912400  1.0  0.1312
  H  H25  1  0.363200  0.943800  0.780600  1.0  0.131
  H  H26  1  0.743800  0.240400  0.576200  1.0  0.107
  H  H27  1  0.798200  0.501200  0.763600  1.0  0.127
  H  H28  1  0.942100  0.183100  0.510300  1.0  0.1281
  H  H29  1  0.501200  0.798200  0.937000  1.0  0.1271
  H  H30  1  0.662500  0.450500  0.746500  1.0  0.1133
  H  H31  1  0.183100  0.510300  0.942100  1.0  0.1278
  H  H32  1  0.491000  0.034400  0.760200  1.0  0.1006
  H  H33  1  0.183100  0.364500  0.510300  1.0  0.1271
  H  H34  1  0.763600  0.501200  0.937000  1.0  0.1274
  H  H35  1  0.364500  0.510300  0.183100  1.0  0.1273
  H  H36  1  0.510300  0.183100  0.364500  1.0  0.1266
  H  H37  1  0.746500  0.450500  0.140500  1.0  0.1119
  H  H38  1  0.140500  0.450500  0.662500  1.0  0.1149
  H  H39  1  0.942100  0.510300  0.364500  1.0  0.1269
  H  H40  1  0.034400  0.491000  0.714400  1.0  0.1006
  H  H41  1  0.364500  0.942100  0.510300  1.0  0.1269
  H  H42  1  0.937000  0.501200  0.798200  1.0  0.1269
  H  H43  1  0.798200  0.937000  0.501200  1.0  0.1276
  H  H44  1  0.596300  0.375100  0.945300  1.0  0.1175
  H  H45  1  0.363200  0.912400  0.943800  1.0  0.1316
  H  H46  1  0.714400  0.491000  0.760200  1.0  0.1018
  H  H47  1  0.510300  0.364500  0.942100  1.0  0.1275
  H  H48  1  0.760200  0.034400  0.714400  1.0  0.1
  H  H49  1  0.912400  0.363200  0.780600  1.0  0.1309
  H  H50  1  0.501200  0.763600  0.798200  1.0  0.1268
  H  H51  1  0.450500  0.662500  0.140500  1.0  0.1123
  H  H52  1  0.714400  0.760200  0.034400  1.0  0.1013
  H  H53  1  0.140500  0.662500  0.746500  1.0  0.1137
  H  H54  1  0.363200  0.780600  0.912400  1.0  0.1324
  H  H55  1  0.942100  0.364500  0.183100  1.0  0.1266
  H  H56  1  0.743800  0.576200  0.439600  1.0  0.1058
  H  H57  1  0.943800  0.912400  0.780600  1.0  0.1311
  H  H58  1  0.010500  0.693900  0.940500  1.0  0.1155
  H  H59  1  0.439600  0.576200  0.240400  1.0  0.1066
  H  H60  1  0.693900  0.355100  0.940500  1.0  0.1147
  H  H61  1  0.943800  0.363200  0.912400  1.0  0.1312
  H  H62  1  0.798200  0.763600  0.937000  1.0  0.1267
  H  H63  1  0.083300  0.945300  0.375100  1.0  0.1162
  H  H64  1  0.746500  0.140500  0.662500  1.0  0.1139
  H  H65  1  0.763600  0.937000  0.798200  1.0  0.1267
  H  H66  1  0.780600  0.363200  0.943800  1.0  0.1314
  H  H67  1  0.596300  0.083300  0.375100  1.0  0.1149
  H  H68  1  0.355100  0.940500  0.693900  1.0  0.1136
  H  H69  1  0.743800  0.439600  0.240400  1.0  0.1058
  H  H70  1  0.491000  0.714400  0.034400  1.0  0.1005
  H  H71  1  0.375100  0.083300  0.945300  1.0  0.1172
  H  H72  1  0.010500  0.940500  0.355100  1.0  0.1143
  H  H73  1  0.780600  0.912400  0.363200  1.0  0.1309
  H  H74  1  0.576200  0.240400  0.439600  1.0  0.1069
  H  H75  1  0.240400  0.439600  0.576200  1.0  0.1063
  H  H76  1  0.714400  0.034400  0.491000  1.0  0.1023
  H  H77  1  0.183100  0.942100  0.364500  1.0  0.1278
  H  H78  1  0.760200  0.714400  0.491000  1.0  0.1019
  H  H79  1  0.355100  0.693900  0.010500  1.0  0.1142
  H  H80  1  0.439600  0.743800  0.576200  1.0  0.1064
  H  H81  1  0.240400  0.743800  0.439600  1.0  0.1066
  H  H82  1  0.355100  0.010500  0.940500  1.0  0.1136
  H  H83  1  0.240400  0.576200  0.743800  1.0  0.1061
  H  H84  1  0.083300  0.375100  0.596300  1.0  0.1161
  H  H85  1  0.937000  0.798200  0.763600  1.0  0.1286
  H  H86  1  0.576200  0.743800  0.240400  1.0  0.1073
  H  H87  1  0.662500  0.140500  0.450500  1.0  0.1127
  H  H88  1  0.945300  0.596300  0.375100  1.0  0.1149
  H  H89  1  0.140500  0.746500  0.450500  1.0  0.1129
  H  H90  1  0.596300  0.945300  0.083300  1.0  0.1164
  H  H91  1  0.693900  0.940500  0.010500  1.0  0.1129
  H  H92  1  0.450500  0.746500  0.662500  1.0  0.1123
  H  H93  1  0.943800  0.780600  0.363200  1.0  0.1315
  H  H94  1  0.010500  0.355100  0.693900  1.0  0.1146
  H  H95  1  0.693900  0.010500  0.355100  1.0  0.116
  H  H96  1  0.034400  0.714400  0.760200  1.0  0.1027
  H  H97  1  0.912400  0.780600  0.943800  1.0  0.1304
  H  H98  1  0.375100  0.596300  0.083300  1.0  0.1185
  H  H99  1  0.450500  0.140500  0.746500  1.0  0.1145
  H  H100  1  0.083300  0.596300  0.945300  1.0  0.1148
  H  H101  1  0.375100  0.945300  0.596300  1.0  0.116
  H  H102  1  0.439600  0.240400  0.743800  1.0  0.1067
  H  H103  1  0.937000  0.763600  0.501200  1.0  0.127
  H  H104  1  0.576200  0.439600  0.743800  1.0  0.1072
  H  H105  1  0.662500  0.746500  0.140500  1.0  0.1136
  H  H106  1  0.940500  0.010500  0.693900  1.0  0.1144
  H  H107  1  0.510300  0.942100  0.183100  1.0  0.1275
  H  H108  1  0.763600  0.798200  0.501200  1.0  0.1279
  H  H109  1  0.491000  0.760200  0.714400  1.0  0.1001
  H  H110  1  0.945300  0.083300  0.596300  1.0  0.1149
  H  H111  1  0.912400  0.943800  0.363200  1.0  0.1307
  H  H112  1  0.940500  0.693900  0.355100  1.0  0.1138
  H  H113  1  0.636800  0.087600  0.219400  1.0  0.1309
  H  H114  1  0.859500  0.337500  0.549500  1.0  0.113
  H  H115  1  0.965600  0.285600  0.509000  1.0  0.1026
  H  H116  1  0.256200  0.560400  0.423800  1.0  0.1062
  H  H117  1  0.403700  0.054700  0.624900  1.0  0.1159
  H  H118  1  0.063000  0.201800  0.498800  1.0  0.1287
  H  H119  1  0.916700  0.054700  0.403700  1.0  0.116
  H  H120  1  0.965600  0.239800  0.285600  1.0  0.1006
  H  H121  1  0.054700  0.916700  0.624900  1.0  0.1153
  H  H122  1  0.236400  0.063000  0.498800  1.0  0.128
  H  H123  1  0.087600  0.056200  0.219400  1.0  0.1303
  H  H124  1  0.087600  0.219400  0.636800  1.0  0.1315
  H  H125  1  0.253500  0.549500  0.337500  1.0  0.1128
  H  H126  1  0.560400  0.256200  0.759600  1.0  0.1067
  H  H127  1  0.916700  0.624900  0.054700  1.0  0.1158
  H  H128  1  0.989500  0.644900  0.059500  1.0  0.1151
  H  H129  1  0.253500  0.337500  0.859500  1.0  0.1132
  H  H130  1  0.056200  0.087600  0.636800  1.0  0.1311
  H  H131  1  0.285600  0.509000  0.965600  1.0  0.101
  H  H132  1  0.489700  0.635500  0.816900  1.0  0.1279
  H  H133  1  0.636800  0.219400  0.056200  1.0  0.132
  H  H134  1  0.306100  0.644900  0.989500  1.0  0.1149
  H  H135  1  0.759600  0.560400  0.256200  1.0  0.1062
  H  H136  1  0.337500  0.549500  0.859500  1.0  0.1127
  H  H137  1  0.859500  0.253500  0.337500  1.0  0.1126
  H  H138  1  0.403700  0.624900  0.916700  1.0  0.1176
  H  H139  1  0.759600  0.423800  0.560400  1.0  0.1053
  H  H140  1  0.635500  0.816900  0.489700  1.0  0.1266
  H  H141  1  0.201800  0.236400  0.498800  1.0  0.127
  H  H142  1  0.509000  0.285600  0.239800  1.0  0.1005
  H  H143  1  0.644900  0.059500  0.989500  1.0  0.1136
  H  H144  1  0.423800  0.560400  0.759600  1.0  0.1072
  H  H145  1  0.498800  0.063000  0.201800  1.0  0.1276
  H  H146  1  0.560400  0.423800  0.256200  1.0  0.1066
  H  H147  1  0.624900  0.916700  0.403700  1.0  0.117
  H  H148  1  0.056200  0.636800  0.219400  1.0  0.1315
  H  H149  1  0.759600  0.256200  0.423800  1.0  0.1065
  H  H150  1  0.057900  0.816900  0.635500  1.0  0.1281
  H  H151  1  0.285600  0.239800  0.509000  1.0  0.1012
  H  H152  1  0.054700  0.624900  0.403700  1.0  0.1157
  H  H153  1  0.201800  0.498800  0.063000  1.0  0.1266
  H  H154  1  0.087600  0.636800  0.056200  1.0  0.1312
  H  H155  1  0.306100  0.059500  0.644900  1.0  0.1131
  H  H156  1  0.337500  0.253500  0.549500  1.0  0.1131
  H  H157  1  0.201800  0.063000  0.236400  1.0  0.1269
  H  H158  1  0.624900  0.054700  0.916700  1.0  0.1162
  H  H159  1  0.063000  0.236400  0.201800  1.0  0.1265
  H  H160  1  0.549500  0.859500  0.337500  1.0  0.115
  H  H161  1  0.219400  0.087600  0.056200  1.0  0.1307
  H  H162  1  0.423800  0.256200  0.560400  1.0  0.1074
  H  H163  1  0.560400  0.759600  0.423800  1.0  0.1061
  H  H164  1  0.056200  0.219400  0.087600  1.0  0.1325
  H  H165  1  0.549500  0.253500  0.859500  1.0  0.1122
  H  H166  1  0.644900  0.306100  0.059500  1.0  0.1145
  H  H167  1  0.509000  0.239800  0.965600  1.0  0.1004
  H  H168  1  0.219400  0.636800  0.087600  1.0  0.1311
  H  H169  1  0.236400  0.498800  0.201800  1.0  0.1266
  H  H170  1  0.624900  0.403700  0.054700  1.0  0.1184
  H  H171  1  0.403700  0.916700  0.054700  1.0  0.1147
  H  H172  1  0.239800  0.285600  0.965600  1.0  0.1015
  H  H173  1  0.498800  0.236400  0.063000  1.0  0.1275
  H  H174  1  0.059500  0.306100  0.989500  1.0  0.1137
  H  H175  1  0.989500  0.306100  0.644900  1.0  0.1158
  H  H176  1  0.916700  0.403700  0.624900  1.0  0.1141
  H  H177  1  0.816900  0.057900  0.489700  1.0  0.1277
  H  H178  1  0.219400  0.056200  0.636800  1.0  0.1311
  H  H179  1  0.239800  0.965600  0.509000  1.0  0.1003
  H  H180  1  0.509000  0.965600  0.285600  1.0  0.1006
  H  H181  1  0.989500  0.059500  0.306100  1.0  0.1142
  H  H182  1  0.236400  0.201800  0.063000  1.0  0.1278
  H  H183  1  0.549500  0.337500  0.253500  1.0  0.1128
  H  H184  1  0.635500  0.489700  0.057900  1.0  0.1274
  H  H185  1  0.057900  0.489700  0.816900  1.0  0.1271
  H  H186  1  0.256200  0.759600  0.560400  1.0  0.107
  H  H187  1  0.423800  0.759600  0.256200  1.0  0.1065
  H  H188  1  0.816900  0.489700  0.635500  1.0  0.1277
  H  H189  1  0.489700  0.816900  0.057900  1.0  0.1267
  H  H190  1  0.859500  0.549500  0.253500  1.0  0.1145
  H  H191  1  0.253500  0.859500  0.549500  1.0  0.1145
  H  H192  1  0.644900  0.989500  0.306100  1.0  0.1136
  H  H193  1  0.239800  0.509000  0.285600  1.0  0.1014
  H  H194  1  0.489700  0.057900  0.635500  1.0  0.1273
  H  H195  1  0.054700  0.403700  0.916700  1.0  0.115
  H  H196  1  0.965600  0.509000  0.239800  1.0  0.1001
  H  H197  1  0.063000  0.498800  0.236400  1.0  0.1275
  H  H198  1  0.256200  0.423800  0.759600  1.0  0.1062
  H  H199  1  0.285600  0.965600  0.239800  1.0  0.1027
  H  H200  1  0.337500  0.859500  0.253500  1.0  0.1126
  H  H201  1  0.059500  0.644900  0.306100  1.0  0.1154
  H  H202  1  0.306100  0.989500  0.059500  1.0  0.1162
  H  H203  1  0.636800  0.056200  0.087600  1.0  0.1308
  H  H204  1  0.816900  0.635500  0.057900  1.0  0.1272
  H  H205  1  0.057900  0.635500  0.489700  1.0  0.1266
  H  H206  1  0.059500  0.989500  0.644900  1.0  0.1153
  H  H207  1  0.498800  0.201800  0.236400  1.0  0.1278
  H  H208  1  0.635500  0.057900  0.816900  1.0  0.1265
  C  C209  1  0.593260  0.115140  0.387460  1.0  -0.1072
  C  C210  1  0.716100  0.383700  0.903700  1.0  -0.105
  C  C211  1  0.799200  0.952400  0.778200  1.0  -0.1792
  C  C212  1  0.904140  0.387460  0.115140  1.0  -0.1052
  C  C213  1  0.797560  0.464040  0.010560  1.0  -0.119
  C  C214  1  0.937500  0.767700  0.906100  1.0  -0.1742
  C  C215  1  0.431100  0.915100  0.853100  1.0  0.2258
  C  C216  1  0.841290  0.222730  0.535670  1.0  -0.1469
  C  C217  1  0.640630  0.100970  0.411310  1.0  0.0045
  C  C218  1  0.148990  0.432310  0.632610  1.0  -0.1292
  C  C219  1  0.903700  0.383700  0.996500  1.0  -0.1052
  C  C220  1  0.847720  0.036600  0.695400  1.0  0.0519
  C  C221  1  0.425960  0.784580  0.580500  1.0  0.0081
  C  C222  1  0.388700  0.767700  0.937500  1.0  -0.1793
  C  C223  1  0.800700  0.853100  0.915100  1.0  0.225
  C  C224  1  0.381300  0.174700  0.902700  1.0  -0.0921
  C  C225  1  0.632610  0.148990  0.432310  1.0  -0.1307
  C  C226  1  0.464040  0.010560  0.797560  1.0  -0.1178
  C  C227  1  0.853100  0.431100  0.915100  1.0  0.226
  C  C228  1  0.841290  0.535670  0.400310  1.0  -0.1474
  C  C229  1  0.541300  0.174700  0.381300  1.0  -0.0897
  C  C230  1  0.640630  0.847090  0.100970  1.0  0.0046
  C  C231  1  0.996500  0.383700  0.716100  1.0  -0.1051
  C  C232  1  0.904140  0.593260  0.387460  1.0  -0.1053
  C  C233  1  0.847720  0.695400  0.420280  1.0  0.0521
  C  C234  1  0.535670  0.400310  0.841290  1.0  -0.1473
  C  C235  1  0.115140  0.387460  0.593260  1.0  -0.1051
  C  C236  1  0.208960  0.580500  0.784580  1.0  0.013
  C  C237  1  0.716100  0.903700  0.996500  1.0  -0.104
  C  C238  1  0.387460  0.593260  0.115140  1.0  -0.1062
  C  C239  1  0.839990  0.287630  0.480170  1.0  0.7016
  C  C240  1  0.464040  0.727840  0.010560  1.0  -0.1189
  C  C241  1  0.036600  0.847720  0.420280  1.0  0.0511
  C  C242  1  0.392210  0.480170  0.287630  1.0  0.7012
  C  C243  1  0.847720  0.420280  0.036600  1.0  0.0512
  C  C244  1  0.797560  0.010560  0.727840  1.0  -0.1163
  C  C245  1  0.784580  0.425960  0.208960  1.0  0.0122
  C  C246  1  0.799200  0.778200  0.470200  1.0  -0.1808
  C  C247  1  0.906100  0.767700  0.388700  1.0  -0.1796
  C  C248  1  0.593260  0.387460  0.904140  1.0  -0.1066
  C  C249  1  0.480170  0.839990  0.287630  1.0  0.7007
  C  C250  1  0.381300  0.902700  0.541300  1.0  -0.0937
  C  C251  1  0.387460  0.904140  0.593260  1.0  -0.1099
  C  C252  1  0.222730  0.841290  0.400310  1.0  -0.1494
  C  C253  1  0.470200  0.799200  0.778200  1.0  -0.1818
  C  C254  1  0.287630  0.480170  0.839990  1.0  0.7001
  C  C255  1  0.695400  0.420280  0.847720  1.0  0.0507
  C  C256  1  0.535670  0.841290  0.222730  1.0  -0.1482
  C  C257  1  0.847090  0.100970  0.640630  1.0  0.0059
  C  C258  1  0.786090  0.632610  0.432310  1.0  -0.1277
  C  C259  1  0.904140  0.115140  0.593260  1.0  -0.1063
  C  C260  1  0.432310  0.148990  0.786090  1.0  -0.13
  C  C261  1  0.632610  0.786090  0.148990  1.0  -0.1299
  C  C262  1  0.786090  0.432310  0.148990  1.0  -0.1295
  C  C263  1  0.208960  0.784580  0.425960  1.0  0.0076
  C  C264  1  0.915100  0.800700  0.853100  1.0  0.2263
  C  C265  1  0.767700  0.388700  0.906100  1.0  -0.1755
  C  C266  1  0.400310  0.222730  0.841290  1.0  -0.1496
  C  C267  1  0.388700  0.906100  0.767700  1.0  -0.1803
  C  C268  1  0.411310  0.640630  0.100970  1.0  0.0045
  C  C269  1  0.937500  0.388700  0.767700  1.0  -0.1769
  C  C270  1  0.148990  0.632610  0.786090  1.0  -0.1305
  C  C271  1  0.800700  0.431100  0.853100  1.0  0.2257
  C  C272  1  0.778200  0.952400  0.470200  1.0  -0.1756
  C  C273  1  0.841290  0.400310  0.222730  1.0  -0.1462
  C  C274  1  0.036600  0.695400  0.847720  1.0  0.0514
  C  C275  1  0.727840  0.797560  0.010560  1.0  -0.1198
  C  C276  1  0.535670  0.222730  0.400310  1.0  -0.1485
  C  C277  1  0.716100  0.996500  0.383700  1.0  -0.1072
  C  C278  1  0.383700  0.996500  0.903700  1.0  -0.1043
  C  C279  1  0.010560  0.464040  0.727840  1.0  -0.1214
  C  C280  1  0.420280  0.695400  0.036600  1.0  0.0508
  C  C281  1  0.541300  0.902700  0.174700  1.0  -0.0958
  C  C282  1  0.800700  0.915100  0.431100  1.0  0.226
  C  C283  1  0.727840  0.464040  0.797560  1.0  -0.1204
  C  C284  1  0.480170  0.392210  0.839990  1.0  0.7002
  C  C285  1  0.727840  0.010560  0.464040  1.0  -0.1202
  C  C286  1  0.784580  0.208960  0.580500  1.0  0.0107
  C  C287  1  0.839990  0.480170  0.392210  1.0  0.6992
  C  C288  1  0.425960  0.580500  0.208960  1.0  0.01
  C  C289  1  0.640630  0.411310  0.847090  1.0  0.0041
  C  C290  1  0.902700  0.541300  0.381300  1.0  -0.0932
  C  C291  1  0.580500  0.425960  0.784580  1.0  0.0083
  C  C292  1  0.797560  0.727840  0.464040  1.0  -0.1189
  C  C293  1  0.952400  0.470200  0.778200  1.0  -0.1804
  C  C294  1  0.388700  0.937500  0.906100  1.0  -0.1797
  C  C295  1  0.100970  0.411310  0.640630  1.0  0.0028
  C  C296  1  0.839990  0.392210  0.287630  1.0  0.7018
  C  C297  1  0.222730  0.400310  0.535670  1.0  -0.1473
  C  C298  1  0.287630  0.839990  0.392210  1.0  0.6992
  C  C299  1  0.784580  0.580500  0.425960  1.0  0.0098
  C  C300  1  0.902700  0.381300  0.174700  1.0  -0.0922
  C  C301  1  0.400310  0.535670  0.222730  1.0  -0.1488
  C  C302  1  0.853100  0.800700  0.431100  1.0  0.2267
  C  C303  1  0.383700  0.903700  0.716100  1.0  -0.1035
  C  C304  1  0.996500  0.903700  0.383700  1.0  -0.1052
  C  C305  1  0.915100  0.431100  0.800700  1.0  0.2248
  C  C306  1  0.853100  0.915100  0.800700  1.0  0.2258
  C  C307  1  0.786090  0.148990  0.632610  1.0  -0.1327
  C  C308  1  0.174700  0.381300  0.541300  1.0  -0.0925
  C  C309  1  0.767700  0.906100  0.937500  1.0  -0.1781
  C  C310  1  0.778200  0.799200  0.952400  1.0  -0.1766
  C  C311  1  0.222730  0.535670  0.841290  1.0  -0.1488
  C  C312  1  0.148990  0.786090  0.432310  1.0  -0.1315
  C  C313  1  0.799200  0.470200  0.952400  1.0  -0.1789
  C  C314  1  0.480170  0.287630  0.392210  1.0  0.6995
  C  C315  1  0.847090  0.411310  0.100970  1.0  0.005
  C  C316  1  0.996500  0.716100  0.903700  1.0  -0.106
  C  C317  1  0.847090  0.640630  0.411310  1.0  0.0049
  C  C318  1  0.411310  0.847090  0.640630  1.0  0.0034
  C  C319  1  0.464040  0.797560  0.727840  1.0  -0.1181
  C  C320  1  0.010560  0.797560  0.464040  1.0  -0.1179
  C  C321  1  0.906100  0.937500  0.767700  1.0  -0.1776
  C  C322  1  0.431100  0.800700  0.915100  1.0  0.2266
  C  C323  1  0.695400  0.847720  0.036600  1.0  0.0513
  C  C324  1  0.952400  0.799200  0.470200  1.0  -0.1803
  C  C325  1  0.392210  0.287630  0.839990  1.0  0.7016
  C  C326  1  0.952400  0.778200  0.799200  1.0  -0.1749
  C  C327  1  0.383700  0.716100  0.996500  1.0  -0.104
  C  C328  1  0.174700  0.902700  0.381300  1.0  -0.096
  C  C329  1  0.381300  0.541300  0.174700  1.0  -0.093
  C  C330  1  0.400310  0.841290  0.535670  1.0  -0.149
  C  C331  1  0.937500  0.906100  0.388700  1.0  -0.1773
  C  C332  1  0.036600  0.420280  0.695400  1.0  0.0512
  C  C333  1  0.593260  0.904140  0.115140  1.0  -0.1086
  C  C334  1  0.287630  0.392210  0.480170  1.0  0.6986
  C  C335  1  0.208960  0.425960  0.580500  1.0  0.0113
  C  C336  1  0.115140  0.904140  0.387460  1.0  -0.1091
  C  C337  1  0.432310  0.632610  0.148990  1.0  -0.1297
  C  C338  1  0.392210  0.839990  0.480170  1.0  0.7038
  C  C339  1  0.420280  0.036600  0.847720  1.0  0.0505
  C  C340  1  0.902700  0.174700  0.541300  1.0  -0.0926
  C  C341  1  0.580500  0.208960  0.425960  1.0  0.0093
  C  C342  1  0.432310  0.786090  0.632610  1.0  -0.1296
  C  C343  1  0.420280  0.847720  0.695400  1.0  0.0509
  C  C344  1  0.425960  0.208960  0.784580  1.0  0.007
  C  C345  1  0.541300  0.381300  0.902700  1.0  -0.0932
  C  C346  1  0.767700  0.937500  0.388700  1.0  -0.1728
  C  C347  1  0.174700  0.541300  0.902700  1.0  -0.0927
  C  C348  1  0.411310  0.100970  0.847090  1.0  0.0036
  C  C349  1  0.115140  0.593260  0.904140  1.0  -0.1073
  C  C350  1  0.903700  0.716100  0.383700  1.0  -0.1044
  C  C351  1  0.903700  0.996500  0.716100  1.0  -0.1041
  C  C352  1  0.431100  0.853100  0.800700  1.0  0.2256
  C  C353  1  0.100970  0.847090  0.411310  1.0  0.007
  C  C354  1  0.906100  0.388700  0.937500  1.0  -0.1791
  C  C355  1  0.778200  0.470200  0.799200  1.0  -0.183
  C  C356  1  0.010560  0.727840  0.797560  1.0  -0.1209
  C  C357  1  0.580500  0.784580  0.208960  1.0  0.0072
  C  C358  1  0.695400  0.036600  0.420280  1.0  0.052
  C  C359  1  0.632610  0.432310  0.786090  1.0  -0.1318
  C  C360  1  0.470200  0.952400  0.799200  1.0  -0.1761
  C  C361  1  0.470200  0.778200  0.952400  1.0  -0.1782
  C  C362  1  0.100970  0.640630  0.847090  1.0  0.0066
  C  C363  1  0.387460  0.115140  0.904140  1.0  -0.1073
  C  C364  1  0.915100  0.853100  0.431100  1.0  0.225
  C  C365  1  0.458700  0.618700  0.825300  1.0  -0.0938
  C  C366  1  0.084900  0.199300  0.568900  1.0  0.226
  C  C367  1  0.213910  0.367390  0.851010  1.0  -0.1274
  C  C368  1  0.221800  0.200800  0.529800  1.0  -0.1818
  C  C369  1  0.096300  0.283900  0.003500  1.0  -0.1034
  C  C370  1  0.419500  0.215420  0.574040  1.0  0.0066
  C  C371  1  0.283900  0.003500  0.096300  1.0  -0.106
  C  C372  1  0.519830  0.712370  0.160010  1.0  0.7003
  C  C373  1  0.611300  0.232300  0.093900  1.0  -0.1782
  C  C374  1  0.791040  0.419500  0.574040  1.0  0.0123
  C  C375  1  0.777270  0.599690  0.158710  1.0  -0.1474
  C  C376  1  0.084900  0.146900  0.199300  1.0  0.2255
  C  C377  1  0.047600  0.200800  0.221800  1.0  -0.1808
  C  C378  1  0.535960  0.202440  0.989440  1.0  -0.1174
  C  C379  1  0.588690  0.152910  0.899030  1.0  0.0037
  C  C380  1  0.093900  0.062500  0.611300  1.0  -0.1772
  C  C381  1  0.304600  0.579720  0.963400  1.0  0.0519
  C  C382  1  0.232300  0.093900  0.611300  1.0  -0.1761
  C  C383  1  0.272160  0.202440  0.535960  1.0  -0.1198
  C  C384  1  0.283900  0.096300  0.616300  1.0  -0.1035
  C  C385  1  0.612540  0.095860  0.884860  1.0  -0.1078
  C  C386  1  0.899030  0.588690  0.152910  1.0  0.0048
  C  C387  1  0.607790  0.519830  0.160010  1.0  0.7018
  C  C388  1  0.777270  0.464330  0.599690  1.0  -0.1489
  C  C389  1  0.158710  0.777270  0.599690  1.0  -0.1466
  C  C390  1  0.567690  0.213910  0.851010  1.0  -0.1305
  C  C391  1  0.096300  0.003500  0.616300  1.0  -0.1048
  C  C392  1  0.825300  0.618700  0.097300  1.0  -0.0935
  C  C393  1  0.712370  0.160010  0.519830  1.0  0.6989
  C  C394  1  0.963400  0.152280  0.304600  1.0  0.0506
  C  C395  1  0.406740  0.612540  0.884860  1.0  -0.1059
  C  C396  1  0.152280  0.963400  0.579720  1.0  0.0512
  C  C397  1  0.607790  0.160010  0.712370  1.0  0.7032
  C  C398  1  0.464330  0.777270  0.158710  1.0  -0.1492
  C  C399  1  0.419500  0.574040  0.791040  1.0  0.0079
  C  C400  1  0.096300  0.616300  0.283900  1.0  -0.1057
  C  C401  1  0.003500  0.616300  0.096300  1.0  -0.1054
  C  C402  1  0.304600  0.152280  0.579720  1.0  0.0512
  C  C403  1  0.616300  0.003500  0.283900  1.0  -0.1057
  C  C404  1  0.213910  0.851010  0.567690  1.0  -0.13
  C  C405  1  0.825300  0.458700  0.618700  1.0  -0.0926
  C  C406  1  0.199300  0.084900  0.146900  1.0  0.2252
  C  C407  1  0.599690  0.777270  0.464330  1.0  -0.1491
  C  C408  1  0.612540  0.406740  0.095860  1.0  -0.1063
  C  C409  1  0.283900  0.616300  0.003500  1.0  -0.1052
  C  C410  1  0.221800  0.529800  0.047600  1.0  -0.1812
  C  C411  1  0.618700  0.458700  0.097300  1.0  -0.0939
  C  C412  1  0.160010  0.712370  0.607790  1.0  0.7013
  C  C413  1  0.221800  0.047600  0.200800  1.0  -0.1794
  C  C414  1  0.202440  0.272160  0.989440  1.0  -0.1179
  C  C415  1  0.519830  0.607790  0.712370  1.0  0.7006
  C  C416  1  0.899030  0.359370  0.588690  1.0  0.006
  C  C417  1  0.367390  0.851010  0.213910  1.0  -0.1304
  C  C418  1  0.047600  0.529800  0.200800  1.0  -0.1778
  C  C419  1  0.359370  0.588690  0.899030  1.0  0.0048
  C  C420  1  0.568900  0.199300  0.146900  1.0  0.226
  C  C421  1  0.202440  0.989440  0.535960  1.0  -0.117
  C  C422  1  0.599690  0.158710  0.777270  1.0  -0.148
  C  C423  1  0.359370  0.152910  0.588690  1.0  0.0037
  C  C424  1  0.851010  0.567690  0.213910  1.0  -0.13
  C  C425  1  0.989440  0.272160  0.535960  1.0  -0.1209
  C  C426  1  0.152280  0.579720  0.304600  1.0  0.0514
  C  C427  1  0.152910  0.588690  0.359370  1.0  0.0052
  C  C428  1  0.464330  0.158710  0.599690  1.0  -0.1481
  C  C429  1  0.062500  0.232300  0.611300  1.0  -0.1751
  C  C430  1  0.989440  0.202440  0.272160  1.0  -0.1172
  C  C431  1  0.777270  0.158710  0.464330  1.0  -0.1495
  C  C432  1  0.579720  0.152280  0.963400  1.0  0.0513
  C  C433  1  0.607790  0.712370  0.519830  1.0  0.7017
  C  C434  1  0.047600  0.221800  0.529800  1.0  -0.1759
  C  C435  1  0.304600  0.963400  0.152280  1.0  0.0519
  C  C436  1  0.588690  0.899030  0.359370  1.0  0.0039
  C  C437  1  0.458700  0.825300  0.097300  1.0  -0.0922
  C  C438  1  0.825300  0.097300  0.458700  1.0  -0.0948
  C  C439  1  0.003500  0.283900  0.616300  1.0  -0.1063
  C  C440  1  0.095860  0.612540  0.406740  1.0  -0.1048
  C  C441  1  0.199300  0.568900  0.084900  1.0  0.225
  C  C442  1  0.367390  0.567690  0.851010  1.0  -0.1308
  C  C443  1  0.588690  0.359370  0.152910  1.0  0.0041
  C  C444  1  0.200800  0.221800  0.047600  1.0  -0.1767
  C  C445  1  0.160010  0.607790  0.519830  1.0  0.7022
  C  C446  1  0.202440  0.535960  0.272160  1.0  -0.12
  C  C447  1  0.215420  0.419500  0.791040  1.0  0.0114
  C  C448  1  0.611300  0.093900  0.062500  1.0  -0.1784
  C  C449  1  0.200800  0.047600  0.529800  1.0  -0.1827
  C  C450  1  0.232300  0.611300  0.062500  1.0  -0.1773
  C  C451  1  0.215420  0.574040  0.419500  1.0  0.0132
  C  C452  1  0.574040  0.419500  0.215420  1.0  0.0095
  C  C453  1  0.200800  0.529800  0.221800  1.0  -0.178
  C  C454  1  0.232300  0.062500  0.093900  1.0  -0.1724
  C  C455  1  0.612540  0.884860  0.406740  1.0  -0.1071
  C  C456  1  0.146900  0.568900  0.199300  1.0  0.2263
  C  C457  1  0.160010  0.519830  0.712370  1.0  0.6995
  C  C458  1  0.152910  0.359370  0.899030  1.0  0.0042
  C  C459  1  0.458700  0.097300  0.618700  1.0  -0.0953
  C  C460  1  0.567690  0.851010  0.367390  1.0  -0.1291
  C  C461  1  0.574040  0.215420  0.791040  1.0  0.0084
  C  C462  1  0.367390  0.213910  0.567690  1.0  -0.129
  C  C463  1  0.093900  0.232300  0.062500  1.0  -0.1805
  C  C464  1  0.213910  0.567690  0.367390  1.0  -0.1304
  C  C465  1  0.406740  0.095860  0.612540  1.0  -0.1088
  C  C466  1  0.084900  0.568900  0.146900  1.0  0.2258
  C  C467  1  0.062500  0.093900  0.232300  1.0  -0.1765
  C  C468  1  0.618700  0.097300  0.825300  1.0  -0.0945
  C  C469  1  0.095860  0.406740  0.884860  1.0  -0.1061
  C  C470  1  0.963400  0.304600  0.579720  1.0  0.0512
  C  C471  1  0.359370  0.899030  0.152910  1.0  0.0045
  C  C472  1  0.406740  0.884860  0.095860  1.0  -0.107
  C  C473  1  0.884860  0.406740  0.612540  1.0  -0.1073
  C  C474  1  0.093900  0.611300  0.232300  1.0  -0.1798
  C  C475  1  0.568900  0.084900  0.199300  1.0  0.2263
  C  C476  1  0.158710  0.464330  0.777270  1.0  -0.147
  C  C477  1  0.712370  0.607790  0.160010  1.0  0.6989
  C  C478  1  0.899030  0.152910  0.359370  1.0  0.0068
  C  C479  1  0.963400  0.579720  0.152280  1.0  0.0518
  C  C480  1  0.464330  0.599690  0.777270  1.0  -0.1486
  C  C481  1  0.419500  0.791040  0.215420  1.0  0.0089
  C  C482  1  0.535960  0.272160  0.202440  1.0  -0.1177
  C  C483  1  0.989440  0.535960  0.202440  1.0  -0.1193
  C  C484  1  0.618700  0.825300  0.458700  1.0  -0.0924
  C  C485  1  0.199300  0.146900  0.568900  1.0  0.2249
  C  C486  1  0.062500  0.611300  0.093900  1.0  -0.1779
  C  C487  1  0.791040  0.574040  0.215420  1.0  0.0101
  C  C488  1  0.158710  0.599690  0.464330  1.0  -0.1477
  C  C489  1  0.272160  0.535960  0.989440  1.0  -0.1194
  C  C490  1  0.095860  0.884860  0.612540  1.0  -0.1057
  C  C491  1  0.568900  0.146900  0.084900  1.0  0.2257
  C  C492  1  0.146900  0.199300  0.084900  1.0  0.2264
  C  C493  1  0.152280  0.304600  0.963400  1.0  0.0516
  C  C494  1  0.884860  0.612540  0.095860  1.0  -0.1056
  C  C495  1  0.097300  0.825300  0.618700  1.0  -0.0915
  C  C496  1  0.529800  0.221800  0.200800  1.0  -0.181
  C  C497  1  0.152910  0.899030  0.588690  1.0  0.0059
  C  C498  1  0.097300  0.618700  0.458700  1.0  -0.0908
  C  C499  1  0.851010  0.367390  0.567690  1.0  -0.1304
  C  C500  1  0.884860  0.095860  0.406740  1.0  -0.1092
  C  C501  1  0.003500  0.096300  0.283900  1.0  -0.1037
  C  C502  1  0.599690  0.464330  0.158710  1.0  -0.1481
  C  C503  1  0.579720  0.963400  0.304600  1.0  0.0519
  C  C504  1  0.146900  0.084900  0.568900  1.0  0.226
  C  C505  1  0.529800  0.047600  0.221800  1.0  -0.1808
  C  C506  1  0.611300  0.062500  0.232300  1.0  -0.1772
  C  C507  1  0.616300  0.283900  0.096300  1.0  -0.1037
  C  C508  1  0.567690  0.367390  0.213910  1.0  -0.1306
  C  C509  1  0.712370  0.519830  0.607790  1.0  0.6992
  C  C510  1  0.851010  0.213910  0.367390  1.0  -0.1311
  C  C511  1  0.579720  0.304600  0.152280  1.0  0.0514
  C  C512  1  0.791040  0.215420  0.419500  1.0  0.0067
  C  C513  1  0.574040  0.791040  0.419500  1.0  0.0074
  C  C514  1  0.535960  0.989440  0.272160  1.0  -0.1181
  C  C515  1  0.616300  0.096300  0.003500  1.0  -0.104
  C  C516  1  0.097300  0.458700  0.825300  1.0  -0.0912
  C  C517  1  0.529800  0.200800  0.047600  1.0  -0.1819
  C  C518  1  0.272160  0.989440  0.202440  1.0  -0.1203
  C  C519  1  0.215420  0.791040  0.574040  1.0  0.0105
  C  C520  1  0.519830  0.160010  0.607790  1.0  0.6999
  N  N521  1  0.854000  0.854000  0.854000  1.0  -0.1236
  N  N522  1  0.854000  0.438000  0.854000  1.0  -0.1239
  N  N523  1  0.438000  0.854000  0.854000  1.0  -0.1217
  N  N524  1  0.854000  0.854000  0.438000  1.0  -0.1243
  N  N525  1  0.146000  0.562000  0.146000  1.0  -0.1242
  N  N526  1  0.146000  0.146000  0.562000  1.0  -0.1229
  N  N527  1  0.146000  0.146000  0.146000  1.0  -0.1239
  N  N528  1  0.562000  0.146000  0.146000  1.0  -0.1231
  O  O529  1  0.370230  0.893570  0.441630  1.0  -0.6025
  O  O530  1  0.783350  0.327510  0.477790  1.0  -0.6099
  O  O531  1  0.294570  0.893570  0.370230  1.0  -0.6043
  O  O532  1  0.893570  0.294570  0.441630  1.0  -0.6009
  O  O533  1  0.327510  0.783350  0.411350  1.0  -0.6047
  O  O534  1  0.783350  0.477790  0.411350  1.0  -0.6133
  O  O535  1  0.477790  0.411350  0.783350  1.0  -0.6101
  O  O536  1  0.783350  0.411350  0.327510  1.0  -0.6113
  O  O537  1  0.411350  0.477790  0.327510  1.0  -0.6083
  O  O538  1  0.370230  0.441630  0.294570  1.0  -0.6008
  O  O539  1  0.294570  0.441630  0.893570  1.0  -0.6017
  O  O540  1  0.893570  0.370230  0.294570  1.0  -0.6011
  O  O541  1  0.893570  0.441630  0.370230  1.0  -0.5992
  O  O542  1  0.441630  0.370230  0.893570  1.0  -0.5988
  O  O543  1  0.411350  0.327510  0.783350  1.0  -0.608
  O  O544  1  0.441630  0.893570  0.294570  1.0  -0.6045
  O  O545  1  0.370230  0.294570  0.893570  1.0  -0.6024
  O  O546  1  0.411350  0.783350  0.477790  1.0  -0.6064
  O  O547  1  0.477790  0.783350  0.327510  1.0  -0.6051
  O  O548  1  0.327510  0.477790  0.783350  1.0  -0.6094
  O  O549  1  0.327510  0.411350  0.477790  1.0  -0.6094
  O  O550  1  0.441630  0.294570  0.370230  1.0  -0.5989
  O  O551  1  0.294570  0.370230  0.441630  1.0  -0.6006
  O  O552  1  0.477790  0.327510  0.411350  1.0  -0.6098
  O  O553  1  0.705430  0.558370  0.629770  1.0  -0.6021
  O  O554  1  0.106430  0.558370  0.705430  1.0  -0.5998
  O  O555  1  0.672490  0.522210  0.588650  1.0  -0.6097
  O  O556  1  0.558370  0.705430  0.106430  1.0  -0.5986
  O  O557  1  0.705430  0.106430  0.558370  1.0  -0.6029
  O  O558  1  0.558370  0.629770  0.705430  1.0  -0.5987
  O  O559  1  0.522210  0.216650  0.588650  1.0  -0.6046
  O  O560  1  0.705430  0.629770  0.106430  1.0  -0.601
  O  O561  1  0.672490  0.216650  0.522210  1.0  -0.6058
  O  O562  1  0.106430  0.629770  0.558370  1.0  -0.601
  O  O563  1  0.216650  0.588650  0.522210  1.0  -0.6055
  O  O564  1  0.216650  0.522210  0.672490  1.0  -0.6071
  O  O565  1  0.672490  0.588650  0.216650  1.0  -0.6085
  O  O566  1  0.629770  0.705430  0.558370  1.0  -0.6018
  O  O567  1  0.216650  0.672490  0.588650  1.0  -0.6076
  O  O568  1  0.629770  0.106430  0.705430  1.0  -0.6016
  O  O569  1  0.588650  0.216650  0.672490  1.0  -0.6049
  O  O570  1  0.588650  0.522210  0.216650  1.0  -0.6095
  O  O571  1  0.588650  0.672490  0.522210  1.0  -0.6067
  O  O572  1  0.558370  0.106430  0.629770  1.0  -0.6023
  O  O573  1  0.522210  0.672490  0.216650  1.0  -0.6108
  O  O574  1  0.629770  0.558370  0.106430  1.0  -0.6009
  O  O575  1  0.522210  0.588650  0.672490  1.0  -0.608
  O  O576  1  0.106430  0.705430  0.629770  1.0  -0.6025
