# generated using pymatgen
data_Zn3H40C60(N3O4)3
_symmetry_space_group_name_H-M   'P 1'
_cell_length_a   17.04740000
_cell_length_b   17.04740000
_cell_length_c   32.58800000
_cell_angle_alpha   94.14210000
_cell_angle_beta   94.14210000
_cell_angle_gamma   107.55500000
_symmetry_Int_Tables_number   1
_chemical_formula_structural   Zn3H40C60(N3O4)3
_chemical_formula_sum   'Zn12 H160 C240 N36 O48'
_cell_volume   8961.75320871
_cell_formula_units_Z   4
loop_
 _symmetry_equiv_pos_site_id
 _symmetry_equiv_pos_as_xyz
  1  'x, y, z'
loop_
 _atom_site_type_symbol
 _atom_site_label
 _atom_site_symmetry_multiplicity
 _atom_site_fract_x
 _atom_site_fract_y
 _atom_site_fract_z
 _atom_site_occupancy
 _atom_site_charge
  Zn  Zn1  1  0.220350  0.245790  0.375700  1.0  0.9172
  Zn  Zn2  1  0.253120  0.236680  0.967010  1.0  0.9335
  Zn  Zn3  1  0.236680  0.253120  0.467010  1.0  0.9341
  Zn  Zn4  1  0.245790  0.220350  0.875700  1.0  0.9185
  Zn  Zn5  1  0.763320  0.746880  0.532990  1.0  0.9337
  Zn  Zn6  1  0.754210  0.779650  0.124300  1.0  0.9197
  Zn  Zn7  1  0.779650  0.754210  0.624300  1.0  0.9187
  Zn  Zn8  1  0.746880  0.763320  0.032990  1.0  0.9332
  Zn  Zn9  1  0.468470  0.522170  0.703650  1.0  0.9186
  Zn  Zn10  1  0.522170  0.468470  0.203650  1.0  0.918
  Zn  Zn11  1  0.531530  0.477830  0.296350  1.0  0.9187
  Zn  Zn12  1  0.477830  0.531530  0.796350  1.0  0.9168
  H  H13  1  0.086800  0.226400  0.231700  1.0  0.1401
  H  H14  1  0.334100  0.253100  0.309800  1.0  0.0995
  H  H15  1  0.262400  0.492600  0.980900  1.0  0.1275
  H  H16  1  0.991100  0.241700  0.482000  1.0  0.1163
  H  H17  1  0.841200  0.171600  0.852200  1.0  0.1289
  H  H18  1  0.320800  0.246200  0.174000  1.0  0.1149
  H  H19  1  0.960200  0.230400  0.357100  1.0  0.1169
  H  H20  1  0.479500  0.293700  0.359100  1.0  0.099
  H  H21  1  0.266800  0.154200  0.605300  1.0  0.1165
  H  H22  1  0.256300  0.725100  0.959200  1.0  0.212
  H  H23  1  0.223900  0.497900  0.369300  1.0  0.1009
  H  H24  1  0.274000  0.743800  0.881800  1.0  0.2609
  H  H25  1  0.983500  0.180700  0.855800  1.0  0.1126
  H  H26  1  0.250900  0.331500  0.739500  1.0  0.1015
  H  H27  1  0.217300  0.999900  0.479400  1.0  0.1152
  H  H28  1  0.614700  0.300500  0.356800  1.0  0.1218
  H  H29  1  0.208700  0.365900  0.607500  1.0  0.1211
  H  H30  1  0.222000  0.638000  0.497300  1.0  0.0984
  H  H31  1  0.255200  0.629800  0.976600  1.0  0.1257
  H  H32  1  0.638000  0.222000  0.997300  1.0  0.0978
  H  H33  1  0.217200  0.862000  0.475800  1.0  0.1029
  H  H34  1  0.240700  0.508100  0.494400  1.0  0.1094
  H  H35  1  0.359300  0.209500  0.036900  1.0  0.0899
  H  H36  1  0.206600  0.627000  0.372400  1.0  0.1156
  H  H37  1  0.725100  0.256300  0.459200  1.0  0.2108
  H  H38  1  0.240700  0.825500  0.860900  1.0  0.1143
  H  H39  1  0.743800  0.274000  0.381800  1.0  0.2602
  H  H40  1  0.230400  0.960200  0.857100  1.0  0.1168
  H  H41  1  0.300500  0.614700  0.856800  1.0  0.1215
  H  H42  1  0.209500  0.359300  0.536900  1.0  0.0911
  H  H43  1  0.825500  0.240700  0.360900  1.0  0.1153
  H  H44  1  0.275200  0.155000  0.535500  1.0  0.1106
  H  H45  1  0.365900  0.208700  0.107500  1.0  0.1217
  H  H46  1  0.861700  0.255300  0.486500  1.0  0.1112
  H  H47  1  0.492600  0.262400  0.480900  1.0  0.1286
  H  H48  1  0.180700  0.983500  0.355800  1.0  0.1122
  H  H49  1  0.331500  0.250900  0.239500  1.0  0.1015
  H  H50  1  0.171600  0.841200  0.352200  1.0  0.1292
  H  H51  1  0.224500  0.094100  0.802800  1.0  0.0965
  H  H52  1  0.241700  0.991100  0.982000  1.0  0.1161
  H  H53  1  0.508100  0.240700  0.994400  1.0  0.109
  H  H54  1  0.999900  0.217300  0.979400  1.0  0.1158
  H  H55  1  0.629800  0.255200  0.476600  1.0  0.1263
  H  H56  1  0.862000  0.217200  0.975800  1.0  0.1035
  H  H57  1  0.246200  0.320800  0.674000  1.0  0.116
  H  H58  1  0.153000  0.235600  0.167900  1.0  0.0996
  H  H59  1  0.293700  0.479500  0.859100  1.0  0.0991
  H  H60  1  0.094100  0.224500  0.302800  1.0  0.0966
  H  H61  1  0.497900  0.223900  0.869300  1.0  0.1019
  H  H62  1  0.154200  0.266800  0.105300  1.0  0.1166
  H  H63  1  0.235600  0.153000  0.667900  1.0  0.0965
  H  H64  1  0.255300  0.861700  0.986500  1.0  0.1106
  H  H65  1  0.627000  0.206600  0.872400  1.0  0.1157
  H  H66  1  0.226400  0.086800  0.731700  1.0  0.1388
  H  H67  1  0.155000  0.275200  0.035500  1.0  0.1098
  H  H68  1  0.253100  0.334100  0.809800  1.0  0.1003
  H  H69  1  0.769600  0.039800  0.142900  1.0  0.1172
  H  H70  1  0.016500  0.819300  0.144200  1.0  0.1128
  H  H71  1  0.746900  0.665900  0.190200  1.0  0.1014
  H  H72  1  0.793400  0.373000  0.627600  1.0  0.1154
  H  H73  1  0.733200  0.845800  0.394700  1.0  0.1161
  H  H74  1  0.759300  0.174500  0.139100  1.0  0.1149
  H  H75  1  0.847000  0.764400  0.832100  1.0  0.0978
  H  H76  1  0.905900  0.775500  0.697200  1.0  0.0974
  H  H77  1  0.370200  0.744800  0.523400  1.0  0.124
  H  H78  1  0.724800  0.845000  0.464500  1.0  0.1106
  H  H79  1  0.039800  0.769600  0.642900  1.0  0.1173
  H  H80  1  0.362000  0.778000  0.002700  1.0  0.0984
  H  H81  1  0.845800  0.733200  0.894700  1.0  0.1169
  H  H82  1  0.776100  0.502100  0.630700  1.0  0.1013
  H  H83  1  0.679200  0.753800  0.826000  1.0  0.1139
  H  H84  1  0.913200  0.773600  0.768300  1.0  0.1402
  H  H85  1  0.775500  0.905900  0.197200  1.0  0.0966
  H  H86  1  0.744700  0.138300  0.013500  1.0  0.1109
  H  H87  1  0.764400  0.847000  0.332100  1.0  0.0966
  H  H88  1  0.274900  0.743700  0.540800  1.0  0.2116
  H  H89  1  0.791300  0.634100  0.392500  1.0  0.1212
  H  H90  1  0.828400  0.158800  0.647800  1.0  0.1295
  H  H91  1  0.174500  0.759300  0.639100  1.0  0.1155
  H  H92  1  0.744800  0.370200  0.023400  1.0  0.1235
  H  H93  1  0.782800  0.138000  0.524200  1.0  0.1031
  H  H94  1  0.758300  0.008900  0.018000  1.0  0.1163
  H  H95  1  0.158800  0.828400  0.147800  1.0  0.1297
  H  H96  1  0.008900  0.758300  0.518000  1.0  0.1163
  H  H97  1  0.819300  0.016500  0.644200  1.0  0.1131
  H  H98  1  0.782700  0.000100  0.520600  1.0  0.1152
  H  H99  1  0.640700  0.790500  0.963100  1.0  0.0903
  H  H100  1  0.138300  0.744700  0.513500  1.0  0.1113
  H  H101  1  0.665900  0.746900  0.690200  1.0  0.0991
  H  H102  1  0.773600  0.913200  0.268300  1.0  0.1393
  H  H103  1  0.668500  0.749100  0.760500  1.0  0.1009
  H  H104  1  0.634100  0.791300  0.892500  1.0  0.1218
  H  H105  1  0.790500  0.640700  0.463100  1.0  0.0907
  H  H106  1  0.699500  0.385300  0.143200  1.0  0.1207
  H  H107  1  0.726000  0.256200  0.118200  1.0  0.2615
  H  H108  1  0.000100  0.782700  0.020600  1.0  0.1156
  H  H109  1  0.138000  0.782800  0.024200  1.0  0.1035
  H  H110  1  0.778000  0.362000  0.502700  1.0  0.0983
  H  H111  1  0.845000  0.724800  0.964500  1.0  0.1109
  H  H112  1  0.753800  0.679200  0.326000  1.0  0.1158
  H  H113  1  0.706300  0.520500  0.140900  1.0  0.0993
  H  H114  1  0.256200  0.726000  0.618200  1.0  0.2609
  H  H115  1  0.385300  0.699500  0.643200  1.0  0.121
  H  H116  1  0.373000  0.793400  0.127600  1.0  0.1152
  H  H117  1  0.507400  0.737600  0.519100  1.0  0.1285
  H  H118  1  0.759300  0.491900  0.505600  1.0  0.1084
  H  H119  1  0.737600  0.507400  0.019100  1.0  0.1273
  H  H120  1  0.491900  0.759300  0.005600  1.0  0.1083
  H  H121  1  0.743700  0.274900  0.040800  1.0  0.2132
  H  H122  1  0.520500  0.706300  0.640900  1.0  0.0998
  H  H123  1  0.502100  0.776100  0.130700  1.0  0.1021
  H  H124  1  0.749100  0.668500  0.260500  1.0  0.1017
  H  H125  1  0.550300  0.736700  0.315100  1.0  0.0991
  H  H126  1  0.524300  0.222300  0.299000  1.0  0.0878
  H  H127  1  0.348000  0.486000  0.559000  1.0  0.0927
  H  H128  1  0.909400  0.464000  0.204500  1.0  0.1183
  H  H129  1  0.514000  0.652000  0.941000  1.0  0.0922
  H  H130  1  0.918100  0.481100  0.328300  1.0  0.1208
  H  H131  1  0.081900  0.518900  0.671700  1.0  0.1217
  H  H132  1  0.475700  0.777700  0.701000  1.0  0.087
  H  H133  1  0.263300  0.449700  0.184900  1.0  0.1007
  H  H134  1  0.507400  0.212800  0.176200  1.0  0.09
  H  H135  1  0.868500  0.543900  0.817500  1.0  0.1267
  H  H136  1  0.406200  0.467800  0.430400  1.0  0.1157
  H  H137  1  0.449700  0.263300  0.684900  1.0  0.099
  H  H138  1  0.518900  0.081900  0.171700  1.0  0.1204
  H  H139  1  0.464000  0.909400  0.704500  1.0  0.118
  H  H140  1  0.864600  0.557200  0.694400  1.0  0.1145
  H  H141  1  0.648700  0.496300  0.371400  1.0  0.0781
  H  H142  1  0.652000  0.514000  0.441000  1.0  0.0926
  H  H143  1  0.503700  0.351300  0.128600  1.0  0.0772
  H  H144  1  0.543900  0.868500  0.317500  1.0  0.1263
  H  H145  1  0.270600  0.441400  0.308300  1.0  0.0991
  H  H146  1  0.351300  0.503700  0.628600  1.0  0.0767
  H  H147  1  0.481100  0.918100  0.828300  1.0  0.1208
  H  H148  1  0.410800  0.463000  0.359000  1.0  0.0823
  H  H149  1  0.135400  0.442800  0.305600  1.0  0.1147
  H  H150  1  0.532200  0.593800  0.069600  1.0  0.1172
  H  H151  1  0.777700  0.475700  0.201000  1.0  0.0891
  H  H152  1  0.729400  0.558600  0.691700  1.0  0.0989
  H  H153  1  0.558600  0.729400  0.191700  1.0  0.0994
  H  H154  1  0.736700  0.550300  0.815100  1.0  0.1002
  H  H155  1  0.131500  0.456100  0.182500  1.0  0.1254
  H  H156  1  0.557200  0.864600  0.194400  1.0  0.1144
  H  H157  1  0.589200  0.537000  0.641000  1.0  0.0822
  H  H158  1  0.536000  0.090600  0.295500  1.0  0.1177
  H  H159  1  0.212800  0.507400  0.676200  1.0  0.0901
  H  H160  1  0.486000  0.348000  0.059000  1.0  0.0926
  H  H161  1  0.787200  0.492600  0.323800  1.0  0.0913
  H  H162  1  0.456100  0.131500  0.682500  1.0  0.1265
  H  H163  1  0.537000  0.589200  0.141000  1.0  0.0837
  H  H164  1  0.463000  0.410800  0.859000  1.0  0.0848
  H  H165  1  0.467800  0.406200  0.930400  1.0  0.1164
  H  H166  1  0.442800  0.135400  0.805600  1.0  0.1151
  H  H167  1  0.441400  0.270600  0.808300  1.0  0.0992
  H  H168  1  0.492600  0.787200  0.823800  1.0  0.0899
  H  H169  1  0.222300  0.524300  0.799000  1.0  0.0891
  H  H170  1  0.593800  0.532200  0.569600  1.0  0.1161
  H  H171  1  0.090600  0.536000  0.795500  1.0  0.1178
  H  H172  1  0.496300  0.648700  0.871400  1.0  0.0775
  C  C173  1  0.270250  0.383590  0.920600  1.0  0.6684
  C  C174  1  0.233250  0.532390  0.469590  1.0  -0.0472
  C  C175  1  0.209680  0.886520  0.451130  1.0  -0.0457
  C  C176  1  0.957740  0.243060  0.457600  1.0  -0.0669
  C  C177  1  0.231740  0.137860  0.747150  1.0  -0.1868
  C  C178  1  0.246810  0.281950  0.752050  1.0  -0.1502
  C  C179  1  0.526350  0.223450  0.895420  1.0  0.0128
  C  C180  1  0.968480  0.209920  0.953380  1.0  -0.0446
  C  C181  1  0.264050  0.598750  0.952970  1.0  -0.12
  C  C182  1  0.317420  0.222180  0.051270  1.0  0.1584
  C  C183  1  0.832130  0.249670  0.424400  1.0  0.0616
  C  C184  1  0.383590  0.270250  0.420600  1.0  0.6642
  C  C185  1  0.137860  0.231740  0.247150  1.0  -0.1985
  C  C186  1  0.143060  0.231540  0.289390  1.0  0.1638
  C  C187  1  0.206150  0.094030  0.419900  1.0  0.7026
  C  C188  1  0.598750  0.264050  0.452970  1.0  -0.1196
  C  C189  1  0.250070  0.881530  0.960230  1.0  -0.1666
  C  C190  1  0.231540  0.143060  0.789390  1.0  0.1667
  C  C191  1  0.213560  0.602640  0.397160  1.0  -0.061
  C  C192  1  0.198850  0.841150  0.413630  1.0  0.2384
  C  C193  1  0.237720  0.987680  0.919010  1.0  -0.1159
  C  C194  1  0.645140  0.213460  0.935400  1.0  0.122
  C  C195  1  0.510400  0.286600  0.383250  1.0  -0.0767
  C  C196  1  0.322170  0.222630  0.093160  1.0  -0.172
  C  C197  1  0.602640  0.213560  0.897160  1.0  -0.0608
  C  C198  1  0.197170  0.259630  0.050310  1.0  0.1134
  C  C199  1  0.209920  0.968480  0.453380  1.0  -0.0444
  C  C200  1  0.257820  0.198580  0.591710  1.0  -0.1842
  C  C201  1  0.289080  0.588920  0.881540  1.0  -0.1458
  C  C202  1  0.841150  0.198850  0.913630  1.0  0.2378
  C  C203  1  0.516650  0.266150  0.455440  1.0  -0.0624
  C  C204  1  0.958500  0.187100  0.880470  1.0  -0.0551
  C  C205  1  0.240100  0.210880  0.727370  1.0  0.0919
  C  C206  1  0.404470  0.241550  0.928800  1.0  0.6914
  C  C207  1  0.213460  0.645140  0.435400  1.0  0.1203
  C  C208  1  0.241550  0.404470  0.428800  1.0  0.6927
  C  C209  1  0.241820  0.859980  0.885370  1.0  -0.1516
  C  C210  1  0.198580  0.257820  0.091710  1.0  -0.1815
  C  C211  1  0.609310  0.222810  0.971300  1.0  -0.1364
  C  C212  1  0.987680  0.237720  0.419010  1.0  -0.1141
  C  C213  1  0.073220  0.234420  0.416810  1.0  0.7139
  C  C214  1  0.243250  0.269150  0.659860  1.0  -0.1876
  C  C215  1  0.243060  0.957740  0.957600  1.0  -0.0678
  C  C216  1  0.286600  0.510400  0.883250  1.0  -0.0747
  C  C217  1  0.187100  0.958500  0.380470  1.0  -0.0554
  C  C218  1  0.232850  0.489750  0.431050  1.0  -0.1446
  C  C219  1  0.939670  0.235730  0.383120  1.0  -0.0412
  C  C220  1  0.222810  0.609310  0.471300  1.0  -0.139
  C  C221  1  0.263290  0.243310  0.114880  1.0  0.1358
  C  C222  1  0.247700  0.283500  0.793880  1.0  0.1523
  C  C223  1  0.269150  0.243250  0.159860  1.0  -0.1867
  C  C224  1  0.283500  0.247700  0.293880  1.0  0.1555
  C  C225  1  0.588920  0.289080  0.381540  1.0  -0.1481
  C  C226  1  0.473000  0.274020  0.419330  1.0  -0.12
  C  C227  1  0.274740  0.632660  0.916390  1.0  0.032
  C  C228  1  0.881530  0.250070  0.460230  1.0  -0.1696
  C  C229  1  0.223450  0.526350  0.395420  1.0  0.0108
  C  C230  1  0.222630  0.322170  0.593160  1.0  -0.173
  C  C231  1  0.874120  0.183880  0.878060  1.0  -0.1962
  C  C232  1  0.266150  0.516650  0.955440  1.0  -0.0572
  C  C233  1  0.234420  0.073220  0.916810  1.0  0.7148
  C  C234  1  0.210880  0.240100  0.227370  1.0  0.0951
  C  C235  1  0.239180  0.204820  0.682120  1.0  -0.1782
  C  C236  1  0.235730  0.939670  0.883120  1.0  -0.0397
  C  C237  1  0.259630  0.197170  0.550310  1.0  0.1079
  C  C238  1  0.249670  0.832130  0.924400  1.0  0.0628
  C  C239  1  0.243310  0.263290  0.614880  1.0  0.1359
  C  C240  1  0.489750  0.232850  0.931050  1.0  -0.1463
  C  C241  1  0.532390  0.233250  0.969590  1.0  -0.0454
  C  C242  1  0.281950  0.246810  0.252050  1.0  -0.1506
  C  C243  1  0.886520  0.209680  0.951130  1.0  -0.0449
  C  C244  1  0.859980  0.241820  0.385370  1.0  -0.1526
  C  C245  1  0.183880  0.874120  0.378060  1.0  -0.1953
  C  C246  1  0.003400  0.199180  0.917470  1.0  -0.0887
  C  C247  1  0.274020  0.473000  0.919330  1.0  -0.1197
  C  C248  1  0.632660  0.274740  0.416390  1.0  0.0324
  C  C249  1  0.222180  0.317420  0.551270  1.0  0.159
  C  C250  1  0.204820  0.239180  0.182120  1.0  -0.18
  C  C251  1  0.094030  0.206150  0.919900  1.0  0.7033
  C  C252  1  0.199180  0.003400  0.417470  1.0  -0.0906
  C  C253  1  0.756750  0.730850  0.340140  1.0  -0.1862
  C  C254  1  0.367340  0.725260  0.583610  1.0  0.0289
  C  C255  1  0.996600  0.800820  0.082530  1.0  -0.0928
  C  C256  1  0.752300  0.716500  0.206120  1.0  0.1552
  C  C257  1  0.762280  0.012320  0.080990  1.0  -0.1155
  C  C258  1  0.768460  0.856940  0.210610  1.0  0.168
  C  C259  1  0.765580  0.926780  0.083190  1.0  0.7151
  C  C260  1  0.041500  0.812900  0.119530  1.0  -0.0558
  C  C261  1  0.750330  0.167870  0.075600  1.0  0.0621
  C  C262  1  0.766750  0.467610  0.530410  1.0  -0.0467
  C  C263  1  0.354860  0.786540  0.064600  1.0  0.121
  C  C264  1  0.749930  0.118470  0.039770  1.0  -0.1664
  C  C265  1  0.801150  0.158850  0.586370  1.0  0.2394
  C  C266  1  0.042260  0.756940  0.542400  1.0  -0.0677
  C  C267  1  0.060330  0.764270  0.616880  1.0  -0.0438
  C  C268  1  0.862140  0.768260  0.752850  1.0  -0.1882
  C  C269  1  0.768260  0.862140  0.252850  1.0  -0.1848
  C  C270  1  0.756940  0.042260  0.042400  1.0  -0.0668
  C  C271  1  0.473650  0.776550  0.104580  1.0  0.0126
  C  C272  1  0.800820  0.996600  0.582530  1.0  -0.091
  C  C273  1  0.795180  0.760820  0.817880  1.0  -0.1796
  C  C274  1  0.031520  0.790080  0.046620  1.0  -0.0461
  C  C275  1  0.725980  0.527000  0.080670  1.0  -0.1187
  C  C276  1  0.786540  0.354860  0.564600  1.0  0.1199
  C  C277  1  0.710920  0.411080  0.118460  1.0  -0.1454
  C  C278  1  0.736710  0.756690  0.885120  1.0  0.1367
  C  C279  1  0.802830  0.740370  0.949690  1.0  0.1127
  C  C280  1  0.682580  0.777820  0.948730  1.0  0.1602
  C  C281  1  0.753190  0.718050  0.247950  1.0  -0.1496
  C  C282  1  0.776550  0.473650  0.604580  1.0  0.011
  C  C283  1  0.125880  0.816120  0.121940  1.0  -0.1978
  C  C284  1  0.158850  0.801150  0.086370  1.0  0.2398
  C  C285  1  0.790080  0.031520  0.546620  1.0  -0.0459
  C  C286  1  0.764270  0.060330  0.116880  1.0  -0.0421
  C  C287  1  0.510250  0.767150  0.068950  1.0  -0.1448
  C  C288  1  0.725260  0.367340  0.083610  1.0  0.0324
  C  C289  1  0.733850  0.483350  0.044560  1.0  -0.0565
  C  C290  1  0.713400  0.489600  0.116750  1.0  -0.0712
  C  C291  1  0.767150  0.510250  0.568950  1.0  -0.1451
  C  C292  1  0.812900  0.041500  0.619530  1.0  -0.0557
  C  C293  1  0.167870  0.750330  0.575600  1.0  0.0621
  C  C294  1  0.411080  0.710920  0.618460  1.0  -0.1473
  C  C295  1  0.793850  0.905970  0.580100  1.0  0.7036
  C  C296  1  0.489600  0.713400  0.616750  1.0  -0.0766
  C  C297  1  0.113480  0.790320  0.048870  1.0  -0.0461
  C  C298  1  0.467610  0.766750  0.030410  1.0  -0.0447
  C  C299  1  0.777370  0.677830  0.406840  1.0  -0.1718
  C  C300  1  0.856940  0.768460  0.710610  1.0  0.1621
  C  C301  1  0.905970  0.793850  0.080100  1.0  0.7042
  C  C302  1  0.801420  0.742180  0.908290  1.0  -0.1798
  C  C303  1  0.595530  0.758450  0.071200  1.0  0.6922
  C  C304  1  0.758180  0.140020  0.114630  1.0  -0.1521
  C  C305  1  0.012320  0.762280  0.580990  1.0  -0.1142
  C  C306  1  0.926780  0.765580  0.583190  1.0  0.715
  C  C307  1  0.777190  0.390690  0.528700  1.0  -0.1365
  C  C308  1  0.677830  0.777370  0.906840  1.0  -0.1682
  C  C309  1  0.401250  0.735950  0.547030  1.0  -0.122
  C  C310  1  0.730850  0.756750  0.840140  1.0  -0.1862
  C  C311  1  0.483350  0.733850  0.544560  1.0  -0.061
  C  C312  1  0.735950  0.401250  0.047030  1.0  -0.1173
  C  C313  1  0.816120  0.125880  0.621940  1.0  -0.1936
  C  C314  1  0.716500  0.752300  0.706120  1.0  0.1557
  C  C315  1  0.777820  0.682580  0.448730  1.0  0.1604
  C  C316  1  0.740370  0.802830  0.449690  1.0  0.11
  C  C317  1  0.786440  0.397360  0.602840  1.0  -0.0615
  C  C318  1  0.718050  0.753190  0.747950  1.0  -0.1518
  C  C319  1  0.729750  0.616410  0.079400  1.0  0.6688
  C  C320  1  0.397360  0.786440  0.102840  1.0  -0.0614
  C  C321  1  0.527000  0.725980  0.580670  1.0  -0.1194
  C  C322  1  0.616410  0.729750  0.579400  1.0  0.6653
  C  C323  1  0.756690  0.736710  0.385120  1.0  0.137
  C  C324  1  0.789120  0.759900  0.772630  1.0  0.0943
  C  C325  1  0.742180  0.801420  0.408290  1.0  -0.1832
  C  C326  1  0.758450  0.595530  0.571200  1.0  0.6936
  C  C327  1  0.118470  0.749930  0.539770  1.0  -0.1651
  C  C328  1  0.760820  0.795180  0.317880  1.0  -0.179
  C  C329  1  0.140020  0.758180  0.614630  1.0  -0.1509
  C  C330  1  0.390690  0.777190  0.028700  1.0  -0.1366
  C  C331  1  0.790320  0.113480  0.548870  1.0  -0.0456
  C  C332  1  0.759900  0.789120  0.272630  1.0  0.0918
  C  C333  1  0.238030  0.450350  0.209880  1.0  -0.056
  C  C334  1  0.450350  0.238030  0.709880  1.0  -0.051
  C  C335  1  0.231590  0.514650  0.737800  1.0  -0.1063
  C  C336  1  0.513240  0.187960  0.200920  1.0  -0.0625
  C  C337  1  0.506180  0.401340  0.116830  1.0  0.1737
  C  C338  1  0.471770  0.927230  0.766810  1.0  0.2227
  C  C339  1  0.757580  0.555240  0.717460  1.0  -0.0798
  C  C340  1  0.837640  0.554360  0.718990  1.0  -0.0733
  C  C341  1  0.193670  0.523130  0.772740  1.0  -0.0779
  C  C342  1  0.600320  0.502460  0.424960  1.0  -0.1373
  C  C343  1  0.549650  0.761970  0.290120  1.0  -0.0502
  C  C344  1  0.448650  0.283410  0.746870  1.0  -0.1108
  C  C345  1  0.549330  0.879270  0.256030  1.0  0.21
  C  C346  1  0.682630  0.489310  0.259780  1.0  0.6866
  C  C347  1  0.476870  0.806330  0.727260  1.0  -0.0802
  C  C348  1  0.457560  0.477100  0.419000  1.0  -0.1583
  C  C349  1  0.551350  0.716590  0.253130  1.0  -0.1118
  C  C350  1  0.371900  0.452260  0.247920  1.0  0.675
  C  C351  1  0.542440  0.522900  0.581000  1.0  -0.1588
  C  C352  1  0.162360  0.445640  0.281010  1.0  -0.0739
  C  C353  1  0.547220  0.840180  0.291790  1.0  -0.1544
  C  C354  1  0.460880  0.472880  0.376260  1.0  0.1673
  C  C355  1  0.528230  0.072770  0.233190  1.0  0.2142
  C  C356  1  0.480030  0.889770  0.801930  1.0  -0.1502
  C  C357  1  0.283410  0.448650  0.246870  1.0  -0.112
  C  C358  1  0.489310  0.682630  0.759780  1.0  0.6876
  C  C359  1  0.554360  0.837640  0.218990  1.0  -0.0691
  C  C360  1  0.514650  0.231590  0.237800  1.0  -0.1085
  C  C361  1  0.539120  0.527120  0.623740  1.0  0.1659
  C  C362  1  0.468340  0.504660  0.555070  1.0  0.0339
  C  C363  1  0.120730  0.450670  0.243970  1.0  0.2075
  C  C364  1  0.452260  0.371900  0.747920  1.0  0.6774
  C  C365  1  0.812040  0.486760  0.299080  1.0  -0.0569
  C  C366  1  0.486760  0.812040  0.799080  1.0  -0.0671
  C  C367  1  0.477100  0.457560  0.919000  1.0  -0.1561
  C  C368  1  0.495400  0.468260  0.010150  1.0  0.1063
  C  C369  1  0.628100  0.547740  0.752080  1.0  0.6743
  C  C370  1  0.470000  0.884600  0.729240  1.0  -0.0895
  C  C371  1  0.472880  0.460880  0.876260  1.0  0.167
  C  C372  1  0.806330  0.476870  0.227260  1.0  -0.0769
  C  C373  1  0.159820  0.452780  0.208210  1.0  -0.1542
  C  C374  1  0.401340  0.506180  0.616830  1.0  0.1738
  C  C375  1  0.452780  0.159820  0.708210  1.0  -0.1542
  C  C376  1  0.840180  0.547220  0.791790  1.0  -0.1511
  C  C377  1  0.072770  0.528230  0.733190  1.0  0.222
  C  C378  1  0.519970  0.110230  0.198070  1.0  -0.148
  C  C379  1  0.187960  0.513240  0.700920  1.0  -0.0586
  C  C380  1  0.493820  0.598660  0.883170  1.0  0.1716
  C  C381  1  0.510690  0.317370  0.240220  1.0  0.6879
  C  C382  1  0.445640  0.162360  0.781010  1.0  -0.0708
  C  C383  1  0.399680  0.497540  0.575040  1.0  -0.1367
  C  C384  1  0.522900  0.542440  0.081000  1.0  -0.1567
  C  C385  1  0.884600  0.470000  0.229240  1.0  -0.0885
  C  C386  1  0.317370  0.510690  0.740220  1.0  0.6867
  C  C387  1  0.716590  0.551350  0.753130  1.0  -0.1136
  C  C388  1  0.504600  0.531740  0.989850  1.0  0.1033
  C  C389  1  0.530000  0.115400  0.270760  1.0  -0.0887
  C  C390  1  0.450670  0.120730  0.743970  1.0  0.2066
  C  C391  1  0.444760  0.242420  0.782540  1.0  -0.0753
  C  C392  1  0.497540  0.399680  0.075040  1.0  -0.1374
  C  C393  1  0.598660  0.493820  0.383170  1.0  0.1726
  C  C394  1  0.468260  0.495400  0.510150  1.0  0.1084
  C  C395  1  0.495340  0.531660  0.944930  1.0  0.0326
  C  C396  1  0.547740  0.628100  0.252080  1.0  0.6778
  C  C397  1  0.555240  0.757580  0.217460  1.0  -0.0768
  C  C398  1  0.485350  0.768410  0.762200  1.0  -0.1096
  C  C399  1  0.504660  0.468340  0.055070  1.0  0.042
  C  C400  1  0.879270  0.549330  0.756030  1.0  0.2001
  C  C401  1  0.502460  0.600320  0.924960  1.0  -0.1357
  C  C402  1  0.110230  0.519970  0.698070  1.0  -0.1468
  C  C403  1  0.527120  0.539120  0.123740  1.0  0.1688
  C  C404  1  0.761970  0.549650  0.790120  1.0  -0.0562
  C  C405  1  0.768410  0.485350  0.262200  1.0  -0.1061
  C  C406  1  0.531740  0.504600  0.489850  1.0  0.1069
  C  C407  1  0.523130  0.193670  0.272740  1.0  -0.083
  C  C408  1  0.242420  0.444760  0.282540  1.0  -0.0805
  C  C409  1  0.531660  0.495340  0.444930  1.0  0.0335
  C  C410  1  0.115400  0.530000  0.770760  1.0  -0.0882
  C  C411  1  0.927230  0.471770  0.266810  1.0  0.2223
  C  C412  1  0.889770  0.480030  0.301930  1.0  -0.1471
  N  N413  1  0.758390  0.200110  0.908080  1.0  -0.1623
  N  N414  1  0.746660  0.258940  0.435380  1.0  -0.3792
  N  N415  1  0.241130  0.215910  0.812980  1.0  -0.3287
  N  N416  1  0.721640  0.269560  0.405390  1.0  -0.3857
  N  N417  1  0.258940  0.746660  0.935380  1.0  -0.3786
  N  N418  1  0.239090  0.256070  0.529700  1.0  -0.3156
  N  N419  1  0.727780  0.207420  0.941120  1.0  -0.194
  N  N420  1  0.207420  0.727780  0.441120  1.0  -0.1941
  N  N421  1  0.215910  0.241130  0.312980  1.0  -0.327
  N  N422  1  0.256070  0.239090  0.029700  1.0  -0.313
  N  N423  1  0.269560  0.721640  0.905390  1.0  -0.3872
  N  N424  1  0.200110  0.758390  0.408080  1.0  -0.164
  N  N425  1  0.792580  0.272220  0.558880  1.0  -0.1936
  N  N426  1  0.784090  0.758870  0.687020  1.0  -0.3299
  N  N427  1  0.799890  0.241610  0.591920  1.0  -0.1639
  N  N428  1  0.241610  0.799890  0.091920  1.0  -0.1615
  N  N429  1  0.730440  0.278360  0.094610  1.0  -0.3877
  N  N430  1  0.758870  0.784090  0.187020  1.0  -0.33
  N  N431  1  0.760910  0.743930  0.470300  1.0  -0.3145
  N  N432  1  0.253340  0.741060  0.564620  1.0  -0.3779
  N  N433  1  0.741060  0.253340  0.064620  1.0  -0.3784
  N  N434  1  0.272220  0.792580  0.058880  1.0  -0.1928
  N  N435  1  0.743930  0.760910  0.970300  1.0  -0.3134
  N  N436  1  0.278360  0.730440  0.594610  1.0  -0.3883
  N  N437  1  0.962480  0.545240  0.760410  1.0  -0.163
  N  N438  1  0.482150  0.531310  0.858130  1.0  -0.3199
  N  N439  1  0.454760  0.037520  0.739590  1.0  -0.1657
  N  N440  1  0.534280  0.991080  0.228020  1.0  -0.1633
  N  N441  1  0.517850  0.468690  0.141870  1.0  -0.3201
  N  N442  1  0.037520  0.454760  0.239590  1.0  -0.1662
  N  N443  1  0.531310  0.482150  0.358130  1.0  -0.3204
  N  N444  1  0.468690  0.517850  0.641870  1.0  -0.3197
  N  N445  1  0.008920  0.465720  0.271980  1.0  -0.1608
  N  N446  1  0.991080  0.534280  0.728020  1.0  -0.1614
  N  N447  1  0.545240  0.962480  0.260410  1.0  -0.1641
  N  N448  1  0.465720  0.008920  0.771980  1.0  -0.1616
  O  O449  1  0.343010  0.267450  0.386200  1.0  -0.5923
  O  O450  1  0.376370  0.254530  0.962140  1.0  -0.5878
  O  O451  1  0.226260  0.098380  0.882220  1.0  -0.5906
  O  O452  1  0.367120  0.235060  0.893970  1.0  -0.5882
  O  O453  1  0.116200  0.240160  0.450630  1.0  -0.6269
  O  O454  1  0.240160  0.116200  0.950630  1.0  -0.6263
  O  O455  1  0.356170  0.269610  0.455120  1.0  -0.5951
  O  O456  1  0.216200  0.131820  0.455140  1.0  -0.5858
  O  O457  1  0.235060  0.367120  0.393970  1.0  -0.588
  O  O458  1  0.131820  0.216200  0.955140  1.0  -0.5878
  O  O459  1  0.206120  0.126840  0.386010  1.0  -0.6121
  O  O460  1  0.254530  0.376370  0.462140  1.0  -0.5876
  O  O461  1  0.269610  0.356170  0.955120  1.0  -0.5943
  O  O462  1  0.098380  0.226260  0.382220  1.0  -0.5917
  O  O463  1  0.267450  0.343010  0.886200  1.0  -0.5932
  O  O464  1  0.126840  0.206120  0.886010  1.0  -0.6157
  O  O465  1  0.764940  0.632880  0.606030  1.0  -0.5872
  O  O466  1  0.745470  0.623630  0.537860  1.0  -0.5891
  O  O467  1  0.643830  0.730390  0.544880  1.0  -0.5963
  O  O468  1  0.901620  0.773740  0.617780  1.0  -0.591
  O  O469  1  0.730390  0.643830  0.044880  1.0  -0.5947
  O  O470  1  0.868180  0.783800  0.044860  1.0  -0.587
  O  O471  1  0.632880  0.764940  0.106030  1.0  -0.5882
  O  O472  1  0.656990  0.732550  0.613800  1.0  -0.5911
  O  O473  1  0.773740  0.901620  0.117780  1.0  -0.5902
  O  O474  1  0.759840  0.883800  0.049370  1.0  -0.6245
  O  O475  1  0.623630  0.745470  0.037860  1.0  -0.5902
  O  O476  1  0.783800  0.868180  0.544860  1.0  -0.5852
  O  O477  1  0.793880  0.873160  0.613990  1.0  -0.6121
  O  O478  1  0.883800  0.759840  0.549370  1.0  -0.6268
  O  O479  1  0.873160  0.793880  0.113990  1.0  -0.6146
  O  O480  1  0.732550  0.656990  0.113800  1.0  -0.5922
  O  O481  1  0.456910  0.403890  0.715520  1.0  -0.5815
  O  O482  1  0.403890  0.456910  0.215520  1.0  -0.5833
  O  O483  1  0.596110  0.543090  0.784480  1.0  -0.5828
  O  O484  1  0.543090  0.596110  0.284480  1.0  -0.5821
  O  O485  1  0.519740  0.356300  0.275920  1.0  -0.6008
  O  O486  1  0.549310  0.592230  0.216620  1.0  -0.5722
  O  O487  1  0.450690  0.407770  0.783380  1.0  -0.5706
  O  O488  1  0.407770  0.450690  0.283380  1.0  -0.5703
  O  O489  1  0.499470  0.653470  0.793170  1.0  -0.5706
  O  O490  1  0.643700  0.480260  0.224080  1.0  -0.6022
  O  O491  1  0.356300  0.519740  0.775920  1.0  -0.6022
  O  O492  1  0.480260  0.643700  0.724080  1.0  -0.6013
  O  O493  1  0.592230  0.549310  0.716620  1.0  -0.5708
  O  O494  1  0.653470  0.499470  0.293170  1.0  -0.5692
  O  O495  1  0.500530  0.346530  0.206830  1.0  -0.5707
  O  O496  1  0.346530  0.500530  0.706830  1.0  -0.5705
