# generated using pymatgen
data_Eu2CuH16C28(NO6)2
_symmetry_space_group_name_H-M   'P 1'
_cell_length_a   6.21000000
_cell_length_b   6.99000000
_cell_length_c   18.75850000
_cell_angle_alpha   100.73800000
_cell_angle_beta   96.89650000
_cell_angle_gamma   90.00000000
_symmetry_Int_Tables_number   1
_chemical_formula_structural   Eu2CuH16C28(NO6)2
_chemical_formula_sum   'Eu2 Cu1 H16 C28 N2 O12'
_cell_volume   794.01154895
_cell_formula_units_Z   1
loop_
 _symmetry_equiv_pos_site_id
 _symmetry_equiv_pos_as_xyz
  1  'x, y, z'
loop_
 _atom_site_type_symbol
 _atom_site_label
 _atom_site_symmetry_multiplicity
 _atom_site_fract_x
 _atom_site_fract_y
 _atom_site_fract_z
 _atom_site_occupancy
 _atom_site_charge
  Eu  Eu1  1  0.522380  0.909130  0.440020  1.0  2.1788
  Eu  Eu2  1  0.477620  0.469110  0.559980  1.0  2.1793
  Cu  Cu3  1  0.000000  0.689800  0.000000  1.0  0.2847
  H  H4  1  0.982200  0.241500  0.172000  1.0  0.1016
  H  H5  1  0.175500  0.673800  0.147600  1.0  0.0763
  H  H6  1  0.616600  0.832700  0.062200  1.0  0.0835
  H  H7  1  0.930400  0.476500  0.737800  1.0  0.1039
  H  H8  1  0.362400  0.178500  0.822000  1.0  0.109
  H  H9  1  0.808400  0.904000  0.723200  1.0  0.1016
  H  H10  1  0.824500  0.526200  0.852400  1.0  0.0766
  H  H11  1  0.069600  0.738700  0.262200  1.0  0.1054
  H  H12  1  0.191600  0.180800  0.276800  1.0  0.1019
  H  H13  1  0.383400  0.770500  0.937800  1.0  0.0829
  H  H14  1  0.504800  0.721000  0.824800  1.0  0.1248
  H  H15  1  0.495200  0.896200  0.175200  1.0  0.1232
  H  H16  1  0.637600  0.356500  0.178000  1.0  0.1064
  H  H17  1  0.509700  0.440800  0.289600  1.0  0.0959
  H  H18  1  0.490300  0.151200  0.710400  1.0  0.0955
  H  H19  1  0.017800  0.069500  0.828000  1.0  0.1012
  C  C20  1  0.767400  0.811300  0.230600  1.0  -0.106
  C  C21  1  0.972400  0.753150  0.221900  1.0  -0.1579
  C  C22  1  0.685500  0.849080  0.304160  1.0  0.6633
  C  C23  1  0.333600  0.967850  0.579700  1.0  0.6848
  C  C24  1  0.232600  0.580700  0.769400  1.0  -0.1079
  C  C25  1  0.769500  0.360360  0.350720  1.0  -0.0912
  C  C26  1  0.131700  0.253070  0.413940  1.0  0.6818
  C  C27  1  0.276100  0.119550  0.779500  1.0  -0.1237
  C  C28  1  0.666400  0.388150  0.420300  1.0  0.6848
  C  C29  1  0.964700  0.562700  0.847000  1.0  0.1646
  C  C30  1  0.927600  0.268400  0.216800  1.0  -0.0934
  C  C31  1  0.868300  0.839130  0.586060  1.0  0.6815
  C  C32  1  0.072400  0.051600  0.783200  1.0  -0.093
  C  C33  1  0.230500  0.009640  0.649280  1.0  -0.0894
  C  C34  1  0.027600  0.531250  0.778100  1.0  -0.1549
  C  C35  1  0.723900  0.340050  0.220500  1.0  -0.1197
  C  C36  1  0.293400  0.705510  0.897220  1.0  0.1447
  C  C37  1  0.024500  0.932180  0.652160  1.0  -0.0992
  C  C38  1  0.975500  0.280020  0.347840  1.0  -0.0986
  C  C39  1  0.632900  0.847130  0.170260  1.0  -0.1574
  C  C40  1  0.945100  0.953950  0.720100  1.0  -0.0728
  C  C41  1  0.314500  0.544920  0.695840  1.0  0.6635
  C  C42  1  0.646800  0.388250  0.287300  1.0  -0.0583
  C  C43  1  0.706600  0.808290  0.102780  1.0  0.1451
  C  C44  1  0.054900  0.233850  0.279900  1.0  -0.0752
  C  C45  1  0.035300  0.715700  0.153000  1.0  0.162
  C  C46  1  0.353200  0.100950  0.712700  1.0  -0.0604
  C  C47  1  0.367100  0.676870  0.829740  1.0  -0.1586
  N  N48  1  0.903300  0.736710  0.093420  1.0  -0.2929
  N  N49  1  0.096700  0.643290  0.906580  1.0  -0.2889
  O  O50  1  0.189900  0.488210  0.638020  1.0  -0.6275
  O  O51  1  0.511200  0.591040  0.692680  1.0  -0.6919
  O  O52  1  0.223000  0.096200  0.409600  1.0  -0.7071
  O  O53  1  0.488800  0.898360  0.307320  1.0  -0.6925
  O  O54  1  0.650200  0.258770  0.454740  1.0  -0.6899
  O  O55  1  0.349800  0.804030  0.545260  1.0  -0.688
  O  O56  1  0.777000  0.686600  0.590400  1.0  -0.7076
  O  O57  1  0.409000  0.118730  0.557860  1.0  -0.8395
  O  O58  1  0.810100  0.850190  0.361980  1.0  -0.6291
  O  O59  1  0.836400  0.934280  0.533160  1.0  -0.6493
  O  O60  1  0.591000  0.560870  0.442140  1.0  -0.8409
  O  O61  1  0.163600  0.401120  0.466840  1.0  -0.6459
