# generated using pymatgen
data_Mn2H24C28N4O9
_symmetry_space_group_name_H-M   'P 1'
_cell_length_a   8.85830000
_cell_length_b   11.70080000
_cell_length_c   17.95220000
_cell_angle_alpha   90.00000000
_cell_angle_beta   90.00000000
_cell_angle_gamma   100.04500000
_symmetry_Int_Tables_number   1
_chemical_formula_structural   Mn2H24C28N4O9
_chemical_formula_sum   'Mn4 H48 C56 N8 O18'
_cell_volume   1832.20808418
_cell_formula_units_Z   2
loop_
 _symmetry_equiv_pos_site_id
 _symmetry_equiv_pos_as_xyz
  1  'x, y, z'
loop_
 _atom_site_type_symbol
 _atom_site_label
 _atom_site_symmetry_multiplicity
 _atom_site_fract_x
 _atom_site_fract_y
 _atom_site_fract_z
 _atom_site_occupancy
 _atom_site_charge
  Mn  Mn1  1  0.458500  0.118360  0.430890  1.0  1.0486
  Mn  Mn2  1  0.954840  0.116550  0.589340  1.0  1.014
  Mn  Mn3  1  0.541500  0.881640  0.930890  1.0  1.0477
  Mn  Mn4  1  0.045160  0.883450  0.089340  1.0  1.0156
  H  H5  1  0.713500  0.314300  0.006000  1.0  0.1165
  H  H6  1  0.109900  0.917600  0.666200  1.0  0.0673
  H  H7  1  0.542700  0.918600  0.187900  1.0  0.109
  H  H8  1  0.456100  0.882800  0.642600  1.0  0.1119
  H  H9  1  0.147400  0.911800  0.339900  1.0  0.103
  H  H10  1  0.983800  0.886900  0.376300  1.0  0.1126
  H  H11  1  0.132300  0.354400  0.642000  1.0  0.0631
  H  H12  1  0.386700  0.077300  0.852500  1.0  0.0724
  H  H13  1  0.867700  0.645600  0.142000  1.0  0.0625
  H  H14  1  0.711000  0.492000  0.006600  1.0  0.1087
  H  H15  1  0.752300  0.503300  0.529600  1.0  0.0996
  H  H16  1  0.199200  0.118000  0.011200  1.0  0.0647
  H  H17  1  0.290900  0.313100  0.502500  1.0  0.0652
  H  H18  1  0.286500  0.685700  0.506000  1.0  0.1164
  H  H19  1  0.133900  0.548800  0.654400  1.0  0.1314
  H  H20  1  0.625500  0.893800  0.671200  1.0  0.1114
  H  H21  1  0.630900  0.552700  0.364600  1.0  0.0932
  H  H22  1  0.016200  0.113100  0.876300  1.0  0.1121
  H  H23  1  0.457300  0.081400  0.687900  1.0  0.1113
  H  H24  1  0.852600  0.088200  0.839900  1.0  0.104
  H  H25  1  0.634000  0.090900  0.703300  1.0  0.1106
  H  H26  1  0.382500  0.642800  0.858000  1.0  0.0963
  H  H27  1  0.622200  0.727900  0.356900  1.0  0.118
  H  H28  1  0.369100  0.447300  0.864600  1.0  0.0931
  H  H29  1  0.617500  0.357200  0.358000  1.0  0.0962
  H  H30  1  0.892800  0.277300  0.172300  1.0  0.1244
  H  H31  1  0.709100  0.686900  0.002500  1.0  0.0655
  H  H32  1  0.704700  0.117700  0.004200  1.0  0.0748
  H  H33  1  0.199300  0.311800  0.003700  1.0  0.1072
  H  H34  1  0.289000  0.508000  0.506600  1.0  0.1078
  H  H35  1  0.247700  0.496700  0.029600  1.0  0.1001
  H  H36  1  0.800700  0.688200  0.503700  1.0  0.1071
  H  H37  1  0.377800  0.272100  0.856900  1.0  0.1184
  H  H38  1  0.374500  0.106200  0.171200  1.0  0.1095
  H  H39  1  0.107200  0.722700  0.672300  1.0  0.1243
  H  H40  1  0.366000  0.909100  0.203300  1.0  0.1113
  H  H41  1  0.295300  0.882300  0.504200  1.0  0.0747
  H  H42  1  0.231300  0.125600  0.300900  1.0  0.4053
  H  H43  1  0.755000  0.309100  0.528900  1.0  0.0872
  H  H44  1  0.056500  0.933200  0.838500  1.0  0.0871
  H  H45  1  0.245000  0.690900  0.028900  1.0  0.0875
  H  H46  1  0.890100  0.082400  0.166200  1.0  0.0679
  H  H47  1  0.613300  0.922700  0.352500  1.0  0.0723
  H  H48  1  0.866100  0.451200  0.154400  1.0  0.1315
  H  H49  1  0.943500  0.066800  0.338500  1.0  0.0901
  H  H50  1  0.768700  0.874400  0.800900  1.0  0.4059
  H  H51  1  0.800800  0.882000  0.511200  1.0  0.0649
  H  H52  1  0.543900  0.117200  0.142600  1.0  0.1116
  C  C53  1  0.450300  0.945700  0.172200  1.0  -0.278
  C  C54  1  0.552000  0.757100  0.386800  1.0  -0.1405
  C  C55  1  0.555600  0.505000  0.391800  1.0  -0.1413
  C  C56  1  0.954500  0.247500  0.138100  1.0  -0.2148
  C  C57  1  0.643900  0.268000  0.975200  1.0  -0.1842
  C  C58  1  0.955600  0.071000  0.836800  1.0  -0.3108
  C  C59  1  0.084300  0.090000  0.428200  1.0  0.7173
  C  C60  1  0.024800  0.110600  0.762300  1.0  0.7638
  C  C61  1  0.356100  0.732000  0.475200  1.0  -0.1883
  C  C62  1  0.361200  0.850600  0.473100  1.0  0.1751
  C  C63  1  0.638800  0.149400  0.973100  1.0  0.1748
  C  C64  1  0.531300  0.121400  0.257800  1.0  0.7255
  C  C65  1  0.947500  0.615200  0.120300  1.0  0.182
  C  C66  1  0.049600  0.055700  0.347200  1.0  0.0809
  C  C67  1  0.471800  0.081200  0.180000  1.0  -0.3486
  C  C68  1  0.950400  0.944300  0.847200  1.0  0.0819
  C  C69  1  0.167700  0.524600  0.053000  1.0  -0.1509
  C  C70  1  0.357500  0.479500  0.475300  1.0  -0.2067
  C  C71  1  0.544400  0.446200  0.931200  1.0  0.0444
  C  C72  1  0.468700  0.878600  0.757800  1.0  0.7242
  C  C73  1  0.583200  0.085000  0.591700  1.0  0.7754
  C  C74  1  0.955900  0.130600  0.134600  1.0  0.1671
  C  C75  1  0.058800  0.503200  0.625900  1.0  -0.2204
  C  C76  1  0.642500  0.520500  0.975300  1.0  -0.2058
  C  C77  1  0.832300  0.475400  0.553000  1.0  -0.1501
  C  C78  1  0.548700  0.875700  0.385100  1.0  0.1596
  C  C79  1  0.052500  0.384800  0.620300  1.0  0.183
  C  C80  1  0.915700  0.910000  0.928200  1.0  0.7176
  C  C81  1  0.049100  0.321600  0.088200  1.0  0.0372
  C  C82  1  0.639100  0.638300  0.973000  1.0  0.1992
  C  C83  1  0.950900  0.678400  0.588200  1.0  0.037
  C  C84  1  0.455500  0.682600  0.430800  1.0  0.0615
  C  C85  1  0.448000  0.242900  0.886800  1.0  -0.1374
  C  C86  1  0.044100  0.869400  0.634600  1.0  0.1671
  C  C87  1  0.941200  0.496800  0.125900  1.0  -0.2205
  C  C88  1  0.451300  0.124300  0.885100  1.0  0.1586
  C  C89  1  0.549700  0.054300  0.672200  1.0  -0.2798
  C  C90  1  0.416800  0.915000  0.091700  1.0  0.7746
  C  C91  1  0.134700  0.150200  0.042800  1.0  0.1872
  C  C92  1  0.360900  0.361700  0.473000  1.0  0.1995
  C  C93  1  0.444400  0.495000  0.891800  1.0  -0.1408
  C  C94  1  0.833400  0.358300  0.553100  1.0  0.1678
  C  C95  1  0.448500  0.612600  0.889800  1.0  0.1203
  C  C96  1  0.947700  0.553000  0.587000  1.0  0.0657
  C  C97  1  0.975200  0.889400  0.262300  1.0  0.7631
  C  C98  1  0.544500  0.317400  0.930800  1.0  0.0623
  C  C99  1  0.044400  0.929000  0.336800  1.0  -0.3101
  C  C100  1  0.528200  0.918800  0.680000  1.0  -0.3477
  C  C101  1  0.551500  0.387400  0.389800  1.0  0.1196
  C  C102  1  0.052300  0.447000  0.087000  1.0  0.0663
  C  C103  1  0.862000  0.732300  0.539000  1.0  -0.1764
  C  C104  1  0.166600  0.641700  0.053100  1.0  0.1676
  C  C105  1  0.138000  0.267700  0.039000  1.0  -0.1773
  C  C106  1  0.455600  0.553800  0.431200  1.0  0.0445
  C  C107  1  0.045500  0.752500  0.638100  1.0  -0.2141
  C  C108  1  0.865300  0.849800  0.542800  1.0  0.1881
  N  N109  1  0.945900  0.311800  0.587600  1.0  -0.3364
  N  N110  1  0.046000  0.080200  0.088400  1.0  -0.3659
  N  N111  1  0.456500  0.923200  0.428600  1.0  -0.3496
  N  N112  1  0.054100  0.688200  0.087600  1.0  -0.3368
  N  N113  1  0.954000  0.919800  0.588400  1.0  -0.3654
  N  N114  1  0.453800  0.314300  0.433000  1.0  -0.3374
  N  N115  1  0.543500  0.076800  0.928600  1.0  -0.349
  N  N116  1  0.546200  0.685700  0.933000  1.0  -0.3388
  O  O117  1  0.167000  0.136700  0.756100  1.0  -0.5868
  O  O118  1  0.140800  0.130900  0.295600  1.0  -0.5845
  O  O119  1  0.859200  0.869100  0.795600  1.0  -0.5838
  O  O120  1  0.930900  0.112700  0.708900  1.0  -0.6368
  O  O121  1  0.712700  0.083200  0.565900  1.0  -0.6223
  O  O122  1  0.473400  0.111200  0.551900  1.0  -0.6452
  O  O123  1  0.023000  0.889000  0.968000  1.0  -0.6193
  O  O124  1  0.437800  0.112600  0.309800  1.0  -0.6452
  O  O125  1  0.977000  0.111000  0.468000  1.0  -0.6192
  O  O126  1  0.069100  0.887300  0.208900  1.0  -0.6385
  O  O127  1  0.217600  0.091500  0.452000  1.0  -0.6364
  O  O128  1  0.833000  0.863300  0.256100  1.0  -0.587
  O  O129  1  0.562200  0.887400  0.809800  1.0  -0.6455
  O  O130  1  0.526600  0.888800  0.051900  1.0  -0.6459
  O  O131  1  0.782400  0.908500  0.952000  1.0  -0.6376
  O  O132  1  0.330500  0.846000  0.763000  1.0  -0.5973
  O  O133  1  0.287300  0.916800  0.065900  1.0  -0.6224
  O  O134  1  0.669500  0.154000  0.263000  1.0  -0.5952
