# generated using pymatgen
data_CoH12C16N3O2
_symmetry_space_group_name_H-M   'P 1'
_cell_length_a   15.18320000
_cell_length_b   15.33080000
_cell_length_c   24.74990000
_cell_angle_alpha   90.00000000
_cell_angle_beta   90.00000000
_cell_angle_gamma   111.33800000
_symmetry_Int_Tables_number   1
_chemical_formula_structural   CoH12C16N3O2
_chemical_formula_sum   'Co4 H48 C64 N12 O8'
_cell_volume   5366.12982495
_cell_formula_units_Z   4
loop_
 _symmetry_equiv_pos_site_id
 _symmetry_equiv_pos_as_xyz
  1  'x, y, z'
loop_
 _atom_site_type_symbol
 _atom_site_label
 _atom_site_symmetry_multiplicity
 _atom_site_fract_x
 _atom_site_fract_y
 _atom_site_fract_z
 _atom_site_occupancy
 _atom_site_charge
  Co  Co1  1  0.397630  0.609710  0.020560  1.0  0.7231
  Co  Co2  1  0.397630  0.609710  0.479440  1.0  0.7234
  Co  Co3  1  0.602370  0.390290  0.979440  1.0  0.723
  Co  Co4  1  0.602370  0.390290  0.520560  1.0  0.7238
  H  H5  1  0.475200  0.230900  0.042300  1.0  0.0826
  H  H6  1  0.539500  0.679800  0.293500  1.0  0.0982
  H  H7  1  0.751400  0.310600  0.485500  1.0  0.0665
  H  H8  1  0.738400  0.443600  0.790000  1.0  0.1098
  H  H9  1  0.468000  0.334400  0.614400  1.0  0.0638
  H  H10  1  0.374200  0.780400  0.084200  1.0  0.0741
  H  H11  1  0.625800  0.219600  0.915800  1.0  0.0739
  H  H12  1  0.588600  0.065400  0.927100  1.0  0.101
  H  H13  1  0.944100  0.604200  0.533700  1.0  0.1013
  H  H14  1  0.055900  0.395800  0.033700  1.0  0.1013
  H  H15  1  0.625800  0.219600  0.584200  1.0  0.0737
  H  H16  1  0.524800  0.769100  0.957700  1.0  0.0831
  H  H17  1  0.563400  0.925100  0.555700  1.0  0.1008
  H  H18  1  0.783300  0.556100  0.540000  1.0  0.0693
  H  H19  1  0.738400  0.443600  0.710000  1.0  0.1108
  H  H20  1  0.248600  0.689400  0.985500  1.0  0.0658
  H  H21  1  0.374200  0.780400  0.415800  1.0  0.0741
  H  H22  1  0.411400  0.934600  0.427100  1.0  0.1009
  H  H23  1  0.460500  0.320200  0.706500  1.0  0.0978
  H  H24  1  0.475200  0.230900  0.457700  1.0  0.0828
  H  H25  1  0.735800  0.429500  0.617400  1.0  0.0498
  H  H26  1  0.086500  0.645400  0.528300  1.0  0.1076
  H  H27  1  0.751400  0.310600  0.014500  1.0  0.0668
  H  H28  1  0.944100  0.604200  0.966300  1.0  0.1004
  H  H29  1  0.532000  0.665600  0.114400  1.0  0.064
  H  H30  1  0.264200  0.570500  0.117400  1.0  0.0517
  H  H31  1  0.913500  0.354600  0.028300  1.0  0.1079
  H  H32  1  0.563400  0.925100  0.944300  1.0  0.1011
  H  H33  1  0.216700  0.443900  0.460000  1.0  0.0688
  H  H34  1  0.524800  0.769100  0.542300  1.0  0.0834
  H  H35  1  0.539500  0.679800  0.206500  1.0  0.0985
  H  H36  1  0.216700  0.443900  0.040000  1.0  0.0694
  H  H37  1  0.735800  0.429500  0.882600  1.0  0.0488
  H  H38  1  0.532000  0.665600  0.385600  1.0  0.0629
  H  H39  1  0.913500  0.354600  0.471700  1.0  0.1069
  H  H40  1  0.468000  0.334400  0.885600  1.0  0.0626
  H  H41  1  0.261600  0.556400  0.290000  1.0  0.1083
  H  H42  1  0.588600  0.065400  0.572900  1.0  0.102
  H  H43  1  0.261600  0.556400  0.210000  1.0  0.1091
  H  H44  1  0.460500  0.320200  0.793500  1.0  0.0977
  H  H45  1  0.086500  0.645400  0.971700  1.0  0.1075
  H  H46  1  0.436600  0.074900  0.055700  1.0  0.1011
  H  H47  1  0.436600  0.074900  0.444300  1.0  0.1007
  H  H48  1  0.783300  0.556100  0.960000  1.0  0.0689
  H  H49  1  0.411400  0.934600  0.072900  1.0  0.1022
  H  H50  1  0.248600  0.689400  0.514500  1.0  0.0661
  H  H51  1  0.055900  0.395800  0.466300  1.0  0.1007
  H  H52  1  0.264200  0.570500  0.382600  1.0  0.0512
  C  C53  1  0.523800  0.896600  0.973000  1.0  -0.1302
  C  C54  1  0.565400  0.097700  0.548400  1.0  -0.1556
  C  C55  1  0.524300  0.354900  0.866200  1.0  0.1603
  C  C56  1  0.190400  0.486100  0.472700  1.0  0.1498
  C  C57  1  0.475700  0.645100  0.366200  1.0  0.1612
  C  C58  1  0.453300  0.455500  0.001800  1.0  0.6025
  C  C59  1  0.491100  0.951300  0.006000  1.0  0.0195
  C  C60  1  0.889000  0.396400  0.486900  1.0  -0.2476
  C  C61  1  0.499700  0.197700  0.480900  1.0  0.1053
  C  C62  1  0.491100  0.951300  0.494000  1.0  0.0195
  C  C63  1  0.434600  0.902300  0.048400  1.0  -0.1564
  C  C64  1  0.318800  0.583500  0.192000  1.0  -0.1866
  C  C65  1  0.412300  0.809500  0.055100  1.0  0.1315
  C  C66  1  0.401400  0.620600  0.220100  1.0  0.0615
  C  C67  1  0.546700  0.544500  0.998200  1.0  0.6026
  C  C68  1  0.052200  0.515000  0.002400  1.0  0.0488
  C  C69  1  0.681200  0.416500  0.808000  1.0  -0.1825
  C  C70  1  0.681200  0.416500  0.692000  1.0  -0.1854
  C  C71  1  0.889000  0.396400  0.013100  1.0  -0.2464
  C  C72  1  0.190400  0.486100  0.027300  1.0  0.15
  C  C73  1  0.481000  0.652600  0.189800  1.0  -0.2211
  C  C74  1  0.519000  0.347400  0.810200  1.0  -0.2224
  C  C75  1  0.678400  0.413000  0.635600  1.0  0.1708
  C  C76  1  0.565400  0.097700  0.951600  1.0  -0.1557
  C  C77  1  0.809600  0.513900  0.527300  1.0  0.1511
  C  C78  1  0.508900  0.048700  0.994000  1.0  0.0182
  C  C79  1  0.412300  0.809500  0.444900  1.0  0.1314
  C  C80  1  0.790800  0.371000  0.494700  1.0  0.1366
  C  C81  1  0.052200  0.515000  0.497600  1.0  0.0487
  C  C82  1  0.209200  0.629000  0.994700  1.0  0.1362
  C  C83  1  0.906700  0.544000  0.977200  1.0  -0.2212
  C  C84  1  0.476200  0.103400  0.473000  1.0  -0.129
  C  C85  1  0.401400  0.620600  0.279900  1.0  0.0617
  C  C86  1  0.906700  0.544000  0.522800  1.0  -0.2213
  C  C87  1  0.678400  0.413000  0.864400  1.0  0.1712
  C  C88  1  0.434600  0.902300  0.451600  1.0  -0.1551
  C  C89  1  0.209200  0.629000  0.505300  1.0  0.1371
  C  C90  1  0.500300  0.802300  0.980900  1.0  0.1021
  C  C91  1  0.500300  0.802300  0.519100  1.0  0.1046
  C  C92  1  0.790800  0.371000  0.005300  1.0  0.1376
  C  C93  1  0.453300  0.455500  0.498200  1.0  0.6026
  C  C94  1  0.318800  0.583500  0.308000  1.0  -0.1828
  C  C95  1  0.321600  0.587000  0.135600  1.0  0.1698
  C  C96  1  0.499700  0.197700  0.019100  1.0  0.1062
  C  C97  1  0.587700  0.190500  0.944900  1.0  0.1311
  C  C98  1  0.111000  0.603600  0.986900  1.0  -0.2499
  C  C99  1  0.809600  0.513900  0.972700  1.0  0.1502
  C  C100  1  0.587700  0.190500  0.555100  1.0  0.1315
  C  C101  1  0.947800  0.485000  0.502400  1.0  0.0499
  C  C102  1  0.093300  0.456000  0.022800  1.0  -0.2169
  C  C103  1  0.321600  0.587000  0.364400  1.0  0.1706
  C  C104  1  0.508900  0.048700  0.506000  1.0  0.0182
  C  C105  1  0.093300  0.456000  0.477200  1.0  -0.2166
  C  C106  1  0.598600  0.379400  0.720100  1.0  0.0614
  C  C107  1  0.598600  0.379400  0.779900  1.0  0.0616
  C  C108  1  0.524300  0.354900  0.633800  1.0  0.161
  C  C109  1  0.475700  0.645100  0.133800  1.0  0.1621
  C  C110  1  0.546700  0.544500  0.501800  1.0  0.6023
  C  C111  1  0.476200  0.103400  0.027000  1.0  -0.1287
  C  C112  1  0.111000  0.603600  0.513100  1.0  -0.2495
  C  C113  1  0.519000  0.347400  0.689800  1.0  -0.2199
  C  C114  1  0.481000  0.652600  0.310200  1.0  -0.2201
  C  C115  1  0.947800  0.485000  0.997600  1.0  0.0497
  C  C116  1  0.523800  0.896600  0.527000  1.0  -0.1284
  N  N117  1  0.396600  0.611000  0.106900  1.0  -0.3158
  N  N118  1  0.557300  0.243700  0.978500  1.0  -0.3334
  N  N119  1  0.557300  0.243700  0.521500  1.0  -0.3334
  N  N120  1  0.442700  0.756300  0.478500  1.0  -0.3331
  N  N121  1  0.752000  0.428500  0.985600  1.0  -0.3451
  N  N122  1  0.248000  0.571500  0.014400  1.0  -0.3469
  N  N123  1  0.603400  0.389000  0.606900  1.0  -0.315
  N  N124  1  0.442700  0.756300  0.021500  1.0  -0.3332
  N  N125  1  0.603400  0.389000  0.893100  1.0  -0.3132
  N  N126  1  0.752000  0.428500  0.514400  1.0  -0.3469
  N  N127  1  0.396600  0.611000  0.393100  1.0  -0.3137
  N  N128  1  0.248000  0.571500  0.485600  1.0  -0.3464
  O  O129  1  0.380100  0.467300  0.483800  1.0  -0.6051
  O  O130  1  0.461300  0.379500  0.511300  1.0  -0.579
  O  O131  1  0.380100  0.467300  0.016200  1.0  -0.6065
  O  O132  1  0.538700  0.620500  0.011300  1.0  -0.5769
  O  O133  1  0.461300  0.379500  0.988700  1.0  -0.5789
  O  O134  1  0.538700  0.620500  0.488700  1.0  -0.5771
  O  O135  1  0.619900  0.532700  0.516200  1.0  -0.6048
  O  O136  1  0.619900  0.532700  0.983800  1.0  -0.6053
