# generated using pymatgen
data_V2CuMo12PH24C24(N6O17)2
_symmetry_space_group_name_H-M   'P 1'
_cell_length_a   13.11800000
_cell_length_b   14.62400000
_cell_length_c   15.19300000
_cell_angle_alpha   95.00000000
_cell_angle_beta   114.61000000
_cell_angle_gamma   111.88000000
_symmetry_Int_Tables_number   1
_chemical_formula_structural   V2CuMo12PH24C24(N6O17)2
_chemical_formula_sum   'V2 Cu1 Mo12 P1 H24 C24 N12 O34'
_cell_volume   2355.32694638
_cell_formula_units_Z   1
loop_
 _symmetry_equiv_pos_site_id
 _symmetry_equiv_pos_as_xyz
  1  'x, y, z'
loop_
 _atom_site_type_symbol
 _atom_site_label
 _atom_site_symmetry_multiplicity
 _atom_site_fract_x
 _atom_site_fract_y
 _atom_site_fract_z
 _atom_site_occupancy
 _atom_site_charge
  V  V1  1  0.238480  0.002360  0.239500  1.0  1.9723
  V  V2  1  0.761520  0.997640  0.760500  1.0  1.973
  Cu  Cu3  1  0.000000  0.000000  0.000000  1.0  0.709
  Mo  Mo4  1  0.666030  0.278220  0.574240  1.0  1.3383
  Mo  Mo5  1  0.681450  0.982010  0.377950  1.0  1.3128
  Mo  Mo6  1  0.837330  0.133020  0.632590  1.0  1.4802
  Mo  Mo7  1  0.523230  0.136770  0.318190  1.0  1.3566
  Mo  Mo8  1  0.318550  0.017990  0.622050  1.0  1.3123
  Mo  Mo9  1  0.665280  0.845980  0.558490  1.0  1.4099
  Mo  Mo10  1  0.476770  0.863230  0.681810  1.0  1.3531
  Mo  Mo11  1  0.650830  0.149000  0.759280  1.0  1.3257
  Mo  Mo12  1  0.334720  0.154020  0.441510  1.0  1.4098
  Mo  Mo13  1  0.349170  0.851000  0.240720  1.0  1.3339
  Mo  Mo14  1  0.333970  0.721780  0.425760  1.0  1.3386
  Mo  Mo15  1  0.162670  0.866980  0.367410  1.0  1.4796
  P  P16  1  0.500000  0.000000  0.500000  1.0  1.4341
  H  H17  1  0.454200  0.851300  0.049900  1.0  0.1347
  H  H18  1  0.788000  0.071800  0.977100  1.0  0.1139
  H  H19  1  0.250100  0.287100  0.833900  1.0  0.1353
  H  H20  1  0.292200  0.178500  0.141800  1.0  0.1056
  H  H21  1  0.643300  0.747400  0.125300  1.0  0.1469
  H  H22  1  0.651900  0.990400  0.138200  1.0  0.1187
  H  H23  1  0.212000  0.928200  0.022900  1.0  0.1147
  H  H24  1  0.356700  0.252600  0.874700  1.0  0.1465
  H  H25  1  0.548200  0.394600  0.925900  1.0  0.1201
  H  H26  1  0.707800  0.821500  0.858200  1.0  0.1058
  H  H27  1  0.082200  0.135900  0.226500  1.0  0.0892
  H  H28  1  0.348100  0.009600  0.861800  1.0  0.1183
  H  H29  1  0.252000  0.773200  0.919700  1.0  0.1347
  H  H30  1  0.451800  0.605400  0.074100  1.0  0.1204
  H  H31  1  0.760200  0.195900  0.179000  1.0  0.1503
  H  H32  1  0.749900  0.712900  0.166100  1.0  0.1389
  H  H33  1  0.748000  0.226800  0.080300  1.0  0.1349
  H  H34  1  0.918600  0.860900  0.140500  1.0  0.1075
  H  H35  1  0.683400  0.561800  0.991000  1.0  0.1506
  H  H36  1  0.081400  0.139100  0.859500  1.0  0.1079
  H  H37  1  0.917800  0.864100  0.773500  1.0  0.0899
  H  H38  1  0.316600  0.438200  0.009000  1.0  0.1499
  H  H39  1  0.239800  0.804100  0.821000  1.0  0.1499
  H  H40  1  0.545800  0.148700  0.950100  1.0  0.1346
  C  C41  1  0.389500  0.462500  0.003500  1.0  -0.2035
  C  C42  1  0.589700  0.994400  0.081900  1.0  -0.0594
  C  C43  1  0.150700  0.903900  0.955200  1.0  0.1632
  C  C44  1  0.472200  0.561300  0.044700  1.0  -0.1048
  C  C45  1  0.528800  0.089600  0.971300  1.0  -0.1488
  C  C46  1  0.255500  0.828900  0.888900  1.0  0.0156
  C  C47  1  0.410300  0.005600  0.918100  1.0  -0.0601
  C  C48  1  0.471200  0.910400  0.028700  1.0  -0.1497
  C  C49  1  0.527800  0.438700  0.955300  1.0  -0.1061
  C  C50  1  0.588400  0.602800  0.046400  1.0  0.155
  C  C51  1  0.610500  0.537500  0.996500  1.0  -0.2014
  C  C52  1  0.005400  0.130800  0.179600  1.0  0.2564
  C  C53  1  0.736400  0.815500  0.923600  1.0  0.2396
  C  C54  1  0.617400  0.084700  0.052800  1.0  0.1239
  C  C55  1  0.382600  0.915300  0.947200  1.0  0.1236
  C  C56  1  0.994600  0.869200  0.820400  1.0  0.2584
  C  C57  1  0.149500  0.162500  0.924300  1.0  0.1493
  C  C58  1  0.744500  0.171100  0.111100  1.0  0.0133
  C  C59  1  0.683500  0.712400  0.105100  1.0  -0.0274
  C  C60  1  0.850500  0.837500  0.075700  1.0  0.1503
  C  C61  1  0.411600  0.397200  0.953600  1.0  0.1493
  C  C62  1  0.316500  0.287600  0.894900  1.0  -0.0267
  C  C63  1  0.849300  0.096100  0.044800  1.0  0.1611
  C  C64  1  0.263600  0.184500  0.076400  1.0  0.2387
  N  N65  1  0.157000  0.854800  0.882700  1.0  0.206
  N  N66  1  0.260900  0.230500  0.949700  1.0  0.2041
  N  N67  1  0.857000  0.870400  0.998100  1.0  -0.4064
  N  N68  1  0.943000  0.165600  0.204800  1.0  -0.3423
  N  N69  1  0.843000  0.145200  0.117300  1.0  0.2027
  N  N70  1  0.661700  0.750900  0.954200  1.0  -0.3478
  N  N71  1  0.057000  0.834400  0.795200  1.0  -0.3412
  N  N72  1  0.739100  0.769500  0.050300  1.0  0.2044
  N  N73  1  0.143000  0.129600  0.001900  1.0  -0.409
  N  N74  1  0.338300  0.249100  0.045800  1.0  -0.3485
  N  N75  1  0.048100  0.914300  0.920600  1.0  -0.4054
  N  N76  1  0.951900  0.085700  0.079400  1.0  -0.4039
  O  O77  1  0.512100  0.997900  0.398800  1.0  -0.7173
  O  O78  1  0.797100  0.990600  0.650700  1.0  -0.8773
  O  O79  1  0.210200  0.867700  0.255800  1.0  -0.8995
  O  O80  1  0.386500  0.006300  0.482900  1.0  -0.37
  O  O81  1  0.330200  0.747900  0.303000  1.0  -0.7618
  O  O82  1  0.376200  0.994400  0.233200  1.0  -0.8515
  O  O83  1  0.202900  0.009400  0.349300  1.0  -0.8758
  O  O84  1  0.628700  0.863300  0.675300  1.0  -0.8534
  O  O85  1  0.871500  0.001000  0.867700  1.0  -0.7076
  O  O86  1  0.512600  0.884000  0.278300  1.0  -0.7174
  O  O87  1  0.128500  0.999000  0.132300  1.0  -0.7067
  O  O88  1  0.377800  0.902000  0.420800  1.0  -0.6083
  O  O89  1  0.487400  0.116000  0.721700  1.0  -0.7212
  O  O90  1  0.635100  0.087100  0.330800  1.0  -0.7113
  O  O91  1  0.807500  0.084400  0.505500  1.0  -0.7277
  O  O92  1  0.504600  0.745600  0.477300  1.0  -0.741
  O  O93  1  0.487900  0.002100  0.601200  1.0  -0.7204
  O  O94  1  0.613500  0.993700  0.517100  1.0  -0.3637
  O  O95  1  0.627500  0.241600  0.436300  1.0  -0.6936
  O  O96  1  0.623800  0.005600  0.766800  1.0  -0.8522
  O  O97  1  0.789800  0.132300  0.744200  1.0  -0.8996
  O  O98  1  0.372500  0.758400  0.563700  1.0  -0.6889
  O  O99  1  0.364900  0.912900  0.669200  1.0  -0.7106
  O  O100  1  0.494900  0.093800  0.472100  1.0  -0.4606
  O  O101  1  0.669800  0.252100  0.697000  1.0  -0.7664
  O  O102  1  0.505100  0.906200  0.527900  1.0  -0.4584
  O  O103  1  0.202400  0.763400  0.392400  1.0  -0.8028
  O  O104  1  0.797600  0.236600  0.607600  1.0  -0.8069
  O  O105  1  0.371300  0.136700  0.324700  1.0  -0.8511
  O  O106  1  0.495400  0.254400  0.522700  1.0  -0.7447
  O  O107  1  0.687100  0.883600  0.451600  1.0  -0.7342
  O  O108  1  0.192500  0.915600  0.494500  1.0  -0.7309
  O  O109  1  0.312900  0.116400  0.548400  1.0  -0.7385
  O  O110  1  0.622200  0.098000  0.579200  1.0  -0.61
