# generated using pymatgen
data_ZnH13C20NO4
_symmetry_space_group_name_H-M   'P 1'
_cell_length_a   26.13770000
_cell_length_b   6.74640000
_cell_length_c   25.02350000
_cell_angle_alpha   90.00000000
_cell_angle_beta   105.91600000
_cell_angle_gamma   90.00000000
_symmetry_Int_Tables_number   1
_chemical_formula_structural   ZnH13C20NO4
_chemical_formula_sum   'Zn8 H104 C160 N8 O32'
_cell_volume   4243.37306580
_cell_formula_units_Z   8
loop_
 _symmetry_equiv_pos_site_id
 _symmetry_equiv_pos_as_xyz
  1  'x, y, z'
loop_
 _atom_site_type_symbol
 _atom_site_label
 _atom_site_symmetry_multiplicity
 _atom_site_fract_x
 _atom_site_fract_y
 _atom_site_fract_z
 _atom_site_occupancy
 _atom_site_charge
  Zn  Zn1  1  0.934970  0.885550  0.965760  1.0  0.9068
  Zn  Zn2  1  0.434970  0.385550  0.965760  1.0  0.9068
  Zn  Zn3  1  0.065030  0.885550  0.534240  1.0  0.9076
  Zn  Zn4  1  0.565030  0.385550  0.534240  1.0  0.9076
  Zn  Zn5  1  0.065030  0.114450  0.034240  1.0  0.9068
  Zn  Zn6  1  0.565030  0.614450  0.034240  1.0  0.9068
  Zn  Zn7  1  0.934970  0.114450  0.465760  1.0  0.906
  Zn  Zn8  1  0.434970  0.614450  0.465760  1.0  0.906
  H  H9  1  0.893200  0.327200  0.830700  1.0  0.0959
  H  H10  1  0.895700  0.507200  0.753800  1.0  0.1059
  H  H11  1  0.940200  0.022200  0.686400  1.0  0.1016
  H  H12  1  0.935000  0.841200  0.762400  1.0  0.1023
  H  H13  1  0.868200  0.611200  0.663500  1.0  0.1157
  H  H14  1  0.884700  0.814100  0.596000  1.0  0.0965
  H  H15  1  0.999300  0.445600  0.579600  1.0  0.0918
  H  H16  1  0.981800  0.240500  0.645300  1.0  0.0944
  H  H17  1  0.852500  0.826700  0.025400  1.0  0.078
  H  H18  1  0.789700  0.602700  0.033400  1.0  0.1265
  H  H19  1  0.837100  0.250300  0.927400  1.0  0.1262
  H  H20  1  0.898500  0.483200  0.922300  1.0  0.0705
  H  H21  1  0.763100  0.137600  0.960500  1.0  0.0925
  H  H22  1  0.393200  0.827200  0.830700  1.0  0.0959
  H  H23  1  0.395700  0.007200  0.753800  1.0  0.1059
  H  H24  1  0.440200  0.522200  0.686400  1.0  0.1016
  H  H25  1  0.435000  0.341200  0.762400  1.0  0.1023
  H  H26  1  0.368200  0.111200  0.663500  1.0  0.1157
  H  H27  1  0.384700  0.314100  0.596000  1.0  0.0965
  H  H28  1  0.499300  0.945600  0.579600  1.0  0.0918
  H  H29  1  0.481800  0.740500  0.645300  1.0  0.0944
  H  H30  1  0.352500  0.326700  0.025400  1.0  0.078
  H  H31  1  0.289700  0.102700  0.033400  1.0  0.1265
  H  H32  1  0.337100  0.750300  0.927400  1.0  0.1262
  H  H33  1  0.398500  0.983200  0.922300  1.0  0.0705
  H  H34  1  0.263100  0.637600  0.960500  1.0  0.0925
  H  H35  1  0.106800  0.327200  0.669300  1.0  0.0959
  H  H36  1  0.104300  0.507200  0.746200  1.0  0.107
  H  H37  1  0.059800  0.022200  0.813600  1.0  0.1016
  H  H38  1  0.065000  0.841200  0.737600  1.0  0.1026
  H  H39  1  0.131800  0.611200  0.836500  1.0  0.116
  H  H40  1  0.115300  0.814100  0.904000  1.0  0.0963
  H  H41  1  0.000700  0.445600  0.920400  1.0  0.0921
  H  H42  1  0.018200  0.240500  0.854700  1.0  0.0941
  H  H43  1  0.147500  0.826700  0.474600  1.0  0.0778
  H  H44  1  0.210300  0.602700  0.466600  1.0  0.127
  H  H45  1  0.162900  0.250300  0.572600  1.0  0.1253
  H  H46  1  0.101500  0.483200  0.577700  1.0  0.0708
  H  H47  1  0.236900  0.137600  0.539500  1.0  0.0936
  H  H48  1  0.606800  0.827200  0.669300  1.0  0.0959
  H  H49  1  0.604300  0.007200  0.746200  1.0  0.107
  H  H50  1  0.559800  0.522200  0.813600  1.0  0.1016
  H  H51  1  0.565000  0.341200  0.737600  1.0  0.1026
  H  H52  1  0.631800  0.111200  0.836500  1.0  0.116
  H  H53  1  0.615300  0.314100  0.904000  1.0  0.0963
  H  H54  1  0.500700  0.945600  0.920400  1.0  0.0921
  H  H55  1  0.518200  0.740500  0.854700  1.0  0.0941
  H  H56  1  0.647500  0.326700  0.474600  1.0  0.0778
  H  H57  1  0.710300  0.102700  0.466600  1.0  0.127
  H  H58  1  0.662900  0.750300  0.572600  1.0  0.1253
  H  H59  1  0.601500  0.983200  0.577700  1.0  0.0708
  H  H60  1  0.736900  0.637600  0.539500  1.0  0.0936
  H  H61  1  0.106800  0.672800  0.169300  1.0  0.096
  H  H62  1  0.104300  0.492800  0.246200  1.0  0.107
  H  H63  1  0.059800  0.977800  0.313600  1.0  0.1016
  H  H64  1  0.065000  0.158800  0.237600  1.0  0.1024
  H  H65  1  0.131800  0.388800  0.336500  1.0  0.1159
  H  H66  1  0.115300  0.185900  0.404000  1.0  0.0962
  H  H67  1  0.000700  0.554400  0.420400  1.0  0.0919
  H  H68  1  0.018200  0.759500  0.354700  1.0  0.0946
  H  H69  1  0.147500  0.173300  0.974600  1.0  0.0773
  H  H70  1  0.210300  0.397300  0.966600  1.0  0.1268
  H  H71  1  0.162900  0.749700  0.072600  1.0  0.1249
  H  H72  1  0.101500  0.516800  0.077700  1.0  0.0708
  H  H73  1  0.236900  0.862400  0.039500  1.0  0.0937
  H  H74  1  0.606800  0.172800  0.169300  1.0  0.096
  H  H75  1  0.604300  0.992800  0.246200  1.0  0.107
  H  H76  1  0.559800  0.477800  0.313600  1.0  0.1016
  H  H77  1  0.565000  0.658800  0.237600  1.0  0.1024
  H  H78  1  0.631800  0.888800  0.336500  1.0  0.1159
  H  H79  1  0.615300  0.685900  0.404000  1.0  0.0962
  H  H80  1  0.500700  0.054400  0.420400  1.0  0.0919
  H  H81  1  0.518200  0.259500  0.354700  1.0  0.0946
  H  H82  1  0.647500  0.673300  0.974600  1.0  0.0773
  H  H83  1  0.710300  0.897300  0.966600  1.0  0.1268
  H  H84  1  0.662900  0.249700  0.072600  1.0  0.1249
  H  H85  1  0.601500  0.016800  0.077700  1.0  0.0708
  H  H86  1  0.736900  0.362400  0.039500  1.0  0.0937
  H  H87  1  0.893200  0.672800  0.330700  1.0  0.0964
  H  H88  1  0.895700  0.492800  0.253800  1.0  0.1061
  H  H89  1  0.940200  0.977800  0.186400  1.0  0.1016
  H  H90  1  0.935000  0.158800  0.262400  1.0  0.1019
  H  H91  1  0.868200  0.388800  0.163500  1.0  0.1158
  H  H92  1  0.884700  0.185900  0.096000  1.0  0.0964
  H  H93  1  0.999300  0.554400  0.079600  1.0  0.0916
  H  H94  1  0.981800  0.759500  0.145300  1.0  0.0947
  H  H95  1  0.852500  0.173300  0.525400  1.0  0.0778
  H  H96  1  0.789700  0.397300  0.533400  1.0  0.1264
  H  H97  1  0.837100  0.749700  0.427400  1.0  0.1262
  H  H98  1  0.898500  0.516800  0.422300  1.0  0.0703
  H  H99  1  0.763100  0.862400  0.460500  1.0  0.093
  H  H100  1  0.393200  0.172800  0.330700  1.0  0.0964
  H  H101  1  0.395700  0.992800  0.253800  1.0  0.1061
  H  H102  1  0.440200  0.477800  0.186400  1.0  0.1016
  H  H103  1  0.435000  0.658800  0.262400  1.0  0.1019
  H  H104  1  0.368200  0.888800  0.163500  1.0  0.1158
  H  H105  1  0.384700  0.685900  0.096000  1.0  0.0964
  H  H106  1  0.499300  0.054400  0.079600  1.0  0.0916
  H  H107  1  0.481800  0.259500  0.145300  1.0  0.0947
  H  H108  1  0.352500  0.673300  0.525400  1.0  0.0778
  H  H109  1  0.289700  0.897300  0.533400  1.0  0.1264
  H  H110  1  0.337100  0.249700  0.427400  1.0  0.1262
  H  H111  1  0.398500  0.016800  0.422300  1.0  0.0703
  H  H112  1  0.263100  0.362400  0.460500  1.0  0.093
  C  C113  1  0.914410  0.065900  0.805200  1.0  -0.0921
  C  C114  1  0.902560  0.264900  0.801580  1.0  -0.0416
  C  C115  1  0.904420  0.373300  0.755540  1.0  -0.1139
  C  C116  1  0.919040  0.287000  0.711700  1.0  0.0439
  C  C117  1  0.930510  0.084800  0.715300  1.0  -0.1422
  C  C118  1  0.927760  0.976400  0.761120  1.0  -0.0307
  C  C119  1  0.916230  0.949600  0.856900  1.0  0.6764
  C  C120  1  0.925150  0.408300  0.664080  1.0  0.051
  C  C121  1  0.895140  0.578700  0.647310  1.0  -0.135
  C  C122  1  0.905020  0.700400  0.606760  1.0  -0.0352
  C  C123  1  0.944880  0.654900  0.581890  1.0  -0.1453
  C  C124  1  0.973190  0.480400  0.596720  1.0  -0.0376
  C  C125  1  0.963030  0.358600  0.636510  1.0  -0.0977
  C  C126  1  0.958260  0.793100  0.541570  1.0  0.6553
  C  C127  1  0.848960  0.709500  0.005190  1.0  0.1757
  C  C128  1  0.811190  0.575700  0.010180  1.0  -0.1823
  C  C129  1  0.805020  0.399800  0.980520  1.0  0.1337
  C  C130  1  0.839280  0.367400  0.947460  1.0  -0.2075
  C  C131  1  0.876010  0.507800  0.944600  1.0  0.1882
  C  C132  1  0.765810  0.247200  0.983600  1.0  -0.1355
  C  C133  1  0.414410  0.565900  0.805200  1.0  -0.0921
  C  C134  1  0.402560  0.764900  0.801580  1.0  -0.0416
  C  C135  1  0.404420  0.873300  0.755540  1.0  -0.1139
  C  C136  1  0.419040  0.787000  0.711700  1.0  0.0439
  C  C137  1  0.430510  0.584800  0.715300  1.0  -0.1422
  C  C138  1  0.427760  0.476400  0.761120  1.0  -0.0307
  C  C139  1  0.416230  0.449600  0.856900  1.0  0.6764
  C  C140  1  0.425150  0.908300  0.664080  1.0  0.051
  C  C141  1  0.395140  0.078700  0.647310  1.0  -0.135
  C  C142  1  0.405020  0.200400  0.606760  1.0  -0.0352
  C  C143  1  0.444880  0.154900  0.581890  1.0  -0.1453
  C  C144  1  0.473190  0.980400  0.596720  1.0  -0.0376
  C  C145  1  0.463030  0.858600  0.636510  1.0  -0.0977
  C  C146  1  0.458260  0.293100  0.541570  1.0  0.6553
  C  C147  1  0.348960  0.209500  0.005190  1.0  0.1757
  C  C148  1  0.311190  0.075700  0.010180  1.0  -0.1823
  C  C149  1  0.305020  0.899800  0.980520  1.0  0.1337
  C  C150  1  0.339280  0.867400  0.947460  1.0  -0.2075
  C  C151  1  0.376010  0.007800  0.944600  1.0  0.1882
  C  C152  1  0.265810  0.747200  0.983600  1.0  -0.1355
  C  C153  1  0.085590  0.065900  0.694800  1.0  -0.0902
  C  C154  1  0.097440  0.264900  0.698420  1.0  -0.0402
  C  C155  1  0.095580  0.373300  0.744460  1.0  -0.1134
  C  C156  1  0.080960  0.287000  0.788300  1.0  0.0434
  C  C157  1  0.069490  0.084800  0.784700  1.0  -0.1403
  C  C158  1  0.072240  0.976400  0.738880  1.0  -0.0307
  C  C159  1  0.083770  0.949600  0.643100  1.0  0.6764
  C  C160  1  0.074850  0.408300  0.835920  1.0  0.0506
  C  C161  1  0.104860  0.578700  0.852690  1.0  -0.1363
  C  C162  1  0.094980  0.700400  0.893240  1.0  -0.0373
  C  C163  1  0.055120  0.654900  0.918110  1.0  -0.1445
  C  C164  1  0.026810  0.480400  0.903280  1.0  -0.0362
  C  C165  1  0.036970  0.358600  0.863490  1.0  -0.0975
  C  C166  1  0.041740  0.793100  0.958430  1.0  0.6551
  C  C167  1  0.151040  0.709500  0.494810  1.0  0.176
  C  C168  1  0.188810  0.575700  0.489820  1.0  -0.182
  C  C169  1  0.194980  0.399800  0.519480  1.0  0.1345
  C  C170  1  0.160720  0.367400  0.552540  1.0  -0.2101
  C  C171  1  0.123990  0.507800  0.555400  1.0  0.1891
  C  C172  1  0.234190  0.247200  0.516400  1.0  -0.1358
  C  C173  1  0.585590  0.565900  0.694800  1.0  -0.0902
  C  C174  1  0.597440  0.764900  0.698420  1.0  -0.0402
  C  C175  1  0.595580  0.873300  0.744460  1.0  -0.1134
  C  C176  1  0.580960  0.787000  0.788300  1.0  0.0434
  C  C177  1  0.569490  0.584800  0.784700  1.0  -0.1403
  C  C178  1  0.572240  0.476400  0.738880  1.0  -0.0307
  C  C179  1  0.583770  0.449600  0.643100  1.0  0.6764
  C  C180  1  0.574850  0.908300  0.835920  1.0  0.0506
  C  C181  1  0.604860  0.078700  0.852690  1.0  -0.1363
  C  C182  1  0.594980  0.200400  0.893240  1.0  -0.0373
  C  C183  1  0.555120  0.154900  0.918110  1.0  -0.1445
  C  C184  1  0.526810  0.980400  0.903280  1.0  -0.0362
  C  C185  1  0.536970  0.858600  0.863490  1.0  -0.0975
  C  C186  1  0.541740  0.293100  0.958430  1.0  0.6551
  C  C187  1  0.651040  0.209500  0.494810  1.0  0.176
  C  C188  1  0.688810  0.075700  0.489820  1.0  -0.182
  C  C189  1  0.694980  0.899800  0.519480  1.0  0.1345
  C  C190  1  0.660720  0.867400  0.552540  1.0  -0.2101
  C  C191  1  0.623990  0.007800  0.555400  1.0  0.1891
  C  C192  1  0.734190  0.747200  0.516400  1.0  -0.1358
  C  C193  1  0.085590  0.934100  0.194800  1.0  -0.0897
  C  C194  1  0.097440  0.735100  0.198420  1.0  -0.0407
  C  C195  1  0.095580  0.626700  0.244460  1.0  -0.1127
  C  C196  1  0.080960  0.713000  0.288300  1.0  0.0434
  C  C197  1  0.069490  0.915200  0.284700  1.0  -0.1404
  C  C198  1  0.072240  0.023600  0.238880  1.0  -0.0309
  C  C199  1  0.083770  0.050400  0.143100  1.0  0.6763
  C  C200  1  0.074850  0.591700  0.335920  1.0  0.0506
  C  C201  1  0.104860  0.421300  0.352690  1.0  -0.1361
  C  C202  1  0.094980  0.299600  0.393240  1.0  -0.0367
  C  C203  1  0.055120  0.345100  0.418110  1.0  -0.1449
  C  C204  1  0.026810  0.519600  0.403280  1.0  -0.0364
  C  C205  1  0.036970  0.641400  0.363490  1.0  -0.0966
  C  C206  1  0.041740  0.206900  0.458430  1.0  0.6556
  C  C207  1  0.151040  0.290500  0.994810  1.0  0.1753
  C  C208  1  0.188810  0.424300  0.989820  1.0  -0.1818
  C  C209  1  0.194980  0.600200  0.019480  1.0  0.1346
  C  C210  1  0.160720  0.632600  0.052540  1.0  -0.2096
  C  C211  1  0.123990  0.492200  0.055400  1.0  0.1895
  C  C212  1  0.234190  0.752800  0.016400  1.0  -0.1369
  C  C213  1  0.585590  0.434100  0.194800  1.0  -0.0897
  C  C214  1  0.597440  0.235100  0.198420  1.0  -0.0407
  C  C215  1  0.595580  0.126700  0.244460  1.0  -0.1127
  C  C216  1  0.580960  0.213000  0.288300  1.0  0.0434
  C  C217  1  0.569490  0.415200  0.284700  1.0  -0.1404
  C  C218  1  0.572240  0.523600  0.238880  1.0  -0.0309
  C  C219  1  0.583770  0.550400  0.143100  1.0  0.6763
  C  C220  1  0.574850  0.091700  0.335920  1.0  0.0506
  C  C221  1  0.604860  0.921300  0.352690  1.0  -0.1361
  C  C222  1  0.594980  0.799600  0.393240  1.0  -0.0367
  C  C223  1  0.555120  0.845100  0.418110  1.0  -0.1449
  C  C224  1  0.526810  0.019600  0.403280  1.0  -0.0364
  C  C225  1  0.536970  0.141400  0.363490  1.0  -0.0966
  C  C226  1  0.541740  0.706900  0.458430  1.0  0.6556
  C  C227  1  0.651040  0.790500  0.994810  1.0  0.1753
  C  C228  1  0.688810  0.924300  0.989820  1.0  -0.1818
  C  C229  1  0.694980  0.100200  0.019480  1.0  0.1346
  C  C230  1  0.660720  0.132600  0.052540  1.0  -0.2096
  C  C231  1  0.623990  0.992200  0.055400  1.0  0.1895
  C  C232  1  0.734190  0.252800  0.016400  1.0  -0.1369
  C  C233  1  0.914410  0.934100  0.305200  1.0  -0.0917
  C  C234  1  0.902560  0.735100  0.301580  1.0  -0.0417
  C  C235  1  0.904420  0.626700  0.255540  1.0  -0.1127
  C  C236  1  0.919040  0.713000  0.211700  1.0  0.0439
  C  C237  1  0.930510  0.915200  0.215300  1.0  -0.142
  C  C238  1  0.927760  0.023600  0.261120  1.0  -0.0321
  C  C239  1  0.916230  0.050400  0.356900  1.0  0.6766
  C  C240  1  0.925150  0.591700  0.164080  1.0  0.051
  C  C241  1  0.895140  0.421300  0.147310  1.0  -0.1354
  C  C242  1  0.905020  0.299600  0.106760  1.0  -0.0351
  C  C243  1  0.944880  0.345100  0.081890  1.0  -0.1456
  C  C244  1  0.973190  0.519600  0.096720  1.0  -0.0375
  C  C245  1  0.963030  0.641400  0.136510  1.0  -0.0971
  C  C246  1  0.958260  0.206900  0.041570  1.0  0.6554
  C  C247  1  0.848960  0.290500  0.505190  1.0  0.1748
  C  C248  1  0.811190  0.424300  0.510180  1.0  -0.1817
  C  C249  1  0.805020  0.600200  0.480520  1.0  0.1337
  C  C250  1  0.839280  0.632600  0.447460  1.0  -0.208
  C  C251  1  0.876010  0.492200  0.444600  1.0  0.1878
  C  C252  1  0.765810  0.752800  0.483600  1.0  -0.1374
  C  C253  1  0.414410  0.434100  0.305200  1.0  -0.0917
  C  C254  1  0.402560  0.235100  0.301580  1.0  -0.0417
  C  C255  1  0.404420  0.126700  0.255540  1.0  -0.1127
  C  C256  1  0.419040  0.213000  0.211700  1.0  0.0439
  C  C257  1  0.430510  0.415200  0.215300  1.0  -0.142
  C  C258  1  0.427760  0.523600  0.261120  1.0  -0.0321
  C  C259  1  0.416230  0.550400  0.356900  1.0  0.6766
  C  C260  1  0.425150  0.091700  0.164080  1.0  0.051
  C  C261  1  0.395140  0.921300  0.147310  1.0  -0.1354
  C  C262  1  0.405020  0.799600  0.106760  1.0  -0.0351
  C  C263  1  0.444880  0.845100  0.081890  1.0  -0.1456
  C  C264  1  0.473190  0.019600  0.096720  1.0  -0.0375
  C  C265  1  0.463030  0.141400  0.136510  1.0  -0.0971
  C  C266  1  0.458260  0.706900  0.041570  1.0  0.6554
  C  C267  1  0.348960  0.790500  0.505190  1.0  0.1748
  C  C268  1  0.311190  0.924300  0.510180  1.0  -0.1817
  C  C269  1  0.305020  0.100200  0.480520  1.0  0.1337
  C  C270  1  0.339280  0.132600  0.447460  1.0  -0.208
  C  C271  1  0.376010  0.992200  0.444600  1.0  0.1878
  C  C272  1  0.265810  0.252800  0.483600  1.0  -0.1374
  N  N273  1  0.881070  0.679000  0.972400  1.0  -0.3634
  N  N274  1  0.381070  0.179000  0.972400  1.0  -0.3634
  N  N275  1  0.118930  0.679000  0.527600  1.0  -0.3629
  N  N276  1  0.618930  0.179000  0.527600  1.0  -0.3629
  N  N277  1  0.118930  0.321000  0.027600  1.0  -0.3618
  N  N278  1  0.618930  0.821000  0.027600  1.0  -0.3618
  N  N279  1  0.881070  0.321000  0.472400  1.0  -0.3627
  N  N280  1  0.381070  0.821000  0.472400  1.0  -0.3627
  O  O281  1  0.919440  0.052700  0.900590  1.0  -0.5989
  O  O282  1  0.915440  0.767700  0.855890  1.0  -0.5711
  O  O283  1  0.996580  0.751800  0.521940  1.0  -0.6189
  O  O284  1  0.929660  0.946100  0.528340  1.0  -0.5829
  O  O285  1  0.419440  0.552700  0.900590  1.0  -0.5989
  O  O286  1  0.415440  0.267700  0.855890  1.0  -0.5711
  O  O287  1  0.496580  0.251800  0.521940  1.0  -0.6189
  O  O288  1  0.429660  0.446100  0.528340  1.0  -0.5829
  O  O289  1  0.080560  0.052700  0.599410  1.0  -0.5982
  O  O290  1  0.084560  0.767700  0.644110  1.0  -0.5718
  O  O291  1  0.003420  0.751800  0.978060  1.0  -0.6192
  O  O292  1  0.070340  0.946100  0.971660  1.0  -0.5835
  O  O293  1  0.580560  0.552700  0.599410  1.0  -0.5982
  O  O294  1  0.584560  0.267700  0.644110  1.0  -0.5718
  O  O295  1  0.503420  0.251800  0.978060  1.0  -0.6192
  O  O296  1  0.570340  0.446100  0.971660  1.0  -0.5835
  O  O297  1  0.080560  0.947300  0.099410  1.0  -0.5982
  O  O298  1  0.084560  0.232300  0.144110  1.0  -0.5704
  O  O299  1  0.003420  0.248200  0.478060  1.0  -0.6193
  O  O300  1  0.070340  0.053900  0.471660  1.0  -0.5829
  O  O301  1  0.580560  0.447300  0.099410  1.0  -0.5982
  O  O302  1  0.584560  0.732300  0.144110  1.0  -0.5704
  O  O303  1  0.503420  0.748200  0.478060  1.0  -0.6193
  O  O304  1  0.570340  0.553900  0.471660  1.0  -0.5829
  O  O305  1  0.919440  0.947300  0.400590  1.0  -0.5987
  O  O306  1  0.915440  0.232300  0.355890  1.0  -0.5708
  O  O307  1  0.996580  0.248200  0.021940  1.0  -0.6191
  O  O308  1  0.929660  0.053900  0.028340  1.0  -0.5828
  O  O309  1  0.419440  0.447300  0.400590  1.0  -0.5987
  O  O310  1  0.415440  0.732300  0.355890  1.0  -0.5708
  O  O311  1  0.496580  0.748200  0.021940  1.0  -0.6191
  O  O312  1  0.429660  0.553900  0.028340  1.0  -0.5828
