# generated using pymatgen
data_CuH12C18(NO)3
_symmetry_space_group_name_H-M   'P 1'
_cell_length_a   15.27930000
_cell_length_b   19.30660000
_cell_length_c   20.77180000
_cell_angle_alpha   90.00000000
_cell_angle_beta   99.01000000
_cell_angle_gamma   90.00000000
_symmetry_Int_Tables_number   1
_chemical_formula_structural   CuH12C18(NO)3
_chemical_formula_sum   'Cu8 H96 C144 N24 O24'
_cell_volume   6051.89388253
_cell_formula_units_Z   8
loop_
 _symmetry_equiv_pos_site_id
 _symmetry_equiv_pos_as_xyz
  1  'x, y, z'
loop_
 _atom_site_type_symbol
 _atom_site_label
 _atom_site_symmetry_multiplicity
 _atom_site_fract_x
 _atom_site_fract_y
 _atom_site_fract_z
 _atom_site_occupancy
 _atom_site_charge
  Cu  Cu1  1  0.678910  0.537110  0.763010  1.0  0.8188
  Cu  Cu2  1  0.543120  0.459310  0.831460  1.0  0.9415
  Cu  Cu3  1  0.678910  0.962890  0.263010  1.0  0.8188
  Cu  Cu4  1  0.543120  0.040690  0.331460  1.0  0.9414
  Cu  Cu5  1  0.321090  0.037110  0.736990  1.0  0.8195
  Cu  Cu6  1  0.456880  0.959310  0.668540  1.0  0.9406
  Cu  Cu7  1  0.321090  0.462890  0.236990  1.0  0.8197
  Cu  Cu8  1  0.456880  0.540690  0.168540  1.0  0.9405
  H  H9  1  0.634700  0.941700  0.115100  1.0  0.0963
  H  H10  1  0.645300  0.861800  0.036000  1.0  0.1177
  H  H11  1  0.693200  0.718000  0.175200  1.0  0.1208
  H  H12  1  0.701300  0.799700  0.248600  1.0  0.0788
  H  H13  1  0.654100  0.793500  0.966900  1.0  0.1118
  H  H14  1  0.657000  0.714300  0.884900  1.0  0.1063
  H  H15  1  0.646200  0.563500  0.008100  1.0  0.079
  H  H16  1  0.675200  0.639600  0.100400  1.0  0.1156
  H  H17  1  0.841300  0.615600  0.804200  1.0  0.0738
  H  H18  1  0.996500  0.606100  0.820300  1.0  0.1393
  H  H19  1  0.961700  0.408700  0.766200  1.0  0.1132
  H  H20  1  0.811500  0.423600  0.756800  1.0  0.0848
  H  H21  1  0.120900  0.576700  0.867500  1.0  0.1052
  H  H22  1  0.270200  0.566000  0.885700  1.0  0.1067
  H  H23  1  0.253800  0.403400  0.764000  1.0  0.1116
  H  H24  1  0.097000  0.414200  0.746300  1.0  0.1161
  H  H25  1  0.555900  0.046000  0.472900  1.0  0.0783
  H  H26  1  0.573800  0.122800  0.556600  1.0  0.1243
  H  H27  1  0.567400  0.275600  0.426500  1.0  0.1144
  H  H28  1  0.558600  0.194300  0.345800  1.0  0.0888
  H  H29  1  0.533900  0.204400  0.621200  1.0  0.1011
  H  H30  1  0.557600  0.281000  0.705500  1.0  0.0996
  H  H31  1  0.667900  0.411700  0.594600  1.0  0.1056
  H  H32  1  0.646200  0.332700  0.509400  1.0  0.1106
  H  H33  1  0.634700  0.558300  0.615100  1.0  0.0955
  H  H34  1  0.645300  0.638200  0.536000  1.0  0.1177
  H  H35  1  0.693200  0.782000  0.675200  1.0  0.1211
  H  H36  1  0.701300  0.700300  0.748600  1.0  0.0783
  H  H37  1  0.654100  0.706500  0.466900  1.0  0.112
  H  H38  1  0.657000  0.785700  0.384900  1.0  0.1062
  H  H39  1  0.646200  0.936500  0.508100  1.0  0.0789
  H  H40  1  0.675200  0.860400  0.600400  1.0  0.1155
  H  H41  1  0.841300  0.884400  0.304200  1.0  0.073
  H  H42  1  0.996500  0.893900  0.320300  1.0  0.1397
  H  H43  1  0.961700  0.091300  0.266200  1.0  0.1131
  H  H44  1  0.811500  0.076400  0.256800  1.0  0.0851
  H  H45  1  0.120900  0.923300  0.367500  1.0  0.1051
  H  H46  1  0.270200  0.934000  0.385700  1.0  0.1068
  H  H47  1  0.253800  0.096600  0.264000  1.0  0.1117
  H  H48  1  0.097000  0.085800  0.246300  1.0  0.1166
  H  H49  1  0.555900  0.454000  0.972900  1.0  0.0783
  H  H50  1  0.573800  0.377200  0.056600  1.0  0.1245
  H  H51  1  0.567400  0.224400  0.926500  1.0  0.1157
  H  H52  1  0.558600  0.305700  0.845800  1.0  0.0885
  H  H53  1  0.533900  0.295600  0.121200  1.0  0.1015
  H  H54  1  0.557600  0.219000  0.205500  1.0  0.0995
  H  H55  1  0.667900  0.088300  0.094600  1.0  0.1057
  H  H56  1  0.646200  0.167300  0.009400  1.0  0.1106
  H  H57  1  0.365300  0.441700  0.384900  1.0  0.0958
  H  H58  1  0.354700  0.361800  0.464000  1.0  0.1187
  H  H59  1  0.306800  0.218000  0.324800  1.0  0.1216
  H  H60  1  0.298700  0.299700  0.251400  1.0  0.0789
  H  H61  1  0.345900  0.293500  0.533100  1.0  0.1121
  H  H62  1  0.343000  0.214300  0.615100  1.0  0.1067
  H  H63  1  0.353800  0.063500  0.491900  1.0  0.0792
  H  H64  1  0.324800  0.139600  0.399600  1.0  0.1154
  H  H65  1  0.158700  0.115600  0.695800  1.0  0.0737
  H  H66  1  0.003500  0.106100  0.679700  1.0  0.139
  H  H67  1  0.038300  0.908700  0.733800  1.0  0.113
  H  H68  1  0.188500  0.923600  0.743200  1.0  0.0847
  H  H69  1  0.879100  0.076700  0.632500  1.0  0.105
  H  H70  1  0.729800  0.066000  0.614300  1.0  0.1071
  H  H71  1  0.746200  0.903400  0.736000  1.0  0.1117
  H  H72  1  0.903000  0.914200  0.753700  1.0  0.1173
  H  H73  1  0.444100  0.546000  0.027100  1.0  0.0783
  H  H74  1  0.426200  0.622800  0.943400  1.0  0.1246
  H  H75  1  0.432600  0.775600  0.073500  1.0  0.1153
  H  H76  1  0.441400  0.694300  0.154200  1.0  0.0889
  H  H77  1  0.466100  0.704400  0.878800  1.0  0.1012
  H  H78  1  0.442400  0.781000  0.794500  1.0  0.0997
  H  H79  1  0.332100  0.911700  0.905400  1.0  0.1059
  H  H80  1  0.353800  0.832700  0.990600  1.0  0.1112
  H  H81  1  0.365300  0.058300  0.884900  1.0  0.0955
  H  H82  1  0.354700  0.138200  0.964000  1.0  0.1184
  H  H83  1  0.306800  0.282000  0.824800  1.0  0.1222
  H  H84  1  0.298700  0.200300  0.751400  1.0  0.0784
  H  H85  1  0.345900  0.206500  0.033100  1.0  0.1126
  H  H86  1  0.343000  0.285700  0.115100  1.0  0.1069
  H  H87  1  0.353800  0.436500  0.991900  1.0  0.079
  H  H88  1  0.324800  0.360400  0.899600  1.0  0.1152
  H  H89  1  0.158700  0.384400  0.195800  1.0  0.0725
  H  H90  1  0.003500  0.393900  0.179700  1.0  0.1391
  H  H91  1  0.038300  0.591300  0.233800  1.0  0.1129
  H  H92  1  0.188500  0.576400  0.243200  1.0  0.0848
  H  H93  1  0.879100  0.423300  0.132500  1.0  0.1053
  H  H94  1  0.729800  0.434000  0.114300  1.0  0.1068
  H  H95  1  0.746200  0.596600  0.236000  1.0  0.1114
  H  H96  1  0.903000  0.585800  0.253700  1.0  0.1176
  H  H97  1  0.444100  0.954000  0.527100  1.0  0.0783
  H  H98  1  0.426200  0.877200  0.443400  1.0  0.1243
  H  H99  1  0.432600  0.724400  0.573500  1.0  0.1162
  H  H100  1  0.441400  0.805700  0.654200  1.0  0.0892
  H  H101  1  0.466100  0.795600  0.378800  1.0  0.1017
  H  H102  1  0.442400  0.719000  0.294500  1.0  0.0997
  H  H103  1  0.332100  0.588300  0.405400  1.0  0.1056
  H  H104  1  0.353800  0.667300  0.490600  1.0  0.1114
  C  C105  1  0.651100  0.896500  0.126900  1.0  0.1721
  C  C106  1  0.653100  0.847500  0.079300  1.0  -0.2031
  C  C107  1  0.665000  0.784100  0.091400  1.0  0.078
  C  C108  1  0.684200  0.764000  0.162700  1.0  -0.1938
  C  C109  1  0.687600  0.812000  0.204900  1.0  0.1658
  C  C110  1  0.666000  0.723600  0.037100  1.0  0.012
  C  C111  1  0.659700  0.746500  0.976100  1.0  -0.126
  C  C112  1  0.661700  0.699900  0.928000  1.0  -0.0445
  C  C113  1  0.671600  0.625400  0.944900  1.0  -0.0886
  C  C114  1  0.660900  0.609400  0.001400  1.0  0.0031
  C  C115  1  0.669000  0.654400  0.057200  1.0  -0.1373
  C  C116  1  0.866200  0.573000  0.796900  1.0  0.1624
  C  C117  1  0.960500  0.568200  0.807400  1.0  -0.2105
  C  C118  1  0.995700  0.502600  0.797200  1.0  0.1171
  C  C119  1  0.939500  0.451600  0.776100  1.0  -0.2008
  C  C120  1  0.848400  0.461300  0.768600  1.0  0.1721
  C  C121  1  0.094600  0.495700  0.805100  1.0  0.0038
  C  C122  1  0.147600  0.541600  0.846700  1.0  -0.1238
  C  C123  1  0.236400  0.535700  0.857200  1.0  -0.0397
  C  C124  1  0.277000  0.485900  0.826500  1.0  -0.1182
  C  C125  1  0.226300  0.438300  0.784400  1.0  -0.0673
  C  C126  1  0.132100  0.444600  0.774000  1.0  -0.1254
  C  C127  1  0.384400  0.484600  0.842200  1.0  0.6418
  C  C128  1  0.668100  0.577840  0.887590  1.0  0.6822
  C  C129  1  0.560200  0.092830  0.463620  1.0  0.1774
  C  C130  1  0.570000  0.138740  0.514040  1.0  -0.1858
  C  C131  1  0.574100  0.209860  0.501960  1.0  0.1082
  C  C132  1  0.567400  0.228870  0.437400  1.0  -0.2063
  C  C133  1  0.560500  0.179830  0.388700  1.0  0.1667
  C  C134  1  0.588000  0.259740  0.555110  1.0  0.038
  C  C135  1  0.561700  0.246240  0.615290  1.0  -0.1175
  C  C136  1  0.575300  0.292540  0.665990  1.0  -0.0347
  C  C137  1  0.613300  0.353390  0.659740  1.0  -0.1209
  C  C138  1  0.640800  0.369410  0.600040  1.0  -0.0735
  C  C139  1  0.627500  0.321670  0.548650  1.0  -0.1423
  C  C140  1  0.628700  0.406380  0.713550  1.0  0.6692
  C  C141  1  0.651100  0.603500  0.626900  1.0  0.1729
  C  C142  1  0.653100  0.652500  0.579300  1.0  -0.2043
  C  C143  1  0.665000  0.715900  0.591400  1.0  0.0766
  C  C144  1  0.684200  0.736000  0.662700  1.0  -0.1924
  C  C145  1  0.687600  0.688000  0.704900  1.0  0.1659
  C  C146  1  0.666000  0.776400  0.537100  1.0  0.0125
  C  C147  1  0.659700  0.753500  0.476100  1.0  -0.1274
  C  C148  1  0.661700  0.800100  0.428000  1.0  -0.0449
  C  C149  1  0.671600  0.874600  0.444900  1.0  -0.0862
  C  C150  1  0.660900  0.890600  0.501400  1.0  0.0012
  C  C151  1  0.669000  0.845600  0.557200  1.0  -0.1371
  C  C152  1  0.866200  0.927000  0.296900  1.0  0.1618
  C  C153  1  0.960500  0.931800  0.307400  1.0  -0.2101
  C  C154  1  0.995700  0.997400  0.297200  1.0  0.1172
  C  C155  1  0.939500  0.048400  0.276100  1.0  -0.2002
  C  C156  1  0.848400  0.038700  0.268600  1.0  0.1719
  C  C157  1  0.094600  0.004300  0.305100  1.0  0.0037
  C  C158  1  0.147600  0.958400  0.346700  1.0  -0.1228
  C  C159  1  0.236400  0.964300  0.357200  1.0  -0.0412
  C  C160  1  0.277000  0.014100  0.326500  1.0  -0.1178
  C  C161  1  0.226300  0.061700  0.284400  1.0  -0.068
  C  C162  1  0.132100  0.055400  0.274000  1.0  -0.1269
  C  C163  1  0.384400  0.015400  0.342200  1.0  0.642
  C  C164  1  0.668100  0.922160  0.387590  1.0  0.6823
  C  C165  1  0.560200  0.407170  0.963620  1.0  0.1774
  C  C166  1  0.570000  0.361260  0.014040  1.0  -0.1855
  C  C167  1  0.574100  0.290140  0.001960  1.0  0.1082
  C  C168  1  0.567400  0.271130  0.937400  1.0  -0.2047
  C  C169  1  0.560500  0.320170  0.888700  1.0  0.1665
  C  C170  1  0.588000  0.240260  0.055110  1.0  0.0378
  C  C171  1  0.561700  0.253760  0.115290  1.0  -0.117
  C  C172  1  0.575300  0.207460  0.165990  1.0  -0.0348
  C  C173  1  0.613300  0.146610  0.159740  1.0  -0.1205
  C  C174  1  0.640800  0.130590  0.100040  1.0  -0.0723
  C  C175  1  0.627500  0.178330  0.048650  1.0  -0.1419
  C  C176  1  0.628700  0.093620  0.213550  1.0  0.6693
  C  C177  1  0.348900  0.396500  0.373100  1.0  0.1726
  C  C178  1  0.346900  0.347500  0.420700  1.0  -0.204
  C  C179  1  0.335000  0.284100  0.408600  1.0  0.0784
  C  C180  1  0.315800  0.264000  0.337300  1.0  -0.1912
  C  C181  1  0.312400  0.312000  0.295100  1.0  0.1658
  C  C182  1  0.334000  0.223600  0.462900  1.0  0.015
  C  C183  1  0.340300  0.246500  0.523900  1.0  -0.1268
  C  C184  1  0.338300  0.199900  0.572000  1.0  -0.0429
  C  C185  1  0.328400  0.125400  0.555100  1.0  -0.1126
  C  C186  1  0.339100  0.109400  0.498600  1.0  1e-04
  C  C187  1  0.331000  0.154400  0.442800  1.0  -0.1383
  C  C188  1  0.133800  0.073000  0.703100  1.0  0.1631
  C  C189  1  0.039500  0.068200  0.692600  1.0  -0.2119
  C  C190  1  0.004300  0.002600  0.702800  1.0  0.1168
  C  C191  1  0.060500  0.951600  0.723900  1.0  -0.2004
  C  C192  1  0.151600  0.961300  0.731400  1.0  0.1726
  C  C193  1  0.905400  0.995700  0.694900  1.0  0.0036
  C  C194  1  0.852400  0.041600  0.653300  1.0  -0.1236
  C  C195  1  0.763600  0.035700  0.642800  1.0  -0.0373
  C  C196  1  0.723000  0.985900  0.673500  1.0  -0.1181
  C  C197  1  0.773700  0.938300  0.715600  1.0  -0.0679
  C  C198  1  0.867900  0.944600  0.726000  1.0  -0.125
  C  C199  1  0.615600  0.984600  0.657800  1.0  0.6433
  C  C200  1  0.331900  0.077840  0.612410  1.0  0.6822
  C  C201  1  0.439800  0.592830  0.036380  1.0  0.1773
  C  C202  1  0.430000  0.638740  0.985960  1.0  -0.1862
  C  C203  1  0.425900  0.709860  0.998040  1.0  0.1101
  C  C204  1  0.432600  0.728870  0.062600  1.0  -0.2077
  C  C205  1  0.439500  0.679830  0.111300  1.0  0.1656
  C  C206  1  0.412000  0.759740  0.944890  1.0  0.0374
  C  C207  1  0.438300  0.746240  0.884710  1.0  -0.1181
  C  C208  1  0.424700  0.792540  0.834010  1.0  -0.0381
  C  C209  1  0.386700  0.853390  0.840260  1.0  -0.1216
  C  C210  1  0.359200  0.869410  0.899960  1.0  -0.0725
  C  C211  1  0.372500  0.821670  0.951350  1.0  -0.1404
  C  C212  1  0.371300  0.906380  0.786450  1.0  0.6695
  C  C213  1  0.348900  0.103500  0.873100  1.0  0.1744
  C  C214  1  0.346900  0.152500  0.920700  1.0  -0.2054
  C  C215  1  0.335000  0.215900  0.908600  1.0  0.0776
  C  C216  1  0.315800  0.236000  0.837300  1.0  -0.1909
  C  C217  1  0.312400  0.188000  0.795100  1.0  0.1662
  C  C218  1  0.334000  0.276400  0.962900  1.0  0.0142
  C  C219  1  0.340300  0.253500  0.023900  1.0  -0.1281
  C  C220  1  0.338300  0.300100  0.072000  1.0  -0.0424
  C  C221  1  0.328400  0.374600  0.055100  1.0  -0.1108
  C  C222  1  0.339100  0.390600  0.998600  1.0  -0.002
  C  C223  1  0.331000  0.345600  0.942800  1.0  -0.1385
  C  C224  1  0.133800  0.427000  0.203100  1.0  0.1616
  C  C225  1  0.039500  0.431800  0.192600  1.0  -0.2105
  C  C226  1  0.004300  0.497400  0.202800  1.0  0.1169
  C  C227  1  0.060500  0.548400  0.223900  1.0  -0.2005
  C  C228  1  0.151600  0.538700  0.231400  1.0  0.172
  C  C229  1  0.905400  0.504300  0.194900  1.0  0.0035
  C  C230  1  0.852400  0.458400  0.153300  1.0  -0.122
  C  C231  1  0.763600  0.464300  0.142800  1.0  -0.0391
  C  C232  1  0.723000  0.514100  0.173500  1.0  -0.1192
  C  C233  1  0.773700  0.561700  0.215600  1.0  -0.0684
  C  C234  1  0.867900  0.555400  0.226000  1.0  -0.1268
  C  C235  1  0.615600  0.515400  0.157800  1.0  0.6437
  C  C236  1  0.331900  0.422160  0.112410  1.0  0.6825
  C  C237  1  0.439800  0.907170  0.536380  1.0  0.1779
  C  C238  1  0.430000  0.861260  0.485960  1.0  -0.1856
  C  C239  1  0.425900  0.790140  0.498040  1.0  0.1103
  C  C240  1  0.432600  0.771130  0.562600  1.0  -0.205
  C  C241  1  0.439500  0.820170  0.611300  1.0  0.1661
  C  C242  1  0.412000  0.740260  0.444890  1.0  0.0376
  C  C243  1  0.438300  0.753760  0.384710  1.0  -0.1181
  C  C244  1  0.424700  0.707460  0.334010  1.0  -0.0377
  C  C245  1  0.386700  0.646610  0.340260  1.0  -0.1218
  C  C246  1  0.359200  0.630590  0.399960  1.0  -0.072
  C  C247  1  0.372500  0.678330  0.451350  1.0  -0.1404
  C  C248  1  0.371300  0.593620  0.286450  1.0  0.6692
  N  N249  1  0.672590  0.879780  0.190800  1.0  -0.3758
  N  N250  1  0.812110  0.521820  0.777630  1.0  -0.3249
  N  N251  1  0.546250  0.530990  0.765530  1.0  -0.6626
  N  N252  1  0.502300  0.581350  0.762310  1.0  0.6044
  N  N253  1  0.461400  0.630000  0.759500  1.0  -0.4041
  N  N254  1  0.556580  0.111940  0.401220  1.0  -0.3373
  N  N255  1  0.672590  0.620220  0.690800  1.0  -0.3755
  N  N256  1  0.812110  0.978180  0.277630  1.0  -0.3246
  N  N257  1  0.546250  0.969010  0.265530  1.0  -0.6664
  N  N258  1  0.502300  0.918650  0.262310  1.0  0.605
  N  N259  1  0.461400  0.870000  0.259500  1.0  -0.4037
  N  N260  1  0.556580  0.388060  0.901220  1.0  -0.3361
  N  N261  1  0.327410  0.379780  0.309200  1.0  -0.3752
  N  N262  1  0.187890  0.021820  0.722370  1.0  -0.3242
  N  N263  1  0.453750  0.030990  0.734470  1.0  -0.6701
  N  N264  1  0.497700  0.081350  0.737690  1.0  0.6013
  N  N265  1  0.538600  0.130000  0.740500  1.0  -0.4056
  N  N266  1  0.443420  0.611940  0.098780  1.0  -0.3363
  N  N267  1  0.327410  0.120220  0.809200  1.0  -0.3762
  N  N268  1  0.187890  0.478180  0.222370  1.0  -0.3239
  N  N269  1  0.453750  0.469010  0.234470  1.0  -0.6734
  N  N270  1  0.497700  0.418650  0.237690  1.0  0.6023
  N  N271  1  0.538600  0.370000  0.240500  1.0  -0.4046
  N  N272  1  0.443420  0.888060  0.598780  1.0  -0.336
  O  O273  1  0.422800  0.521200  0.883400  1.0  -0.5784
  O  O274  1  0.415400  0.444700  0.808600  1.0  -0.5647
  O  O275  1  0.688890  0.602310  0.835280  1.0  -0.5813
  O  O276  1  0.644400  0.516700  0.895050  1.0  -0.6258
  O  O277  1  0.605030  0.390760  0.767320  1.0  -0.6296
  O  O278  1  0.664920  0.462590  0.701110  1.0  -0.5796
  O  O279  1  0.422800  0.978800  0.383400  1.0  -0.5783
  O  O280  1  0.415400  0.055300  0.308600  1.0  -0.5643
  O  O281  1  0.688890  0.897690  0.335280  1.0  -0.5812
  O  O282  1  0.644400  0.983300  0.395050  1.0  -0.6236
  O  O283  1  0.605030  0.109240  0.267320  1.0  -0.6291
  O  O284  1  0.664920  0.037410  0.201110  1.0  -0.5796
  O  O285  1  0.577200  0.021200  0.616600  1.0  -0.5756
  O  O286  1  0.584600  0.944700  0.691400  1.0  -0.5649
  O  O287  1  0.311110  0.102310  0.664720  1.0  -0.581
  O  O288  1  0.355600  0.016700  0.604950  1.0  -0.6239
  O  O289  1  0.394970  0.890760  0.732680  1.0  -0.6305
  O  O290  1  0.335080  0.962590  0.798890  1.0  -0.5797
  O  O291  1  0.577200  0.478800  0.116600  1.0  -0.5758
  O  O292  1  0.584600  0.555300  0.191400  1.0  -0.5644
  O  O293  1  0.311110  0.397690  0.164720  1.0  -0.5809
  O  O294  1  0.355600  0.483300  0.104950  1.0  -0.6251
  O  O295  1  0.394970  0.609240  0.232680  1.0  -0.6298
  O  O296  1  0.335080  0.537410  0.298890  1.0  -0.5799
