# generated using pymatgen
data_CoH14C23NO4
_symmetry_space_group_name_H-M   'P 1'
_cell_length_a   27.63400000
_cell_length_b   27.63400000
_cell_length_c   27.63400000
_cell_angle_alpha   90.00000000
_cell_angle_beta   90.00000000
_cell_angle_gamma   90.00000000
_symmetry_Int_Tables_number   1
_chemical_formula_structural   CoH14C23NO4
_chemical_formula_sum   'Co12 H168 C276 N12 O48'
_cell_volume   21102.37127610
_cell_formula_units_Z   12
loop_
 _symmetry_equiv_pos_site_id
 _symmetry_equiv_pos_as_xyz
  1  'x, y, z'
loop_
 _atom_site_type_symbol
 _atom_site_label
 _atom_site_symmetry_multiplicity
 _atom_site_fract_x
 _atom_site_fract_y
 _atom_site_fract_z
 _atom_site_occupancy
 _atom_site_charge
  Co  Co1  1  0.500000  0.000000  0.701500  1.0  0.9258
  Co  Co2  1  0.500000  0.000000  0.298500  1.0  0.9273
  Co  Co3  1  0.701500  0.500000  0.000000  1.0  0.9285
  Co  Co4  1  0.298500  0.500000  0.000000  1.0  0.9252
  Co  Co5  1  0.000000  0.701500  0.500000  1.0  0.9262
  Co  Co6  1  0.000000  0.298500  0.500000  1.0  0.926
  Co  Co7  1  0.500000  0.000000  0.798500  1.0  0.9273
  Co  Co8  1  0.500000  0.000000  0.201500  1.0  0.9258
  Co  Co9  1  0.000000  0.201500  0.500000  1.0  0.9262
  Co  Co10  1  0.000000  0.798500  0.500000  1.0  0.926
  Co  Co11  1  0.201500  0.500000  0.000000  1.0  0.9285
  Co  Co12  1  0.798500  0.500000  0.000000  1.0  0.9252
  H  H13  1  0.388700  0.110500  0.677900  1.0  0.0951
  H  H14  1  0.329700  0.168800  0.678000  1.0  0.1007
  H  H15  1  0.611300  0.889500  0.677900  1.0  0.0949
  H  H16  1  0.670300  0.831200  0.678000  1.0  0.1006
  H  H17  1  0.611300  0.110500  0.322100  1.0  0.0947
  H  H18  1  0.670300  0.168800  0.322000  1.0  0.1011
  H  H19  1  0.388700  0.889500  0.322100  1.0  0.0952
  H  H20  1  0.329700  0.831200  0.322000  1.0  0.1007
  H  H21  1  0.677900  0.388700  0.110500  1.0  0.0954
  H  H22  1  0.678000  0.329700  0.168800  1.0  0.1018
  H  H23  1  0.677900  0.611300  0.889500  1.0  0.0948
  H  H24  1  0.678000  0.670300  0.831200  1.0  0.1022
  H  H25  1  0.322100  0.611300  0.110500  1.0  0.0953
  H  H26  1  0.322000  0.670300  0.168800  1.0  0.1014
  H  H27  1  0.322100  0.388700  0.889500  1.0  0.095
  H  H28  1  0.322000  0.329700  0.831200  1.0  0.1018
  H  H29  1  0.110500  0.677900  0.388700  1.0  0.0946
  H  H30  1  0.168800  0.678000  0.329700  1.0  0.101
  H  H31  1  0.889500  0.677900  0.611300  1.0  0.095
  H  H32  1  0.831200  0.678000  0.670300  1.0  0.1007
  H  H33  1  0.110500  0.322100  0.611300  1.0  0.0955
  H  H34  1  0.168800  0.322000  0.670300  1.0  0.101
  H  H35  1  0.889500  0.322100  0.388700  1.0  0.095
  H  H36  1  0.831200  0.322000  0.329700  1.0  0.1015
  H  H37  1  0.610500  0.888700  0.822100  1.0  0.0947
  H  H38  1  0.668800  0.829700  0.822000  1.0  0.1011
  H  H39  1  0.389500  0.111300  0.822100  1.0  0.0951
  H  H40  1  0.331200  0.170300  0.822000  1.0  0.1013
  H  H41  1  0.610500  0.111300  0.177900  1.0  0.0949
  H  H42  1  0.668800  0.170300  0.178000  1.0  0.1009
  H  H43  1  0.389500  0.888700  0.177900  1.0  0.095
  H  H44  1  0.331200  0.829700  0.178000  1.0  0.1009
  H  H45  1  0.888700  0.177900  0.389500  1.0  0.0948
  H  H46  1  0.829700  0.178000  0.331200  1.0  0.1009
  H  H47  1  0.111300  0.177900  0.610500  1.0  0.0949
  H  H48  1  0.170300  0.178000  0.668800  1.0  0.1008
  H  H49  1  0.111300  0.822100  0.389500  1.0  0.0949
  H  H50  1  0.170300  0.822000  0.331200  1.0  0.1009
  H  H51  1  0.888700  0.822100  0.610500  1.0  0.0954
  H  H52  1  0.829700  0.822000  0.668800  1.0  0.1009
  H  H53  1  0.177900  0.610500  0.111300  1.0  0.0954
  H  H54  1  0.178000  0.668800  0.170300  1.0  0.1017
  H  H55  1  0.177900  0.389500  0.888700  1.0  0.095
  H  H56  1  0.178000  0.331200  0.829700  1.0  0.1017
  H  H57  1  0.822100  0.610500  0.888700  1.0  0.0951
  H  H58  1  0.822000  0.668800  0.829700  1.0  0.1017
  H  H59  1  0.822100  0.389500  0.111300  1.0  0.0956
  H  H60  1  0.822000  0.331200  0.170300  1.0  0.1012
  H  H61  1  0.611300  0.889500  0.322100  1.0  0.0948
  H  H62  1  0.670300  0.831200  0.322000  1.0  0.101
  H  H63  1  0.388700  0.110500  0.322100  1.0  0.0952
  H  H64  1  0.329700  0.168800  0.322000  1.0  0.1008
  H  H65  1  0.388700  0.889500  0.677900  1.0  0.095
  H  H66  1  0.329700  0.831200  0.678000  1.0  0.1005
  H  H67  1  0.611300  0.110500  0.677900  1.0  0.0948
  H  H68  1  0.670300  0.168800  0.678000  1.0  0.1006
  H  H69  1  0.322100  0.611300  0.889500  1.0  0.0949
  H  H70  1  0.322000  0.670300  0.831200  1.0  0.1019
  H  H71  1  0.322100  0.388700  0.110500  1.0  0.0956
  H  H72  1  0.322000  0.329700  0.168800  1.0  0.1012
  H  H73  1  0.677900  0.388700  0.889500  1.0  0.0947
  H  H74  1  0.678000  0.329700  0.831200  1.0  0.1022
  H  H75  1  0.677900  0.611300  0.110500  1.0  0.0953
  H  H76  1  0.678000  0.670300  0.168800  1.0  0.1017
  H  H77  1  0.889500  0.322100  0.611300  1.0  0.0953
  H  H78  1  0.831200  0.322000  0.670300  1.0  0.101
  H  H79  1  0.110500  0.322100  0.388700  1.0  0.0951
  H  H80  1  0.168800  0.322000  0.329700  1.0  0.1014
  H  H81  1  0.889500  0.677900  0.388700  1.0  0.0949
  H  H82  1  0.831200  0.678000  0.329700  1.0  0.1009
  H  H83  1  0.110500  0.677900  0.611300  1.0  0.0947
  H  H84  1  0.168800  0.678000  0.670300  1.0  0.1009
  H  H85  1  0.389500  0.111300  0.177900  1.0  0.095
  H  H86  1  0.331200  0.170300  0.178000  1.0  0.1009
  H  H87  1  0.610500  0.888700  0.177900  1.0  0.0949
  H  H88  1  0.668800  0.829700  0.178000  1.0  0.1009
  H  H89  1  0.389500  0.888700  0.822100  1.0  0.0951
  H  H90  1  0.331200  0.829700  0.822000  1.0  0.1011
  H  H91  1  0.610500  0.111300  0.822100  1.0  0.0947
  H  H92  1  0.668800  0.170300  0.822000  1.0  0.1013
  H  H93  1  0.111300  0.822100  0.610500  1.0  0.0955
  H  H94  1  0.170300  0.822000  0.668800  1.0  0.1009
  H  H95  1  0.888700  0.822100  0.389500  1.0  0.095
  H  H96  1  0.829700  0.822000  0.331200  1.0  0.1011
  H  H97  1  0.888700  0.177900  0.610500  1.0  0.0949
  H  H98  1  0.829700  0.178000  0.668800  1.0  0.1006
  H  H99  1  0.111300  0.177900  0.389500  1.0  0.0945
  H  H100  1  0.170300  0.178000  0.331200  1.0  0.101
  H  H101  1  0.822100  0.389500  0.888700  1.0  0.0952
  H  H102  1  0.822000  0.331200  0.829700  1.0  0.1015
  H  H103  1  0.822100  0.610500  0.111300  1.0  0.0955
  H  H104  1  0.822000  0.668800  0.170300  1.0  0.1013
  H  H105  1  0.177900  0.389500  0.111300  1.0  0.0954
  H  H106  1  0.178000  0.331200  0.170300  1.0  0.1015
  H  H107  1  0.177900  0.610500  0.888700  1.0  0.095
  H  H108  1  0.178000  0.668800  0.829700  1.0  0.1021
  H  H109  1  0.250000  0.190800  0.690800  1.0  0.0971
  H  H110  1  0.750000  0.809200  0.690800  1.0  0.0967
  H  H111  1  0.750000  0.190800  0.309200  1.0  0.0976
  H  H112  1  0.250000  0.809200  0.309200  1.0  0.097
  H  H113  1  0.690800  0.250000  0.190800  1.0  0.0974
  H  H114  1  0.690800  0.750000  0.809200  1.0  0.0979
  H  H115  1  0.309200  0.750000  0.190800  1.0  0.0972
  H  H116  1  0.309200  0.250000  0.809200  1.0  0.0976
  H  H117  1  0.190800  0.690800  0.250000  1.0  0.0974
  H  H118  1  0.809200  0.690800  0.750000  1.0  0.0969
  H  H119  1  0.190800  0.309200  0.750000  1.0  0.0969
  H  H120  1  0.809200  0.309200  0.250000  1.0  0.0963
  H  H121  1  0.750000  0.809200  0.309200  1.0  0.097
  H  H122  1  0.250000  0.190800  0.309200  1.0  0.0976
  H  H123  1  0.250000  0.809200  0.690800  1.0  0.0967
  H  H124  1  0.750000  0.190800  0.690800  1.0  0.0971
  H  H125  1  0.309200  0.750000  0.809200  1.0  0.0976
  H  H126  1  0.309200  0.250000  0.190800  1.0  0.0972
  H  H127  1  0.690800  0.250000  0.809200  1.0  0.0979
  H  H128  1  0.690800  0.750000  0.190800  1.0  0.0974
  H  H129  1  0.809200  0.309200  0.750000  1.0  0.0963
  H  H130  1  0.190800  0.309200  0.250000  1.0  0.0969
  H  H131  1  0.809200  0.690800  0.250000  1.0  0.0969
  H  H132  1  0.190800  0.690800  0.750000  1.0  0.0974
  H  H133  1  0.429200  0.000000  0.537800  1.0  0.1163
  H  H134  1  0.432500  0.000000  0.618900  1.0  0.0607
  H  H135  1  0.570800  0.000000  0.537800  1.0  0.1166
  H  H136  1  0.567500  0.000000  0.618900  1.0  0.0603
  H  H137  1  0.570800  0.000000  0.462200  1.0  0.1165
  H  H138  1  0.567500  0.000000  0.381100  1.0  0.0604
  H  H139  1  0.429200  0.000000  0.462200  1.0  0.1165
  H  H140  1  0.432500  0.000000  0.381100  1.0  0.0613
  H  H141  1  0.537800  0.429200  0.000000  1.0  0.1187
  H  H142  1  0.618900  0.432500  0.000000  1.0  0.0558
  H  H143  1  0.537800  0.570800  0.000000  1.0  0.1191
  H  H144  1  0.618900  0.567500  0.000000  1.0  0.0577
  H  H145  1  0.462200  0.570800  0.000000  1.0  0.1192
  H  H146  1  0.381100  0.567500  0.000000  1.0  0.0581
  H  H147  1  0.462200  0.429200  0.000000  1.0  0.119
  H  H148  1  0.381100  0.432500  0.000000  1.0  0.0567
  H  H149  1  0.000000  0.537800  0.429200  1.0  0.1188
  H  H150  1  0.000000  0.618900  0.432500  1.0  0.0574
  H  H151  1  0.000000  0.537800  0.570800  1.0  0.1197
  H  H152  1  0.000000  0.618900  0.567500  1.0  0.057
  H  H153  1  0.000000  0.462200  0.570800  1.0  0.1196
  H  H154  1  0.000000  0.381100  0.567500  1.0  0.0563
  H  H155  1  0.000000  0.462200  0.429200  1.0  0.1188
  H  H156  1  0.000000  0.381100  0.432500  1.0  0.0574
  H  H157  1  0.500000  0.929200  0.962200  1.0  0.1192
  H  H158  1  0.500000  0.932500  0.881100  1.0  0.0569
  H  H159  1  0.500000  0.070800  0.962200  1.0  0.1195
  H  H160  1  0.500000  0.067500  0.881100  1.0  0.058
  H  H161  1  0.500000  0.070800  0.037800  1.0  0.1193
  H  H162  1  0.500000  0.067500  0.118900  1.0  0.0576
  H  H163  1  0.500000  0.929200  0.037800  1.0  0.1189
  H  H164  1  0.500000  0.932500  0.118900  1.0  0.0565
  H  H165  1  0.929200  0.037800  0.500000  1.0  0.1165
  H  H166  1  0.932500  0.118900  0.500000  1.0  0.0608
  H  H167  1  0.070800  0.037800  0.500000  1.0  0.1166
  H  H168  1  0.067500  0.118900  0.500000  1.0  0.0604
  H  H169  1  0.070800  0.962200  0.500000  1.0  0.1169
  H  H170  1  0.067500  0.881100  0.500000  1.0  0.0596
  H  H171  1  0.929200  0.962200  0.500000  1.0  0.1166
  H  H172  1  0.932500  0.881100  0.500000  1.0  0.0607
  H  H173  1  0.037800  0.500000  0.070800  1.0  0.1196
  H  H174  1  0.118900  0.500000  0.067500  1.0  0.0577
  H  H175  1  0.037800  0.500000  0.929200  1.0  0.1185
  H  H176  1  0.118900  0.500000  0.932500  1.0  0.0579
  H  H177  1  0.962200  0.500000  0.929200  1.0  0.1187
  H  H178  1  0.881100  0.500000  0.932500  1.0  0.0582
  H  H179  1  0.962200  0.500000  0.070800  1.0  0.1193
  H  H180  1  0.881100  0.500000  0.067500  1.0  0.0575
  C  C181  1  0.377070  0.122350  0.707140  1.0  -0.0572
  C  C182  1  0.341740  0.157420  0.707260  1.0  -0.1366
  C  C183  1  0.622930  0.877650  0.707140  1.0  -0.0577
  C  C184  1  0.658260  0.842580  0.707260  1.0  -0.1361
  C  C185  1  0.622930  0.122350  0.292860  1.0  -0.0589
  C  C186  1  0.658260  0.157420  0.292740  1.0  -0.1366
  C  C187  1  0.377070  0.877650  0.292860  1.0  -0.0581
  C  C188  1  0.341740  0.842580  0.292740  1.0  -0.1368
  C  C189  1  0.707140  0.377070  0.122350  1.0  -0.0538
  C  C190  1  0.707260  0.341740  0.157420  1.0  -0.133
  C  C191  1  0.707140  0.622930  0.877650  1.0  -0.0535
  C  C192  1  0.707260  0.658260  0.842580  1.0  -0.1331
  C  C193  1  0.292860  0.622930  0.122350  1.0  -0.055
  C  C194  1  0.292740  0.658260  0.157420  1.0  -0.1318
  C  C195  1  0.292860  0.377070  0.877650  1.0  -0.0543
  C  C196  1  0.292740  0.341740  0.842580  1.0  -0.1322
  C  C197  1  0.122350  0.707140  0.377070  1.0  -0.0551
  C  C198  1  0.157420  0.707260  0.341740  1.0  -0.1349
  C  C199  1  0.877650  0.707140  0.622930  1.0  -0.0544
  C  C200  1  0.842580  0.707260  0.658260  1.0  -0.1364
  C  C201  1  0.122350  0.292860  0.622930  1.0  -0.0555
  C  C202  1  0.157420  0.292740  0.658260  1.0  -0.1361
  C  C203  1  0.877650  0.292860  0.377070  1.0  -0.0551
  C  C204  1  0.842580  0.292740  0.341740  1.0  -0.1369
  C  C205  1  0.622350  0.877070  0.792860  1.0  -0.0591
  C  C206  1  0.657420  0.841740  0.792740  1.0  -0.1356
  C  C207  1  0.377650  0.122930  0.792860  1.0  -0.0587
  C  C208  1  0.342580  0.158260  0.792740  1.0  -0.1364
  C  C209  1  0.622350  0.122930  0.207140  1.0  -0.0576
  C  C210  1  0.657420  0.158260  0.207260  1.0  -0.1353
  C  C211  1  0.377650  0.877070  0.207140  1.0  -0.0581
  C  C212  1  0.342580  0.841740  0.207260  1.0  -0.1356
  C  C213  1  0.877070  0.207140  0.377650  1.0  -0.0541
  C  C214  1  0.841740  0.207260  0.342580  1.0  -0.1363
  C  C215  1  0.122930  0.207140  0.622350  1.0  -0.0547
  C  C216  1  0.158260  0.207260  0.657420  1.0  -0.1355
  C  C217  1  0.122930  0.792860  0.377650  1.0  -0.0553
  C  C218  1  0.158260  0.792740  0.342580  1.0  -0.1362
  C  C219  1  0.877070  0.792860  0.622350  1.0  -0.0548
  C  C220  1  0.841740  0.792740  0.657420  1.0  -0.136
  C  C221  1  0.207140  0.622350  0.122930  1.0  -0.0537
  C  C222  1  0.207260  0.657420  0.158260  1.0  -0.1339
  C  C223  1  0.207140  0.377650  0.877070  1.0  -0.0541
  C  C224  1  0.207260  0.342580  0.841740  1.0  -0.1329
  C  C225  1  0.792860  0.622350  0.877070  1.0  -0.0545
  C  C226  1  0.792740  0.657420  0.841740  1.0  -0.133
  C  C227  1  0.792860  0.377650  0.122930  1.0  -0.0552
  C  C228  1  0.792740  0.342580  0.158260  1.0  -0.1321
  C  C229  1  0.622930  0.877650  0.292860  1.0  -0.0589
  C  C230  1  0.658260  0.842580  0.292740  1.0  -0.1365
  C  C231  1  0.377070  0.122350  0.292860  1.0  -0.0582
  C  C232  1  0.341740  0.157420  0.292740  1.0  -0.1366
  C  C233  1  0.377070  0.877650  0.707140  1.0  -0.0579
  C  C234  1  0.341740  0.842580  0.707260  1.0  -0.1366
  C  C235  1  0.622930  0.122350  0.707140  1.0  -0.057
  C  C236  1  0.658260  0.157420  0.707260  1.0  -0.1363
  C  C237  1  0.292860  0.622930  0.877650  1.0  -0.0541
  C  C238  1  0.292740  0.658260  0.842580  1.0  -0.1326
  C  C239  1  0.292860  0.377070  0.122350  1.0  -0.055
  C  C240  1  0.292740  0.341740  0.157420  1.0  -0.1315
  C  C241  1  0.707140  0.377070  0.877650  1.0  -0.0539
  C  C242  1  0.707260  0.341740  0.842580  1.0  -0.1327
  C  C243  1  0.707140  0.622930  0.122350  1.0  -0.0535
  C  C244  1  0.707260  0.658260  0.157420  1.0  -0.1334
  C  C245  1  0.877650  0.292860  0.622930  1.0  -0.0549
  C  C246  1  0.842580  0.292740  0.658260  1.0  -0.1363
  C  C247  1  0.122350  0.292860  0.377070  1.0  -0.0553
  C  C248  1  0.157420  0.292740  0.341740  1.0  -0.1363
  C  C249  1  0.877650  0.707140  0.377070  1.0  -0.0543
  C  C250  1  0.842580  0.707260  0.341740  1.0  -0.1361
  C  C251  1  0.122350  0.707140  0.622930  1.0  -0.0553
  C  C252  1  0.157420  0.707260  0.658260  1.0  -0.1354
  C  C253  1  0.377650  0.122930  0.207140  1.0  -0.0574
  C  C254  1  0.342580  0.158260  0.207260  1.0  -0.1358
  C  C255  1  0.622350  0.877070  0.207140  1.0  -0.0582
  C  C256  1  0.657420  0.841740  0.207260  1.0  -0.1351
  C  C257  1  0.377650  0.877070  0.792860  1.0  -0.0586
  C  C258  1  0.342580  0.841740  0.792740  1.0  -0.1364
  C  C259  1  0.622350  0.122930  0.792860  1.0  -0.0593
  C  C260  1  0.657420  0.158260  0.792740  1.0  -0.1356
  C  C261  1  0.122930  0.792860  0.622350  1.0  -0.0555
  C  C262  1  0.158260  0.792740  0.657420  1.0  -0.1359
  C  C263  1  0.877070  0.792860  0.377650  1.0  -0.0549
  C  C264  1  0.841740  0.792740  0.342580  1.0  -0.1365
  C  C265  1  0.877070  0.207140  0.622350  1.0  -0.054
  C  C266  1  0.841740  0.207260  0.657420  1.0  -0.1362
  C  C267  1  0.122930  0.207140  0.377650  1.0  -0.0546
  C  C268  1  0.158260  0.207260  0.342580  1.0  -0.1354
  C  C269  1  0.792860  0.377650  0.877070  1.0  -0.0547
  C  C270  1  0.792740  0.342580  0.841740  1.0  -0.1329
  C  C271  1  0.792860  0.622350  0.122930  1.0  -0.0552
  C  C272  1  0.792740  0.657420  0.158260  1.0  -0.1323
  C  C273  1  0.207140  0.377650  0.122930  1.0  -0.0542
  C  C274  1  0.207260  0.342580  0.158260  1.0  -0.1335
  C  C275  1  0.207140  0.622350  0.877070  1.0  -0.0535
  C  C276  1  0.207260  0.657420  0.841740  1.0  -0.1334
  C  C277  1  0.500000  0.000000  0.526940  1.0  0.1294
  C  C278  1  0.500000  0.000000  0.473060  1.0  0.1291
  C  C279  1  0.526940  0.500000  0.000000  1.0  0.1275
  C  C280  1  0.473060  0.500000  0.000000  1.0  0.1304
  C  C281  1  0.000000  0.526940  0.500000  1.0  0.1294
  C  C282  1  0.000000  0.473060  0.500000  1.0  0.1292
  C  C283  1  0.500000  0.000000  0.973060  1.0  0.1291
  C  C284  1  0.500000  0.000000  0.026940  1.0  0.1294
  C  C285  1  0.000000  0.026940  0.500000  1.0  0.1294
  C  C286  1  0.000000  0.973060  0.500000  1.0  0.1292
  C  C287  1  0.026940  0.500000  0.000000  1.0  0.1275
  C  C288  1  0.973060  0.500000  0.000000  1.0  0.1304
  C  C289  1  0.433970  0.066030  0.750000  1.0  0.689
  C  C290  1  0.395490  0.104510  0.750000  1.0  -0.1288
  C  C291  1  0.323890  0.176110  0.750000  1.0  0.0553
  C  C292  1  0.285950  0.214050  0.750000  1.0  0.0354
  C  C293  1  0.566030  0.933970  0.750000  1.0  0.69
  C  C294  1  0.604510  0.895490  0.750000  1.0  -0.1296
  C  C295  1  0.676110  0.823890  0.750000  1.0  0.056
  C  C296  1  0.714050  0.785950  0.750000  1.0  0.0335
  C  C297  1  0.566030  0.066030  0.250000  1.0  0.6898
  C  C298  1  0.604510  0.104510  0.250000  1.0  -0.1305
  C  C299  1  0.676110  0.176110  0.250000  1.0  0.0561
  C  C300  1  0.714050  0.214050  0.250000  1.0  0.0336
  C  C301  1  0.433970  0.933970  0.250000  1.0  0.6892
  C  C302  1  0.395490  0.895490  0.250000  1.0  -0.1284
  C  C303  1  0.323890  0.823890  0.250000  1.0  0.0549
  C  C304  1  0.285950  0.785950  0.250000  1.0  0.0351
  C  C305  1  0.750000  0.433970  0.066030  1.0  0.6885
  C  C306  1  0.750000  0.395490  0.104510  1.0  -0.1292
  C  C307  1  0.750000  0.323890  0.176110  1.0  0.0558
  C  C308  1  0.750000  0.285950  0.214050  1.0  0.0359
  C  C309  1  0.750000  0.566030  0.933970  1.0  0.6884
  C  C310  1  0.750000  0.604510  0.895490  1.0  -0.1299
  C  C311  1  0.750000  0.676110  0.823890  1.0  0.0565
  C  C312  1  0.750000  0.714050  0.785950  1.0  0.0357
  C  C313  1  0.250000  0.566030  0.066030  1.0  0.688
  C  C314  1  0.250000  0.604510  0.104510  1.0  -0.1301
  C  C315  1  0.250000  0.676110  0.176110  1.0  0.0562
  C  C316  1  0.250000  0.714050  0.214050  1.0  0.0363
  C  C317  1  0.250000  0.433970  0.933970  1.0  0.6891
  C  C318  1  0.250000  0.395490  0.895490  1.0  -0.1291
  C  C319  1  0.250000  0.323890  0.823890  1.0  0.0559
  C  C320  1  0.250000  0.285950  0.785950  1.0  0.0355
  C  C321  1  0.066030  0.750000  0.433970  1.0  0.6901
  C  C322  1  0.104510  0.750000  0.395490  1.0  -0.1326
  C  C323  1  0.176110  0.750000  0.323890  1.0  0.056
  C  C324  1  0.214050  0.750000  0.285950  1.0  0.0328
  C  C325  1  0.933970  0.750000  0.566030  1.0  0.6888
  C  C326  1  0.895490  0.750000  0.604510  1.0  -0.1314
  C  C327  1  0.823890  0.750000  0.676110  1.0  0.055
  C  C328  1  0.785950  0.750000  0.714050  1.0  0.0351
  C  C329  1  0.066030  0.250000  0.566030  1.0  0.6894
  C  C330  1  0.104510  0.250000  0.604510  1.0  -0.1329
  C  C331  1  0.176110  0.250000  0.676110  1.0  0.0559
  C  C332  1  0.214050  0.250000  0.714050  1.0  0.0333
  C  C333  1  0.933970  0.250000  0.433970  1.0  0.6893
  C  C334  1  0.895490  0.250000  0.395490  1.0  -0.1313
  C  C335  1  0.823890  0.250000  0.323890  1.0  0.0551
  C  C336  1  0.785950  0.250000  0.285950  1.0  0.0345
  C  C337  1  0.566030  0.933970  0.250000  1.0  0.69
  C  C338  1  0.604510  0.895490  0.250000  1.0  -0.1296
  C  C339  1  0.676110  0.823890  0.250000  1.0  0.056
  C  C340  1  0.714050  0.785950  0.250000  1.0  0.0335
  C  C341  1  0.433970  0.066030  0.250000  1.0  0.689
  C  C342  1  0.395490  0.104510  0.250000  1.0  -0.1288
  C  C343  1  0.323890  0.176110  0.250000  1.0  0.0553
  C  C344  1  0.285950  0.214050  0.250000  1.0  0.0354
  C  C345  1  0.433970  0.933970  0.750000  1.0  0.6892
  C  C346  1  0.395490  0.895490  0.750000  1.0  -0.1284
  C  C347  1  0.323890  0.823890  0.750000  1.0  0.0549
  C  C348  1  0.285950  0.785950  0.750000  1.0  0.0351
  C  C349  1  0.566030  0.066030  0.750000  1.0  0.6898
  C  C350  1  0.604510  0.104510  0.750000  1.0  -0.1305
  C  C351  1  0.676110  0.176110  0.750000  1.0  0.0561
  C  C352  1  0.714050  0.214050  0.750000  1.0  0.0336
  C  C353  1  0.250000  0.566030  0.933970  1.0  0.6884
  C  C354  1  0.250000  0.604510  0.895490  1.0  -0.1299
  C  C355  1  0.250000  0.676110  0.823890  1.0  0.0565
  C  C356  1  0.250000  0.714050  0.785950  1.0  0.0357
  C  C357  1  0.250000  0.433970  0.066030  1.0  0.6885
  C  C358  1  0.250000  0.395490  0.104510  1.0  -0.1292
  C  C359  1  0.250000  0.323890  0.176110  1.0  0.0558
  C  C360  1  0.250000  0.285950  0.214050  1.0  0.0359
  C  C361  1  0.750000  0.433970  0.933970  1.0  0.6891
  C  C362  1  0.750000  0.395490  0.895490  1.0  -0.1291
  C  C363  1  0.750000  0.323890  0.823890  1.0  0.0559
  C  C364  1  0.750000  0.285950  0.785950  1.0  0.0355
  C  C365  1  0.750000  0.566030  0.066030  1.0  0.688
  C  C366  1  0.750000  0.604510  0.104510  1.0  -0.1301
  C  C367  1  0.750000  0.676110  0.176110  1.0  0.0562
  C  C368  1  0.750000  0.714050  0.214050  1.0  0.0363
  C  C369  1  0.933970  0.250000  0.566030  1.0  0.6888
  C  C370  1  0.895490  0.250000  0.604510  1.0  -0.1314
  C  C371  1  0.823890  0.250000  0.676110  1.0  0.055
  C  C372  1  0.785950  0.250000  0.714050  1.0  0.0351
  C  C373  1  0.066030  0.250000  0.433970  1.0  0.6901
  C  C374  1  0.104510  0.250000  0.395490  1.0  -0.1326
  C  C375  1  0.176110  0.250000  0.323890  1.0  0.056
  C  C376  1  0.214050  0.250000  0.285950  1.0  0.0328
  C  C377  1  0.933970  0.750000  0.433970  1.0  0.6893
  C  C378  1  0.895490  0.750000  0.395490  1.0  -0.1313
  C  C379  1  0.823890  0.750000  0.323890  1.0  0.0551
  C  C380  1  0.785950  0.750000  0.285950  1.0  0.0345
  C  C381  1  0.066030  0.750000  0.566030  1.0  0.6894
  C  C382  1  0.104510  0.750000  0.604510  1.0  -0.1329
  C  C383  1  0.176110  0.750000  0.676110  1.0  0.0559
  C  C384  1  0.214050  0.750000  0.714050  1.0  0.0333
  C  C385  1  0.250000  0.214600  0.714600  1.0  -0.1103
  C  C386  1  0.750000  0.785400  0.714600  1.0  -0.1092
  C  C387  1  0.750000  0.214600  0.285400  1.0  -0.1102
  C  C388  1  0.250000  0.785400  0.285400  1.0  -0.109
  C  C389  1  0.714600  0.250000  0.214600  1.0  -0.1123
  C  C390  1  0.714600  0.750000  0.785400  1.0  -0.1122
  C  C391  1  0.285400  0.750000  0.214600  1.0  -0.1123
  C  C392  1  0.285400  0.250000  0.785400  1.0  -0.1124
  C  C393  1  0.214600  0.714600  0.250000  1.0  -0.1125
  C  C394  1  0.785400  0.714600  0.750000  1.0  -0.1125
  C  C395  1  0.214600  0.285400  0.750000  1.0  -0.1115
  C  C396  1  0.785400  0.285400  0.250000  1.0  -0.1115
  C  C397  1  0.750000  0.785400  0.285400  1.0  -0.109
  C  C398  1  0.250000  0.214600  0.285400  1.0  -0.1102
  C  C399  1  0.250000  0.785400  0.714600  1.0  -0.1092
  C  C400  1  0.750000  0.214600  0.714600  1.0  -0.1103
  C  C401  1  0.285400  0.750000  0.785400  1.0  -0.1124
  C  C402  1  0.285400  0.250000  0.214600  1.0  -0.1123
  C  C403  1  0.714600  0.250000  0.785400  1.0  -0.1122
  C  C404  1  0.714600  0.750000  0.214600  1.0  -0.1123
  C  C405  1  0.785400  0.285400  0.750000  1.0  -0.1115
  C  C406  1  0.214600  0.285400  0.250000  1.0  -0.1115
  C  C407  1  0.785400  0.714600  0.250000  1.0  -0.1125
  C  C408  1  0.214600  0.714600  0.750000  1.0  -0.1125
  C  C409  1  0.459100  0.000000  0.553100  1.0  -0.2267
  C  C410  1  0.461700  0.000000  0.602130  1.0  0.1961
  C  C411  1  0.540900  0.000000  0.553100  1.0  -0.2275
  C  C412  1  0.538300  0.000000  0.602130  1.0  0.195
  C  C413  1  0.540900  0.000000  0.446900  1.0  -0.2276
  C  C414  1  0.538300  0.000000  0.397870  1.0  0.194
  C  C415  1  0.459100  0.000000  0.446900  1.0  -0.2278
  C  C416  1  0.461700  0.000000  0.397870  1.0  0.1949
  C  C417  1  0.553100  0.459100  0.000000  1.0  -0.2274
  C  C418  1  0.602130  0.461700  0.000000  1.0  0.1904
  C  C419  1  0.553100  0.540900  0.000000  1.0  -0.2283
  C  C420  1  0.602130  0.538300  0.000000  1.0  0.1904
  C  C421  1  0.446900  0.540900  0.000000  1.0  -0.2285
  C  C422  1  0.397870  0.538300  0.000000  1.0  0.1912
  C  C423  1  0.446900  0.459100  0.000000  1.0  -0.2286
  C  C424  1  0.397870  0.461700  0.000000  1.0  0.1913
  C  C425  1  0.000000  0.553100  0.459100  1.0  -0.2262
  C  C426  1  0.000000  0.602130  0.461700  1.0  0.1896
  C  C427  1  0.000000  0.553100  0.540900  1.0  -0.2256
  C  C428  1  0.000000  0.602130  0.538300  1.0  0.1908
  C  C429  1  0.000000  0.446900  0.540900  1.0  -0.226
  C  C430  1  0.000000  0.397870  0.538300  1.0  0.1912
  C  C431  1  0.000000  0.446900  0.459100  1.0  -0.2264
  C  C432  1  0.000000  0.397870  0.461700  1.0  0.19
  C  C433  1  0.500000  0.959100  0.946900  1.0  -0.2267
  C  C434  1  0.500000  0.961700  0.897870  1.0  0.1923
  C  C435  1  0.500000  0.040900  0.946900  1.0  -0.2277
  C  C436  1  0.500000  0.038300  0.897870  1.0  0.1932
  C  C437  1  0.500000  0.040900  0.053100  1.0  -0.2265
  C  C438  1  0.500000  0.038300  0.102130  1.0  0.1937
  C  C439  1  0.500000  0.959100  0.053100  1.0  -0.2268
  C  C440  1  0.500000  0.961700  0.102130  1.0  0.1943
  C  C441  1  0.959100  0.053100  0.500000  1.0  -0.227
  C  C442  1  0.961700  0.102130  0.500000  1.0  0.1935
  C  C443  1  0.040900  0.053100  0.500000  1.0  -0.2278
  C  C444  1  0.038300  0.102130  0.500000  1.0  0.1917
  C  C445  1  0.040900  0.946900  0.500000  1.0  -0.2276
  C  C446  1  0.038300  0.897870  0.500000  1.0  0.1918
  C  C447  1  0.959100  0.946900  0.500000  1.0  -0.2273
  C  C448  1  0.961700  0.897870  0.500000  1.0  0.1938
  C  C449  1  0.053100  0.500000  0.040900  1.0  -0.2258
  C  C450  1  0.102130  0.500000  0.038300  1.0  0.1903
  C  C451  1  0.053100  0.500000  0.959100  1.0  -0.2268
  C  C452  1  0.102130  0.500000  0.961700  1.0  0.1886
  C  C453  1  0.946900  0.500000  0.959100  1.0  -0.2271
  C  C454  1  0.897870  0.500000  0.961700  1.0  0.1899
  C  C455  1  0.946900  0.500000  0.040900  1.0  -0.2266
  C  C456  1  0.897870  0.500000  0.038300  1.0  0.1901
  N  N457  1  0.500000  0.000000  0.627300  1.0  -0.266
  N  N458  1  0.500000  0.000000  0.372700  1.0  -0.2682
  N  N459  1  0.627300  0.500000  0.000000  1.0  -0.2644
  N  N460  1  0.372700  0.500000  0.000000  1.0  -0.262
  N  N461  1  0.000000  0.627300  0.500000  1.0  -0.2684
  N  N462  1  0.000000  0.372700  0.500000  1.0  -0.2678
  N  N463  1  0.500000  0.000000  0.872700  1.0  -0.2682
  N  N464  1  0.500000  0.000000  0.127300  1.0  -0.266
  N  N465  1  0.000000  0.127300  0.500000  1.0  -0.2684
  N  N466  1  0.000000  0.872700  0.500000  1.0  -0.2678
  N  N467  1  0.127300  0.500000  0.000000  1.0  -0.2644
  N  N468  1  0.872700  0.500000  0.000000  1.0  -0.262
  O  O469  1  0.448400  0.051380  0.709860  1.0  -0.5915
  O  O470  1  0.551600  0.948620  0.709860  1.0  -0.592
  O  O471  1  0.551600  0.051380  0.290140  1.0  -0.5912
  O  O472  1  0.448400  0.948620  0.290140  1.0  -0.5908
  O  O473  1  0.709860  0.448400  0.051380  1.0  -0.5894
  O  O474  1  0.709860  0.551600  0.948620  1.0  -0.5899
  O  O475  1  0.290140  0.551600  0.051380  1.0  -0.5899
  O  O476  1  0.290140  0.448400  0.948620  1.0  -0.5903
  O  O477  1  0.051380  0.709860  0.448400  1.0  -0.5929
  O  O478  1  0.948620  0.709860  0.551600  1.0  -0.5927
  O  O479  1  0.051380  0.290140  0.551600  1.0  -0.5915
  O  O480  1  0.948620  0.290140  0.448400  1.0  -0.593
  O  O481  1  0.551380  0.948400  0.790140  1.0  -0.5907
  O  O482  1  0.448620  0.051600  0.790140  1.0  -0.5909
  O  O483  1  0.551380  0.051600  0.209860  1.0  -0.591
  O  O484  1  0.448620  0.948400  0.209860  1.0  -0.5914
  O  O485  1  0.948400  0.209860  0.448620  1.0  -0.5922
  O  O486  1  0.051600  0.209860  0.551380  1.0  -0.5922
  O  O487  1  0.051600  0.790140  0.448620  1.0  -0.5923
  O  O488  1  0.948400  0.790140  0.551380  1.0  -0.5913
  O  O489  1  0.209860  0.551380  0.051600  1.0  -0.59
  O  O490  1  0.209860  0.448620  0.948400  1.0  -0.5903
  O  O491  1  0.790140  0.551380  0.948400  1.0  -0.5909
  O  O492  1  0.790140  0.448620  0.051600  1.0  -0.5905
  O  O493  1  0.551600  0.948620  0.290140  1.0  -0.591
  O  O494  1  0.448400  0.051380  0.290140  1.0  -0.591
  O  O495  1  0.448400  0.948620  0.709860  1.0  -0.5918
  O  O496  1  0.551600  0.051380  0.709860  1.0  -0.5916
  O  O497  1  0.290140  0.551600  0.948620  1.0  -0.5903
  O  O498  1  0.290140  0.448400  0.051380  1.0  -0.5899
  O  O499  1  0.709860  0.448400  0.948620  1.0  -0.59
  O  O500  1  0.709860  0.551600  0.051380  1.0  -0.5894
  O  O501  1  0.948620  0.290140  0.551600  1.0  -0.5921
  O  O502  1  0.051380  0.290140  0.448400  1.0  -0.5921
  O  O503  1  0.948620  0.709860  0.448400  1.0  -0.5927
  O  O504  1  0.051380  0.709860  0.551600  1.0  -0.5927
  O  O505  1  0.448620  0.051600  0.209860  1.0  -0.5913
  O  O506  1  0.551380  0.948400  0.209860  1.0  -0.5912
  O  O507  1  0.448620  0.948400  0.790140  1.0  -0.5908
  O  O508  1  0.551380  0.051600  0.790140  1.0  -0.5908
  O  O509  1  0.051600  0.790140  0.551380  1.0  -0.5913
  O  O510  1  0.948400  0.790140  0.448620  1.0  -0.5922
  O  O511  1  0.948400  0.209860  0.551380  1.0  -0.5921
  O  O512  1  0.051600  0.209860  0.448620  1.0  -0.5926
  O  O513  1  0.790140  0.448620  0.948400  1.0  -0.5909
  O  O514  1  0.790140  0.551380  0.051600  1.0  -0.5907
  O  O515  1  0.209860  0.448620  0.051600  1.0  -0.59
  O  O516  1  0.209860  0.551380  0.948400  1.0  -0.5902
