# generated using pymatgen
data_CuH14C23NO4
_symmetry_space_group_name_H-M   'P 1'
_cell_length_a   27.51200000
_cell_length_b   27.51200000
_cell_length_c   27.51200000
_cell_angle_alpha   90.00000000
_cell_angle_beta   90.00000000
_cell_angle_gamma   90.00000000
_symmetry_Int_Tables_number   1
_chemical_formula_structural   CuH14C23NO4
_chemical_formula_sum   'Cu12 H168 C276 N12 O48'
_cell_volume   20824.11188173
_cell_formula_units_Z   12
loop_
 _symmetry_equiv_pos_site_id
 _symmetry_equiv_pos_as_xyz
  1  'x, y, z'
loop_
 _atom_site_type_symbol
 _atom_site_label
 _atom_site_symmetry_multiplicity
 _atom_site_fract_x
 _atom_site_fract_y
 _atom_site_fract_z
 _atom_site_occupancy
 _atom_site_charge
  Cu  Cu1  1  0.500000  0.000000  0.797760  1.0  0.8119
  Cu  Cu2  1  0.500000  0.000000  0.202240  1.0  0.8113
  Cu  Cu3  1  0.797760  0.500000  0.000000  1.0  0.8108
  Cu  Cu4  1  0.202240  0.500000  0.000000  1.0  0.8111
  Cu  Cu5  1  0.000000  0.797760  0.500000  1.0  0.8097
  Cu  Cu6  1  0.000000  0.202240  0.500000  1.0  0.8089
  Cu  Cu7  1  0.500000  0.000000  0.702240  1.0  0.8113
  Cu  Cu8  1  0.500000  0.000000  0.297760  1.0  0.8119
  Cu  Cu9  1  0.000000  0.297760  0.500000  1.0  0.8097
  Cu  Cu10  1  0.000000  0.702240  0.500000  1.0  0.8089
  Cu  Cu11  1  0.297760  0.500000  0.000000  1.0  0.8108
  Cu  Cu12  1  0.702240  0.500000  0.000000  1.0  0.8111
  H  H13  1  0.608900  0.889800  0.823500  1.0  0.112
  H  H14  1  0.668400  0.830300  0.822400  1.0  0.1041
  H  H15  1  0.391100  0.110200  0.823500  1.0  0.1124
  H  H16  1  0.331600  0.169700  0.822400  1.0  0.1038
  H  H17  1  0.391100  0.889800  0.176500  1.0  0.1117
  H  H18  1  0.331600  0.830300  0.177600  1.0  0.1039
  H  H19  1  0.608900  0.110200  0.176500  1.0  0.1116
  H  H20  1  0.668400  0.169700  0.177600  1.0  0.1036
  H  H21  1  0.823500  0.608900  0.889800  1.0  0.1126
  H  H22  1  0.822400  0.668400  0.830300  1.0  0.104
  H  H23  1  0.823500  0.391100  0.110200  1.0  0.1129
  H  H24  1  0.822400  0.331600  0.169700  1.0  0.1037
  H  H25  1  0.176500  0.391100  0.889800  1.0  0.1127
  H  H26  1  0.177600  0.331600  0.830300  1.0  0.1037
  H  H27  1  0.176500  0.608900  0.110200  1.0  0.1128
  H  H28  1  0.177600  0.668400  0.169700  1.0  0.1036
  H  H29  1  0.889800  0.823500  0.608900  1.0  0.113
  H  H30  1  0.830300  0.822400  0.668400  1.0  0.1035
  H  H31  1  0.110200  0.823500  0.391100  1.0  0.1124
  H  H32  1  0.169700  0.822400  0.331600  1.0  0.1038
  H  H33  1  0.889800  0.176500  0.391100  1.0  0.1127
  H  H34  1  0.830300  0.177600  0.331600  1.0  0.104
  H  H35  1  0.110200  0.176500  0.608900  1.0  0.1128
  H  H36  1  0.169700  0.177600  0.668400  1.0  0.1038
  H  H37  1  0.389800  0.108900  0.676500  1.0  0.1117
  H  H38  1  0.330300  0.168400  0.677600  1.0  0.1037
  H  H39  1  0.610200  0.891100  0.676500  1.0  0.1115
  H  H40  1  0.669700  0.831600  0.677600  1.0  0.1035
  H  H41  1  0.389800  0.891100  0.323500  1.0  0.1124
  H  H42  1  0.330300  0.831600  0.322400  1.0  0.1033
  H  H43  1  0.610200  0.108900  0.323500  1.0  0.112
  H  H44  1  0.669700  0.168400  0.322400  1.0  0.1038
  H  H45  1  0.108900  0.323500  0.610200  1.0  0.1129
  H  H46  1  0.168400  0.322400  0.669700  1.0  0.1038
  H  H47  1  0.891100  0.323500  0.389800  1.0  0.1127
  H  H48  1  0.831600  0.322400  0.330300  1.0  0.104
  H  H49  1  0.891100  0.676500  0.610200  1.0  0.1131
  H  H50  1  0.831600  0.677600  0.669700  1.0  0.1037
  H  H51  1  0.108900  0.676500  0.389800  1.0  0.1127
  H  H52  1  0.168400  0.677600  0.330300  1.0  0.1042
  H  H53  1  0.323500  0.389800  0.891100  1.0  0.1124
  H  H54  1  0.322400  0.330300  0.831600  1.0  0.1043
  H  H55  1  0.323500  0.610200  0.108900  1.0  0.1128
  H  H56  1  0.322400  0.669700  0.168400  1.0  0.1038
  H  H57  1  0.676500  0.389800  0.108900  1.0  0.113
  H  H58  1  0.677600  0.330300  0.168400  1.0  0.1037
  H  H59  1  0.676500  0.610200  0.891100  1.0  0.1124
  H  H60  1  0.677600  0.669700  0.831600  1.0  0.1038
  H  H61  1  0.391100  0.110200  0.176500  1.0  0.1117
  H  H62  1  0.331600  0.169700  0.177600  1.0  0.1037
  H  H63  1  0.608900  0.889800  0.176500  1.0  0.1116
  H  H64  1  0.668400  0.830300  0.177600  1.0  0.1037
  H  H65  1  0.608900  0.110200  0.823500  1.0  0.1121
  H  H66  1  0.668400  0.169700  0.822400  1.0  0.104
  H  H67  1  0.391100  0.889800  0.823500  1.0  0.1124
  H  H68  1  0.331600  0.830300  0.822400  1.0  0.1039
  H  H69  1  0.176500  0.391100  0.110200  1.0  0.113
  H  H70  1  0.177600  0.331600  0.169700  1.0  0.1033
  H  H71  1  0.176500  0.608900  0.889800  1.0  0.1126
  H  H72  1  0.177600  0.668400  0.830300  1.0  0.1039
  H  H73  1  0.823500  0.608900  0.110200  1.0  0.1127
  H  H74  1  0.822400  0.668400  0.169700  1.0  0.1038
  H  H75  1  0.823500  0.391100  0.889800  1.0  0.1128
  H  H76  1  0.822400  0.331600  0.830300  1.0  0.104
  H  H77  1  0.110200  0.176500  0.391100  1.0  0.1123
  H  H78  1  0.169700  0.177600  0.331600  1.0  0.1042
  H  H79  1  0.889800  0.176500  0.608900  1.0  0.1132
  H  H80  1  0.830300  0.177600  0.668400  1.0  0.1036
  H  H81  1  0.110200  0.823500  0.608900  1.0  0.113
  H  H82  1  0.169700  0.822400  0.668400  1.0  0.1036
  H  H83  1  0.889800  0.823500  0.391100  1.0  0.1124
  H  H84  1  0.830300  0.822400  0.331600  1.0  0.1038
  H  H85  1  0.610200  0.891100  0.323500  1.0  0.1121
  H  H86  1  0.669700  0.831600  0.322400  1.0  0.1037
  H  H87  1  0.389800  0.108900  0.323500  1.0  0.1124
  H  H88  1  0.330300  0.168400  0.322400  1.0  0.1035
  H  H89  1  0.610200  0.108900  0.676500  1.0  0.1115
  H  H90  1  0.669700  0.168400  0.677600  1.0  0.1037
  H  H91  1  0.389800  0.891100  0.676500  1.0  0.1117
  H  H92  1  0.330300  0.831600  0.677600  1.0  0.1033
  H  H93  1  0.891100  0.676500  0.389800  1.0  0.113
  H  H94  1  0.831600  0.677600  0.330300  1.0  0.1042
  H  H95  1  0.108900  0.676500  0.610200  1.0  0.1128
  H  H96  1  0.168400  0.677600  0.669700  1.0  0.1038
  H  H97  1  0.108900  0.323500  0.389800  1.0  0.1127
  H  H98  1  0.168400  0.322400  0.330300  1.0  0.104
  H  H99  1  0.891100  0.323500  0.610200  1.0  0.1128
  H  H100  1  0.831600  0.322400  0.669700  1.0  0.1037
  H  H101  1  0.676500  0.610200  0.108900  1.0  0.1129
  H  H102  1  0.677600  0.669700  0.168400  1.0  0.1035
  H  H103  1  0.676500  0.389800  0.891100  1.0  0.1125
  H  H104  1  0.677600  0.330300  0.831600  1.0  0.104
  H  H105  1  0.323500  0.610200  0.891100  1.0  0.1124
  H  H106  1  0.322400  0.669700  0.831600  1.0  0.1042
  H  H107  1  0.323500  0.389800  0.108900  1.0  0.1129
  H  H108  1  0.322400  0.330300  0.168400  1.0  0.1038
  H  H109  1  0.689600  0.750000  0.810400  1.0  0.1123
  H  H110  1  0.310400  0.250000  0.810400  1.0  0.1123
  H  H111  1  0.310400  0.750000  0.189600  1.0  0.1117
  H  H112  1  0.689600  0.250000  0.189600  1.0  0.1116
  H  H113  1  0.810400  0.689600  0.750000  1.0  0.1115
  H  H114  1  0.810400  0.310400  0.250000  1.0  0.1108
  H  H115  1  0.189600  0.310400  0.750000  1.0  0.1111
  H  H116  1  0.189600  0.689600  0.250000  1.0  0.1118
  H  H117  1  0.750000  0.810400  0.689600  1.0  0.1109
  H  H118  1  0.250000  0.810400  0.310400  1.0  0.1113
  H  H119  1  0.750000  0.189600  0.310400  1.0  0.1119
  H  H120  1  0.250000  0.189600  0.689600  1.0  0.1117
  H  H121  1  0.310400  0.250000  0.189600  1.0  0.1117
  H  H122  1  0.689600  0.750000  0.189600  1.0  0.1116
  H  H123  1  0.689600  0.250000  0.810400  1.0  0.1123
  H  H124  1  0.310400  0.750000  0.810400  1.0  0.1123
  H  H125  1  0.189600  0.310400  0.250000  1.0  0.1111
  H  H126  1  0.189600  0.689600  0.750000  1.0  0.1118
  H  H127  1  0.810400  0.689600  0.250000  1.0  0.1115
  H  H128  1  0.810400  0.310400  0.750000  1.0  0.1108
  H  H129  1  0.250000  0.189600  0.310400  1.0  0.1119
  H  H130  1  0.750000  0.189600  0.689600  1.0  0.1117
  H  H131  1  0.250000  0.810400  0.689600  1.0  0.1109
  H  H132  1  0.750000  0.810400  0.310400  1.0  0.1113
  H  H133  1  0.500000  0.928100  0.880000  1.0  0.11
  H  H134  1  0.500000  0.928400  0.964900  1.0  0.1339
  H  H135  1  0.500000  0.071900  0.880000  1.0  0.1102
  H  H136  1  0.500000  0.071600  0.964900  1.0  0.1353
  H  H137  1  0.500000  0.928100  0.120000  1.0  0.1092
  H  H138  1  0.500000  0.928400  0.035100  1.0  0.1333
  H  H139  1  0.500000  0.071900  0.120000  1.0  0.1092
  H  H140  1  0.500000  0.071600  0.035100  1.0  0.1345
  H  H141  1  0.880000  0.500000  0.928100  1.0  0.1102
  H  H142  1  0.964900  0.500000  0.928400  1.0  0.1318
  H  H143  1  0.880000  0.500000  0.071900  1.0  0.1098
  H  H144  1  0.964900  0.500000  0.071600  1.0  0.1325
  H  H145  1  0.120000  0.500000  0.928100  1.0  0.1103
  H  H146  1  0.035100  0.500000  0.928400  1.0  0.1325
  H  H147  1  0.120000  0.500000  0.071900  1.0  0.1102
  H  H148  1  0.035100  0.500000  0.071600  1.0  0.1331
  H  H149  1  0.928100  0.880000  0.500000  1.0  0.1093
  H  H150  1  0.928400  0.964900  0.500000  1.0  0.1326
  H  H151  1  0.071900  0.880000  0.500000  1.0  0.1101
  H  H152  1  0.071600  0.964900  0.500000  1.0  0.1302
  H  H153  1  0.928100  0.120000  0.500000  1.0  0.109
  H  H154  1  0.928400  0.035100  0.500000  1.0  0.1328
  H  H155  1  0.071900  0.120000  0.500000  1.0  0.1102
  H  H156  1  0.071600  0.035100  0.500000  1.0  0.1299
  H  H157  1  0.428100  0.000000  0.620000  1.0  0.1095
  H  H158  1  0.428400  0.000000  0.535100  1.0  0.1324
  H  H159  1  0.571900  0.000000  0.620000  1.0  0.1107
  H  H160  1  0.571600  0.000000  0.535100  1.0  0.1296
  H  H161  1  0.428100  0.000000  0.380000  1.0  0.1103
  H  H162  1  0.428400  0.000000  0.464900  1.0  0.1326
  H  H163  1  0.571900  0.000000  0.380000  1.0  0.1113
  H  H164  1  0.571600  0.000000  0.464900  1.0  0.1295
  H  H165  1  0.000000  0.380000  0.571900  1.0  0.1087
  H  H166  1  0.000000  0.464900  0.571600  1.0  0.1333
  H  H167  1  0.000000  0.380000  0.428100  1.0  0.1088
  H  H168  1  0.000000  0.464900  0.428400  1.0  0.1327
  H  H169  1  0.000000  0.620000  0.571900  1.0  0.1092
  H  H170  1  0.000000  0.535100  0.571600  1.0  0.1332
  H  H171  1  0.000000  0.620000  0.428100  1.0  0.1085
  H  H172  1  0.000000  0.535100  0.428400  1.0  0.1331
  H  H173  1  0.380000  0.428100  0.000000  1.0  0.1096
  H  H174  1  0.464900  0.428400  0.000000  1.0  0.1328
  H  H175  1  0.380000  0.571900  0.000000  1.0  0.1098
  H  H176  1  0.464900  0.571600  0.000000  1.0  0.1343
  H  H177  1  0.620000  0.428100  0.000000  1.0  0.1096
  H  H178  1  0.535100  0.428400  0.000000  1.0  0.1331
  H  H179  1  0.620000  0.571900  0.000000  1.0  0.1098
  H  H180  1  0.535100  0.571600  0.000000  1.0  0.1348
  C  C181  1  0.620940  0.878260  0.794100  1.0  -0.0789
  C  C182  1  0.656610  0.842600  0.793190  1.0  -0.1373
  C  C183  1  0.379060  0.121740  0.794100  1.0  -0.0788
  C  C184  1  0.343390  0.157400  0.793190  1.0  -0.1383
  C  C185  1  0.379060  0.878260  0.205900  1.0  -0.0782
  C  C186  1  0.343390  0.842600  0.206810  1.0  -0.1364
  C  C187  1  0.620940  0.121740  0.205900  1.0  -0.0774
  C  C188  1  0.656610  0.157400  0.206810  1.0  -0.1362
  C  C189  1  0.794100  0.620940  0.878260  1.0  -0.0753
  C  C190  1  0.793190  0.656610  0.842600  1.0  -0.1339
  C  C191  1  0.794100  0.379060  0.121740  1.0  -0.0762
  C  C192  1  0.793190  0.343390  0.157400  1.0  -0.1338
  C  C193  1  0.205900  0.379060  0.878260  1.0  -0.0776
  C  C194  1  0.206810  0.343390  0.842600  1.0  -0.1344
  C  C195  1  0.205900  0.620940  0.121740  1.0  -0.0777
  C  C196  1  0.206810  0.656610  0.157400  1.0  -0.1353
  C  C197  1  0.878260  0.794100  0.620940  1.0  -0.0755
  C  C198  1  0.842600  0.793190  0.656610  1.0  -0.1372
  C  C199  1  0.121740  0.794100  0.379060  1.0  -0.0759
  C  C200  1  0.157400  0.793190  0.343390  1.0  -0.1362
  C  C201  1  0.878260  0.205900  0.379060  1.0  -0.0746
  C  C202  1  0.842600  0.206810  0.343390  1.0  -0.1376
  C  C203  1  0.121740  0.205900  0.620940  1.0  -0.0753
  C  C204  1  0.157400  0.206810  0.656610  1.0  -0.1361
  C  C205  1  0.378260  0.120940  0.705900  1.0  -0.0773
  C  C206  1  0.342600  0.156610  0.706810  1.0  -0.1373
  C  C207  1  0.621740  0.879060  0.705900  1.0  -0.0777
  C  C208  1  0.657400  0.843390  0.706810  1.0  -0.1363
  C  C209  1  0.378260  0.879060  0.294100  1.0  -0.0791
  C  C210  1  0.342600  0.843390  0.293190  1.0  -0.1389
  C  C211  1  0.621740  0.120940  0.294100  1.0  -0.0792
  C  C212  1  0.657400  0.156610  0.293190  1.0  -0.1372
  C  C213  1  0.120940  0.294100  0.621740  1.0  -0.0767
  C  C214  1  0.156610  0.293190  0.657400  1.0  -0.1371
  C  C215  1  0.879060  0.294100  0.378260  1.0  -0.0756
  C  C216  1  0.843390  0.293190  0.342600  1.0  -0.1374
  C  C217  1  0.879060  0.705900  0.621740  1.0  -0.0751
  C  C218  1  0.843390  0.706810  0.657400  1.0  -0.1376
  C  C219  1  0.120940  0.705900  0.378260  1.0  -0.0756
  C  C220  1  0.156610  0.706810  0.342600  1.0  -0.1362
  C  C221  1  0.294100  0.378260  0.879060  1.0  -0.075
  C  C222  1  0.293190  0.342600  0.843390  1.0  -0.1335
  C  C223  1  0.294100  0.621740  0.120940  1.0  -0.0757
  C  C224  1  0.293190  0.657400  0.156610  1.0  -0.1335
  C  C225  1  0.705900  0.378260  0.120940  1.0  -0.0772
  C  C226  1  0.706810  0.342600  0.156610  1.0  -0.1346
  C  C227  1  0.705900  0.621740  0.879060  1.0  -0.0769
  C  C228  1  0.706810  0.657400  0.843390  1.0  -0.1347
  C  C229  1  0.379060  0.121740  0.205900  1.0  -0.0775
  C  C230  1  0.343390  0.157400  0.206810  1.0  -0.1365
  C  C231  1  0.620940  0.878260  0.205900  1.0  -0.0776
  C  C232  1  0.656610  0.842600  0.206810  1.0  -0.1362
  C  C233  1  0.620940  0.121740  0.794100  1.0  -0.0793
  C  C234  1  0.656610  0.157400  0.793190  1.0  -0.1375
  C  C235  1  0.379060  0.878260  0.794100  1.0  -0.0788
  C  C236  1  0.343390  0.842600  0.793190  1.0  -0.1383
  C  C237  1  0.205900  0.379060  0.121740  1.0  -0.078
  C  C238  1  0.206810  0.343390  0.157400  1.0  -0.135
  C  C239  1  0.205900  0.620940  0.878260  1.0  -0.0772
  C  C240  1  0.206810  0.656610  0.842600  1.0  -0.1346
  C  C241  1  0.794100  0.620940  0.121740  1.0  -0.0759
  C  C242  1  0.793190  0.656610  0.157400  1.0  -0.1338
  C  C243  1  0.794100  0.379060  0.878260  1.0  -0.0756
  C  C244  1  0.793190  0.343390  0.842600  1.0  -0.1339
  C  C245  1  0.121740  0.205900  0.379060  1.0  -0.0753
  C  C246  1  0.157400  0.206810  0.343390  1.0  -0.136
  C  C247  1  0.878260  0.205900  0.620940  1.0  -0.0745
  C  C248  1  0.842600  0.206810  0.656610  1.0  -0.1376
  C  C249  1  0.121740  0.794100  0.620940  1.0  -0.0764
  C  C250  1  0.157400  0.793190  0.656610  1.0  -0.1361
  C  C251  1  0.878260  0.794100  0.379060  1.0  -0.0751
  C  C252  1  0.842600  0.793190  0.343390  1.0  -0.1374
  C  C253  1  0.621740  0.879060  0.294100  1.0  -0.0793
  C  C254  1  0.657400  0.843390  0.293190  1.0  -0.1371
  C  C255  1  0.378260  0.120940  0.294100  1.0  -0.0787
  C  C256  1  0.342600  0.156610  0.293190  1.0  -0.1388
  C  C257  1  0.621740  0.120940  0.705900  1.0  -0.0769
  C  C258  1  0.657400  0.156610  0.706810  1.0  -0.1366
  C  C259  1  0.378260  0.879060  0.705900  1.0  -0.0783
  C  C260  1  0.342600  0.843390  0.706810  1.0  -0.1371
  C  C261  1  0.879060  0.705900  0.378260  1.0  -0.0749
  C  C262  1  0.843390  0.706810  0.342600  1.0  -0.1371
  C  C263  1  0.120940  0.705900  0.621740  1.0  -0.076
  C  C264  1  0.156610  0.706810  0.657400  1.0  -0.1366
  C  C265  1  0.120940  0.294100  0.378260  1.0  -0.0762
  C  C266  1  0.156610  0.293190  0.342600  1.0  -0.1369
  C  C267  1  0.879060  0.294100  0.621740  1.0  -0.076
  C  C268  1  0.843390  0.293190  0.657400  1.0  -0.1373
  C  C269  1  0.705900  0.621740  0.120940  1.0  -0.0772
  C  C270  1  0.706810  0.657400  0.156610  1.0  -0.1349
  C  C271  1  0.705900  0.378260  0.879060  1.0  -0.077
  C  C272  1  0.706810  0.342600  0.843390  1.0  -0.1344
  C  C273  1  0.294100  0.621740  0.879060  1.0  -0.0749
  C  C274  1  0.293190  0.657400  0.843390  1.0  -0.1338
  C  C275  1  0.294100  0.378260  0.120940  1.0  -0.0756
  C  C276  1  0.293190  0.342600  0.156610  1.0  -0.1332
  C  C277  1  0.500000  0.000000  0.975100  1.0  0.0741
  C  C278  1  0.500000  0.000000  0.024900  1.0  0.0741
  C  C279  1  0.975100  0.500000  0.000000  1.0  0.0743
  C  C280  1  0.024900  0.500000  0.000000  1.0  0.0738
  C  C281  1  0.000000  0.975100  0.500000  1.0  0.0742
  C  C282  1  0.000000  0.024900  0.500000  1.0  0.0741
  C  C283  1  0.500000  0.000000  0.524900  1.0  0.0741
  C  C284  1  0.500000  0.000000  0.475100  1.0  0.0741
  C  C285  1  0.000000  0.475100  0.500000  1.0  0.0742
  C  C286  1  0.000000  0.524900  0.500000  1.0  0.0741
  C  C287  1  0.475100  0.500000  0.000000  1.0  0.0743
  C  C288  1  0.524900  0.500000  0.000000  1.0  0.0738
  C  C289  1  0.564780  0.935220  0.750000  1.0  0.6768
  C  C290  1  0.603350  0.896650  0.750000  1.0  -0.1413
  C  C291  1  0.675070  0.824930  0.750000  1.0  0.043
  C  C292  1  0.713860  0.786140  0.750000  1.0  0.0274
  C  C293  1  0.435220  0.064780  0.750000  1.0  0.6768
  C  C294  1  0.396650  0.103350  0.750000  1.0  -0.1408
  C  C295  1  0.324930  0.175070  0.750000  1.0  0.0426
  C  C296  1  0.286140  0.213860  0.750000  1.0  0.0278
  C  C297  1  0.435220  0.935220  0.250000  1.0  0.6771
  C  C298  1  0.396650  0.896650  0.250000  1.0  -0.1409
  C  C299  1  0.324930  0.824930  0.250000  1.0  0.042
  C  C300  1  0.286140  0.786140  0.250000  1.0  0.0274
  C  C301  1  0.564780  0.064780  0.250000  1.0  0.6766
  C  C302  1  0.603350  0.103350  0.250000  1.0  -0.1412
  C  C303  1  0.675070  0.175070  0.250000  1.0  0.0434
  C  C304  1  0.713860  0.213860  0.250000  1.0  0.0278
  C  C305  1  0.750000  0.564780  0.935220  1.0  0.6758
  C  C306  1  0.750000  0.603350  0.896650  1.0  -0.1401
  C  C307  1  0.750000  0.675070  0.824930  1.0  0.044
  C  C308  1  0.750000  0.713860  0.786140  1.0  0.0288
  C  C309  1  0.750000  0.435220  0.064780  1.0  0.6756
  C  C310  1  0.750000  0.396650  0.103350  1.0  -0.1405
  C  C311  1  0.750000  0.324930  0.175070  1.0  0.0434
  C  C312  1  0.750000  0.286140  0.213860  1.0  0.0287
  C  C313  1  0.250000  0.435220  0.935220  1.0  0.6762
  C  C314  1  0.250000  0.396650  0.896650  1.0  -0.1402
  C  C315  1  0.250000  0.324930  0.824930  1.0  0.0433
  C  C316  1  0.250000  0.286140  0.786140  1.0  0.0285
  C  C317  1  0.250000  0.564780  0.064780  1.0  0.6753
  C  C318  1  0.250000  0.603350  0.103350  1.0  -0.1401
  C  C319  1  0.250000  0.675070  0.175070  1.0  0.0439
  C  C320  1  0.250000  0.713860  0.213860  1.0  0.029
  C  C321  1  0.935220  0.750000  0.564780  1.0  0.6766
  C  C322  1  0.896650  0.750000  0.603350  1.0  -0.142
  C  C323  1  0.824930  0.750000  0.675070  1.0  0.0425
  C  C324  1  0.786140  0.750000  0.713860  1.0  0.028
  C  C325  1  0.064780  0.750000  0.435220  1.0  0.6767
  C  C326  1  0.103350  0.750000  0.396650  1.0  -0.1425
  C  C327  1  0.175070  0.750000  0.324930  1.0  0.0434
  C  C328  1  0.213860  0.750000  0.286140  1.0  0.0276
  C  C329  1  0.935220  0.250000  0.435220  1.0  0.677
  C  C330  1  0.896650  0.250000  0.396650  1.0  -0.1419
  C  C331  1  0.824930  0.250000  0.324930  1.0  0.0426
  C  C332  1  0.786140  0.250000  0.286140  1.0  0.0276
  C  C333  1  0.064780  0.250000  0.564780  1.0  0.6762
  C  C334  1  0.103350  0.250000  0.603350  1.0  -0.1424
  C  C335  1  0.175070  0.250000  0.675070  1.0  0.0434
  C  C336  1  0.213860  0.250000  0.713860  1.0  0.0279
  C  C337  1  0.435220  0.064780  0.250000  1.0  0.6768
  C  C338  1  0.396650  0.103350  0.250000  1.0  -0.1408
  C  C339  1  0.324930  0.175070  0.250000  1.0  0.0426
  C  C340  1  0.286140  0.213860  0.250000  1.0  0.0278
  C  C341  1  0.564780  0.935220  0.250000  1.0  0.6768
  C  C342  1  0.603350  0.896650  0.250000  1.0  -0.1413
  C  C343  1  0.675070  0.824930  0.250000  1.0  0.043
  C  C344  1  0.713860  0.786140  0.250000  1.0  0.0274
  C  C345  1  0.564780  0.064780  0.750000  1.0  0.6766
  C  C346  1  0.603350  0.103350  0.750000  1.0  -0.1412
  C  C347  1  0.675070  0.175070  0.750000  1.0  0.0434
  C  C348  1  0.713860  0.213860  0.750000  1.0  0.0278
  C  C349  1  0.435220  0.935220  0.750000  1.0  0.6771
  C  C350  1  0.396650  0.896650  0.750000  1.0  -0.1409
  C  C351  1  0.324930  0.824930  0.750000  1.0  0.042
  C  C352  1  0.286140  0.786140  0.750000  1.0  0.0274
  C  C353  1  0.250000  0.435220  0.064780  1.0  0.6756
  C  C354  1  0.250000  0.396650  0.103350  1.0  -0.1405
  C  C355  1  0.250000  0.324930  0.175070  1.0  0.0434
  C  C356  1  0.250000  0.286140  0.213860  1.0  0.0287
  C  C357  1  0.250000  0.564780  0.935220  1.0  0.6758
  C  C358  1  0.250000  0.603350  0.896650  1.0  -0.1401
  C  C359  1  0.250000  0.675070  0.824930  1.0  0.044
  C  C360  1  0.250000  0.713860  0.786140  1.0  0.0288
  C  C361  1  0.750000  0.564780  0.064780  1.0  0.6753
  C  C362  1  0.750000  0.603350  0.103350  1.0  -0.1401
  C  C363  1  0.750000  0.675070  0.175070  1.0  0.0439
  C  C364  1  0.750000  0.713860  0.213860  1.0  0.029
  C  C365  1  0.750000  0.435220  0.935220  1.0  0.6762
  C  C366  1  0.750000  0.396650  0.896650  1.0  -0.1402
  C  C367  1  0.750000  0.324930  0.824930  1.0  0.0433
  C  C368  1  0.750000  0.286140  0.786140  1.0  0.0285
  C  C369  1  0.064780  0.250000  0.435220  1.0  0.6767
  C  C370  1  0.103350  0.250000  0.396650  1.0  -0.1425
  C  C371  1  0.175070  0.250000  0.324930  1.0  0.0434
  C  C372  1  0.213860  0.250000  0.286140  1.0  0.0276
  C  C373  1  0.935220  0.250000  0.564780  1.0  0.6766
  C  C374  1  0.896650  0.250000  0.603350  1.0  -0.142
  C  C375  1  0.824930  0.250000  0.675070  1.0  0.0425
  C  C376  1  0.786140  0.250000  0.713860  1.0  0.028
  C  C377  1  0.064780  0.750000  0.564780  1.0  0.6762
  C  C378  1  0.103350  0.750000  0.603350  1.0  -0.1424
  C  C379  1  0.175070  0.750000  0.675070  1.0  0.0434
  C  C380  1  0.213860  0.750000  0.713860  1.0  0.0279
  C  C381  1  0.935220  0.750000  0.435220  1.0  0.677
  C  C382  1  0.896650  0.750000  0.396650  1.0  -0.1419
  C  C383  1  0.824930  0.750000  0.324930  1.0  0.0426
  C  C384  1  0.786140  0.750000  0.286140  1.0  0.0276
  C  C385  1  0.713490  0.750000  0.786510  1.0  -0.0842
  C  C386  1  0.286510  0.250000  0.786510  1.0  -0.0839
  C  C387  1  0.286510  0.750000  0.213490  1.0  -0.0842
  C  C388  1  0.713490  0.250000  0.213490  1.0  -0.0846
  C  C389  1  0.786510  0.713490  0.750000  1.0  -0.0829
  C  C390  1  0.786510  0.286510  0.250000  1.0  -0.0832
  C  C391  1  0.213490  0.286510  0.750000  1.0  -0.0832
  C  C392  1  0.213490  0.713490  0.250000  1.0  -0.0835
  C  C393  1  0.750000  0.786510  0.713490  1.0  -0.0823
  C  C394  1  0.250000  0.786510  0.286510  1.0  -0.0817
  C  C395  1  0.750000  0.213490  0.286510  1.0  -0.0814
  C  C396  1  0.250000  0.213490  0.713490  1.0  -0.0815
  C  C397  1  0.286510  0.250000  0.213490  1.0  -0.0842
  C  C398  1  0.713490  0.750000  0.213490  1.0  -0.0846
  C  C399  1  0.713490  0.250000  0.786510  1.0  -0.0842
  C  C400  1  0.286510  0.750000  0.786510  1.0  -0.0839
  C  C401  1  0.213490  0.286510  0.250000  1.0  -0.0832
  C  C402  1  0.213490  0.713490  0.750000  1.0  -0.0835
  C  C403  1  0.786510  0.713490  0.250000  1.0  -0.0829
  C  C404  1  0.786510  0.286510  0.750000  1.0  -0.0832
  C  C405  1  0.250000  0.213490  0.286510  1.0  -0.0814
  C  C406  1  0.750000  0.213490  0.713490  1.0  -0.0815
  C  C407  1  0.250000  0.786510  0.713490  1.0  -0.0823
  C  C408  1  0.750000  0.786510  0.286510  1.0  -0.0817
  C  C409  1  0.500000  0.957100  0.897300  1.0  0.1105
  C  C410  1  0.500000  0.957900  0.948400  1.0  -0.1402
  C  C411  1  0.500000  0.042900  0.897300  1.0  0.1111
  C  C412  1  0.500000  0.042100  0.948400  1.0  -0.138
  C  C413  1  0.500000  0.957100  0.102700  1.0  0.1109
  C  C414  1  0.500000  0.957900  0.051600  1.0  -0.1403
  C  C415  1  0.500000  0.042900  0.102700  1.0  0.1103
  C  C416  1  0.500000  0.042100  0.051600  1.0  -0.1367
  C  C417  1  0.897300  0.500000  0.957100  1.0  0.1055
  C  C418  1  0.948400  0.500000  0.957900  1.0  -0.1383
  C  C419  1  0.897300  0.500000  0.042900  1.0  0.1043
  C  C420  1  0.948400  0.500000  0.042100  1.0  -0.1372
  C  C421  1  0.102700  0.500000  0.957100  1.0  0.1055
  C  C422  1  0.051600  0.500000  0.957900  1.0  -0.1381
  C  C423  1  0.102700  0.500000  0.042900  1.0  0.1051
  C  C424  1  0.051600  0.500000  0.042100  1.0  -0.1367
  C  C425  1  0.957100  0.897300  0.500000  1.0  0.1083
  C  C426  1  0.957900  0.948400  0.500000  1.0  -0.1353
  C  C427  1  0.042900  0.897300  0.500000  1.0  0.108
  C  C428  1  0.042100  0.948400  0.500000  1.0  -0.1384
  C  C429  1  0.957100  0.102700  0.500000  1.0  0.1081
  C  C430  1  0.957900  0.051600  0.500000  1.0  -0.1349
  C  C431  1  0.042900  0.102700  0.500000  1.0  0.1078
  C  C432  1  0.042100  0.051600  0.500000  1.0  -0.1367
  C  C433  1  0.457100  0.000000  0.602700  1.0  0.1102
  C  C434  1  0.457900  0.000000  0.551600  1.0  -0.1361
  C  C435  1  0.542900  0.000000  0.602700  1.0  0.1098
  C  C436  1  0.542100  0.000000  0.551600  1.0  -0.1392
  C  C437  1  0.457100  0.000000  0.397300  1.0  0.1104
  C  C438  1  0.457900  0.000000  0.448400  1.0  -0.1354
  C  C439  1  0.542900  0.000000  0.397300  1.0  0.1099
  C  C440  1  0.542100  0.000000  0.448400  1.0  -0.1373
  C  C441  1  0.000000  0.397300  0.542900  1.0  0.1065
  C  C442  1  0.000000  0.448400  0.542100  1.0  -0.1362
  C  C443  1  0.000000  0.397300  0.457100  1.0  0.1059
  C  C444  1  0.000000  0.448400  0.457900  1.0  -0.1384
  C  C445  1  0.000000  0.602700  0.542900  1.0  0.1062
  C  C446  1  0.000000  0.551600  0.542100  1.0  -0.1362
  C  C447  1  0.000000  0.602700  0.457100  1.0  0.1055
  C  C448  1  0.000000  0.551600  0.457900  1.0  -0.1378
  C  C449  1  0.397300  0.457100  0.000000  1.0  0.108
  C  C450  1  0.448400  0.457900  0.000000  1.0  -0.1405
  C  C451  1  0.397300  0.542900  0.000000  1.0  0.1078
  C  C452  1  0.448400  0.542100  0.000000  1.0  -0.138
  C  C453  1  0.602700  0.457100  0.000000  1.0  0.1078
  C  C454  1  0.551600  0.457900  0.000000  1.0  -0.14
  C  C455  1  0.602700  0.542900  0.000000  1.0  0.1076
  C  C456  1  0.551600  0.542100  0.000000  1.0  -0.1375
  N  N457  1  0.500000  0.000000  0.875200  1.0  -0.2714
  N  N458  1  0.500000  0.000000  0.124800  1.0  -0.2732
  N  N459  1  0.875200  0.500000  0.000000  1.0  -0.2689
  N  N460  1  0.124800  0.500000  0.000000  1.0  -0.269
  N  N461  1  0.000000  0.875200  0.500000  1.0  -0.2732
  N  N462  1  0.000000  0.124800  0.500000  1.0  -0.2738
  N  N463  1  0.500000  0.000000  0.624800  1.0  -0.2732
  N  N464  1  0.500000  0.000000  0.375200  1.0  -0.2714
  N  N465  1  0.000000  0.375200  0.500000  1.0  -0.2732
  N  N466  1  0.000000  0.624800  0.500000  1.0  -0.2738
  N  N467  1  0.375200  0.500000  0.000000  1.0  -0.2689
  N  N468  1  0.624800  0.500000  0.000000  1.0  -0.269
  O  O469  1  0.550310  0.949740  0.790860  1.0  -0.5807
  O  O470  1  0.449690  0.050260  0.790860  1.0  -0.5807
  O  O471  1  0.449690  0.949740  0.209140  1.0  -0.58
  O  O472  1  0.550310  0.050260  0.209140  1.0  -0.58
  O  O473  1  0.790860  0.550310  0.949740  1.0  -0.5792
  O  O474  1  0.790860  0.449690  0.050260  1.0  -0.5788
  O  O475  1  0.209140  0.449690  0.949740  1.0  -0.5798
  O  O476  1  0.209140  0.550310  0.050260  1.0  -0.579
  O  O477  1  0.949740  0.790860  0.550310  1.0  -0.5818
  O  O478  1  0.050260  0.790860  0.449690  1.0  -0.581
  O  O479  1  0.949740  0.209140  0.449690  1.0  -0.5823
  O  O480  1  0.050260  0.209140  0.550310  1.0  -0.5823
  O  O481  1  0.449740  0.050310  0.709140  1.0  -0.5802
  O  O482  1  0.550260  0.949690  0.709140  1.0  -0.5804
  O  O483  1  0.449740  0.949690  0.290860  1.0  -0.5809
  O  O484  1  0.550260  0.050310  0.290860  1.0  -0.5807
  O  O485  1  0.050310  0.290860  0.550260  1.0  -0.5807
  O  O486  1  0.949690  0.290860  0.449740  1.0  -0.581
  O  O487  1  0.949690  0.709140  0.550260  1.0  -0.5818
  O  O488  1  0.050310  0.709140  0.449740  1.0  -0.5824
  O  O489  1  0.290860  0.449740  0.949690  1.0  -0.5793
  O  O490  1  0.290860  0.550260  0.050310  1.0  -0.5791
  O  O491  1  0.709140  0.449740  0.050310  1.0  -0.5799
  O  O492  1  0.709140  0.550260  0.949690  1.0  -0.5798
  O  O493  1  0.449690  0.050260  0.209140  1.0  -0.5797
  O  O494  1  0.550310  0.949740  0.209140  1.0  -0.5804
  O  O495  1  0.550310  0.050260  0.790860  1.0  -0.5807
  O  O496  1  0.449690  0.949740  0.790860  1.0  -0.5807
  O  O497  1  0.209140  0.449690  0.050260  1.0  -0.5791
  O  O498  1  0.209140  0.550310  0.949740  1.0  -0.5796
  O  O499  1  0.790860  0.550310  0.050260  1.0  -0.5786
  O  O500  1  0.790860  0.449690  0.949740  1.0  -0.5793
  O  O501  1  0.050260  0.209140  0.449690  1.0  -0.5822
  O  O502  1  0.949740  0.209140  0.550310  1.0  -0.5828
  O  O503  1  0.050260  0.790860  0.550310  1.0  -0.5814
  O  O504  1  0.949740  0.790860  0.449690  1.0  -0.5811
  O  O505  1  0.550260  0.949690  0.290860  1.0  -0.5808
  O  O506  1  0.449740  0.050310  0.290860  1.0  -0.5813
  O  O507  1  0.550260  0.050310  0.709140  1.0  -0.5796
  O  O508  1  0.449740  0.949690  0.709140  1.0  -0.5805
  O  O509  1  0.949690  0.709140  0.449740  1.0  -0.5821
  O  O510  1  0.050310  0.709140  0.550260  1.0  -0.5819
  O  O511  1  0.050310  0.290860  0.449740  1.0  -0.5812
  O  O512  1  0.949690  0.290860  0.550260  1.0  -0.5807
  O  O513  1  0.709140  0.550260  0.050310  1.0  -0.5795
  O  O514  1  0.709140  0.449740  0.949690  1.0  -0.5796
  O  O515  1  0.290860  0.550260  0.949690  1.0  -0.5796
  O  O516  1  0.290860  0.449740  0.050310  1.0  -0.5793
