# generated using pymatgen
data_NiH14C23NO4
_symmetry_space_group_name_H-M   'P 1'
_cell_length_a   27.56000000
_cell_length_b   27.56000000
_cell_length_c   27.56000000
_cell_angle_alpha   90.00000000
_cell_angle_beta   90.00000000
_cell_angle_gamma   90.00000000
_symmetry_Int_Tables_number   1
_chemical_formula_structural   NiH14C23NO4
_chemical_formula_sum   'Ni12 H168 C276 N12 O48'
_cell_volume   20933.29721600
_cell_formula_units_Z   12
loop_
 _symmetry_equiv_pos_site_id
 _symmetry_equiv_pos_as_xyz
  1  'x, y, z'
loop_
 _atom_site_type_symbol
 _atom_site_label
 _atom_site_symmetry_multiplicity
 _atom_site_fract_x
 _atom_site_fract_y
 _atom_site_fract_z
 _atom_site_occupancy
 _atom_site_charge
  Ni  Ni1  1  0.500000  0.798440  0.000000  1.0  0.8481
  Ni  Ni2  1  0.500000  0.201560  0.000000  1.0  0.8492
  Ni  Ni3  1  0.000000  0.500000  0.798440  1.0  0.8501
  Ni  Ni4  1  0.000000  0.500000  0.201560  1.0  0.849
  Ni  Ni5  1  0.798440  0.000000  0.500000  1.0  0.8487
  Ni  Ni6  1  0.201560  0.000000  0.500000  1.0  0.8506
  Ni  Ni7  1  0.298440  0.000000  0.500000  1.0  0.8487
  Ni  Ni8  1  0.701560  0.000000  0.500000  1.0  0.8506
  Ni  Ni9  1  0.000000  0.500000  0.701560  1.0  0.849
  Ni  Ni10  1  0.000000  0.500000  0.298440  1.0  0.8501
  Ni  Ni11  1  0.500000  0.298440  0.000000  1.0  0.8481
  Ni  Ni12  1  0.500000  0.701560  0.000000  1.0  0.8492
  H  H13  1  0.609800  0.822600  0.888800  1.0  0.1032
  H  H14  1  0.668300  0.822100  0.829500  1.0  0.1059
  H  H15  1  0.390200  0.177400  0.888800  1.0  0.1026
  H  H16  1  0.331700  0.177900  0.829500  1.0  0.1056
  H  H17  1  0.390200  0.822600  0.111200  1.0  0.1029
  H  H18  1  0.331700  0.822100  0.170500  1.0  0.1057
  H  H19  1  0.609800  0.177400  0.111200  1.0  0.1026
  H  H20  1  0.668300  0.177900  0.170500  1.0  0.1057
  H  H21  1  0.888800  0.609800  0.822600  1.0  0.1029
  H  H22  1  0.829500  0.668300  0.822100  1.0  0.1054
  H  H23  1  0.888800  0.390200  0.177400  1.0  0.1027
  H  H24  1  0.829500  0.331700  0.177900  1.0  0.1054
  H  H25  1  0.111200  0.390200  0.822600  1.0  0.1024
  H  H26  1  0.170500  0.331700  0.822100  1.0  0.1057
  H  H27  1  0.111200  0.609800  0.177400  1.0  0.1023
  H  H28  1  0.170500  0.668300  0.177900  1.0  0.1054
  H  H29  1  0.822600  0.888800  0.609800  1.0  0.103
  H  H30  1  0.822100  0.829500  0.668300  1.0  0.1057
  H  H31  1  0.177400  0.888800  0.390200  1.0  0.1026
  H  H32  1  0.177900  0.829500  0.331700  1.0  0.1064
  H  H33  1  0.822600  0.111200  0.390200  1.0  0.1028
  H  H34  1  0.822100  0.170500  0.331700  1.0  0.1061
  H  H35  1  0.177400  0.111200  0.609800  1.0  0.1029
  H  H36  1  0.177900  0.170500  0.668300  1.0  0.106
  H  H37  1  0.322600  0.109800  0.611200  1.0  0.1029
  H  H38  1  0.322100  0.168300  0.670500  1.0  0.1057
  H  H39  1  0.677400  0.890200  0.611200  1.0  0.1029
  H  H40  1  0.677900  0.831700  0.670500  1.0  0.1059
  H  H41  1  0.322600  0.890200  0.388800  1.0  0.1028
  H  H42  1  0.322100  0.831700  0.329500  1.0  0.1059
  H  H43  1  0.677400  0.109800  0.388800  1.0  0.1026
  H  H44  1  0.677900  0.168300  0.329500  1.0  0.1062
  H  H45  1  0.109800  0.388800  0.677400  1.0  0.1024
  H  H46  1  0.168300  0.329500  0.677900  1.0  0.1056
  H  H47  1  0.890200  0.388800  0.322600  1.0  0.1025
  H  H48  1  0.831700  0.329500  0.322100  1.0  0.1057
  H  H49  1  0.890200  0.611200  0.677400  1.0  0.1022
  H  H50  1  0.831700  0.670500  0.677900  1.0  0.1054
  H  H51  1  0.109800  0.611200  0.322600  1.0  0.1023
  H  H52  1  0.168300  0.670500  0.322100  1.0  0.1059
  H  H53  1  0.388800  0.322600  0.890200  1.0  0.1033
  H  H54  1  0.329500  0.322100  0.831700  1.0  0.1059
  H  H55  1  0.388800  0.677400  0.109800  1.0  0.103
  H  H56  1  0.329500  0.677900  0.168300  1.0  0.1054
  H  H57  1  0.611200  0.322600  0.109800  1.0  0.1035
  H  H58  1  0.670500  0.322100  0.168300  1.0  0.1056
  H  H59  1  0.611200  0.677400  0.890200  1.0  0.1026
  H  H60  1  0.670500  0.677900  0.831700  1.0  0.1057
  H  H61  1  0.390200  0.177400  0.111200  1.0  0.1026
  H  H62  1  0.331700  0.177900  0.170500  1.0  0.1054
  H  H63  1  0.609800  0.822600  0.111200  1.0  0.1034
  H  H64  1  0.668300  0.822100  0.170500  1.0  0.1057
  H  H65  1  0.609800  0.177400  0.888800  1.0  0.1025
  H  H66  1  0.668300  0.177900  0.829500  1.0  0.1058
  H  H67  1  0.390200  0.822600  0.888800  1.0  0.1029
  H  H68  1  0.331700  0.822100  0.829500  1.0  0.106
  H  H69  1  0.111200  0.390200  0.177400  1.0  0.1025
  H  H70  1  0.170500  0.331700  0.177900  1.0  0.1053
  H  H71  1  0.111200  0.609800  0.822600  1.0  0.1024
  H  H72  1  0.170500  0.668300  0.822100  1.0  0.1057
  H  H73  1  0.888800  0.609800  0.177400  1.0  0.1026
  H  H74  1  0.829500  0.668300  0.177900  1.0  0.1054
  H  H75  1  0.888800  0.390200  0.822600  1.0  0.1028
  H  H76  1  0.829500  0.331700  0.822100  1.0  0.1054
  H  H77  1  0.177400  0.111200  0.390200  1.0  0.1025
  H  H78  1  0.177900  0.170500  0.331700  1.0  0.1062
  H  H79  1  0.822600  0.111200  0.609800  1.0  0.1028
  H  H80  1  0.822100  0.170500  0.668300  1.0  0.1057
  H  H81  1  0.177400  0.888800  0.609800  1.0  0.103
  H  H82  1  0.177900  0.829500  0.668300  1.0  0.1062
  H  H83  1  0.822600  0.888800  0.390200  1.0  0.1028
  H  H84  1  0.822100  0.829500  0.331700  1.0  0.1063
  H  H85  1  0.677400  0.890200  0.388800  1.0  0.1024
  H  H86  1  0.677900  0.831700  0.329500  1.0  0.1061
  H  H87  1  0.322600  0.109800  0.388800  1.0  0.1028
  H  H88  1  0.322100  0.168300  0.329500  1.0  0.1059
  H  H89  1  0.677400  0.109800  0.611200  1.0  0.1028
  H  H90  1  0.677900  0.168300  0.670500  1.0  0.1059
  H  H91  1  0.322600  0.890200  0.611200  1.0  0.1031
  H  H92  1  0.322100  0.831700  0.670500  1.0  0.1057
  H  H93  1  0.890200  0.611200  0.322600  1.0  0.1025
  H  H94  1  0.831700  0.670500  0.322100  1.0  0.1058
  H  H95  1  0.109800  0.611200  0.677400  1.0  0.1023
  H  H96  1  0.168300  0.670500  0.677900  1.0  0.1056
  H  H97  1  0.109800  0.388800  0.322600  1.0  0.1024
  H  H98  1  0.168300  0.329500  0.322100  1.0  0.1058
  H  H99  1  0.890200  0.388800  0.677400  1.0  0.1022
  H  H100  1  0.831700  0.329500  0.677900  1.0  0.1054
  H  H101  1  0.611200  0.677400  0.109800  1.0  0.1028
  H  H102  1  0.670500  0.677900  0.168300  1.0  0.1056
  H  H103  1  0.611200  0.322600  0.890200  1.0  0.1032
  H  H104  1  0.670500  0.322100  0.831700  1.0  0.1057
  H  H105  1  0.388800  0.677400  0.890200  1.0  0.1029
  H  H106  1  0.329500  0.677900  0.831700  1.0  0.1057
  H  H107  1  0.388800  0.322600  0.109800  1.0  0.1035
  H  H108  1  0.329500  0.322100  0.168300  1.0  0.1057
  H  H109  1  0.750000  0.690700  0.809300  1.0  0.1057
  H  H110  1  0.250000  0.309300  0.809300  1.0  0.1055
  H  H111  1  0.250000  0.690700  0.190700  1.0  0.105
  H  H112  1  0.750000  0.309300  0.190700  1.0  0.1048
  H  H113  1  0.809300  0.750000  0.690700  1.0  0.1054
  H  H114  1  0.809300  0.250000  0.309300  1.0  0.1061
  H  H115  1  0.190700  0.250000  0.690700  1.0  0.1053
  H  H116  1  0.190700  0.750000  0.309300  1.0  0.1063
  H  H117  1  0.690700  0.809300  0.750000  1.0  0.1057
  H  H118  1  0.309300  0.809300  0.250000  1.0  0.1055
  H  H119  1  0.690700  0.190700  0.250000  1.0  0.106
  H  H120  1  0.309300  0.190700  0.750000  1.0  0.1058
  H  H121  1  0.250000  0.309300  0.190700  1.0  0.1048
  H  H122  1  0.750000  0.690700  0.190700  1.0  0.105
  H  H123  1  0.750000  0.309300  0.809300  1.0  0.1055
  H  H124  1  0.250000  0.690700  0.809300  1.0  0.1057
  H  H125  1  0.190700  0.250000  0.309300  1.0  0.1063
  H  H126  1  0.190700  0.750000  0.690700  1.0  0.1053
  H  H127  1  0.809300  0.750000  0.309300  1.0  0.1061
  H  H128  1  0.809300  0.250000  0.690700  1.0  0.1054
  H  H129  1  0.309300  0.190700  0.250000  1.0  0.1058
  H  H130  1  0.690700  0.190700  0.750000  1.0  0.106
  H  H131  1  0.309300  0.809300  0.750000  1.0  0.1055
  H  H132  1  0.690700  0.809300  0.250000  1.0  0.1057
  H  H133  1  0.500000  0.962900  0.926500  1.0  0.1242
  H  H134  1  0.500000  0.878800  0.929200  1.0  0.0889
  H  H135  1  0.500000  0.037100  0.926500  1.0  0.1237
  H  H136  1  0.500000  0.121200  0.929200  1.0  0.0886
  H  H137  1  0.500000  0.962900  0.073500  1.0  0.1234
  H  H138  1  0.500000  0.878800  0.070800  1.0  0.089
  H  H139  1  0.500000  0.037100  0.073500  1.0  0.1228
  H  H140  1  0.500000  0.121200  0.070800  1.0  0.0895
  H  H141  1  0.926500  0.500000  0.962900  1.0  0.1214
  H  H142  1  0.929200  0.500000  0.878800  1.0  0.0896
  H  H143  1  0.926500  0.500000  0.037100  1.0  0.1213
  H  H144  1  0.929200  0.500000  0.121200  1.0  0.0893
  H  H145  1  0.073500  0.500000  0.962900  1.0  0.1218
  H  H146  1  0.070800  0.500000  0.878800  1.0  0.0898
  H  H147  1  0.073500  0.500000  0.037100  1.0  0.1215
  H  H148  1  0.070800  0.500000  0.121200  1.0  0.0899
  H  H149  1  0.962900  0.926500  0.500000  1.0  0.1246
  H  H150  1  0.878800  0.929200  0.500000  1.0  0.0894
  H  H151  1  0.037100  0.926500  0.500000  1.0  0.124
  H  H152  1  0.121200  0.929200  0.500000  1.0  0.0893
  H  H153  1  0.962900  0.073500  0.500000  1.0  0.1248
  H  H154  1  0.878800  0.070800  0.500000  1.0  0.0894
  H  H155  1  0.037100  0.073500  0.500000  1.0  0.1243
  H  H156  1  0.121200  0.070800  0.500000  1.0  0.0892
  H  H157  1  0.462900  0.000000  0.573500  1.0  0.1221
  H  H158  1  0.378800  0.000000  0.570800  1.0  0.09
  H  H159  1  0.537100  0.000000  0.573500  1.0  0.1222
  H  H160  1  0.621200  0.000000  0.570800  1.0  0.0902
  H  H161  1  0.462900  0.000000  0.426500  1.0  0.1235
  H  H162  1  0.378800  0.000000  0.429200  1.0  0.0901
  H  H163  1  0.537100  0.000000  0.426500  1.0  0.1233
  H  H164  1  0.621200  0.000000  0.429200  1.0  0.0899
  H  H165  1  0.000000  0.426500  0.537100  1.0  0.124
  H  H166  1  0.000000  0.429200  0.621200  1.0  0.089
  H  H167  1  0.000000  0.426500  0.462900  1.0  0.1247
  H  H168  1  0.000000  0.429200  0.378800  1.0  0.0892
  H  H169  1  0.000000  0.573500  0.537100  1.0  0.1246
  H  H170  1  0.000000  0.570800  0.621200  1.0  0.089
  H  H171  1  0.000000  0.573500  0.462900  1.0  0.125
  H  H172  1  0.000000  0.570800  0.378800  1.0  0.0893
  H  H173  1  0.426500  0.462900  0.000000  1.0  0.122
  H  H174  1  0.429200  0.378800  0.000000  1.0  0.0893
  H  H175  1  0.426500  0.537100  0.000000  1.0  0.1214
  H  H176  1  0.429200  0.621200  0.000000  1.0  0.089
  H  H177  1  0.573500  0.462900  0.000000  1.0  0.1225
  H  H178  1  0.570800  0.378800  0.000000  1.0  0.0895
  H  H179  1  0.573500  0.537100  0.000000  1.0  0.1217
  H  H180  1  0.570800  0.621200  0.000000  1.0  0.0895
  C  C181  1  0.621790  0.793180  0.877310  1.0  -0.0596
  C  C182  1  0.657000  0.792840  0.841820  1.0  -0.1328
  C  C183  1  0.378210  0.206820  0.877310  1.0  -0.0586
  C  C184  1  0.343000  0.207160  0.841820  1.0  -0.1334
  C  C185  1  0.378210  0.793180  0.122690  1.0  -0.0596
  C  C186  1  0.343000  0.792840  0.158180  1.0  -0.1332
  C  C187  1  0.621790  0.206820  0.122690  1.0  -0.0596
  C  C188  1  0.657000  0.207160  0.158180  1.0  -0.1324
  C  C189  1  0.877310  0.621790  0.793180  1.0  -0.064
  C  C190  1  0.841820  0.657000  0.792840  1.0  -0.1325
  C  C191  1  0.877310  0.378210  0.206820  1.0  -0.064
  C  C192  1  0.841820  0.343000  0.207160  1.0  -0.1332
  C  C193  1  0.122690  0.378210  0.793180  1.0  -0.0645
  C  C194  1  0.158180  0.343000  0.792840  1.0  -0.132
  C  C195  1  0.122690  0.621790  0.206820  1.0  -0.0624
  C  C196  1  0.158180  0.657000  0.207160  1.0  -0.1327
  C  C197  1  0.793180  0.877310  0.621790  1.0  -0.0594
  C  C198  1  0.792840  0.841820  0.657000  1.0  -0.1289
  C  C199  1  0.206820  0.877310  0.378210  1.0  -0.0596
  C  C200  1  0.207160  0.841820  0.343000  1.0  -0.1301
  C  C201  1  0.793180  0.122690  0.378210  1.0  -0.0584
  C  C202  1  0.792840  0.158180  0.343000  1.0  -0.13
  C  C203  1  0.206820  0.122690  0.621790  1.0  -0.0589
  C  C204  1  0.207160  0.158180  0.657000  1.0  -0.1314
  C  C205  1  0.293180  0.121790  0.622690  1.0  -0.0599
  C  C206  1  0.292840  0.157000  0.658180  1.0  -0.1297
  C  C207  1  0.706820  0.878210  0.622690  1.0  -0.0597
  C  C208  1  0.707160  0.843000  0.658180  1.0  -0.1311
  C  C209  1  0.293180  0.878210  0.377310  1.0  -0.0589
  C  C210  1  0.292840  0.843000  0.341820  1.0  -0.1302
  C  C211  1  0.706820  0.121790  0.377310  1.0  -0.0594
  C  C212  1  0.707160  0.157000  0.341820  1.0  -0.131
  C  C213  1  0.121790  0.377310  0.706820  1.0  -0.0637
  C  C214  1  0.157000  0.341820  0.707160  1.0  -0.1319
  C  C215  1  0.878210  0.377310  0.293180  1.0  -0.0643
  C  C216  1  0.843000  0.341820  0.292840  1.0  -0.1324
  C  C217  1  0.878210  0.622690  0.706820  1.0  -0.0629
  C  C218  1  0.843000  0.658180  0.707160  1.0  -0.1329
  C  C219  1  0.121790  0.622690  0.293180  1.0  -0.0644
  C  C220  1  0.157000  0.658180  0.292840  1.0  -0.1319
  C  C221  1  0.377310  0.293180  0.878210  1.0  -0.0594
  C  C222  1  0.341820  0.292840  0.843000  1.0  -0.1332
  C  C223  1  0.377310  0.706820  0.121790  1.0  -0.0588
  C  C224  1  0.341820  0.707160  0.157000  1.0  -0.1335
  C  C225  1  0.622690  0.293180  0.121790  1.0  -0.06
  C  C226  1  0.658180  0.292840  0.157000  1.0  -0.1322
  C  C227  1  0.622690  0.706820  0.878210  1.0  -0.059
  C  C228  1  0.658180  0.707160  0.843000  1.0  -0.1322
  C  C229  1  0.378210  0.206820  0.122690  1.0  -0.0589
  C  C230  1  0.343000  0.207160  0.158180  1.0  -0.1337
  C  C231  1  0.621790  0.793180  0.122690  1.0  -0.0601
  C  C232  1  0.657000  0.792840  0.158180  1.0  -0.1326
  C  C233  1  0.621790  0.206820  0.877310  1.0  -0.0592
  C  C234  1  0.657000  0.207160  0.841820  1.0  -0.1321
  C  C235  1  0.378210  0.793180  0.877310  1.0  -0.0592
  C  C236  1  0.343000  0.792840  0.841820  1.0  -0.1336
  C  C237  1  0.122690  0.378210  0.206820  1.0  -0.0635
  C  C238  1  0.158180  0.343000  0.207160  1.0  -0.1325
  C  C239  1  0.122690  0.621790  0.793180  1.0  -0.0646
  C  C240  1  0.158180  0.657000  0.792840  1.0  -0.1319
  C  C241  1  0.877310  0.621790  0.206820  1.0  -0.0629
  C  C242  1  0.841820  0.657000  0.207160  1.0  -0.1334
  C  C243  1  0.877310  0.378210  0.793180  1.0  -0.0639
  C  C244  1  0.841820  0.343000  0.792840  1.0  -0.1327
  C  C245  1  0.206820  0.122690  0.378210  1.0  -0.0594
  C  C246  1  0.207160  0.158180  0.343000  1.0  -0.131
  C  C247  1  0.793180  0.122690  0.621790  1.0  -0.0595
  C  C248  1  0.792840  0.158180  0.657000  1.0  -0.1296
  C  C249  1  0.206820  0.877310  0.621790  1.0  -0.059
  C  C250  1  0.207160  0.841820  0.657000  1.0  -0.1305
  C  C251  1  0.793180  0.877310  0.378210  1.0  -0.0585
  C  C252  1  0.792840  0.841820  0.343000  1.0  -0.1292
  C  C253  1  0.706820  0.878210  0.377310  1.0  -0.0599
  C  C254  1  0.707160  0.843000  0.341820  1.0  -0.1306
  C  C255  1  0.293180  0.121790  0.377310  1.0  -0.0588
  C  C256  1  0.292840  0.157000  0.341820  1.0  -0.1303
  C  C257  1  0.706820  0.121790  0.622690  1.0  -0.0593
  C  C258  1  0.707160  0.157000  0.658180  1.0  -0.1314
  C  C259  1  0.293180  0.878210  0.622690  1.0  -0.0597
  C  C260  1  0.292840  0.843000  0.658180  1.0  -0.1296
  C  C261  1  0.878210  0.622690  0.293180  1.0  -0.0643
  C  C262  1  0.843000  0.658180  0.292840  1.0  -0.1327
  C  C263  1  0.121790  0.622690  0.706820  1.0  -0.0627
  C  C264  1  0.157000  0.658180  0.707160  1.0  -0.1323
  C  C265  1  0.121790  0.377310  0.293180  1.0  -0.0642
  C  C266  1  0.157000  0.341820  0.292840  1.0  -0.1313
  C  C267  1  0.878210  0.377310  0.706820  1.0  -0.0641
  C  C268  1  0.843000  0.341820  0.707160  1.0  -0.1325
  C  C269  1  0.622690  0.706820  0.121790  1.0  -0.0591
  C  C270  1  0.658180  0.707160  0.157000  1.0  -0.1325
  C  C271  1  0.622690  0.293180  0.878210  1.0  -0.0597
  C  C272  1  0.658180  0.292840  0.843000  1.0  -0.1323
  C  C273  1  0.377310  0.706820  0.878210  1.0  -0.0588
  C  C274  1  0.341820  0.707160  0.843000  1.0  -0.1334
  C  C275  1  0.377310  0.293180  0.121790  1.0  -0.0596
  C  C276  1  0.341820  0.292840  0.157000  1.0  -0.133
  C  C277  1  0.500000  0.972760  0.000000  1.0  0.0624
  C  C278  1  0.500000  0.027240  0.000000  1.0  0.0624
  C  C279  1  0.000000  0.500000  0.972760  1.0  0.0618
  C  C280  1  0.000000  0.500000  0.027240  1.0  0.0616
  C  C281  1  0.972760  0.000000  0.500000  1.0  0.0596
  C  C282  1  0.027240  0.000000  0.500000  1.0  0.06
  C  C283  1  0.472760  0.000000  0.500000  1.0  0.0596
  C  C284  1  0.527240  0.000000  0.500000  1.0  0.06
  C  C285  1  0.000000  0.500000  0.527240  1.0  0.0616
  C  C286  1  0.000000  0.500000  0.472760  1.0  0.0618
  C  C287  1  0.500000  0.472760  0.000000  1.0  0.0624
  C  C288  1  0.500000  0.527240  0.000000  1.0  0.0624
  C  C289  1  0.565620  0.750000  0.934380  1.0  0.6872
  C  C290  1  0.604090  0.750000  0.895910  1.0  -0.1283
  C  C291  1  0.714040  0.750000  0.785960  1.0  0.041
  C  C292  1  0.675790  0.750000  0.824210  1.0  0.0615
  C  C293  1  0.434380  0.250000  0.934380  1.0  0.6877
  C  C294  1  0.395910  0.250000  0.895910  1.0  -0.1278
  C  C295  1  0.285960  0.250000  0.785960  1.0  0.0422
  C  C296  1  0.324210  0.250000  0.824210  1.0  0.061
  C  C297  1  0.434380  0.750000  0.065620  1.0  0.6876
  C  C298  1  0.395910  0.750000  0.104090  1.0  -0.1274
  C  C299  1  0.285960  0.750000  0.214040  1.0  0.0428
  C  C300  1  0.324210  0.750000  0.175790  1.0  0.0608
  C  C301  1  0.565620  0.250000  0.065620  1.0  0.6871
  C  C302  1  0.604090  0.250000  0.104090  1.0  -0.1281
  C  C303  1  0.714040  0.250000  0.214040  1.0  0.0415
  C  C304  1  0.675790  0.250000  0.175790  1.0  0.0614
  C  C305  1  0.934380  0.565620  0.750000  1.0  0.6874
  C  C306  1  0.895910  0.604090  0.750000  1.0  -0.1262
  C  C307  1  0.785960  0.714040  0.750000  1.0  0.0432
  C  C308  1  0.824210  0.675790  0.750000  1.0  0.0615
  C  C309  1  0.934380  0.434380  0.250000  1.0  0.6879
  C  C310  1  0.895910  0.395910  0.250000  1.0  -0.1252
  C  C311  1  0.785960  0.285960  0.250000  1.0  0.0428
  C  C312  1  0.824210  0.324210  0.250000  1.0  0.0611
  C  C313  1  0.065620  0.434380  0.750000  1.0  0.6873
  C  C314  1  0.104090  0.395910  0.750000  1.0  -0.1256
  C  C315  1  0.214040  0.285960  0.750000  1.0  0.0417
  C  C316  1  0.175790  0.324210  0.750000  1.0  0.0618
  C  C317  1  0.065620  0.565620  0.250000  1.0  0.6871
  C  C318  1  0.104090  0.604090  0.250000  1.0  -0.1269
  C  C319  1  0.214040  0.714040  0.250000  1.0  0.0416
  C  C320  1  0.175790  0.675790  0.250000  1.0  0.0619
  C  C321  1  0.750000  0.934380  0.565620  1.0  0.6871
  C  C322  1  0.750000  0.895910  0.604090  1.0  -0.1251
  C  C323  1  0.750000  0.785960  0.714040  1.0  0.0442
  C  C324  1  0.750000  0.824210  0.675790  1.0  0.0619
  C  C325  1  0.250000  0.934380  0.434380  1.0  0.6871
  C  C326  1  0.250000  0.895910  0.395910  1.0  -0.125
  C  C327  1  0.250000  0.785960  0.285960  1.0  0.0438
  C  C328  1  0.250000  0.824210  0.324210  1.0  0.0621
  C  C329  1  0.750000  0.065620  0.434380  1.0  0.6867
  C  C330  1  0.750000  0.104090  0.395910  1.0  -0.126
  C  C331  1  0.750000  0.214040  0.285960  1.0  0.0439
  C  C332  1  0.750000  0.175790  0.324210  1.0  0.0625
  C  C333  1  0.250000  0.065620  0.565620  1.0  0.6867
  C  C334  1  0.250000  0.104090  0.604090  1.0  -0.1261
  C  C335  1  0.250000  0.214040  0.714040  1.0  0.0444
  C  C336  1  0.250000  0.175790  0.675790  1.0  0.0623
  C  C337  1  0.434380  0.250000  0.065620  1.0  0.6876
  C  C338  1  0.395910  0.250000  0.104090  1.0  -0.1274
  C  C339  1  0.285960  0.250000  0.214040  1.0  0.0428
  C  C340  1  0.324210  0.250000  0.175790  1.0  0.0608
  C  C341  1  0.565620  0.750000  0.065620  1.0  0.6871
  C  C342  1  0.604090  0.750000  0.104090  1.0  -0.1281
  C  C343  1  0.714040  0.750000  0.214040  1.0  0.0415
  C  C344  1  0.675790  0.750000  0.175790  1.0  0.0614
  C  C345  1  0.565620  0.250000  0.934380  1.0  0.6872
  C  C346  1  0.604090  0.250000  0.895910  1.0  -0.1283
  C  C347  1  0.714040  0.250000  0.785960  1.0  0.041
  C  C348  1  0.675790  0.250000  0.824210  1.0  0.0615
  C  C349  1  0.434380  0.750000  0.934380  1.0  0.6877
  C  C350  1  0.395910  0.750000  0.895910  1.0  -0.1278
  C  C351  1  0.285960  0.750000  0.785960  1.0  0.0422
  C  C352  1  0.324210  0.750000  0.824210  1.0  0.061
  C  C353  1  0.065620  0.434380  0.250000  1.0  0.6873
  C  C354  1  0.104090  0.395910  0.250000  1.0  -0.1256
  C  C355  1  0.214040  0.285960  0.250000  1.0  0.0417
  C  C356  1  0.175790  0.324210  0.250000  1.0  0.0618
  C  C357  1  0.065620  0.565620  0.750000  1.0  0.6871
  C  C358  1  0.104090  0.604090  0.750000  1.0  -0.1269
  C  C359  1  0.214040  0.714040  0.750000  1.0  0.0416
  C  C360  1  0.175790  0.675790  0.750000  1.0  0.0619
  C  C361  1  0.934380  0.565620  0.250000  1.0  0.6874
  C  C362  1  0.895910  0.604090  0.250000  1.0  -0.1262
  C  C363  1  0.785960  0.714040  0.250000  1.0  0.0432
  C  C364  1  0.824210  0.675790  0.250000  1.0  0.0615
  C  C365  1  0.934380  0.434380  0.750000  1.0  0.6879
  C  C366  1  0.895910  0.395910  0.750000  1.0  -0.1252
  C  C367  1  0.785960  0.285960  0.750000  1.0  0.0428
  C  C368  1  0.824210  0.324210  0.750000  1.0  0.0611
  C  C369  1  0.250000  0.065620  0.434380  1.0  0.6867
  C  C370  1  0.250000  0.104090  0.395910  1.0  -0.126
  C  C371  1  0.250000  0.214040  0.285960  1.0  0.0439
  C  C372  1  0.250000  0.175790  0.324210  1.0  0.0625
  C  C373  1  0.750000  0.065620  0.565620  1.0  0.6867
  C  C374  1  0.750000  0.104090  0.604090  1.0  -0.1261
  C  C375  1  0.750000  0.214040  0.714040  1.0  0.0444
  C  C376  1  0.750000  0.175790  0.675790  1.0  0.0623
  C  C377  1  0.250000  0.934380  0.565620  1.0  0.6871
  C  C378  1  0.250000  0.895910  0.604090  1.0  -0.1251
  C  C379  1  0.250000  0.785960  0.714040  1.0  0.0442
  C  C380  1  0.250000  0.824210  0.675790  1.0  0.0619
  C  C381  1  0.750000  0.934380  0.434380  1.0  0.6871
  C  C382  1  0.750000  0.895910  0.395910  1.0  -0.125
  C  C383  1  0.750000  0.785960  0.285960  1.0  0.0438
  C  C384  1  0.750000  0.824210  0.324210  1.0  0.0621
  C  C385  1  0.750000  0.714570  0.785430  1.0  -0.1024
  C  C386  1  0.250000  0.285430  0.785430  1.0  -0.1012
  C  C387  1  0.250000  0.714570  0.214570  1.0  -0.1026
  C  C388  1  0.750000  0.285430  0.214570  1.0  -0.1014
  C  C389  1  0.785430  0.750000  0.714570  1.0  -0.1043
  C  C390  1  0.785430  0.250000  0.285430  1.0  -0.1044
  C  C391  1  0.214570  0.250000  0.714570  1.0  -0.1039
  C  C392  1  0.214570  0.750000  0.285430  1.0  -0.1041
  C  C393  1  0.714570  0.785430  0.750000  1.0  -0.1027
  C  C394  1  0.285430  0.785430  0.250000  1.0  -0.1031
  C  C395  1  0.714570  0.214570  0.250000  1.0  -0.1038
  C  C396  1  0.285430  0.214570  0.750000  1.0  -0.1042
  C  C397  1  0.250000  0.285430  0.214570  1.0  -0.1014
  C  C398  1  0.750000  0.714570  0.214570  1.0  -0.1026
  C  C399  1  0.750000  0.285430  0.785430  1.0  -0.1012
  C  C400  1  0.250000  0.714570  0.785430  1.0  -0.1024
  C  C401  1  0.214570  0.250000  0.285430  1.0  -0.1041
  C  C402  1  0.214570  0.750000  0.714570  1.0  -0.1039
  C  C403  1  0.785430  0.750000  0.285430  1.0  -0.1044
  C  C404  1  0.785430  0.250000  0.714570  1.0  -0.1043
  C  C405  1  0.285430  0.214570  0.250000  1.0  -0.1042
  C  C406  1  0.714570  0.214570  0.750000  1.0  -0.1038
  C  C407  1  0.285430  0.785430  0.750000  1.0  -0.1031
  C  C408  1  0.714570  0.785430  0.250000  1.0  -0.1027
  C  C409  1  0.500000  0.946790  0.956100  1.0  -0.1883
  C  C410  1  0.500000  0.896170  0.958100  1.0  0.1438
  C  C411  1  0.500000  0.053210  0.956100  1.0  -0.1893
  C  C412  1  0.500000  0.103830  0.958100  1.0  0.1441
  C  C413  1  0.500000  0.946790  0.043900  1.0  -0.1882
  C  C414  1  0.500000  0.896170  0.041900  1.0  0.1455
  C  C415  1  0.500000  0.053210  0.043900  1.0  -0.1896
  C  C416  1  0.500000  0.103830  0.041900  1.0  0.1455
  C  C417  1  0.956100  0.500000  0.946790  1.0  -0.1883
  C  C418  1  0.958100  0.500000  0.896170  1.0  0.1478
  C  C419  1  0.956100  0.500000  0.053210  1.0  -0.1881
  C  C420  1  0.958100  0.500000  0.103830  1.0  0.1476
  C  C421  1  0.043900  0.500000  0.946790  1.0  -0.188
  C  C422  1  0.041900  0.500000  0.896170  1.0  0.1484
  C  C423  1  0.043900  0.500000  0.053210  1.0  -0.1884
  C  C424  1  0.041900  0.500000  0.103830  1.0  0.1486
  C  C425  1  0.946790  0.956100  0.500000  1.0  -0.1903
  C  C426  1  0.896170  0.958100  0.500000  1.0  0.145
  C  C427  1  0.053210  0.956100  0.500000  1.0  -0.1908
  C  C428  1  0.103830  0.958100  0.500000  1.0  0.1446
  C  C429  1  0.946790  0.043900  0.500000  1.0  -0.1886
  C  C430  1  0.896170  0.041900  0.500000  1.0  0.1473
  C  C431  1  0.053210  0.043900  0.500000  1.0  -0.1898
  C  C432  1  0.103830  0.041900  0.500000  1.0  0.1463
  C  C433  1  0.446790  0.000000  0.543900  1.0  -0.1899
  C  C434  1  0.396170  0.000000  0.541900  1.0  0.1421
  C  C435  1  0.553210  0.000000  0.543900  1.0  -0.1911
  C  C436  1  0.603830  0.000000  0.541900  1.0  0.1422
  C  C437  1  0.446790  0.000000  0.456100  1.0  -0.1912
  C  C438  1  0.396170  0.000000  0.458100  1.0  0.1435
  C  C439  1  0.553210  0.000000  0.456100  1.0  -0.1908
  C  C440  1  0.603830  0.000000  0.458100  1.0  0.1428
  C  C441  1  0.000000  0.456100  0.553210  1.0  -0.1887
  C  C442  1  0.000000  0.458100  0.603830  1.0  0.1475
  C  C443  1  0.000000  0.456100  0.446790  1.0  -0.1901
  C  C444  1  0.000000  0.458100  0.396170  1.0  0.1474
  C  C445  1  0.000000  0.543900  0.553210  1.0  -0.188
  C  C446  1  0.000000  0.541900  0.603830  1.0  0.1493
  C  C447  1  0.000000  0.543900  0.446790  1.0  -0.1889
  C  C448  1  0.000000  0.541900  0.396170  1.0  0.1499
  C  C449  1  0.456100  0.446790  0.000000  1.0  -0.1868
  C  C450  1  0.458100  0.396170  0.000000  1.0  0.1473
  C  C451  1  0.456100  0.553210  0.000000  1.0  -0.1879
  C  C452  1  0.458100  0.603830  0.000000  1.0  0.1471
  C  C453  1  0.543900  0.446790  0.000000  1.0  -0.1865
  C  C454  1  0.541900  0.396170  0.000000  1.0  0.1479
  C  C455  1  0.543900  0.553210  0.000000  1.0  -0.188
  C  C456  1  0.541900  0.603830  0.000000  1.0  0.1479
  N  N457  1  0.500000  0.871600  0.000000  1.0  -0.3217
  N  N458  1  0.500000  0.128400  0.000000  1.0  -0.3219
  N  N459  1  0.000000  0.500000  0.871600  1.0  -0.3181
  N  N460  1  0.000000  0.500000  0.128400  1.0  -0.3195
  N  N461  1  0.871600  0.000000  0.500000  1.0  -0.3167
  N  N462  1  0.128400  0.000000  0.500000  1.0  -0.316
  N  N463  1  0.371600  0.000000  0.500000  1.0  -0.3167
  N  N464  1  0.628400  0.000000  0.500000  1.0  -0.316
  N  N465  1  0.000000  0.500000  0.628400  1.0  -0.3195
  N  N466  1  0.000000  0.500000  0.371600  1.0  -0.3181
  N  N467  1  0.500000  0.371600  0.000000  1.0  -0.3217
  N  N468  1  0.500000  0.628400  0.000000  1.0  -0.3219
  O  O469  1  0.550810  0.790410  0.948840  1.0  -0.5832
  O  O470  1  0.449190  0.209590  0.948840  1.0  -0.5834
  O  O471  1  0.449190  0.790410  0.051160  1.0  -0.5833
  O  O472  1  0.550810  0.209590  0.051160  1.0  -0.5831
  O  O473  1  0.948840  0.550810  0.790410  1.0  -0.5831
  O  O474  1  0.948840  0.449190  0.209590  1.0  -0.5825
  O  O475  1  0.051160  0.449190  0.790410  1.0  -0.5824
  O  O476  1  0.051160  0.550810  0.209590  1.0  -0.5824
  O  O477  1  0.790410  0.948840  0.550810  1.0  -0.5815
  O  O478  1  0.209590  0.948840  0.449190  1.0  -0.5817
  O  O479  1  0.790410  0.051160  0.449190  1.0  -0.5813
  O  O480  1  0.209590  0.051160  0.550810  1.0  -0.5813
  O  O481  1  0.290410  0.050810  0.551160  1.0  -0.5816
  O  O482  1  0.709590  0.949190  0.551160  1.0  -0.5813
  O  O483  1  0.290410  0.949190  0.448840  1.0  -0.5818
  O  O484  1  0.709590  0.050810  0.448840  1.0  -0.582
  O  O485  1  0.050810  0.448840  0.709590  1.0  -0.5822
  O  O486  1  0.949190  0.448840  0.290410  1.0  -0.5827
  O  O487  1  0.949190  0.551160  0.709590  1.0  -0.5825
  O  O488  1  0.050810  0.551160  0.290410  1.0  -0.5826
  O  O489  1  0.448840  0.290410  0.949190  1.0  -0.5833
  O  O490  1  0.448840  0.709590  0.050810  1.0  -0.5832
  O  O491  1  0.551160  0.290410  0.050810  1.0  -0.5829
  O  O492  1  0.551160  0.709590  0.949190  1.0  -0.5829
  O  O493  1  0.449190  0.209590  0.051160  1.0  -0.5832
  O  O494  1  0.550810  0.790410  0.051160  1.0  -0.5827
  O  O495  1  0.550810  0.209590  0.948840  1.0  -0.5833
  O  O496  1  0.449190  0.790410  0.948840  1.0  -0.5839
  O  O497  1  0.051160  0.449190  0.209590  1.0  -0.5822
  O  O498  1  0.051160  0.550810  0.790410  1.0  -0.5831
  O  O499  1  0.948840  0.550810  0.209590  1.0  -0.5827
  O  O500  1  0.948840  0.449190  0.790410  1.0  -0.5824
  O  O501  1  0.209590  0.051160  0.449190  1.0  -0.5814
  O  O502  1  0.790410  0.051160  0.550810  1.0  -0.5813
  O  O503  1  0.209590  0.948840  0.550810  1.0  -0.5814
  O  O504  1  0.790410  0.948840  0.449190  1.0  -0.5814
  O  O505  1  0.709590  0.949190  0.448840  1.0  -0.5817
  O  O506  1  0.290410  0.050810  0.448840  1.0  -0.582
  O  O507  1  0.709590  0.050810  0.551160  1.0  -0.5817
  O  O508  1  0.290410  0.949190  0.551160  1.0  -0.5812
  O  O509  1  0.949190  0.551160  0.290410  1.0  -0.5828
  O  O510  1  0.050810  0.551160  0.709590  1.0  -0.5821
  O  O511  1  0.050810  0.448840  0.290410  1.0  -0.5823
  O  O512  1  0.949190  0.448840  0.709590  1.0  -0.5826
  O  O513  1  0.551160  0.709590  0.050810  1.0  -0.5832
  O  O514  1  0.551160  0.290410  0.949190  1.0  -0.583
  O  O515  1  0.448840  0.709590  0.949190  1.0  -0.5828
  O  O516  1  0.448840  0.290410  0.050810  1.0  -0.5833
