# generated using pymatgen
data_Cd5H96C128(NO2)8
_symmetry_space_group_name_H-M   'P 1'
_cell_length_a   6.70170000
_cell_length_b   19.06580000
_cell_length_c   65.53970000
_cell_angle_alpha   89.48530000
_cell_angle_beta   87.06990000
_cell_angle_gamma   79.87750000
_symmetry_Int_Tables_number   1
_chemical_formula_structural   Cd5H96C128(NO2)8
_chemical_formula_sum   'Cd10 H192 C256 N16 O32'
_cell_volume   8233.09305681
_cell_formula_units_Z   2
loop_
 _symmetry_equiv_pos_site_id
 _symmetry_equiv_pos_as_xyz
  1  'x, y, z'
loop_
 _atom_site_type_symbol
 _atom_site_label
 _atom_site_symmetry_multiplicity
 _atom_site_fract_x
 _atom_site_fract_y
 _atom_site_fract_z
 _atom_site_occupancy
 _atom_site_charge
  Cd  Cd1  1  0.848390  0.602540  0.831280  1.0  0.9323
  Cd  Cd2  1  0.336950  0.650140  0.859360  1.0  1.0177
  Cd  Cd3  1  0.282210  0.397460  0.168720  1.0  0.9339
  Cd  Cd4  1  0.846450  0.349860  0.140640  1.0  1.0183
  Cd  Cd5  1  0.429670  0.102540  0.668720  1.0  0.9316
  Cd  Cd6  1  0.946310  0.150140  0.640640  1.0  1.0176
  Cd  Cd7  1  0.200930  0.897460  0.331280  1.0  0.9349
  Cd  Cd8  1  0.737090  0.849860  0.359360  1.0  1.0183
  Cd  Cd9  1  0.014300  0.000000  0.000000  1.0  0.999
  Cd  Cd10  1  0.764300  0.500000  0.500000  1.0  0.999
  H  H11  1  0.036200  0.027600  0.678400  1.0  0.0764
  H  H12  1  0.854700  0.985800  0.702800  1.0  0.1118
  H  H13  1  0.229300  0.037200  0.742600  1.0  0.0855
  H  H14  1  0.388800  0.094000  0.717400  1.0  0.1075
  H  H15  1  0.990800  0.960800  0.754800  1.0  0.0912
  H  H16  1  0.717200  0.935400  0.727600  1.0  0.131
  H  H17  1  0.449900  0.874000  0.737400  1.0  0.1145
  H  H18  1  0.298600  0.804400  0.760200  1.0  0.1083
  H  H19  1  0.725000  0.814800  0.799800  1.0  0.0911
  H  H20  1  0.871500  0.889200  0.777800  1.0  0.1153
  H  H21  1  0.449600  0.756200  0.810600  1.0  0.0825
  H  H22  1  0.189600  0.729800  0.782000  1.0  0.1051
  H  H23  1  0.009100  0.060000  0.955400  1.0  0.1129
  H  H24  1  0.807500  0.137400  0.934400  1.0  0.1032
  H  H25  1  0.335300  0.142200  0.975200  1.0  0.125
  H  H26  1  0.543600  0.059600  0.993400  1.0  0.0504
  H  H27  1  0.479700  0.215800  0.927200  1.0  0.0969
  H  H28  1  0.176500  0.218200  0.955600  1.0  0.1016
  H  H29  1  0.304900  0.292600  0.907000  1.0  0.1278
  H  H30  1  0.095400  0.380800  0.889800  1.0  0.1074
  H  H31  1  0.651700  0.381400  0.932400  1.0  0.1039
  H  H32  1  0.863700  0.298200  0.951600  1.0  0.1251
  H  H33  1  0.621600  0.475800  0.908400  1.0  0.1057
  H  H34  1  0.874200  0.460200  0.874200  1.0  0.0955
  H  H35  1  0.819000  0.121400  0.756400  1.0  0.1004
  H  H36  1  0.641200  0.045200  0.773800  1.0  0.0827
  H  H37  1  0.198400  0.204000  0.785600  1.0  0.0754
  H  H38  1  0.352300  0.275000  0.766600  1.0  0.0856
  H  H39  1  0.386800  0.013200  0.793000  1.0  0.0787
  H  H40  1  0.052700  0.109200  0.801600  1.0  0.0825
  H  H41  1  0.261800  0.924800  0.813400  1.0  0.0949
  H  H42  1  0.079400  0.850200  0.829400  1.0  0.1012
  H  H43  1  0.581100  0.005200  0.833800  1.0  0.1348
  H  H44  1  0.783700  0.082800  0.819600  1.0  0.1112
  H  H45  1  0.556400  0.889200  0.847800  1.0  0.1027
  H  H46  1  0.862100  0.777400  0.839000  1.0  0.0809
  H  H47  1  0.017200  0.600400  0.890200  1.0  0.07
  H  H48  1  0.709200  0.638200  0.907200  1.0  0.1211
  H  H49  1  0.792700  0.836600  0.895800  1.0  0.0982
  H  H50  1  0.087000  0.794000  0.877400  1.0  0.0988
  H  H51  1  0.504700  0.824000  0.918600  1.0  0.1643
  H  H52  1  0.407300  0.692600  0.920600  1.0  0.082
  H  H53  1  0.094700  0.689000  0.941400  1.0  0.0949
  H  H54  1  0.795600  0.742600  0.959600  1.0  0.1337
  H  H55  1  0.910900  0.932400  0.940000  1.0  0.0723
  H  H56  1  0.211000  0.878600  0.924800  1.0  0.1174
  H  H57  1  0.600900  0.936400  0.957200  1.0  0.0961
  H  H58  1  0.490800  0.812200  0.970400  1.0  0.0954
  H  H59  1  0.742200  0.972400  0.321600  1.0  0.0757
  H  H60  1  0.543300  0.014200  0.297200  1.0  0.1108
  H  H61  1  0.009100  0.962800  0.257400  1.0  0.0858
  H  H62  1  0.200200  0.906000  0.282600  1.0  0.1088
  H  H63  1  0.706400  0.039200  0.245200  1.0  0.0914
  H  H64  1  0.380200  0.064600  0.272400  1.0  0.131
  H  H65  1  0.061300  0.126000  0.262600  1.0  0.1146
  H  H66  1  0.863200  0.195600  0.239800  1.0  0.1081
  H  H67  1  0.339600  0.185200  0.200200  1.0  0.0904
  H  H68  1  0.538500  0.110800  0.222200  1.0  0.1157
  H  H69  1  0.016400  0.243800  0.189400  1.0  0.0825
  H  H70  1  0.701400  0.270200  0.218000  1.0  0.1055
  H  H71  1  0.024500  0.940000  0.044600  1.0  0.1122
  H  H72  1  0.879300  0.862600  0.065600  1.0  0.1032
  H  H73  1  0.452700  0.857800  0.024800  1.0  0.1251
  H  H74  1  0.596600  0.940400  0.006600  1.0  0.0498
  H  H75  1  0.622700  0.784200  0.072800  1.0  0.0953
  H  H76  1  0.350300  0.781800  0.044400  1.0  0.1013
  H  H77  1  0.504500  0.707400  0.093000  1.0  0.1282
  H  H78  1  0.366000  0.619200  0.110200  1.0  0.1069
  H  H79  1  0.965500  0.618600  0.067600  1.0  0.1043
  H  H80  1  0.113500  0.701800  0.048400  1.0  0.1248
  H  H81  1  0.005800  0.524200  0.091600  1.0  0.1059
  H  H82  1  0.208600  0.539800  0.125800  1.0  0.0957
  H  H83  1  0.696800  0.878600  0.243600  1.0  0.1007
  H  H84  1  0.460200  0.954800  0.226200  1.0  0.0832
  H  H85  1  0.188000  0.796000  0.214400  1.0  0.0752
  H  H86  1  0.393900  0.725000  0.233400  1.0  0.0853
  H  H87  1  0.193000  0.986800  0.207000  1.0  0.0798
  H  H88  1  0.963500  0.890800  0.198400  1.0  0.0818
  H  H89  1  0.000000  0.075200  0.186600  1.0  0.0939
  H  H90  1  0.759000  0.149800  0.170600  1.0  0.1011
  H  H91  1  0.420100  0.994800  0.166200  1.0  0.1346
  H  H92  1  0.686100  0.917200  0.180400  1.0  0.1116
  H  H93  1  0.293400  0.110800  0.152200  1.0  0.1035
  H  H94  1  0.478500  0.222600  0.161000  1.0  0.0806
  H  H95  1  0.507800  0.399600  0.109800  1.0  0.0691
  H  H96  1  0.254600  0.361800  0.092800  1.0  0.1208
  H  H97  1  0.525100  0.163400  0.104200  1.0  0.1003
  H  H98  1  0.758400  0.206000  0.122600  1.0  0.0983
  H  H99  1  0.247300  0.176000  0.081400  1.0  0.1639
  H  H100  1  0.020500  0.307400  0.079400  1.0  0.0811
  H  H101  1  0.725100  0.311000  0.058600  1.0  0.0953
  H  H102  1  0.497800  0.257400  0.040400  1.0  0.1341
  H  H103  1  0.783300  0.067600  0.060000  1.0  0.0722
  H  H104  1  0.014400  0.121400  0.075200  1.0  0.1178
  H  H105  1  0.494500  0.063600  0.042800  1.0  0.0942
  H  H106  1  0.273400  0.187800  0.029600  1.0  0.0931
  H  H107  1  0.464600  0.527600  0.821600  1.0  0.0753
  H  H108  1  0.307500  0.485800  0.797200  1.0  0.111
  H  H109  1  0.721900  0.537200  0.757400  1.0  0.0857
  H  H110  1  0.856200  0.594000  0.782600  1.0  0.1087
  H  H111  1  0.495600  0.460800  0.745200  1.0  0.0913
  H  H112  1  0.194800  0.435400  0.772400  1.0  0.1307
  H  H113  1  0.937300  0.374000  0.762600  1.0  0.1147
  H  H114  1  0.808800  0.304400  0.739800  1.0  0.1082
  H  H115  1  0.274800  0.314800  0.700200  1.0  0.0903
  H  H116  1  0.399300  0.389200  0.722200  1.0  0.1153
  H  H117  1  0.010200  0.256200  0.689400  1.0  0.0824
  H  H118  1  0.721600  0.229800  0.718000  1.0  0.1056
  H  H119  1  0.714500  0.560000  0.544600  1.0  0.1127
  H  H120  1  0.491900  0.637400  0.565600  1.0  0.1031
  H  H121  1  0.060500  0.642200  0.524800  1.0  0.1254
  H  H122  1  0.287000  0.559600  0.506600  1.0  0.0499
  H  H123  1  0.156900  0.715800  0.572800  1.0  0.0957
  H  H124  1  0.882100  0.718200  0.544400  1.0  0.1013
  H  H125  1  0.961900  0.792600  0.593000  1.0  0.1284
  H  H126  1  0.735200  0.880800  0.610200  1.0  0.1073
  H  H127  1  0.334100  0.881400  0.567600  1.0  0.1045
  H  H128  1  0.565300  0.798200  0.548400  1.0  0.1242
  H  H129  1  0.280000  0.975800  0.591600  1.0  0.106
  H  H130  1  0.498400  0.960200  0.625800  1.0  0.0955
  H  H131  1  0.325400  0.621400  0.743600  1.0  0.1002
  H  H132  1  0.165000  0.545200  0.726200  1.0  0.0829
  H  H133  1  0.734000  0.704000  0.714400  1.0  0.0753
  H  H134  1  0.868900  0.775000  0.733400  1.0  0.0855
  H  H135  1  0.929800  0.513200  0.707000  1.0  0.0787
  H  H136  1  0.604300  0.609200  0.698400  1.0  0.083
  H  H137  1  0.825200  0.424800  0.686600  1.0  0.094
  H  H138  1  0.658800  0.350200  0.670600  1.0  0.1015
  H  H139  1  0.164900  0.505200  0.666200  1.0  0.1346
  H  H140  1  0.353300  0.582800  0.680400  1.0  0.1115
  H  H141  1  0.154200  0.389200  0.652200  1.0  0.1036
  H  H142  1  0.451100  0.277400  0.661000  1.0  0.081
  H  H143  1  0.657400  0.100400  0.609800  1.0  0.0696
  H  H144  1  0.366400  0.138200  0.592800  1.0  0.1207
  H  H145  1  0.438500  0.336600  0.604200  1.0  0.0981
  H  H146  1  0.714400  0.294000  0.622600  1.0  0.0981
  H  H147  1  0.173300  0.324000  0.581400  1.0  0.1645
  H  H148  1  0.077900  0.192600  0.579400  1.0  0.0823
  H  H149  1  0.786100  0.189000  0.558600  1.0  0.0951
  H  H150  1  0.505200  0.242600  0.540400  1.0  0.1337
  H  H151  1  0.600900  0.432400  0.560000  1.0  0.0723
  H  H152  1  0.885800  0.378600  0.575200  1.0  0.1162
  H  H153  1  0.308100  0.436400  0.542800  1.0  0.0953
  H  H154  1  0.211200  0.312200  0.529600  1.0  0.0953
  H  H155  1  0.813800  0.472400  0.178400  1.0  0.0768
  H  H156  1  0.590500  0.514200  0.202800  1.0  0.1119
  H  H157  1  0.016500  0.462800  0.242600  1.0  0.0856
  H  H158  1  0.232800  0.406000  0.217400  1.0  0.1076
  H  H159  1  0.701600  0.539200  0.254800  1.0  0.0913
  H  H160  1  0.402600  0.564600  0.227600  1.0  0.1308
  H  H161  1  0.073900  0.626000  0.237400  1.0  0.1146
  H  H162  1  0.853000  0.695600  0.260200  1.0  0.1086
  H  H163  1  0.289800  0.685200  0.299800  1.0  0.0907
  H  H164  1  0.510700  0.610800  0.277800  1.0  0.1156
  H  H165  1  0.955800  0.743800  0.310600  1.0  0.0821
  H  H166  1  0.669400  0.770200  0.282000  1.0  0.1052
  H  H167  1  0.819100  0.440000  0.455400  1.0  0.1125
  H  H168  1  0.694900  0.362600  0.434400  1.0  0.1031
  H  H169  1  0.227500  0.357800  0.475200  1.0  0.1251
  H  H170  1  0.353200  0.440400  0.493400  1.0  0.0505
  H  H171  1  0.445500  0.284200  0.427200  1.0  0.0966
  H  H172  1  0.144700  0.281800  0.455600  1.0  0.1018
  H  H173  1  0.347500  0.207400  0.407000  1.0  0.128
  H  H174  1  0.226200  0.119200  0.389800  1.0  0.1074
  H  H175  1  0.783100  0.118600  0.432400  1.0  0.1038
  H  H176  1  0.911900  0.201800  0.451600  1.0  0.1256
  H  H177  1  0.847400  0.024200  0.408400  1.0  0.1059
  H  H178  1  0.084400  0.039800  0.374200  1.0  0.0958
  H  H179  1  0.690400  0.378600  0.256400  1.0  0.1006
  H  H180  1  0.436400  0.454800  0.273800  1.0  0.083
  H  H181  1  0.152400  0.296000  0.285600  1.0  0.0752
  H  H182  1  0.377300  0.225000  0.266600  1.0  0.0855
  H  H183  1  0.150000  0.486800  0.293000  1.0  0.0801
  H  H184  1  0.911900  0.390800  0.301600  1.0  0.0819
  H  H185  1  0.936600  0.575200  0.313400  1.0  0.0949
  H  H186  1  0.679600  0.649800  0.329400  1.0  0.1016
  H  H187  1  0.336300  0.494800  0.333800  1.0  0.1349
  H  H188  1  0.616500  0.417200  0.319600  1.0  0.111
  H  H189  1  0.195600  0.610800  0.347800  1.0  0.1031
  H  H190  1  0.389500  0.722600  0.339000  1.0  0.0807
  H  H191  1  0.367600  0.899600  0.390200  1.0  0.0692
  H  H192  1  0.097400  0.861800  0.407200  1.0  0.1208
  H  H193  1  0.379300  0.663400  0.395800  1.0  0.1004
  H  H194  1  0.631000  0.706000  0.377400  1.0  0.0989
  H  H195  1  0.078700  0.676000  0.418600  1.0  0.1637
  H  H196  1  0.849900  0.807400  0.420600  1.0  0.0801
  H  H197  1  0.533700  0.811000  0.441400  1.0  0.0942
  H  H198  1  0.288200  0.757400  0.459600  1.0  0.133
  H  H199  1  0.593300  0.567600  0.440000  1.0  0.0728
  H  H200  1  0.839600  0.621400  0.424800  1.0  0.1176
  H  H201  1  0.287300  0.563600  0.457200  1.0  0.0946
  H  H202  1  0.053000  0.687800  0.470400  1.0  0.0937
  C  C203  1  0.073090  0.032000  0.691820  1.0  0.1794
  C  C204  1  0.970240  0.003400  0.706120  1.0  -0.2207
  C  C205  1  0.028540  0.999200  0.725720  1.0  0.0975
  C  C206  1  0.187340  0.036000  0.729320  1.0  -0.0623
  C  C207  1  0.284950  0.069800  0.714300  1.0  0.1168
  C  C208  1  0.934780  0.962400  0.742040  1.0  -0.1631
  C  C209  1  0.774610  0.930600  0.740180  1.0  -0.1204
  C  C210  1  0.676760  0.889000  0.755480  1.0  0.029
  C  C211  1  0.503350  0.863200  0.750100  1.0  -0.1407
  C  C212  1  0.414380  0.821600  0.763640  1.0  -0.1026
  C  C213  1  0.492370  0.805000  0.782260  1.0  -0.0015
  C  C214  1  0.668110  0.828400  0.787380  1.0  -0.0953
  C  C215  1  0.757010  0.871800  0.774180  1.0  -0.0781
  C  C216  1  0.395590  0.761000  0.797820  1.0  -0.0999
  C  C217  1  0.241960  0.729200  0.794880  1.0  -0.1794
  C  C218  1  0.149300  0.691000  0.812400  1.0  0.6814
  C  C219  1  0.873750  0.077200  0.959300  1.0  0.0932
  C  C220  1  0.752660  0.123800  0.946880  1.0  -0.0634
  C  C221  1  0.550360  0.151000  0.952280  1.0  0.1062
  C  C222  1  0.469360  0.126600  0.970680  1.0  -0.2176
  C  C223  1  0.598820  0.078600  0.981760  1.0  0.183
  C  C224  1  0.419870  0.202800  0.939460  1.0  -0.1177
  C  C225  1  0.235440  0.231800  0.943320  1.0  -0.116
  C  C226  1  0.097990  0.285400  0.930620  1.0  -0.0295
  C  C227  1  0.174370  0.311000  0.912260  1.0  -0.1722
  C  C228  1  0.049590  0.364600  0.902220  1.0  -0.1033
  C  C229  1  0.861980  0.394000  0.910040  1.0  0.0396
  C  C230  1  0.786290  0.365600  0.927820  1.0  -0.0742
  C  C231  1  0.908800  0.313400  0.939000  1.0  -0.0709
  C  C232  1  0.733030  0.453400  0.900540  1.0  -0.097
  C  C233  1  0.757450  0.479200  0.881900  1.0  -0.2188
  C  C234  1  0.612880  0.535800  0.872440  1.0  0.712
  C  C235  1  0.687400  0.137600  0.761600  1.0  0.116
  C  C236  1  0.580400  0.092600  0.772600  1.0  -0.115
  C  C237  1  0.388500  0.113000  0.782000  1.0  0.0079
  C  C238  1  0.321200  0.184400  0.779200  1.0  -0.1123
  C  C239  1  0.414200  0.227600  0.768000  1.0  0.1647
  C  C240  1  0.305600  0.058000  0.792800  1.0  -0.1004
  C  C241  1  0.131900  0.064000  0.802200  1.0  -0.0767
  C  C242  1  0.039800  0.013000  0.813400  1.0  0.0764
  C  C243  1  0.126600  0.941400  0.817400  1.0  -0.1223
  C  C244  1  0.018110  0.896800  0.826980  1.0  -0.1404
  C  C245  1  0.810200  0.920200  0.833400  1.0  0.0094
  C  C246  1  0.717300  0.989400  0.830000  1.0  -0.1415
  C  C247  1  0.840200  0.034800  0.820800  1.0  -0.132
  C  C248  1  0.684230  0.869200  0.842340  1.0  -0.0738
  C  C249  1  0.731530  0.799600  0.843340  1.0  -0.1615
  C  C250  1  0.580990  0.754800  0.851220  1.0  0.6824
  C  C251  1  0.966210  0.649000  0.890580  1.0  0.1852
  C  C252  1  0.783670  0.671200  0.901460  1.0  -0.2415
  C  C253  1  0.715360  0.743600  0.903680  1.0  0.0881
  C  C254  1  0.832980  0.787600  0.894440  1.0  -0.0948
  C  C255  1  0.010280  0.762200  0.883240  1.0  0.1105
  C  C256  1  0.524410  0.775400  0.915780  1.0  -0.1334
  C  C257  1  0.385950  0.741600  0.922500  1.0  -0.1633
  C  C258  1  0.192880  0.777000  0.933240  1.0  0.0454
  C  C259  1  0.061790  0.738400  0.942020  1.0  -0.0867
  C  C260  1  0.876080  0.769600  0.952240  1.0  -0.126
  C  C261  1  0.818820  0.848000  0.950360  1.0  0.0139
  C  C262  1  0.946000  0.883200  0.940800  1.0  -0.139
  C  C263  1  0.128600  0.851000  0.931800  1.0  -0.181
  C  C264  1  0.624760  0.887400  0.959080  1.0  -0.0758
  C  C265  1  0.482810  0.861200  0.969180  1.0  -0.1524
  C  C266  1  0.308020  0.909200  0.978760  1.0  0.6878
  C  C267  1  0.796910  0.968000  0.308180  1.0  0.179
  C  C268  1  0.679760  0.996600  0.293880  1.0  -0.2211
  C  C269  1  0.753460  0.000800  0.274280  1.0  0.0991
  C  C270  1  0.952660  0.964000  0.270680  1.0  -0.0609
  C  C271  1  0.069050  0.930200  0.285700  1.0  0.1176
  C  C272  1  0.639220  0.037600  0.257960  1.0  -0.1619
  C  C273  1  0.445390  0.069400  0.259820  1.0  -0.1203
  C  C274  1  0.321240  0.111000  0.244520  1.0  0.0281
  C  C275  1  0.116650  0.136800  0.249900  1.0  -0.1403
  C  C276  1  0.999620  0.178400  0.236360  1.0  -0.1034
  C  C277  1  0.079630  0.195000  0.217740  1.0  -0.0008
  C  C278  1  0.283890  0.171600  0.212620  1.0  -0.0937
  C  C279  1  0.402990  0.128200  0.225820  1.0  -0.0788
  C  C280  1  0.954410  0.239000  0.202180  1.0  -0.1015
  C  C281  1  0.766040  0.270800  0.205120  1.0  -0.18
  C  C282  1  0.652700  0.309000  0.187600  1.0  0.6812
  C  C283  1  0.910250  0.922800  0.040700  1.0  0.0961
  C  C284  1  0.823340  0.876200  0.053120  1.0  -0.0647
  C  C285  1  0.653640  0.849000  0.047720  1.0  0.1065
  C  C286  1  0.566640  0.873400  0.029320  1.0  -0.219
  C  C287  1  0.659180  0.921400  0.018240  1.0  0.1823
  C  C288  1  0.562130  0.797200  0.060540  1.0  -0.1173
  C  C289  1  0.410560  0.768200  0.056680  1.0  -0.1165
  C  C290  1  0.314010  0.714600  0.069380  1.0  -0.0283
  C  C291  1  0.397630  0.689000  0.087740  1.0  -0.1717
  C  C292  1  0.316410  0.635400  0.097780  1.0  -0.1022
  C  C293  1  0.166020  0.606000  0.089960  1.0  0.0397
  C  C294  1  0.079710  0.634400  0.072180  1.0  -0.0735
  C  C295  1  0.161200  0.686600  0.061000  1.0  -0.0707
  C  C296  1  0.086970  0.546600  0.099460  1.0  -0.0975
  C  C297  1  0.118550  0.520800  0.118100  1.0  -0.2204
  C  C298  1  0.021120  0.464200  0.127560  1.0  0.7108
  C  C299  1  0.586600  0.862400  0.238400  1.0  0.1169
  C  C300  1  0.445600  0.907400  0.227400  1.0  -0.1161
  C  C301  1  0.283500  0.887000  0.218000  1.0  0.0086
  C  C302  1  0.284800  0.815600  0.220800  1.0  -0.1106
  C  C303  1  0.409800  0.772400  0.232000  1.0  0.1642
  C  C304  1  0.156400  0.942000  0.207200  1.0  -0.1011
  C  C305  1  0.998100  0.936000  0.197800  1.0  -0.0769
  C  C306  1  0.866200  0.987000  0.186600  1.0  0.0768
  C  C307  1  0.885400  0.058600  0.182600  1.0  -0.1211
  C  C308  1  0.741890  0.103200  0.173020  1.0  -0.1418
  C  C309  1  0.563800  0.079800  0.166600  1.0  0.0034
  C  C310  1  0.536700  0.010600  0.170000  1.0  -0.1385
  C  C311  1  0.695800  0.965200  0.179200  1.0  -0.1355
  C  C312  1  0.395770  0.130800  0.157660  1.0  -0.0734
  C  C313  1  0.374470  0.200400  0.156660  1.0  -0.1612
  C  C314  1  0.187010  0.245200  0.148780  1.0  0.6818
  C  C315  1  0.505790  0.351000  0.109420  1.0  0.1846
  C  C316  1  0.356330  0.328800  0.098540  1.0  -0.2424
  C  C317  1  0.362640  0.256400  0.096320  1.0  0.0892
  C  C318  1  0.515020  0.212400  0.105560  1.0  -0.0948
  C  C319  1  0.655720  0.237800  0.116760  1.0  0.1103
  C  C320  1  0.215590  0.224600  0.084220  1.0  -0.133
  C  C321  1  0.050050  0.258400  0.077500  1.0  -0.1633
  C  C322  1  0.903120  0.223000  0.066760  1.0  0.0438
  C  C323  1  0.742210  0.261600  0.057980  1.0  -0.0837
  C  C324  1  0.597920  0.230400  0.047760  1.0  -0.1237
  C  C325  1  0.617180  0.152000  0.049640  1.0  0.0134
  C  C326  1  0.770000  0.116800  0.059200  1.0  -0.1392
  C  C327  1  0.911400  0.149000  0.068200  1.0  -0.1809
  C  C328  1  0.471240  0.112600  0.040920  1.0  -0.076
  C  C329  1  0.313190  0.138800  0.030820  1.0  -0.1536
  C  C330  1  0.195980  0.090800  0.021240  1.0  0.6881
  C  C331  1  0.514910  0.532000  0.808180  1.0  0.1805
  C  C332  1  0.426360  0.503400  0.793880  1.0  -0.2184
  C  C333  1  0.504260  0.499200  0.774280  1.0  0.0984
  C  C334  1  0.666667  0.536000  0.770680  1.0  -0.0617
  C  C335  1  0.749250  0.569800  0.785700  1.0  0.1177
  C  C336  1  0.426820  0.462400  0.757960  1.0  -0.1617
  C  C337  1  0.264790  0.430600  0.759820  1.0  -0.12
  C  C338  1  0.182240  0.389000  0.744520  1.0  0.0277
  C  C339  1  0.003450  0.363200  0.749900  1.0  -0.1397
  C  C340  1  0.928020  0.321600  0.736360  1.0  -0.1032
  C  C341  1  0.024630  0.305000  0.717740  1.0  -0.0014
  C  C342  1  0.205490  0.328400  0.712620  1.0  -0.0933
  C  C343  1  0.281190  0.371800  0.725820  1.0  -0.0785
  C  C344  1  0.943410  0.261000  0.702180  1.0  -0.1011
  C  C345  1  0.786840  0.229200  0.705120  1.0  -0.1804
  C  C346  1  0.711700  0.191000  0.687600  1.0  0.6817
  C  C347  1  0.583050  0.577200  0.540700  1.0  0.0952
  C  C348  1  0.449540  0.623800  0.553120  1.0  -0.0646
  C  C349  1  0.252640  0.651000  0.547720  1.0  0.1064
  C  C350  1  0.190040  0.626600  0.529320  1.0  -0.219
  C  C351  1  0.330580  0.578600  0.518240  1.0  0.1821
  C  C352  1  0.109330  0.702800  0.560540  1.0  -0.1172
  C  C353  1  0.928760  0.731800  0.556680  1.0  -0.117
  C  C354  1  0.778610  0.785400  0.569380  1.0  -0.0291
  C  C355  1  0.836630  0.811000  0.587740  1.0  -0.1718
  C  C356  1  0.701810  0.864600  0.597780  1.0  -0.1025
  C  C357  1  0.522020  0.894000  0.589960  1.0  0.0394
  C  C358  1  0.464110  0.865600  0.572180  1.0  -0.0738
  C  C359  1  0.597800  0.813400  0.561000  1.0  -0.0698
  C  C360  1  0.383570  0.953400  0.599460  1.0  -0.0971
  C  C361  1  0.389350  0.979200  0.618100  1.0  -0.2199
  C  C362  1  0.235320  0.035800  0.627560  1.0  0.7115
  C  C363  1  0.199000  0.637600  0.738400  1.0  0.117
  C  C364  1  0.103000  0.592600  0.727400  1.0  -0.1157
  C  C365  1  0.920500  0.613000  0.718000  1.0  0.0083
  C  C366  1  0.850400  0.684400  0.720800  1.0  -0.1109
  C  C367  1  0.932200  0.727600  0.732000  1.0  0.1645
  C  C368  1  0.848400  0.558000  0.707200  1.0  -0.1015
  C  C369  1  0.684100  0.564000  0.697800  1.0  -0.0766
  C  C370  1  0.603200  0.513000  0.686600  1.0  0.0768
  C  C371  1  0.694000  0.441400  0.682600  1.0  -0.1183
  C  C372  1  0.595090  0.396800  0.673020  1.0  -0.1371
  C  C373  1  0.393600  0.420200  0.666667  1.0  -0.0005
  C  C374  1  0.297300  0.489400  0.670000  1.0  -0.134
  C  C375  1  0.411000  0.534800  0.679200  1.0  -0.1307
  C  C376  1  0.276570  0.369200  0.657660  1.0  -0.0741
  C  C377  1  0.324870  0.299600  0.656660  1.0  -0.1602
  C  C378  1  0.182210  0.254800  0.648780  1.0  0.6821
  C  C379  1  0.606790  0.149000  0.609420  1.0  0.185
  C  C380  1  0.435130  0.171200  0.598540  1.0  -0.2417
  C  C381  1  0.369040  0.243600  0.596320  1.0  0.0892
  C  C382  1  0.477420  0.287600  0.605560  1.0  -0.095
  C  C383  1  0.643520  0.262200  0.616760  1.0  0.1104
  C  C384  1  0.190190  0.275400  0.584220  1.0  -0.1335
  C  C385  1  0.058450  0.241600  0.577500  1.0  -0.1629
  C  C386  1  0.876120  0.277000  0.566760  1.0  0.0443
  C  C387  1  0.753810  0.238400  0.557980  1.0  -0.0873
  C  C388  1  0.578320  0.269600  0.547760  1.0  -0.1233
  C  C389  1  0.519180  0.348000  0.549640  1.0  0.013
  C  C390  1  0.636800  0.383200  0.559200  1.0  -0.1387
  C  C391  1  0.810400  0.351000  0.568200  1.0  -0.1805
  C  C392  1  0.333840  0.387400  0.540920  1.0  -0.0763
  C  C393  1  0.201990  0.361200  0.530820  1.0  -0.1539
  C  C394  1  0.036780  0.409200  0.521240  1.0  0.6875
  C  C395  1  0.855090  0.468000  0.191820  1.0  0.178
  C  C396  1  0.723640  0.496600  0.206120  1.0  -0.2219
  C  C397  1  0.777740  0.500800  0.225720  1.0  0.0983
  C  C398  1  0.973340  0.464000  0.229320  1.0  -0.0621
  C  C399  1  0.104750  0.430200  0.214300  1.0  0.1166
  C  C400  1  0.647180  0.537600  0.242040  1.0  -0.1633
  C  C401  1  0.455210  0.569400  0.240180  1.0  -0.1205
  C  C402  1  0.315760  0.611000  0.255480  1.0  0.0291
  C  C403  1  0.116550  0.636800  0.250100  1.0  -0.141
  C  C404  1  0.985980  0.678400  0.263640  1.0  -0.1028
  C  C405  1  0.047370  0.695000  0.282260  1.0  -0.001
  C  C406  1  0.246510  0.671600  0.287380  1.0  -0.0957
  C  C407  1  0.378810  0.628200  0.274180  1.0  -0.0782
  C  C408  1  0.906590  0.739000  0.297820  1.0  -0.0997
  C  C409  1  0.721160  0.770800  0.294880  1.0  -0.1794
  C  C410  1  0.590300  0.809000  0.312400  1.0  0.6804
  C  C411  1  0.700950  0.422800  0.459300  1.0  0.0943
  C  C412  1  0.626460  0.376200  0.446880  1.0  -0.0633
  C  C413  1  0.451360  0.349000  0.452280  1.0  0.1054
  C  C414  1  0.345960  0.373400  0.470680  1.0  -0.2179
  C  C415  1  0.427420  0.421400  0.481760  1.0  0.1832
  C  C416  1  0.372670  0.297200  0.439460  1.0  -0.1171
  C  C417  1  0.217240  0.268200  0.443320  1.0  -0.1157
  C  C418  1  0.133390  0.214600  0.430620  1.0  -0.0288
  C  C419  1  0.235370  0.189000  0.412260  1.0  -0.1725
  C  C420  1  0.164190  0.135400  0.402220  1.0  -0.1027
  C  C421  1  0.005980  0.106000  0.410040  1.0  0.0399
  C  C422  1  0.901890  0.134400  0.427820  1.0  -0.0737
  C  C423  1  0.972200  0.186600  0.439000  1.0  -0.0709
  C  C424  1  0.936430  0.046600  0.400540  1.0  -0.0975
  C  C425  1  0.986650  0.020800  0.381900  1.0  -0.2194
  C  C426  1  0.898680  0.964200  0.372440  1.0  0.7123
  C  C427  1  0.575000  0.362400  0.261600  1.0  0.1156
  C  C428  1  0.423000  0.407400  0.272600  1.0  -0.1155
  C  C429  1  0.251500  0.387000  0.282000  1.0  0.0087
  C  C430  1  0.255600  0.315600  0.279200  1.0  -0.1104
  C  C431  1  0.391800  0.272400  0.268000  1.0  0.1648
  C  C432  1  0.113600  0.442000  0.292800  1.0  -0.1003
  C  C433  1  0.945900  0.436000  0.302200  1.0  -0.0765
  C  C434  1  0.802800  0.487000  0.313400  1.0  0.0766
  C  C435  1  0.818000  0.558600  0.317400  1.0  -0.1226
  C  C436  1  0.664910  0.603200  0.326980  1.0  -0.1408
  C  C437  1  0.480400  0.579800  0.333400  1.0  0.0089
  C  C438  1  0.456700  0.510600  0.330000  1.0  -0.141
  C  C439  1  0.625000  0.465200  0.320800  1.0  -0.1327
  C  C440  1  0.303430  0.630800  0.342340  1.0  -0.0728
  C  C441  1  0.281130  0.700400  0.343340  1.0  -0.1615
  C  C442  1  0.085790  0.745200  0.351220  1.0  0.6821
  C  C443  1  0.365210  0.851000  0.390580  1.0  0.1847
  C  C444  1  0.204870  0.828800  0.401460  1.0  -0.2427
  C  C445  1  0.208960  0.756400  0.403680  1.0  0.0882
  C  C446  1  0.370580  0.712400  0.394440  1.0  -0.095
  C  C447  1  0.522480  0.737800  0.383240  1.0  0.1105
  C  C448  1  0.049810  0.724600  0.415780  1.0  -0.1335
  C  C449  1  0.877550  0.758400  0.422500  1.0  -0.1631
  C  C450  1  0.719880  0.723000  0.433240  1.0  0.0448
  C  C451  1  0.550190  0.761600  0.442020  1.0  -0.0846
  C  C452  1  0.395680  0.730400  0.452240  1.0  -0.1248
  C  C453  1  0.416820  0.652000  0.450360  1.0  0.0135
  C  C454  1  0.579200  0.616800  0.440800  1.0  -0.1392
  C  C455  1  0.729600  0.649000  0.431800  1.0  -0.1813
  C  C456  1  0.262160  0.612600  0.459080  1.0  -0.0756
  C  C457  1  0.094010  0.638800  0.469180  1.0  -0.1526
  C  C458  1  0.967220  0.590800  0.478760  1.0  0.6885
  N  N459  1  0.228860  0.067800  0.694480  1.0  -0.3735
  N  N460  1  0.790540  0.057400  0.977520  1.0  -0.3502
  N  N461  1  0.595900  0.205600  0.758600  1.0  -0.3851
  N  N462  1  0.072660  0.692000  0.880680  1.0  -0.3337
  N  N463  1  0.991140  0.932200  0.305520  1.0  -0.3759
  N  N464  1  0.825460  0.942600  0.022480  1.0  -0.35
  N  N465  1  0.560100  0.794400  0.241400  1.0  -0.3847
  N  N466  1  0.645340  0.308000  0.119320  1.0  -0.3342
  N  N467  1  0.673340  0.567800  0.805520  1.0  -0.3759
  N  N468  1  0.518060  0.557400  0.522480  1.0  -0.3507
  N  N469  1  0.104500  0.705600  0.741400  1.0  -0.3839
  N  N470  1  0.703340  0.192000  0.619320  1.0  -0.3335
  N  N471  1  0.046660  0.432200  0.194480  1.0  -0.3742
  N  N472  1  0.597940  0.442600  0.477520  1.0  -0.3497
  N  N473  1  0.551500  0.294400  0.258600  1.0  -0.3862
  N  N474  1  0.514660  0.808000  0.380680  1.0  -0.3334
  O  O475  1  0.219860  0.687000  0.829280  1.0  -0.6575
  O  O476  1  0.998570  0.664600  0.808260  1.0  -0.616
  O  O477  1  0.474170  0.571200  0.884460  1.0  -0.6287
  O  O478  1  0.633500  0.688000  0.849000  1.0  -0.6794
  O  O479  1  0.418050  0.780200  0.859700  1.0  -0.6593
  O  O480  1  0.267970  0.973200  0.974860  1.0  -0.5999
  O  O481  1  0.194510  0.883000  0.991980  1.0  -0.659
  O  O482  1  0.624380  0.547400  0.853840  1.0  -0.6676
  O  O483  1  0.736140  0.313000  0.170720  1.0  -0.6585
  O  O484  1  0.471430  0.335400  0.191740  1.0  -0.6155
  O  O485  1  0.929830  0.428800  0.115540  1.0  -0.6285
  O  O486  1  0.170500  0.312000  0.151000  1.0  -0.6803
  O  O487  1  0.057950  0.219800  0.140300  1.0  -0.6592
  O  O488  1  0.216030  0.026800  0.025140  1.0  -0.601
  O  O489  1  0.069490  0.117000  0.008020  1.0  -0.6613
  O  O490  1  0.025620  0.452600  0.146160  1.0  -0.6657
  O  O491  1  0.799140  0.187000  0.670720  1.0  -0.6594
  O  O492  1  0.556830  0.164600  0.691740  1.0  -0.6162
  O  O493  1  0.108630  0.071200  0.615540  1.0  -0.6295
  O  O494  1  0.232500  0.188000  0.651000  1.0  -0.6794
  O  O495  1  0.027750  0.280200  0.640300  1.0  -0.6581
  O  O496  1  0.992830  0.473200  0.525140  1.0  -0.6015
  O  O497  1  0.936490  0.383000  0.508020  1.0  -0.6606
  O  O498  1  0.228220  0.047400  0.646160  1.0  -0.6658
  O  O499  1  0.656860  0.813000  0.329280  1.0  -0.6576
  O  O500  1  0.413170  0.835400  0.308260  1.0  -0.6153
  O  O501  1  0.795370  0.928800  0.384460  1.0  -0.6289
  O  O502  1  0.071500  0.812000  0.349000  1.0  -0.6804
  O  O503  1  0.948250  0.719800  0.359700  1.0  -0.659
  O  O504  1  0.991170  0.526800  0.474860  1.0  -0.6012
  O  O505  1  0.827510  0.617000  0.491980  1.0  -0.6603
  O  O506  1  0.921780  0.952600  0.353840  1.0  -0.6668
