# generated using pymatgen
data_CdH4(CN)8
_symmetry_space_group_name_H-M   'P 1'
_cell_length_a   11.84000000
_cell_length_b   12.32470000
_cell_length_c   13.73620000
_cell_angle_alpha   92.61500000
_cell_angle_beta   112.67500000
_cell_angle_gamma   109.04000000
_symmetry_Int_Tables_number   1
_chemical_formula_structural   CdH4(CN)8
_chemical_formula_sum   'Cd3 H12 C24 N24'
_cell_volume   1714.24788886
_cell_formula_units_Z   3
loop_
 _symmetry_equiv_pos_site_id
 _symmetry_equiv_pos_as_xyz
  1  'x, y, z'
loop_
 _atom_site_type_symbol
 _atom_site_label
 _atom_site_symmetry_multiplicity
 _atom_site_fract_x
 _atom_site_fract_y
 _atom_site_fract_z
 _atom_site_occupancy
 _atom_site_charge
  Cd  Cd1  1  0.115090  0.233320  0.460840  1.0  0.8911
  Cd  Cd2  1  0.884910  0.766680  0.539160  1.0  0.8888
  Cd  Cd3  1  0.000000  0.500000  0.500000  1.0  0.6322
  H  H4  1  0.455300  0.331000  0.884700  1.0  0.1127
  H  H5  1  0.399300  0.631200  0.934000  1.0  0.1094
  H  H6  1  0.892200  0.548900  0.095600  1.0  0.1035
  H  H7  1  0.137800  0.396600  0.069900  1.0  0.1151
  H  H8  1  0.340500  0.075000  0.493600  1.0  0.0998
  H  H9  1  0.469100  0.807300  0.518900  1.0  0.105
  H  H10  1  0.544700  0.669000  0.115300  1.0  0.113
  H  H11  1  0.600700  0.368800  0.066000  1.0  0.1087
  H  H12  1  0.107800  0.451100  0.904400  1.0  0.104
  H  H13  1  0.862200  0.603400  0.930100  1.0  0.1157
  H  H14  1  0.659500  0.925000  0.506400  1.0  0.0986
  H  H15  1  0.530900  0.192700  0.481100  1.0  0.1053
  C  C16  1  0.322300  0.455600  0.776970  1.0  0.3616
  C  C17  1  0.413300  0.478400  0.891550  1.0  -0.0435
  C  C18  1  0.473300  0.399800  0.931300  1.0  -0.0865
  C  C19  1  0.440300  0.577500  0.960600  1.0  -0.0725
  C  C20  1  0.040700  0.441300  0.206600  1.0  0.3645
  C  C21  1  0.019700  0.469500  0.099800  1.0  -0.0443
  C  C22  1  0.936500  0.529500  0.056800  1.0  -0.0809
  C  C23  1  0.082300  0.439000  0.041800  1.0  -0.0767
  C  C24  1  0.266100  0.852800  0.515500  1.0  0.369
  C  C25  1  0.386100  0.929400  0.508100  1.0  -0.029
  C  C26  1  0.405300  0.044200  0.496300  1.0  -0.0729
  C  C27  1  0.481600  0.886100  0.511300  1.0  -0.0763
  C  C28  1  0.677700  0.544400  0.223030  1.0  0.3605
  C  C29  1  0.586700  0.521600  0.108450  1.0  -0.0431
  C  C30  1  0.526700  0.600200  0.068700  1.0  -0.0866
  C  C31  1  0.559700  0.422500  0.039400  1.0  -0.073
  C  C32  1  0.959300  0.558700  0.793400  1.0  0.3638
  C  C33  1  0.980300  0.530500  0.900200  1.0  -0.0438
  C  C34  1  0.063500  0.470500  0.943200  1.0  -0.0816
  C  C35  1  0.917700  0.561000  0.958200  1.0  -0.0753
  C  C36  1  0.733900  0.147200  0.484500  1.0  0.3694
  C  C37  1  0.613900  0.070600  0.491900  1.0  -0.0293
  C  C38  1  0.594700  0.955800  0.503700  1.0  -0.0723
  C  C39  1  0.518400  0.113900  0.488700  1.0  -0.0765
  N  N40  1  0.254100  0.522770  0.733260  1.0  -0.3195
  N  N41  1  0.183900  0.469880  0.630120  1.0  0.0242
  N  N42  1  0.209580  0.376390  0.613020  1.0  -0.1296
  N  N43  1  0.297100  0.364880  0.704980  1.0  -0.369
  N  N44  1  0.066900  0.347940  0.239660  1.0  -0.3422
  N  N45  1  0.072900  0.356630  0.338970  1.0  -0.1262
  N  N46  1  0.052100  0.450700  0.362790  1.0  0.0212
  N  N47  1  0.031300  0.506140  0.280980  1.0  -0.3162
  N  N48  1  0.233700  0.737260  0.509380  1.0  -0.3214
  N  N49  1  0.118870  0.700630  0.516750  1.0  0.0235
  N  N50  1  0.083570  0.790390  0.527110  1.0  -0.1212
  N  N51  1  0.175100  0.887910  0.526080  1.0  -0.394
  N  N52  1  0.745900  0.477230  0.266740  1.0  -0.3216
  N  N53  1  0.816100  0.530120  0.369880  1.0  0.0231
  N  N54  1  0.790420  0.623610  0.386980  1.0  -0.1242
  N  N55  1  0.702900  0.635120  0.295020  1.0  -0.3675
  N  N56  1  0.933100  0.652060  0.760340  1.0  -0.3379
  N  N57  1  0.927100  0.643370  0.661030  1.0  -0.1208
  N  N58  1  0.947900  0.549300  0.637210  1.0  0.0217
  N  N59  1  0.968700  0.493860  0.719020  1.0  -0.3156
  N  N60  1  0.766300  0.262740  0.490620  1.0  -0.3225
  N  N61  1  0.881130  0.299370  0.483250  1.0  0.0247
  N  N62  1  0.916430  0.209610  0.472890  1.0  -0.1219
  N  N63  1  0.824900  0.112090  0.473920  1.0  -0.3948
