# generated using pymatgen
data_Sc3H12C24O25
_symmetry_space_group_name_H-M   'P 1'
_cell_length_a   14.54900000
_cell_length_b   14.54900000
_cell_length_c   17.76700000
_cell_angle_alpha   90.00000000
_cell_angle_beta   90.00000000
_cell_angle_gamma   120.00000000
_symmetry_Int_Tables_number   1
_chemical_formula_structural   Sc3H12C24O25
_chemical_formula_sum   'Sc6 H24 C48 O50'
_cell_volume   3256.94947787
_cell_formula_units_Z   2
loop_
 _symmetry_equiv_pos_site_id
 _symmetry_equiv_pos_as_xyz
  1  'x, y, z'
loop_
 _atom_site_type_symbol
 _atom_site_label
 _atom_site_symmetry_multiplicity
 _atom_site_fract_x
 _atom_site_fract_y
 _atom_site_fract_z
 _atom_site_occupancy
 _atom_site_charge
  Sc  Sc1  1  0.746820  0.493650  0.750000  1.0  1.9889
  Sc  Sc2  1  0.506350  0.253180  0.750000  1.0  1.9895
  Sc  Sc3  1  0.746820  0.253180  0.750000  1.0  1.9875
  Sc  Sc4  1  0.253180  0.506350  0.250000  1.0  1.9873
  Sc  Sc5  1  0.493650  0.746820  0.250000  1.0  1.9869
  Sc  Sc6  1  0.253180  0.746820  0.250000  1.0  1.9888
  H  H7  1  0.377600  0.290900  0.903500  1.0  0.3366
  H  H8  1  0.709100  0.086700  0.903500  1.0  0.3413
  H  H9  1  0.913300  0.622400  0.903500  1.0  0.3377
  H  H10  1  0.622400  0.709100  0.403500  1.0  0.3398
  H  H11  1  0.290900  0.913300  0.403500  1.0  0.3397
  H  H12  1  0.086700  0.377600  0.403500  1.0  0.3385
  H  H13  1  0.290900  0.377600  0.096500  1.0  0.3384
  H  H14  1  0.086700  0.709100  0.096500  1.0  0.3374
  H  H15  1  0.622400  0.913300  0.096500  1.0  0.3407
  H  H16  1  0.709100  0.622400  0.596500  1.0  0.3374
  H  H17  1  0.913300  0.290900  0.596500  1.0  0.3389
  H  H18  1  0.377600  0.086700  0.596500  1.0  0.3401
  H  H19  1  0.622400  0.709100  0.096500  1.0  0.3389
  H  H20  1  0.290900  0.913300  0.096500  1.0  0.3402
  H  H21  1  0.086700  0.377600  0.096500  1.0  0.3383
  H  H22  1  0.377600  0.290900  0.596500  1.0  0.3382
  H  H23  1  0.709100  0.086700  0.596500  1.0  0.3405
  H  H24  1  0.913300  0.622400  0.596500  1.0  0.3375
  H  H25  1  0.709100  0.622400  0.903500  1.0  0.3381
  H  H26  1  0.913300  0.290900  0.903500  1.0  0.3392
  H  H27  1  0.377600  0.086700  0.903500  1.0  0.3395
  H  H28  1  0.290900  0.377600  0.403500  1.0  0.3381
  H  H29  1  0.086700  0.709100  0.403500  1.0  0.3366
  H  H30  1  0.622400  0.913300  0.403500  1.0  0.3414
  C  C31  1  0.432370  0.403120  0.966620  1.0  0.2228
  C  C32  1  0.596880  0.029250  0.966620  1.0  0.2225
  C  C33  1  0.970750  0.567630  0.966620  1.0  0.2238
  C  C34  1  0.567630  0.596880  0.466620  1.0  0.2227
  C  C35  1  0.403120  0.970750  0.466620  1.0  0.2227
  C  C36  1  0.029250  0.432370  0.466620  1.0  0.2236
  C  C37  1  0.403120  0.432370  0.033380  1.0  0.2236
  C  C38  1  0.029250  0.596880  0.033380  1.0  0.2229
  C  C39  1  0.567630  0.970750  0.033380  1.0  0.2226
  C  C40  1  0.596880  0.567630  0.533380  1.0  0.2236
  C  C41  1  0.970750  0.403120  0.533380  1.0  0.2225
  C  C42  1  0.432370  0.029250  0.533380  1.0  0.2223
  C  C43  1  0.567630  0.596880  0.033380  1.0  0.2222
  C  C44  1  0.403120  0.970750  0.033380  1.0  0.2229
  C  C45  1  0.029250  0.432370  0.033380  1.0  0.2237
  C  C46  1  0.432370  0.403120  0.533380  1.0  0.2227
  C  C47  1  0.596880  0.029250  0.533380  1.0  0.2228
  C  C48  1  0.970750  0.567630  0.533380  1.0  0.2235
  C  C49  1  0.596880  0.567630  0.966620  1.0  0.225
  C  C50  1  0.970750  0.403120  0.966620  1.0  0.224
  C  C51  1  0.432370  0.029250  0.966620  1.0  0.2227
  C  C52  1  0.403120  0.432370  0.466620  1.0  0.225
  C  C53  1  0.029250  0.596880  0.466620  1.0  0.2246
  C  C54  1  0.567630  0.970750  0.466620  1.0  0.224
  C  C55  1  0.561130  0.438870  0.862920  1.0  0.668
  C  C56  1  0.529640  0.470360  0.933340  1.0  -0.0994
  C  C57  1  0.561130  0.122260  0.862920  1.0  0.6671
  C  C58  1  0.529640  0.059280  0.933340  1.0  -0.0993
  C  C59  1  0.877740  0.438870  0.862920  1.0  0.6677
  C  C60  1  0.940720  0.470360  0.933340  1.0  -0.0988
  C  C61  1  0.438870  0.561130  0.362920  1.0  0.668
  C  C62  1  0.470360  0.529640  0.433340  1.0  -0.0991
  C  C63  1  0.438870  0.877740  0.362920  1.0  0.6671
  C  C64  1  0.470360  0.940720  0.433340  1.0  -0.0988
  C  C65  1  0.122260  0.561130  0.362920  1.0  0.6681
  C  C66  1  0.059280  0.529640  0.433340  1.0  -0.0997
  C  C67  1  0.438870  0.561130  0.137080  1.0  0.6682
  C  C68  1  0.470360  0.529640  0.066660  1.0  -0.099
  C  C69  1  0.122260  0.561130  0.137080  1.0  0.6687
  C  C70  1  0.059280  0.529640  0.066660  1.0  -0.0996
  C  C71  1  0.438870  0.877740  0.137080  1.0  0.6675
  C  C72  1  0.470360  0.940720  0.066660  1.0  -0.0988
  C  C73  1  0.561130  0.438870  0.637080  1.0  0.6684
  C  C74  1  0.529640  0.470360  0.566660  1.0  -0.0994
  C  C75  1  0.877740  0.438870  0.637080  1.0  0.6679
  C  C76  1  0.940720  0.470360  0.566660  1.0  -0.0988
  C  C77  1  0.561130  0.122260  0.637080  1.0  0.6677
  C  C78  1  0.529640  0.059280  0.566660  1.0  -0.0992
  O  O79  1  0.650020  0.502360  0.834890  1.0  -0.6842
  O  O80  1  0.357100  0.306900  0.943000  1.0  -0.5727
  O  O81  1  0.497640  0.147660  0.834890  1.0  -0.6832
  O  O82  1  0.693100  0.050200  0.943000  1.0  -0.5727
  O  O83  1  0.852340  0.349980  0.834890  1.0  -0.6837
  O  O84  1  0.949800  0.642900  0.943000  1.0  -0.5723
  O  O85  1  0.349980  0.497640  0.334890  1.0  -0.6829
  O  O86  1  0.642900  0.693100  0.443000  1.0  -0.5713
  O  O87  1  0.502360  0.852340  0.334890  1.0  -0.6821
  O  O88  1  0.306900  0.949800  0.443000  1.0  -0.5732
  O  O89  1  0.147660  0.650020  0.334890  1.0  -0.686
  O  O90  1  0.050200  0.357100  0.443000  1.0  -0.5687
  O  O91  1  0.502360  0.650020  0.165110  1.0  -0.6867
  O  O92  1  0.306900  0.357100  0.057000  1.0  -0.5703
  O  O93  1  0.147660  0.497640  0.165110  1.0  -0.6836
  O  O94  1  0.050200  0.693100  0.057000  1.0  -0.5711
  O  O95  1  0.349980  0.852340  0.165110  1.0  -0.6839
  O  O96  1  0.642900  0.949800  0.057000  1.0  -0.574
  O  O97  1  0.497640  0.349980  0.665110  1.0  -0.6849
  O  O98  1  0.693100  0.642900  0.557000  1.0  -0.5711
  O  O99  1  0.852340  0.502360  0.665110  1.0  -0.684
  O  O100  1  0.949800  0.306900  0.557000  1.0  -0.5722
  O  O101  1  0.650020  0.147660  0.665110  1.0  -0.6821
  O  O102  1  0.357100  0.050200  0.557000  1.0  -0.5736
  O  O103  1  0.349980  0.497640  0.165110  1.0  -0.6836
  O  O104  1  0.642900  0.693100  0.057000  1.0  -0.572
  O  O105  1  0.502360  0.852340  0.165110  1.0  -0.6825
  O  O106  1  0.306900  0.949800  0.057000  1.0  -0.573
  O  O107  1  0.147660  0.650020  0.165110  1.0  -0.6861
  O  O108  1  0.050200  0.357100  0.057000  1.0  -0.5691
  O  O109  1  0.650020  0.502360  0.665110  1.0  -0.6845
  O  O110  1  0.357100  0.306900  0.557000  1.0  -0.5726
  O  O111  1  0.497640  0.147660  0.665110  1.0  -0.6839
  O  O112  1  0.693100  0.050200  0.557000  1.0  -0.574
  O  O113  1  0.852340  0.349980  0.665110  1.0  -0.6843
  O  O114  1  0.949800  0.642900  0.557000  1.0  -0.5726
  O  O115  1  0.497640  0.349980  0.834890  1.0  -0.6847
  O  O116  1  0.693100  0.642900  0.943000  1.0  -0.5709
  O  O117  1  0.852340  0.502360  0.834890  1.0  -0.6836
  O  O118  1  0.949800  0.306900  0.943000  1.0  -0.5707
  O  O119  1  0.650020  0.147660  0.834890  1.0  -0.6819
  O  O120  1  0.357100  0.050200  0.943000  1.0  -0.5737
  O  O121  1  0.502360  0.650020  0.334890  1.0  -0.6862
  O  O122  1  0.306900  0.357100  0.443000  1.0  -0.5699
  O  O123  1  0.147660  0.497640  0.334890  1.0  -0.6832
  O  O124  1  0.050200  0.693100  0.443000  1.0  -0.5715
  O  O125  1  0.349980  0.852340  0.334890  1.0  -0.6829
  O  O126  1  0.642900  0.949800  0.443000  1.0  -0.5726
  O  O127  1  0.666667  0.333333  0.750000  1.0  -1.0524
  O  O128  1  0.333333  0.666667  0.250000  1.0  -1.0522
