# generated using pymatgen
data_Li7Ni4H6C30(N2O5)6
_symmetry_space_group_name_H-M   'P 1'
_cell_length_a   17.66460000
_cell_length_b   17.66460000
_cell_length_c   28.05690000
_cell_angle_alpha   71.65130000
_cell_angle_beta   71.65130000
_cell_angle_gamma   60.00000000
_symmetry_Int_Tables_number   1
_chemical_formula_structural   Li7Ni4H6C30(N2O5)6
_chemical_formula_sum   'Li28 Ni16 H24 C120 N48 O120'
_cell_volume   7063.25517223
_cell_formula_units_Z   4
loop_
 _symmetry_equiv_pos_site_id
 _symmetry_equiv_pos_as_xyz
  1  'x, y, z'
loop_
 _atom_site_type_symbol
 _atom_site_label
 _atom_site_symmetry_multiplicity
 _atom_site_fract_x
 _atom_site_fract_y
 _atom_site_fract_z
 _atom_site_occupancy
 _atom_site_charge
  Li  Li1  1  0.798800  0.424300  0.121800  1.0  0.933
  Li  Li2  1  0.424300  0.655100  0.121800  1.0  0.9342
  Li  Li3  1  0.655100  0.798800  0.121800  1.0  0.9322
  Li  Li4  1  0.701200  0.844900  0.378200  1.0  0.9318
  Li  Li5  1  0.075700  0.701200  0.378200  1.0  0.9326
  Li  Li6  1  0.844900  0.075700  0.378200  1.0  0.9346
  Li  Li7  1  0.201200  0.575700  0.878200  1.0  0.937
  Li  Li8  1  0.575700  0.344900  0.878200  1.0  0.9315
  Li  Li9  1  0.344900  0.201200  0.878200  1.0  0.9293
  Li  Li10  1  0.298800  0.155100  0.621800  1.0  0.9323
  Li  Li11  1  0.924300  0.298800  0.621800  1.0  0.9313
  Li  Li12  1  0.155100  0.924300  0.621800  1.0  0.9343
  Li  Li13  1  0.031500  0.031500  0.905500  1.0  0.866
  Li  Li14  1  0.468500  0.468500  0.594500  1.0  0.8511
  Li  Li15  1  0.968500  0.968500  0.094500  1.0  0.8511
  Li  Li16  1  0.531500  0.531500  0.405500  1.0  0.866
  Li  Li17  1  0.116350  0.383650  0.750000  1.0  0.9403
  Li  Li18  1  0.383650  0.750000  0.750000  1.0  0.9408
  Li  Li19  1  0.750000  0.116350  0.750000  1.0  0.9383
  Li  Li20  1  0.883650  0.616350  0.250000  1.0  0.9394
  Li  Li21  1  0.616350  0.250000  0.250000  1.0  0.9375
  Li  Li22  1  0.250000  0.883650  0.250000  1.0  0.9402
  Li  Li23  1  0.068500  0.750000  0.750000  1.0  0.9035
  Li  Li24  1  0.750000  0.431500  0.750000  1.0  0.9029
  Li  Li25  1  0.431500  0.068500  0.750000  1.0  0.9033
  Li  Li26  1  0.931500  0.250000  0.250000  1.0  0.9023
  Li  Li27  1  0.250000  0.568500  0.250000  1.0  0.9045
  Li  Li28  1  0.568500  0.931500  0.250000  1.0  0.9042
  Ni  Ni29  1  0.852920  0.357560  0.931040  1.0  0.8055
  Ni  Ni30  1  0.357560  0.858480  0.931040  1.0  0.804
  Ni  Ni31  1  0.858480  0.852920  0.931040  1.0  0.8063
  Ni  Ni32  1  0.647080  0.641520  0.568960  1.0  0.806
  Ni  Ni33  1  0.142440  0.647080  0.568960  1.0  0.8062
  Ni  Ni34  1  0.641520  0.142440  0.568950  1.0  0.8055
  Ni  Ni35  1  0.147080  0.642440  0.068960  1.0  0.8065
  Ni  Ni36  1  0.642440  0.141520  0.068960  1.0  0.8062
  Ni  Ni37  1  0.141520  0.147080  0.068960  1.0  0.8055
  Ni  Ni38  1  0.352910  0.358480  0.431050  1.0  0.8058
  Ni  Ni39  1  0.857560  0.352920  0.431040  1.0  0.8039
  Ni  Ni40  1  0.358480  0.857560  0.431040  1.0  0.8055
  Ni  Ni41  1  0.068410  0.068410  0.794770  1.0  0.7863
  Ni  Ni42  1  0.431590  0.431590  0.705230  1.0  0.7884
  Ni  Ni43  1  0.931590  0.931590  0.205230  1.0  0.7884
  Ni  Ni44  1  0.568410  0.568410  0.294770  1.0  0.7863
  H  H45  1  0.914800  0.161700  0.895900  1.0  0.1571
  H  H46  1  0.049800  0.187600  0.966700  1.0  0.0789
  H  H47  1  0.161700  0.027600  0.895900  1.0  0.1551
  H  H48  1  0.187600  0.795900  0.966700  1.0  0.0788
  H  H49  1  0.027600  0.914800  0.895900  1.0  0.1561
  H  H50  1  0.795900  0.049800  0.966700  1.0  0.0786
  H  H51  1  0.585200  0.472400  0.604100  1.0  0.1559
  H  H52  1  0.450200  0.704100  0.533300  1.0  0.0772
  H  H53  1  0.338300  0.585200  0.604100  1.0  0.1566
  H  H54  1  0.312400  0.450200  0.533300  1.0  0.0778
  H  H55  1  0.472400  0.338300  0.604100  1.0  0.1557
  H  H56  1  0.704100  0.312400  0.533300  1.0  0.0787
  H  H57  1  0.085200  0.838300  0.104100  1.0  0.1573
  H  H58  1  0.950200  0.812400  0.033300  1.0  0.0782
  H  H59  1  0.838300  0.972400  0.104100  1.0  0.1555
  H  H60  1  0.812400  0.204100  0.033300  1.0  0.0794
  H  H61  1  0.972400  0.085200  0.104100  1.0  0.156
  H  H62  1  0.204100  0.950200  0.033300  1.0  0.0771
  H  H63  1  0.414800  0.527600  0.395900  1.0  0.1551
  H  H64  1  0.549800  0.295900  0.466700  1.0  0.0784
  H  H65  1  0.661700  0.414800  0.395900  1.0  0.1567
  H  H66  1  0.687600  0.549800  0.466700  1.0  0.0779
  H  H67  1  0.527600  0.661700  0.395900  1.0  0.1563
  H  H68  1  0.295900  0.687600  0.466700  1.0  0.0779
  C  C69  1  0.943290  0.195390  0.874030  1.0  0.2817
  C  C70  1  0.031080  0.236980  0.810760  1.0  -0.0352
  C  C71  1  0.981540  0.301140  0.841480  1.0  -0.0135
  C  C72  1  0.976950  0.388750  0.840550  1.0  0.711
  C  C73  1  0.099050  0.223750  0.763450  1.0  0.7022
  C  C74  1  0.017170  0.230070  0.987490  1.0  0.3459
  C  C75  1  0.911360  0.344860  0.018120  1.0  -0.0384
  C  C76  1  0.977170  0.297170  0.049290  1.0  0.0126
  C  C77  1  0.828860  0.430560  0.016620  1.0  0.6918
  C  C78  1  0.992200  0.307100  0.096000  1.0  0.7107
  C  C79  1  0.195390  0.987290  0.874030  1.0  0.2836
  C  C80  1  0.236980  0.921180  0.810760  1.0  -0.034
  C  C81  1  0.301140  0.875840  0.841480  1.0  -0.0149
  C  C82  1  0.388750  0.793750  0.840550  1.0  0.7133
  C  C83  1  0.223750  0.913750  0.763450  1.0  0.7043
  C  C84  1  0.230070  0.765270  0.987490  1.0  0.3465
  C  C85  1  0.344860  0.725660  0.018120  1.0  -0.0394
  C  C86  1  0.297170  0.676370  0.049290  1.0  0.0093
  C  C87  1  0.430560  0.723960  0.016620  1.0  0.6952
  C  C88  1  0.307100  0.604700  0.096000  1.0  0.7059
  C  C89  1  0.987290  0.943290  0.874030  1.0  0.2837
  C  C90  1  0.921180  0.031080  0.810760  1.0  -0.0328
  C  C91  1  0.875840  0.981540  0.841480  1.0  -0.0118
  C  C92  1  0.793750  0.976950  0.840550  1.0  0.7133
  C  C93  1  0.913750  0.099050  0.763450  1.0  0.7023
  C  C94  1  0.765270  0.017170  0.987490  1.0  0.3466
  C  C95  1  0.725660  0.911360  0.018120  1.0  -0.0375
  C  C96  1  0.676370  0.977170  0.049290  1.0  0.0108
  C  C97  1  0.723960  0.828860  0.016620  1.0  0.6923
  C  C98  1  0.604700  0.992200  0.096000  1.0  0.7109
  C  C99  1  0.556710  0.512710  0.625970  1.0  0.2833
  C  C100  1  0.468920  0.578820  0.689240  1.0  -0.0323
  C  C101  1  0.518460  0.624160  0.658520  1.0  -0.0118
  C  C102  1  0.523050  0.706250  0.659450  1.0  0.7092
  C  C103  1  0.400950  0.586250  0.736550  1.0  0.6999
  C  C104  1  0.482830  0.734730  0.512510  1.0  0.3462
  C  C105  1  0.588640  0.774340  0.481880  1.0  -0.0387
  C  C106  1  0.522830  0.823630  0.450710  1.0  0.0096
  C  C107  1  0.671140  0.776040  0.483380  1.0  0.6932
  C  C108  1  0.507800  0.895300  0.404000  1.0  0.7073
  C  C109  1  0.304610  0.556710  0.625970  1.0  0.2819
  C  C110  1  0.263020  0.468920  0.689240  1.0  -0.0324
  C  C111  1  0.198860  0.518460  0.658520  1.0  -0.014
  C  C112  1  0.111250  0.523050  0.659450  1.0  0.7148
  C  C113  1  0.276250  0.400950  0.736550  1.0  0.7022
  C  C114  1  0.269930  0.482830  0.512510  1.0  0.346
  C  C115  1  0.155140  0.588640  0.481880  1.0  -0.0377
  C  C116  1  0.202830  0.522830  0.450710  1.0  0.012
  C  C117  1  0.069440  0.671140  0.483380  1.0  0.692
  C  C118  1  0.192900  0.507800  0.404000  1.0  0.7112
  C  C119  1  0.512710  0.304610  0.625970  1.0  0.2834
  C  C120  1  0.578820  0.263020  0.689240  1.0  -0.0331
  C  C121  1  0.624160  0.198860  0.658520  1.0  -0.0136
  C  C122  1  0.706250  0.111250  0.659450  1.0  0.7125
  C  C123  1  0.586250  0.276250  0.736550  1.0  0.703
  C  C124  1  0.734730  0.269930  0.512510  1.0  0.347
  C  C125  1  0.774340  0.155140  0.481880  1.0  -0.0388
  C  C126  1  0.823630  0.202830  0.450710  1.0  0.0103
  C  C127  1  0.776040  0.069440  0.483380  1.0  0.6922
  C  C128  1  0.895300  0.192900  0.404000  1.0  0.7059
  C  C129  1  0.056710  0.804610  0.125970  1.0  0.2843
  C  C130  1  0.968920  0.763020  0.189240  1.0  -0.0339
  C  C131  1  0.018460  0.698860  0.158520  1.0  -0.0139
  C  C132  1  0.023050  0.611250  0.159450  1.0  0.7127
  C  C133  1  0.900950  0.776250  0.236550  1.0  0.7018
  C  C134  1  0.982830  0.769930  0.012510  1.0  0.3466
  C  C135  1  0.088640  0.655140  0.981880  1.0  -0.0395
  C  C136  1  0.022830  0.702830  0.950710  1.0  0.0114
  C  C137  1  0.171140  0.569440  0.983380  1.0  0.6935
  C  C138  1  0.007800  0.692900  0.904000  1.0  0.7078
  C  C139  1  0.804610  0.012710  0.125970  1.0  0.2839
  C  C140  1  0.763020  0.078820  0.189240  1.0  -0.0325
  C  C141  1  0.698860  0.124160  0.158520  1.0  -0.0129
  C  C142  1  0.611250  0.206250  0.159450  1.0  0.7125
  C  C143  1  0.776250  0.086250  0.236550  1.0  0.7027
  C  C144  1  0.769930  0.234730  0.012510  1.0  0.3467
  C  C145  1  0.655140  0.274340  0.981880  1.0  -0.0384
  C  C146  1  0.702830  0.323630  0.950710  1.0  0.0109
  C  C147  1  0.569440  0.276040  0.983380  1.0  0.6934
  C  C148  1  0.692900  0.395300  0.904000  1.0  0.7051
  C  C149  1  0.012710  0.056710  0.125970  1.0  0.2814
  C  C150  1  0.078820  0.968920  0.189240  1.0  -0.0318
  C  C151  1  0.124160  0.018460  0.158520  1.0  -0.0103
  C  C152  1  0.206250  0.023050  0.159450  1.0  0.7124
  C  C153  1  0.086250  0.900950  0.236550  1.0  0.7014
  C  C154  1  0.234730  0.982830  0.012510  1.0  0.3455
  C  C155  1  0.274340  0.088640  0.981880  1.0  -0.0372
  C  C156  1  0.323630  0.022830  0.950710  1.0  0.0126
  C  C157  1  0.276040  0.171140  0.983380  1.0  0.6923
  C  C158  1  0.395300  0.007800  0.904000  1.0  0.7132
  C  C159  1  0.443290  0.487290  0.374030  1.0  0.2821
  C  C160  1  0.531080  0.421180  0.310760  1.0  -0.0327
  C  C161  1  0.481540  0.375840  0.341480  1.0  -0.0125
  C  C162  1  0.476950  0.293750  0.340550  1.0  0.7118
  C  C163  1  0.599050  0.413750  0.263450  1.0  0.7005
  C  C164  1  0.517170  0.265270  0.487490  1.0  0.3469
  C  C165  1  0.411360  0.225660  0.518120  1.0  -0.0388
  C  C166  1  0.477170  0.176370  0.549290  1.0  0.0091
  C  C167  1  0.328860  0.223960  0.516620  1.0  0.693
  C  C168  1  0.492200  0.104700  0.596000  1.0  0.706
  C  C169  1  0.695390  0.443290  0.374030  1.0  0.283
  C  C170  1  0.736980  0.531080  0.310760  1.0  -0.0344
  C  C171  1  0.801140  0.481540  0.341480  1.0  -0.0137
  C  C172  1  0.888750  0.476950  0.340550  1.0  0.7163
  C  C173  1  0.723750  0.599050  0.263450  1.0  0.7028
  C  C174  1  0.730070  0.517170  0.487490  1.0  0.3473
  C  C175  1  0.844860  0.411360  0.518120  1.0  -0.0387
  C  C176  1  0.797170  0.477170  0.549290  1.0  0.0121
  C  C177  1  0.930560  0.328860  0.516620  1.0  0.6951
  C  C178  1  0.807100  0.492200  0.596000  1.0  0.7141
  C  C179  1  0.487290  0.695390  0.374030  1.0  0.2846
  C  C180  1  0.421180  0.736980  0.310760  1.0  -0.0337
  C  C181  1  0.375840  0.801140  0.341480  1.0  -0.0135
  C  C182  1  0.293750  0.888750  0.340550  1.0  0.7093
  C  C183  1  0.413750  0.723750  0.263450  1.0  0.704
  C  C184  1  0.265270  0.730070  0.487490  1.0  0.3456
  C  C185  1  0.225660  0.844860  0.518120  1.0  -0.0394
  C  C186  1  0.176370  0.797170  0.549290  1.0  0.0108
  C  C187  1  0.223960  0.930560  0.516620  1.0  0.6926
  C  C188  1  0.104700  0.807100  0.596000  1.0  0.702
  N  N189  1  0.004210  0.170710  0.832570  1.0  -0.3303
  N  N190  1  0.927150  0.274250  0.880750  1.0  -0.4144
  N  N191  1  0.939960  0.301460  0.978820  1.0  -0.4237
  N  N192  1  0.042240  0.225940  0.028380  1.0  -0.3427
  N  N193  1  0.170710  0.992510  0.832570  1.0  -0.3292
  N  N194  1  0.274250  0.917850  0.880750  1.0  -0.4126
  N  N195  1  0.301460  0.779760  0.978820  1.0  -0.4265
  N  N196  1  0.225940  0.703440  0.028380  1.0  -0.3426
  N  N197  1  0.992510  0.004210  0.832570  1.0  -0.3324
  N  N198  1  0.917850  0.927150  0.880750  1.0  -0.4181
  N  N199  1  0.779760  0.939960  0.978820  1.0  -0.4255
  N  N200  1  0.703440  0.042240  0.028380  1.0  -0.3404
  N  N201  1  0.495790  0.507490  0.667430  1.0  -0.3277
  N  N202  1  0.572850  0.582150  0.619250  1.0  -0.4159
  N  N203  1  0.560040  0.720240  0.521180  1.0  -0.4256
  N  N204  1  0.457760  0.796560  0.471620  1.0  -0.3426
  N  N205  1  0.329290  0.495790  0.667430  1.0  -0.3314
  N  N206  1  0.225750  0.572850  0.619250  1.0  -0.4125
  N  N207  1  0.198540  0.560040  0.521180  1.0  -0.4243
  N  N208  1  0.274060  0.457760  0.471620  1.0  -0.3417
  N  N209  1  0.507490  0.329290  0.667430  1.0  -0.3282
  N  N210  1  0.582150  0.225750  0.619250  1.0  -0.4148
  N  N211  1  0.720240  0.198540  0.521180  1.0  -0.426
  N  N212  1  0.796560  0.274060  0.471620  1.0  -0.3394
  N  N213  1  0.995790  0.829290  0.167430  1.0  -0.3281
  N  N214  1  0.072850  0.725750  0.119250  1.0  -0.4172
  N  N215  1  0.060040  0.698540  0.021180  1.0  -0.4252
  N  N216  1  0.957760  0.774060  0.971620  1.0  -0.3421
  N  N217  1  0.829290  0.007490  0.167430  1.0  -0.3307
  N  N218  1  0.725750  0.082150  0.119250  1.0  -0.4152
  N  N219  1  0.698540  0.220240  0.021180  1.0  -0.4271
  N  N220  1  0.774060  0.296560  0.971620  1.0  -0.3434
  N  N221  1  0.007490  0.995790  0.167430  1.0  -0.3289
  N  N222  1  0.082150  0.072850  0.119250  1.0  -0.4176
  N  N223  1  0.220240  0.060040  0.021180  1.0  -0.4241
  N  N224  1  0.296560  0.957760  0.971620  1.0  -0.3425
  N  N225  1  0.504210  0.492510  0.332570  1.0  -0.3314
  N  N226  1  0.427150  0.417850  0.380750  1.0  -0.4161
  N  N227  1  0.439960  0.279760  0.478820  1.0  -0.4261
  N  N228  1  0.542240  0.203440  0.528380  1.0  -0.3439
  N  N229  1  0.670710  0.504210  0.332570  1.0  -0.3312
  N  N230  1  0.774250  0.427150  0.380750  1.0  -0.4142
  N  N231  1  0.801460  0.439960  0.478820  1.0  -0.4243
  N  N232  1  0.725940  0.542240  0.528380  1.0  -0.3426
  N  N233  1  0.492510  0.670710  0.332570  1.0  -0.3278
  N  N234  1  0.417850  0.774250  0.380750  1.0  -0.4142
  N  N235  1  0.279760  0.801460  0.478820  1.0  -0.4264
  N  N236  1  0.203440  0.725940  0.528380  1.0  -0.3426
  O  O237  1  0.921010  0.427710  0.877570  1.0  -0.5493
  O  O238  1  0.024660  0.420860  0.806620  1.0  -0.5933
  O  O239  1  0.126340  0.152040  0.748180  1.0  -0.5618
  O  O240  1  0.129590  0.279190  0.740230  1.0  -0.6027
  O  O241  1  0.793440  0.453240  0.977980  1.0  -0.5641
  O  O242  1  0.797930  0.475030  0.050310  1.0  -0.539
  O  O243  1  0.066150  0.253950  0.108450  1.0  -0.5368
  O  O244  1  0.929280  0.366180  0.120360  1.0  -0.5477
  O  O245  1  0.742200  0.513300  0.163200  1.0  -0.3475
  O  O246  1  0.743910  0.349710  0.147270  1.0  -0.4765
  O  O247  1  0.427710  0.773710  0.877570  1.0  -0.5341
  O  O248  1  0.420860  0.747860  0.806620  1.0  -0.5909
  O  O249  1  0.152040  0.973440  0.748180  1.0  -0.5651
  O  O250  1  0.279190  0.850990  0.740230  1.0  -0.6047
  O  O251  1  0.453240  0.775340  0.977980  1.0  -0.5593
  O  O252  1  0.475030  0.676730  0.050310  1.0  -0.5342
  O  O253  1  0.253950  0.571450  0.108450  1.0  -0.533
  O  O254  1  0.366180  0.584180  0.120360  1.0  -0.5438
  O  O255  1  0.513300  0.581300  0.163200  1.0  -0.3475
  O  O256  1  0.349710  0.759110  0.147270  1.0  -0.4774
  O  O257  1  0.773710  0.921010  0.877570  1.0  -0.5373
  O  O258  1  0.747860  0.024660  0.806620  1.0  -0.5916
  O  O259  1  0.973440  0.126340  0.748180  1.0  -0.5712
  O  O260  1  0.850990  0.129590  0.740230  1.0  -0.605
  O  O261  1  0.775340  0.793440  0.977980  1.0  -0.5569
  O  O262  1  0.676730  0.797930  0.050310  1.0  -0.5336
  O  O263  1  0.571450  0.066150  0.108450  1.0  -0.5363
  O  O264  1  0.584180  0.929280  0.120360  1.0  -0.5449
  O  O265  1  0.581300  0.742200  0.163200  1.0  -0.3455
  O  O266  1  0.759110  0.743910  0.147270  1.0  -0.4768
  O  O267  1  0.578990  0.726290  0.622430  1.0  -0.5339
  O  O268  1  0.475340  0.752140  0.693380  1.0  -0.593
  O  O269  1  0.373660  0.526560  0.751820  1.0  -0.5685
  O  O270  1  0.370410  0.649010  0.759770  1.0  -0.6038
  O  O271  1  0.706560  0.724660  0.522020  1.0  -0.5545
  O  O272  1  0.702070  0.823270  0.449690  1.0  -0.5319
  O  O273  1  0.433850  0.928550  0.391550  1.0  -0.5321
  O  O274  1  0.570720  0.915820  0.379640  1.0  -0.5437
  O  O275  1  0.757800  0.918700  0.336800  1.0  -0.3468
  O  O276  1  0.756090  0.740890  0.352730  1.0  -0.477
  O  O277  1  0.072290  0.578990  0.622430  1.0  -0.5473
  O  O278  1  0.079140  0.475340  0.693380  1.0  -0.5927
  O  O279  1  0.347960  0.373660  0.751820  1.0  -0.563
  O  O280  1  0.220810  0.370410  0.759770  1.0  -0.6032
  O  O281  1  0.046760  0.706560  0.522020  1.0  -0.5611
  O  O282  1  0.024970  0.702070  0.449690  1.0  -0.5414
  O  O283  1  0.246050  0.433850  0.391550  1.0  -0.535
  O  O284  1  0.133820  0.570720  0.379640  1.0  -0.5456
  O  O285  1  0.986700  0.757800  0.336800  1.0  -0.3471
  O  O286  1  0.150290  0.756090  0.352730  1.0  -0.4776
  O  O287  1  0.726290  0.072290  0.622430  1.0  -0.54
  O  O288  1  0.752140  0.079140  0.693380  1.0  -0.5928
  O  O289  1  0.526560  0.347960  0.751820  1.0  -0.5652
  O  O290  1  0.649010  0.220810  0.759770  1.0  -0.6047
  O  O291  1  0.724660  0.046760  0.522020  1.0  -0.5628
  O  O292  1  0.823270  0.024970  0.449690  1.0  -0.5347
  O  O293  1  0.928550  0.246050  0.391550  1.0  -0.531
  O  O294  1  0.915820  0.133820  0.379640  1.0  -0.546
  O  O295  1  0.918700  0.986700  0.336800  1.0  -0.3481
  O  O296  1  0.740890  0.150290  0.352730  1.0  -0.4774
  O  O297  1  0.078990  0.572290  0.122430  1.0  -0.5473
  O  O298  1  0.975340  0.579140  0.193380  1.0  -0.5927
  O  O299  1  0.873660  0.847960  0.251820  1.0  -0.5612
  O  O300  1  0.870410  0.720810  0.259770  1.0  -0.6043
  O  O301  1  0.206560  0.546760  0.022020  1.0  -0.5623
  O  O302  1  0.202070  0.524970  0.949690  1.0  -0.5376
  O  O303  1  0.933850  0.746050  0.891550  1.0  -0.5331
  O  O304  1  0.070720  0.633820  0.879640  1.0  -0.5446
  O  O305  1  0.257800  0.486700  0.836800  1.0  -0.3491
  O  O306  1  0.256090  0.650290  0.852730  1.0  -0.4764
  O  O307  1  0.572290  0.226290  0.122430  1.0  -0.5384
  O  O308  1  0.579140  0.252140  0.193380  1.0  -0.5942
  O  O309  1  0.847960  0.026560  0.251820  1.0  -0.5653
  O  O310  1  0.720810  0.149010  0.259770  1.0  -0.6059
  O  O311  1  0.546760  0.224660  0.022020  1.0  -0.5614
  O  O312  1  0.524970  0.323270  0.949690  1.0  -0.5339
  O  O313  1  0.746050  0.428550  0.891550  1.0  -0.5301
  O  O314  1  0.633820  0.415820  0.879640  1.0  -0.5485
  O  O315  1  0.486700  0.418700  0.836800  1.0  -0.3475
  O  O316  1  0.650290  0.240890  0.852730  1.0  -0.4771
  O  O317  1  0.226290  0.078990  0.122430  1.0  -0.5322
  O  O318  1  0.252140  0.975340  0.193380  1.0  -0.5932
  O  O319  1  0.026560  0.873660  0.251820  1.0  -0.5686
  O  O320  1  0.149010  0.870410  0.259770  1.0  -0.6036
  O  O321  1  0.224660  0.206560  0.022020  1.0  -0.5559
  O  O322  1  0.323270  0.202070  0.949690  1.0  -0.5329
  O  O323  1  0.428550  0.933850  0.891550  1.0  -0.5354
  O  O324  1  0.415820  0.070720  0.879640  1.0  -0.5413
  O  O325  1  0.418700  0.257800  0.836800  1.0  -0.3457
  O  O326  1  0.240890  0.256090  0.852730  1.0  -0.478
  O  O327  1  0.421010  0.273710  0.377570  1.0  -0.54
  O  O328  1  0.524660  0.247860  0.306620  1.0  -0.5926
  O  O329  1  0.626340  0.473440  0.248180  1.0  -0.5682
  O  O330  1  0.629590  0.350990  0.240230  1.0  -0.6026
  O  O331  1  0.293440  0.275340  0.477980  1.0  -0.553
  O  O332  1  0.297930  0.176730  0.550310  1.0  -0.5328
  O  O333  1  0.566150  0.071450  0.608450  1.0  -0.5326
  O  O334  1  0.429280  0.084180  0.620360  1.0  -0.5478
  O  O335  1  0.242200  0.081300  0.663200  1.0  -0.347
  O  O336  1  0.243910  0.259110  0.647270  1.0  -0.4767
  O  O337  1  0.927710  0.421010  0.377570  1.0  -0.5503
  O  O338  1  0.920860  0.524660  0.306620  1.0  -0.592
  O  O339  1  0.652040  0.626340  0.248180  1.0  -0.5626
  O  O340  1  0.779190  0.629590  0.240230  1.0  -0.6031
  O  O341  1  0.953240  0.293440  0.477980  1.0  -0.5638
  O  O342  1  0.975030  0.297930  0.550310  1.0  -0.541
  O  O343  1  0.753950  0.566150  0.608450  1.0  -0.5411
  O  O344  1  0.866180  0.429280  0.620360  1.0  -0.5467
  O  O345  1  0.013300  0.242200  0.663200  1.0  -0.3463
  O  O346  1  0.849710  0.243910  0.647270  1.0  -0.4769
  O  O347  1  0.273710  0.927710  0.377570  1.0  -0.5349
  O  O348  1  0.247860  0.920860  0.306620  1.0  -0.5921
  O  O349  1  0.473440  0.652040  0.248180  1.0  -0.5669
  O  O350  1  0.350990  0.779190  0.240230  1.0  -0.6055
  O  O351  1  0.275340  0.953240  0.477980  1.0  -0.5595
  O  O352  1  0.176730  0.975030  0.550310  1.0  -0.5364
  O  O353  1  0.071450  0.753950  0.608450  1.0  -0.535
  O  O354  1  0.084180  0.866180  0.620360  1.0  -0.5436
  O  O355  1  0.081300  0.013300  0.663200  1.0  -0.3467
  O  O356  1  0.259110  0.849710  0.647270  1.0  -0.4775
