# generated using pymatgen
data_Fe3H24C39S3N3O19
_symmetry_space_group_name_H-M   'P 1'
_cell_length_a   27.23000000
_cell_length_b   27.23000000
_cell_length_c   27.23000000
_cell_angle_alpha   60.00000000
_cell_angle_beta   60.00000000
_cell_angle_gamma   60.00000000
_symmetry_Int_Tables_number   1
_chemical_formula_structural   Fe3H24C39S3N3O19
_chemical_formula_sum   'Fe12 H96 C156 S12 N12 O76'
_cell_volume   14276.70304131
_cell_formula_units_Z   4
loop_
 _symmetry_equiv_pos_site_id
 _symmetry_equiv_pos_as_xyz
  1  'x, y, z'
loop_
 _atom_site_type_symbol
 _atom_site_label
 _atom_site_symmetry_multiplicity
 _atom_site_fract_x
 _atom_site_fract_y
 _atom_site_fract_z
 _atom_site_occupancy
 _atom_site_charge
  Fe  Fe1  1  0.195140  0.520420  0.642220  1.0  1.0383
  Fe  Fe2  1  0.520420  0.195140  0.642220  1.0  1.0342
  Fe  Fe3  1  0.642220  0.642220  0.195140  1.0  1.0387
  Fe  Fe4  1  0.642220  0.642220  0.520420  1.0  1.0399
  Fe  Fe5  1  0.195140  0.642220  0.642220  1.0  1.0387
  Fe  Fe6  1  0.520420  0.642220  0.642220  1.0  1.0366
  Fe  Fe7  1  0.642220  0.195140  0.520420  1.0  1.0391
  Fe  Fe8  1  0.642220  0.520420  0.195140  1.0  1.0379
  Fe  Fe9  1  0.195140  0.642220  0.520420  1.0  1.0386
  Fe  Fe10  1  0.520420  0.642220  0.195140  1.0  1.0365
  Fe  Fe11  1  0.642220  0.520420  0.642220  1.0  1.0381
  Fe  Fe12  1  0.642220  0.195140  0.642220  1.0  1.0389
  H  H13  1  0.049900  0.500900  0.643900  1.0  0.1014
  H  H14  1  0.966100  0.496500  0.643700  1.0  0.1555
  H  H15  1  0.191200  0.421000  0.627000  1.0  0.1104
  H  H16  1  0.203100  0.314700  0.667500  1.0  0.1176
  H  H17  1  0.500900  0.049900  0.805300  1.0  0.1027
  H  H18  1  0.496500  0.966100  0.893700  1.0  0.1532
  H  H19  1  0.421000  0.191200  0.760800  1.0  0.11
  H  H20  1  0.314700  0.203100  0.814700  1.0  0.1171
  H  H21  1  0.643900  0.805300  0.049900  1.0  0.1015
  H  H22  1  0.643700  0.893700  0.966100  1.0  0.1536
  H  H23  1  0.627000  0.760800  0.191200  1.0  0.1105
  H  H24  1  0.667500  0.814700  0.203100  1.0  0.1197
  H  H25  1  0.805300  0.643900  0.500900  1.0  0.1018
  H  H26  1  0.893700  0.643700  0.496500  1.0  0.1546
  H  H27  1  0.760800  0.627000  0.421000  1.0  0.1088
  H  H28  1  0.814700  0.667500  0.314700  1.0  0.1185
  H  H29  1  0.049900  0.643900  0.805300  1.0  0.1026
  H  H30  1  0.966100  0.643700  0.893700  1.0  0.1551
  H  H31  1  0.191200  0.627000  0.760800  1.0  0.1102
  H  H32  1  0.203100  0.667500  0.814700  1.0  0.1179
  H  H33  1  0.500900  0.805300  0.643900  1.0  0.103
  H  H34  1  0.496500  0.893700  0.643700  1.0  0.1541
  H  H35  1  0.421000  0.760800  0.627000  1.0  0.1096
  H  H36  1  0.314700  0.814700  0.667500  1.0  0.1191
  H  H37  1  0.643900  0.049900  0.500900  1.0  0.1027
  H  H38  1  0.643700  0.966100  0.496500  1.0  0.1538
  H  H39  1  0.627000  0.191200  0.421000  1.0  0.1078
  H  H40  1  0.667500  0.203100  0.314700  1.0  0.1181
  H  H41  1  0.805300  0.500900  0.049900  1.0  0.103
  H  H42  1  0.893700  0.496500  0.966100  1.0  0.1544
  H  H43  1  0.760800  0.421000  0.191200  1.0  0.1104
  H  H44  1  0.814700  0.314700  0.203100  1.0  0.1171
  H  H45  1  0.049900  0.805300  0.500900  1.0  0.103
  H  H46  1  0.966100  0.893700  0.496500  1.0  0.155
  H  H47  1  0.191200  0.760800  0.421000  1.0  0.1085
  H  H48  1  0.203100  0.814700  0.314700  1.0  0.1193
  H  H49  1  0.500900  0.643900  0.049900  1.0  0.1025
  H  H50  1  0.496500  0.643700  0.966100  1.0  0.1546
  H  H51  1  0.421000  0.627000  0.191200  1.0  0.1081
  H  H52  1  0.314700  0.667500  0.203100  1.0  0.1176
  H  H53  1  0.643900  0.500900  0.805300  1.0  0.1026
  H  H54  1  0.643700  0.496500  0.893700  1.0  0.1555
  H  H55  1  0.627000  0.421000  0.760800  1.0  0.1109
  H  H56  1  0.667500  0.314700  0.814700  1.0  0.1181
  H  H57  1  0.805300  0.049900  0.643900  1.0  0.1034
  H  H58  1  0.893700  0.966100  0.643700  1.0  0.1544
  H  H59  1  0.760800  0.191200  0.627000  1.0  0.1105
  H  H60  1  0.814700  0.203100  0.667500  1.0  0.1179
  H  H61  1  0.049900  0.500900  0.805300  1.0  0.1012
  H  H62  1  0.966100  0.496500  0.893700  1.0  0.1552
  H  H63  1  0.191200  0.421000  0.760800  1.0  0.1098
  H  H64  1  0.203100  0.314700  0.814700  1.0  0.1169
  H  H65  1  0.500900  0.049900  0.643900  1.0  0.1025
  H  H66  1  0.496500  0.966100  0.643700  1.0  0.1534
  H  H67  1  0.421000  0.191200  0.627000  1.0  0.1121
  H  H68  1  0.314700  0.203100  0.667500  1.0  0.1183
  H  H69  1  0.643900  0.805300  0.500900  1.0  0.1022
  H  H70  1  0.643700  0.893700  0.496500  1.0  0.1535
  H  H71  1  0.627000  0.760800  0.421000  1.0  0.1108
  H  H72  1  0.667500  0.814700  0.314700  1.0  0.1201
  H  H73  1  0.805300  0.643900  0.049900  1.0  0.1007
  H  H74  1  0.893700  0.643700  0.966100  1.0  0.1548
  H  H75  1  0.760800  0.627000  0.191200  1.0  0.11
  H  H76  1  0.814700  0.667500  0.203100  1.0  0.1182
  H  H77  1  0.049900  0.643900  0.500900  1.0  0.1031
  H  H78  1  0.966100  0.643700  0.496500  1.0  0.1538
  H  H79  1  0.191200  0.627000  0.421000  1.0  0.1104
  H  H80  1  0.203100  0.667500  0.314700  1.0  0.118
  H  H81  1  0.500900  0.805300  0.049900  1.0  0.103
  H  H82  1  0.496500  0.893700  0.966100  1.0  0.1532
  H  H83  1  0.421000  0.760800  0.191200  1.0  0.1103
  H  H84  1  0.314700  0.814700  0.203100  1.0  0.1189
  H  H85  1  0.643900  0.049900  0.805300  1.0  0.1027
  H  H86  1  0.643700  0.966100  0.893700  1.0  0.1545
  H  H87  1  0.627000  0.191200  0.760800  1.0  0.109
  H  H88  1  0.667500  0.203100  0.814700  1.0  0.1179
  H  H89  1  0.805300  0.500900  0.643900  1.0  0.1032
  H  H90  1  0.893700  0.496500  0.643700  1.0  0.1559
  H  H91  1  0.760800  0.421000  0.627000  1.0  0.1112
  H  H92  1  0.814700  0.314700  0.667500  1.0  0.1175
  H  H93  1  0.049900  0.805300  0.643900  1.0  0.1029
  H  H94  1  0.966100  0.893700  0.643700  1.0  0.1541
  H  H95  1  0.191200  0.760800  0.627000  1.0  0.1104
  H  H96  1  0.203100  0.814700  0.667500  1.0  0.1199
  H  H97  1  0.500900  0.643900  0.805300  1.0  0.1025
  H  H98  1  0.496500  0.643700  0.893700  1.0  0.1555
  H  H99  1  0.421000  0.627000  0.760800  1.0  0.1091
  H  H100  1  0.314700  0.667500  0.814700  1.0  0.118
  H  H101  1  0.643900  0.500900  0.049900  1.0  0.1023
  H  H102  1  0.643700  0.496500  0.966100  1.0  0.1552
  H  H103  1  0.627000  0.421000  0.191200  1.0  0.1115
  H  H104  1  0.667500  0.314700  0.203100  1.0  0.118
  H  H105  1  0.805300  0.049900  0.500900  1.0  0.1032
  H  H106  1  0.893700  0.966100  0.496500  1.0  0.1551
  H  H107  1  0.760800  0.191200  0.421000  1.0  0.1102
  H  H108  1  0.814700  0.203100  0.314700  1.0  0.1177
  C  C109  1  0.033000  0.529800  0.614000  1.0  -0.0141
  C  C110  1  0.981700  0.527300  0.615100  1.0  -0.1629
  C  C111  1  0.193600  0.400200  0.665600  1.0  0.1295
  C  C112  1  0.198500  0.334700  0.689700  1.0  -0.1048
  C  C113  1  0.529800  0.033000  0.823200  1.0  -0.013
  C  C114  1  0.527300  0.981700  0.875900  1.0  -0.1604
  C  C115  1  0.400200  0.193600  0.740600  1.0  0.1275
  C  C116  1  0.334700  0.198500  0.777100  1.0  -0.108
  C  C117  1  0.614000  0.823200  0.033000  1.0  -0.0123
  C  C118  1  0.615100  0.875900  0.981700  1.0  -0.1627
  C  C119  1  0.665600  0.740600  0.193600  1.0  0.1263
  C  C120  1  0.689700  0.777100  0.198500  1.0  -0.1045
  C  C121  1  0.823200  0.614000  0.529800  1.0  -0.018
  C  C122  1  0.875900  0.615100  0.527300  1.0  -0.1633
  C  C123  1  0.740600  0.665600  0.400200  1.0  0.1291
  C  C124  1  0.777100  0.689700  0.334700  1.0  -0.108
  C  C125  1  0.033000  0.614000  0.823200  1.0  -0.017
  C  C126  1  0.981700  0.615100  0.875900  1.0  -0.1628
  C  C127  1  0.193600  0.665600  0.740600  1.0  0.1276
  C  C128  1  0.198500  0.689700  0.777100  1.0  -0.1075
  C  C129  1  0.529800  0.823200  0.614000  1.0  -0.0135
  C  C130  1  0.527300  0.875900  0.615100  1.0  -0.1605
  C  C131  1  0.400200  0.740600  0.665600  1.0  0.1259
  C  C132  1  0.334700  0.777100  0.689700  1.0  -0.1048
  C  C133  1  0.614000  0.033000  0.529800  1.0  -0.0131
  C  C134  1  0.615100  0.981700  0.527300  1.0  -0.161
  C  C135  1  0.665600  0.193600  0.400200  1.0  0.1281
  C  C136  1  0.689700  0.198500  0.334700  1.0  -0.1068
  C  C137  1  0.823200  0.529800  0.033000  1.0  -0.0156
  C  C138  1  0.875900  0.527300  0.981700  1.0  -0.1623
  C  C139  1  0.740600  0.400200  0.193600  1.0  0.1287
  C  C140  1  0.777100  0.334700  0.198500  1.0  -0.1068
  C  C141  1  0.033000  0.823200  0.529800  1.0  -0.0146
  C  C142  1  0.981700  0.875900  0.527300  1.0  -0.1619
  C  C143  1  0.193600  0.740600  0.400200  1.0  0.1267
  C  C144  1  0.198500  0.777100  0.334700  1.0  -0.1047
  C  C145  1  0.529800  0.614000  0.033000  1.0  -0.0144
  C  C146  1  0.527300  0.615100  0.981700  1.0  -0.1626
  C  C147  1  0.400200  0.665600  0.193600  1.0  0.1281
  C  C148  1  0.334700  0.689700  0.198500  1.0  -0.1082
  C  C149  1  0.614000  0.529800  0.823200  1.0  -0.0129
  C  C150  1  0.615100  0.527300  0.875900  1.0  -0.1623
  C  C151  1  0.665600  0.400200  0.740600  1.0  0.1288
  C  C152  1  0.689700  0.334700  0.777100  1.0  -0.1075
  C  C153  1  0.823200  0.033000  0.614000  1.0  -0.0142
  C  C154  1  0.875900  0.981700  0.615100  1.0  -0.1636
  C  C155  1  0.740600  0.193600  0.665600  1.0  0.1305
  C  C156  1  0.777100  0.198500  0.689700  1.0  -0.1071
  C  C157  1  0.033000  0.529800  0.823200  1.0  -0.0157
  C  C158  1  0.981700  0.527300  0.875900  1.0  -0.1637
  C  C159  1  0.193600  0.400200  0.740600  1.0  0.1289
  C  C160  1  0.198500  0.334700  0.777100  1.0  -0.1066
  C  C161  1  0.529800  0.033000  0.614000  1.0  -0.0116
  C  C162  1  0.527300  0.981700  0.615100  1.0  -0.1627
  C  C163  1  0.400200  0.193600  0.665600  1.0  0.1291
  C  C164  1  0.334700  0.198500  0.689700  1.0  -0.1065
  C  C165  1  0.614000  0.823200  0.529800  1.0  -0.0125
  C  C166  1  0.615100  0.875900  0.527300  1.0  -0.1617
  C  C167  1  0.665600  0.740600  0.400200  1.0  0.1268
  C  C168  1  0.689700  0.777100  0.334700  1.0  -0.1046
  C  C169  1  0.823200  0.614000  0.033000  1.0  -0.018
  C  C170  1  0.875900  0.615100  0.981700  1.0  -0.165
  C  C171  1  0.740600  0.665600  0.193600  1.0  0.128
  C  C172  1  0.777100  0.689700  0.198500  1.0  -0.1072
  C  C173  1  0.033000  0.614000  0.529800  1.0  -0.0166
  C  C174  1  0.981700  0.615100  0.527300  1.0  -0.1645
  C  C175  1  0.193600  0.665600  0.400200  1.0  0.1295
  C  C176  1  0.198500  0.689700  0.334700  1.0  -0.1073
  C  C177  1  0.529800  0.823200  0.033000  1.0  -0.0138
  C  C178  1  0.527300  0.875900  0.981700  1.0  -0.1612
  C  C179  1  0.400200  0.740600  0.193600  1.0  0.1252
  C  C180  1  0.334700  0.777100  0.198500  1.0  -0.105
  C  C181  1  0.614000  0.033000  0.823200  1.0  -0.0131
  C  C182  1  0.615100  0.981700  0.875900  1.0  -0.161
  C  C183  1  0.665600  0.193600  0.740600  1.0  0.1271
  C  C184  1  0.689700  0.198500  0.777100  1.0  -0.1074
  C  C185  1  0.823200  0.529800  0.614000  1.0  -0.0146
  C  C186  1  0.875900  0.527300  0.615100  1.0  -0.1618
  C  C187  1  0.740600  0.400200  0.665600  1.0  0.1287
  C  C188  1  0.777100  0.334700  0.689700  1.0  -0.1077
  C  C189  1  0.033000  0.823200  0.614000  1.0  -0.0138
  C  C190  1  0.981700  0.875900  0.615100  1.0  -0.1651
  C  C191  1  0.193600  0.740600  0.665600  1.0  0.1284
  C  C192  1  0.198500  0.777100  0.689700  1.0  -0.1048
  C  C193  1  0.529800  0.614000  0.823200  1.0  -0.0143
  C  C194  1  0.527300  0.615100  0.875900  1.0  -0.164
  C  C195  1  0.400200  0.665600  0.740600  1.0  0.1284
  C  C196  1  0.334700  0.689700  0.777100  1.0  -0.1081
  C  C197  1  0.614000  0.529800  0.033000  1.0  -0.0125
  C  C198  1  0.615100  0.527300  0.981700  1.0  -0.1625
  C  C199  1  0.665600  0.400200  0.193600  1.0  0.1284
  C  C200  1  0.689700  0.334700  0.198500  1.0  -0.1076
  C  C201  1  0.823200  0.033000  0.529800  1.0  -0.0149
  C  C202  1  0.875900  0.981700  0.527300  1.0  -0.1622
  C  C203  1  0.740600  0.193600  0.400200  1.0  0.1285
  C  C204  1  0.777100  0.198500  0.334700  1.0  -0.1073
  C  C205  1  0.195500  0.309500  0.747500  1.0  0.1317
  C  C206  1  0.196400  0.242400  0.780600  1.0  0.0733
  C  C207  1  0.309500  0.195500  0.747500  1.0  0.1384
  C  C208  1  0.242400  0.196400  0.780600  1.0  0.077
  C  C209  1  0.747500  0.747500  0.195500  1.0  0.1341
  C  C210  1  0.780600  0.780600  0.196400  1.0  0.0763
  C  C211  1  0.747500  0.747500  0.309500  1.0  0.1418
  C  C212  1  0.780600  0.780600  0.242400  1.0  0.075
  C  C213  1  0.195500  0.747500  0.747500  1.0  0.1358
  C  C214  1  0.196400  0.780600  0.780600  1.0  0.0769
  C  C215  1  0.309500  0.747500  0.747500  1.0  0.1412
  C  C216  1  0.242400  0.780600  0.780600  1.0  0.0694
  C  C217  1  0.747500  0.195500  0.309500  1.0  0.1337
  C  C218  1  0.780600  0.196400  0.242400  1.0  0.0758
  C  C219  1  0.747500  0.309500  0.195500  1.0  0.1423
  C  C220  1  0.780600  0.242400  0.196400  1.0  0.07
  C  C221  1  0.195500  0.747500  0.309500  1.0  0.1351
  C  C222  1  0.196400  0.780600  0.242400  1.0  0.0757
  C  C223  1  0.309500  0.747500  0.195500  1.0  0.1413
  C  C224  1  0.242400  0.780600  0.196400  1.0  0.0707
  C  C225  1  0.747500  0.309500  0.747500  1.0  0.135
  C  C226  1  0.780600  0.242400  0.780600  1.0  0.0676
  C  C227  1  0.747500  0.195500  0.747500  1.0  0.1438
  C  C228  1  0.780600  0.196400  0.780600  1.0  0.0756
  C  C229  1  0.108500  0.575700  0.575700  1.0  0.7418
  C  C230  1  0.058300  0.571900  0.571900  1.0  -0.0911
  C  C231  1  0.956500  0.572100  0.572100  1.0  0.1558
  C  C232  1  0.575700  0.108500  0.740100  1.0  0.741
  C  C233  1  0.571900  0.058300  0.797900  1.0  -0.0916
  C  C234  1  0.572100  0.956500  0.899300  1.0  0.1567
  C  C235  1  0.575700  0.740100  0.108500  1.0  0.7415
  C  C236  1  0.571900  0.797900  0.058300  1.0  -0.091
  C  C237  1  0.572100  0.899300  0.956500  1.0  0.1564
  C  C238  1  0.740100  0.575700  0.575700  1.0  0.7406
  C  C239  1  0.797900  0.571900  0.571900  1.0  -0.0917
  C  C240  1  0.899300  0.572100  0.572100  1.0  0.1559
  C  C241  1  0.108500  0.575700  0.740100  1.0  0.7423
  C  C242  1  0.058300  0.571900  0.797900  1.0  -0.0912
  C  C243  1  0.956500  0.572100  0.899300  1.0  0.1555
  C  C244  1  0.575700  0.740100  0.575700  1.0  0.7406
  C  C245  1  0.571900  0.797900  0.571900  1.0  -0.0919
  C  C246  1  0.572100  0.899300  0.572100  1.0  0.1559
  C  C247  1  0.575700  0.108500  0.575700  1.0  0.7408
  C  C248  1  0.571900  0.058300  0.571900  1.0  -0.0915
  C  C249  1  0.572100  0.956500  0.572100  1.0  0.1568
  C  C250  1  0.740100  0.575700  0.108500  1.0  0.7418
  C  C251  1  0.797900  0.571900  0.058300  1.0  -0.0914
  C  C252  1  0.899300  0.572100  0.956500  1.0  0.1566
  C  C253  1  0.108500  0.740100  0.575700  1.0  0.7406
  C  C254  1  0.058300  0.797900  0.571900  1.0  -0.0909
  C  C255  1  0.956500  0.899300  0.572100  1.0  0.1566
  C  C256  1  0.575700  0.575700  0.108500  1.0  0.7403
  C  C257  1  0.571900  0.571900  0.058300  1.0  -0.0898
  C  C258  1  0.572100  0.572100  0.956500  1.0  0.155
  C  C259  1  0.575700  0.575700  0.740100  1.0  0.7402
  C  C260  1  0.571900  0.571900  0.797900  1.0  -0.0916
  C  C261  1  0.572100  0.572100  0.899300  1.0  0.1556
  C  C262  1  0.740100  0.108500  0.575700  1.0  0.7406
  C  C263  1  0.797900  0.058300  0.571900  1.0  -0.0914
  C  C264  1  0.899300  0.956500  0.572100  1.0  0.1571
  S  S265  1  0.273850  0.510090  0.510090  1.0  1.6548
  S  S266  1  0.510090  0.273850  0.705970  1.0  1.6561
  S  S267  1  0.510090  0.705970  0.273850  1.0  1.6541
  S  S268  1  0.705970  0.510090  0.510090  1.0  1.6547
  S  S269  1  0.273850  0.510090  0.705970  1.0  1.655
  S  S270  1  0.510090  0.705970  0.510090  1.0  1.6541
  S  S271  1  0.510090  0.273850  0.510090  1.0  1.6568
  S  S272  1  0.705970  0.510090  0.273850  1.0  1.6554
  S  S273  1  0.273850  0.705970  0.510090  1.0  1.6597
  S  S274  1  0.510090  0.510090  0.273850  1.0  1.6554
  S  S275  1  0.510090  0.510090  0.705970  1.0  1.6549
  S  S276  1  0.705970  0.273850  0.510090  1.0  1.6612
  N  N277  1  0.192100  0.431300  0.688300  1.0  -0.1814
  N  N278  1  0.431300  0.192100  0.688300  1.0  -0.1803
  N  N279  1  0.688300  0.688300  0.192100  1.0  -0.1832
  N  N280  1  0.688300  0.688300  0.431300  1.0  -0.1821
  N  N281  1  0.192100  0.688300  0.688300  1.0  -0.1874
  N  N282  1  0.431300  0.688300  0.688300  1.0  -0.1791
  N  N283  1  0.688300  0.192100  0.431300  1.0  -0.1812
  N  N284  1  0.688300  0.431300  0.192100  1.0  -0.181
  N  N285  1  0.192100  0.688300  0.431300  1.0  -0.1825
  N  N286  1  0.431300  0.688300  0.192100  1.0  -0.1794
  N  N287  1  0.688300  0.431300  0.688300  1.0  -0.1808
  N  N288  1  0.688300  0.192100  0.688300  1.0  -0.186
  O  O289  1  0.129200  0.536400  0.616800  1.0  -0.6181
  O  O290  1  0.258900  0.488300  0.576100  1.0  -0.7519
  O  O291  1  0.536400  0.129200  0.717600  1.0  -0.6178
  O  O292  1  0.488300  0.258900  0.676700  1.0  -0.7539
  O  O293  1  0.616800  0.717600  0.129200  1.0  -0.6183
  O  O294  1  0.576100  0.676700  0.258900  1.0  -0.749
  O  O295  1  0.717600  0.616800  0.536400  1.0  -0.6179
  O  O296  1  0.676700  0.576100  0.488300  1.0  -0.7476
  O  O297  1  0.129200  0.616800  0.717600  1.0  -0.6168
  O  O298  1  0.258900  0.576100  0.676700  1.0  -0.7436
  O  O299  1  0.536400  0.717600  0.616800  1.0  -0.617
  O  O300  1  0.488300  0.676700  0.576100  1.0  -0.7532
  O  O301  1  0.616800  0.129200  0.536400  1.0  -0.6177
  O  O302  1  0.576100  0.258900  0.488300  1.0  -0.7513
  O  O303  1  0.717600  0.536400  0.129200  1.0  -0.6178
  O  O304  1  0.676700  0.488300  0.258900  1.0  -0.7497
  O  O305  1  0.129200  0.717600  0.536400  1.0  -0.6176
  O  O306  1  0.258900  0.676700  0.488300  1.0  -0.744
  O  O307  1  0.536400  0.616800  0.129200  1.0  -0.6174
  O  O308  1  0.488300  0.576100  0.258900  1.0  -0.75
  O  O309  1  0.616800  0.536400  0.717600  1.0  -0.6177
  O  O310  1  0.576100  0.488300  0.676700  1.0  -0.7555
  O  O311  1  0.717600  0.129200  0.616800  1.0  -0.6173
  O  O312  1  0.676700  0.258900  0.576100  1.0  -0.7559
  O  O313  1  0.129200  0.536400  0.717600  1.0  -0.6185
  O  O314  1  0.258900  0.488300  0.676700  1.0  -0.7508
  O  O315  1  0.536400  0.129200  0.616800  1.0  -0.6171
  O  O316  1  0.488300  0.258900  0.576100  1.0  -0.7535
  O  O317  1  0.616800  0.717600  0.536400  1.0  -0.6182
  O  O318  1  0.576100  0.676700  0.488300  1.0  -0.7493
  O  O319  1  0.717600  0.616800  0.129200  1.0  -0.6177
  O  O320  1  0.676700  0.576100  0.258900  1.0  -0.7482
  O  O321  1  0.129200  0.616800  0.536400  1.0  -0.618
  O  O322  1  0.258900  0.576100  0.488300  1.0  -0.7437
  O  O323  1  0.536400  0.717600  0.129200  1.0  -0.6173
  O  O324  1  0.488300  0.676700  0.258900  1.0  -0.7494
  O  O325  1  0.616800  0.129200  0.717600  1.0  -0.6165
  O  O326  1  0.576100  0.258900  0.676700  1.0  -0.7506
  O  O327  1  0.717600  0.536400  0.616800  1.0  -0.6174
  O  O328  1  0.676700  0.488300  0.576100  1.0  -0.7523
  O  O329  1  0.129200  0.717600  0.616800  1.0  -0.6167
  O  O330  1  0.258900  0.676700  0.576100  1.0  -0.7457
  O  O331  1  0.536400  0.616800  0.717600  1.0  -0.617
  O  O332  1  0.488300  0.576100  0.676700  1.0  -0.7514
  O  O333  1  0.616800  0.536400  0.129200  1.0  -0.6184
  O  O334  1  0.576100  0.488300  0.258900  1.0  -0.7548
  O  O335  1  0.717600  0.129200  0.536400  1.0  -0.6187
  O  O336  1  0.676700  0.258900  0.488300  1.0  -0.7558
  O  O337  1  0.196400  0.601200  0.601200  1.0  -0.9082
  O  O338  1  0.601200  0.196400  0.601200  1.0  -0.9084
  O  O339  1  0.601200  0.601200  0.196400  1.0  -0.905
  O  O340  1  0.601200  0.601200  0.601200  1.0  -0.9058
  O  O341  1  0.337500  0.483100  0.483100  1.0  -0.577
  O  O342  1  0.238700  0.495900  0.495900  1.0  -0.5739
  O  O343  1  0.483100  0.337500  0.696300  1.0  -0.5776
  O  O344  1  0.495900  0.238700  0.769500  1.0  -0.5699
  O  O345  1  0.483100  0.696300  0.337500  1.0  -0.5783
  O  O346  1  0.495900  0.769500  0.238700  1.0  -0.5789
  O  O347  1  0.696300  0.483100  0.483100  1.0  -0.5776
  O  O348  1  0.769500  0.495900  0.495900  1.0  -0.5637
  O  O349  1  0.337500  0.483100  0.696300  1.0  -0.5781
  O  O350  1  0.238700  0.495900  0.769500  1.0  -0.5714
  O  O351  1  0.483100  0.696300  0.483100  1.0  -0.5783
  O  O352  1  0.495900  0.769500  0.495900  1.0  -0.5804
  O  O353  1  0.483100  0.337500  0.483100  1.0  -0.5779
  O  O354  1  0.495900  0.238700  0.495900  1.0  -0.5755
  O  O355  1  0.696300  0.483100  0.337500  1.0  -0.578
  O  O356  1  0.769500  0.495900  0.238700  1.0  -0.5652
  O  O357  1  0.337500  0.696300  0.483100  1.0  -0.5662
  O  O358  1  0.238700  0.769500  0.495900  1.0  -0.5769
  O  O359  1  0.483100  0.483100  0.337500  1.0  -0.5799
  O  O360  1  0.495900  0.495900  0.238700  1.0  -0.578
  O  O361  1  0.483100  0.483100  0.696300  1.0  -0.5804
  O  O362  1  0.495900  0.495900  0.769500  1.0  -0.5765
  O  O363  1  0.696300  0.337500  0.483100  1.0  -0.5765
  O  O364  1  0.769500  0.238700  0.495900  1.0  -0.5688
