# generated using pymatgen
data_Na4Ni2H3C15(N3O7)2
_symmetry_space_group_name_H-M   'P 1'
_cell_length_a   16.44100000
_cell_length_b   16.53900000
_cell_length_c   17.32920000
_cell_angle_alpha   118.50300000
_cell_angle_beta   118.31900000
_cell_angle_gamma   90.00000000
_symmetry_Int_Tables_number   1
_chemical_formula_structural   Na4Ni2H3C15(N3O7)2
_chemical_formula_sum   'Na16 Ni8 H12 C60 N24 O56'
_cell_volume   3485.81662927
_cell_formula_units_Z   4
loop_
 _symmetry_equiv_pos_site_id
 _symmetry_equiv_pos_as_xyz
  1  'x, y, z'
loop_
 _atom_site_type_symbol
 _atom_site_label
 _atom_site_symmetry_multiplicity
 _atom_site_fract_x
 _atom_site_fract_y
 _atom_site_fract_z
 _atom_site_occupancy
 _atom_site_charge
  Na  Na1  1  0.377790  0.687590  0.385580  1.0  0.998
  Na  Na2  1  0.491550  0.474650  0.383700  1.0  0.9508
  Na  Na3  1  0.597200  0.674800  0.380200  1.0  0.9192
  Na  Na4  1  0.881460  0.486760  0.373720  1.0  0.9542
  Na  Na5  1  0.007790  0.697990  0.385580  1.0  0.9974
  Na  Na6  1  0.892150  0.909050  0.383700  1.0  0.9502
  Na  Na7  1  0.783000  0.705400  0.380200  1.0  0.9228
  Na  Na8  1  0.492260  0.886960  0.373720  1.0  0.9556
  Na  Na9  1  0.622210  0.302010  0.614420  1.0  0.9973
  Na  Na10  1  0.508450  0.090950  0.616300  1.0  0.9503
  Na  Na11  1  0.402800  0.294600  0.619800  1.0  0.9224
  Na  Na12  1  0.118540  0.113040  0.626280  1.0  0.9564
  Na  Na13  1  0.992210  0.312410  0.614420  1.0  0.9974
  Na  Na14  1  0.107850  0.525350  0.616300  1.0  0.9507
  Na  Na15  1  0.217000  0.325200  0.619800  1.0  0.9232
  Na  Na16  1  0.507740  0.513240  0.626280  1.0  0.9622
  Ni  Ni17  1  0.930340  0.315430  0.243160  1.0  0.9038
  Ni  Ni18  1  0.310040  0.304930  0.245240  1.0  0.888
  Ni  Ni19  1  0.312820  0.927730  0.243160  1.0  0.9021
  Ni  Ni20  1  0.935200  0.940310  0.245240  1.0  0.8876
  Ni  Ni21  1  0.069660  0.072270  0.756840  1.0  0.9021
  Ni  Ni22  1  0.689960  0.059690  0.754760  1.0  0.89
  Ni  Ni23  1  0.687180  0.684570  0.756840  1.0  0.9038
  Ni  Ni24  1  0.064800  0.695070  0.754760  1.0  0.8885
  H  H25  1  0.114400  0.221200  0.241600  1.0  0.0819
  H  H26  1  0.100000  0.178500  0.000800  1.0  0.089
  H  H27  1  0.749000  0.929700  0.869000  1.0  0.0787
  H  H28  1  0.127200  0.020400  0.241600  1.0  0.0816
  H  H29  1  0.900800  0.822300  0.000800  1.0  0.0902
  H  H30  1  0.120000  0.939300  0.869000  1.0  0.0782
  H  H31  1  0.885600  0.979600  0.758400  1.0  0.0805
  H  H32  1  0.900000  0.177700  0.999200  1.0  0.0915
  H  H33  1  0.251000  0.060700  0.131000  1.0  0.0779
  H  H34  1  0.872800  0.778800  0.758400  1.0  0.083
  H  H35  1  0.099200  0.821500  0.999200  1.0  0.0902
  H  H36  1  0.880000  0.070300  0.131000  1.0  0.0781
  C  C37  1  0.178800  0.412600  0.272800  1.0  0.0204
  C  C38  1  0.095600  0.416300  0.274400  1.0  -0.0082
  C  C39  1  0.121400  0.281800  0.251400  1.0  0.3432
  C  C40  1  0.249100  0.476900  0.279000  1.0  0.7
  C  C41  1  0.037300  0.484200  0.285000  1.0  0.7131
  C  C42  1  0.252200  0.188600  0.950800  1.0  0.0149
  C  C43  1  0.156200  0.189000  0.001800  1.0  0.327
  C  C44  1  0.272300  0.164100  0.867400  1.0  0.7087
  C  C45  1  0.609900  0.773000  0.640200  1.0  -0.0268
  C  C46  1  0.613500  0.856400  0.640400  1.0  0.0037
  C  C47  1  0.706100  0.893400  0.797000  1.0  0.326
  C  C48  1  0.562000  0.666667  0.560600  1.0  0.6985
  C  C49  1  0.565200  0.878900  0.557600  1.0  0.6979
  C  C50  1  0.306300  0.235300  0.057400  1.0  -0.0186
  C  C51  1  0.410600  0.275300  0.138800  1.0  0.7217
  C  C52  1  0.094000  0.860200  0.272800  1.0  0.0204
  C  C53  1  0.178800  0.858100  0.274400  1.0  -0.0082
  C  C54  1  0.130000  0.969600  0.251400  1.0  0.3405
  C  C55  1  0.029900  0.802100  0.279000  1.0  0.6981
  C  C56  1  0.247700  0.800800  0.285000  1.0  0.7139
  C  C57  1  0.698600  0.762200  0.950800  1.0  0.0148
  C  C58  1  0.845600  0.812800  0.001800  1.0  0.3267
  C  C59  1  0.595100  0.703300  0.867400  1.0  0.7046
  C  C60  1  0.030300  0.867200  0.640200  1.0  -0.0266
  C  C61  1  0.026900  0.784000  0.640400  1.0  0.0049
  C  C62  1  0.090900  0.903600  0.797000  1.0  0.3265
  C  C63  1  0.998600  0.893900  0.560600  1.0  0.699
  C  C64  1  0.992400  0.678700  0.557600  1.0  0.6976
  C  C65  1  0.751100  0.822100  0.057400  1.0  -0.0164
  C  C66  1  0.728200  0.863500  0.138800  1.0  0.7187
  C  C67  1  0.821200  0.139800  0.727200  1.0  0.0201
  C  C68  1  0.904400  0.141900  0.725600  1.0  -0.0078
  C  C69  1  0.878600  0.030400  0.748600  1.0  0.3414
  C  C70  1  0.750900  0.197900  0.721000  1.0  0.6958
  C  C71  1  0.962700  0.199200  0.715000  1.0  0.7144
  C  C72  1  0.747800  0.237800  0.049200  1.0  0.0158
  C  C73  1  0.843800  0.187200  0.998200  1.0  0.3267
  C  C74  1  0.727700  0.296700  0.132600  1.0  0.7058
  C  C75  1  0.390100  0.132800  0.359800  1.0  -0.0266
  C  C76  1  0.386500  0.216000  0.359600  1.0  0.0029
  C  C77  1  0.293900  0.096400  0.203000  1.0  0.3251
  C  C78  1  0.438000  0.106100  0.439400  1.0  0.6988
  C  C79  1  0.434800  0.321300  0.442400  1.0  0.6967
  C  C80  1  0.693700  0.177900  0.942600  1.0  -0.0177
  C  C81  1  0.589400  0.136500  0.861200  1.0  0.7182
  C  C82  1  0.906000  0.587400  0.727200  1.0  0.0197
  C  C83  1  0.821200  0.583700  0.725600  1.0  -0.0086
  C  C84  1  0.870000  0.718200  0.748600  1.0  0.342
  C  C85  1  0.970100  0.523100  0.721000  1.0  0.6971
  C  C86  1  0.752300  0.515800  0.715000  1.0  0.715
  C  C87  1  0.301400  0.811400  0.049200  1.0  0.0141
  C  C88  1  0.154400  0.811000  0.998200  1.0  0.3273
  C  C89  1  0.404900  0.835900  0.132600  1.0  0.7079
  C  C90  1  0.969700  0.227000  0.359800  1.0  -0.0253
  C  C91  1  0.973100  0.143600  0.359600  1.0  0.0055
  C  C92  1  0.909100  0.106600  0.203000  1.0  0.3258
  C  C93  1  0.001400  0.333333  0.439400  1.0  0.6991
  C  C94  1  0.007600  0.121100  0.442400  1.0  0.6982
  C  C95  1  0.248900  0.764700  0.942600  1.0  -0.0193
  C  C96  1  0.271800  0.724700  0.861200  1.0  0.7195
  N  N97  1  0.195500  0.327100  0.258000  1.0  -0.4833
  N  N98  1  0.060300  0.331600  0.259800  1.0  -0.3624
  N  N99  1  0.157300  0.158200  0.913600  1.0  -0.4521
  N  N100  1  0.670400  0.797900  0.741600  1.0  -0.4351
  N  N101  1  0.674800  0.931100  0.740400  1.0  -0.3487
  N  N102  1  0.242200  0.234700  0.087600  1.0  -0.3529
  N  N103  1  0.062500  0.930900  0.258000  1.0  -0.4818
  N  N104  1  0.199500  0.928200  0.259800  1.0  -0.3632
  N  N105  1  0.756300  0.755400  0.913600  1.0  -0.4521
  N  N106  1  0.071200  0.943700  0.741600  1.0  -0.4351
  N  N107  1  0.065600  0.809300  0.740400  1.0  -0.3475
  N  N108  1  0.845400  0.852900  0.087600  1.0  -0.353
  N  N109  1  0.804500  0.069100  0.742000  1.0  -0.4839
  N  N110  1  0.939700  0.071800  0.740200  1.0  -0.3613
  N  N111  1  0.842700  0.244600  0.086400  1.0  -0.4521
  N  N112  1  0.329600  0.056300  0.258400  1.0  -0.4364
  N  N113  1  0.325200  0.190700  0.259600  1.0  -0.3472
  N  N114  1  0.757800  0.147100  0.912400  1.0  -0.3531
  N  N115  1  0.937500  0.672900  0.742000  1.0  -0.4836
  N  N116  1  0.800500  0.668400  0.740200  1.0  -0.3619
  N  N117  1  0.243700  0.841800  0.086400  1.0  -0.452
  N  N118  1  0.928800  0.202100  0.258400  1.0  -0.4344
  N  N119  1  0.934400  0.068900  0.259600  1.0  -0.3484
  N  N120  1  0.154600  0.765300  0.912400  1.0  -0.3537
  O  O121  1  0.315190  0.442690  0.267580  1.0  -0.6396
  O  O122  1  0.241000  0.554100  0.290600  1.0  -0.5911
  O  O123  1  0.955900  0.453000  0.267400  1.0  -0.6338
  O  O124  1  0.068400  0.570100  0.314000  1.0  -0.6144
  O  O125  1  0.203700  0.104400  0.774400  1.0  -0.66
  O  O126  1  0.353500  0.196500  0.890200  1.0  -0.4784
  O  O127  1  0.582900  0.613100  0.594000  1.0  -0.7082
  O  O128  1  0.505700  0.637400  0.465800  1.0  -0.6937
  O  O129  1  0.428700  0.313500  0.230000  1.0  -0.6023
  O  O130  1  0.471400  0.271000  0.118400  1.0  -0.47
  O  O131  1  0.588590  0.967590  0.590980  1.0  -0.6908
  O  O132  1  0.510200  0.815300  0.463800  1.0  -0.6838
  O  O133  1  0.593900  0.498400  0.328400  1.0  -0.5967
  O  O134  1  0.521600  0.735500  0.256400  1.0  -0.5902
  O  O135  1  0.952390  0.824890  0.267580  1.0  -0.642
  O  O136  1  0.049600  0.736500  0.290600  1.0  -0.591
  O  O137  1  0.311500  0.814400  0.267400  1.0  -0.6339
  O  O138  1  0.245600  0.743900  0.314000  1.0  -0.6165
  O  O139  1  0.570700  0.670000  0.774400  1.0  -0.6566
  O  O140  1  0.536700  0.693700  0.890200  1.0  -0.4792
  O  O141  1  0.011100  0.980900  0.594000  1.0  -0.7062
  O  O142  1  0.960100  0.828400  0.465800  1.0  -0.6917
  O  O143  1  0.801300  0.916500  0.230000  1.0  -0.6035
  O  O144  1  0.647000  0.847400  0.118400  1.0  -0.4707
  O  O145  1  0.002390  0.623390  0.590980  1.0  -0.6928
  O  O146  1  0.953600  0.648500  0.463800  1.0  -0.6837
  O  O147  1  0.734500  0.830000  0.328400  1.0  -0.5957
  O  O148  1  0.734800  0.520900  0.256400  1.0  -0.5907
  O  O149  1  0.684810  0.175110  0.732420  1.0  -0.642
  O  O150  1  0.759000  0.263500  0.709400  1.0  -0.5915
  O  O151  1  0.044100  0.185600  0.732600  1.0  -0.6334
  O  O152  1  0.931600  0.256100  0.686000  1.0  -0.6166
  O  O153  1  0.796300  0.330000  0.225600  1.0  -0.658
  O  O154  1  0.646500  0.306300  0.109800  1.0  -0.482
  O  O155  1  0.417100  0.019100  0.406000  1.0  -0.707
  O  O156  1  0.494300  0.171600  0.534200  1.0  -0.6929
  O  O157  1  0.571300  0.083500  0.770000  1.0  -0.602
  O  O158  1  0.528600  0.152600  0.881600  1.0  -0.4671
  O  O159  1  0.411410  0.376610  0.409020  1.0  -0.6946
  O  O160  1  0.489800  0.351500  0.536200  1.0  -0.6842
  O  O161  1  0.406100  0.170000  0.671600  1.0  -0.5976
  O  O162  1  0.478400  0.479100  0.743600  1.0  -0.5911
  O  O163  1  0.047610  0.557310  0.732420  1.0  -0.6394
  O  O164  1  0.950400  0.445900  0.709400  1.0  -0.5908
  O  O165  1  0.688500  0.547000  0.732600  1.0  -0.6323
  O  O166  1  0.754400  0.429900  0.686000  1.0  -0.6117
  O  O167  1  0.429300  0.895600  0.225600  1.0  -0.6576
  O  O168  1  0.463300  0.803500  0.109800  1.0  -0.4791
  O  O169  1  0.988900  0.386900  0.406000  1.0  -0.7047
  O  O170  1  0.039900  0.362600  0.534200  1.0  -0.6908
  O  O171  1  0.198700  0.686500  0.770000  1.0  -0.6025
  O  O172  1  0.353000  0.729000  0.881600  1.0  -0.4665
  O  O173  1  0.997610  0.032410  0.409020  1.0  -0.6927
  O  O174  1  0.046400  0.184700  0.536200  1.0  -0.6812
  O  O175  1  0.265500  0.501600  0.671600  1.0  -0.5958
  O  O176  1  0.265200  0.264500  0.743600  1.0  -0.5909
