# generated using pymatgen
data_MnH12C20S2(N2O3)2
_symmetry_space_group_name_H-M   'P 1'
_cell_length_a   9.31600000
_cell_length_b   11.91700000
_cell_length_c   25.51500000
_cell_angle_alpha   90.00000000
_cell_angle_beta   94.66300000
_cell_angle_gamma   90.00000000
_symmetry_Int_Tables_number   1
_chemical_formula_structural   MnH12C20S2(N2O3)2
_chemical_formula_sum   'Mn4 H48 C80 S8 N16 O24'
_cell_volume   2823.26817831
_cell_formula_units_Z   4
loop_
 _symmetry_equiv_pos_site_id
 _symmetry_equiv_pos_as_xyz
  1  'x, y, z'
loop_
 _atom_site_type_symbol
 _atom_site_label
 _atom_site_symmetry_multiplicity
 _atom_site_fract_x
 _atom_site_fract_y
 _atom_site_fract_z
 _atom_site_occupancy
 _atom_site_charge
  Mn  Mn1  1  0.555670  0.919430  0.978740  1.0  1.1272
  Mn  Mn2  1  0.073560  0.600550  0.294050  1.0  1.1715
  Mn  Mn3  1  0.555670  0.080570  0.478740  1.0  1.1272
  Mn  Mn4  1  0.073560  0.399450  0.794050  1.0  1.174
  H  H5  1  0.381100  0.312200  0.007900  1.0  0.1047
  H  H6  1  0.522400  0.452700  0.050500  1.0  0.1308
  H  H7  1  0.760400  0.481300  0.026200  1.0  0.1169
  H  H8  1  0.706300  0.236700  0.916600  1.0  0.1128
  H  H9  1  0.914400  0.254200  0.047700  1.0  0.1214
  H  H10  1  0.945700  0.235600  0.139100  1.0  0.0979
  H  H11  1  0.058500  0.370200  0.191300  1.0  0.1152
  H  H12  1  0.155400  0.540200  0.059700  1.0  0.1197
  H  H13  1  0.368100  0.562000  0.957000  1.0  0.1302
  H  H14  1  0.577000  0.620700  0.918000  1.0  0.1264
  H  H15  1  0.579500  0.593000  0.823100  1.0  0.1158
  H  H16  1  0.391800  0.503300  0.778000  1.0  0.0939
  H  H17  1  0.879300  0.974800  0.508300  1.0  0.0988
  H  H18  1  0.082600  0.921400  0.468800  1.0  0.1249
  H  H19  1  0.082700  0.925200  0.376900  1.0  0.1146
  H  H20  1  0.882300  0.006100  0.326800  1.0  0.1195
  H  H21  1  0.239400  0.004200  0.240700  1.0  0.1292
  H  H22  1  0.001800  0.021800  0.204000  1.0  0.1163
  H  H23  1  0.856400  0.163300  0.230200  1.0  0.107
  H  H24  1  0.170300  0.276600  0.333333  1.0  0.106
  H  H25  1  0.632600  0.995600  0.214500  1.0  0.1343
  H  H26  1  0.518900  0.177900  0.081900  1.0  0.1147
  H  H27  1  0.399300  0.305600  0.133300  1.0  0.0967
  H  H28  1  0.377000  0.277600  0.222000  1.0  0.1233
  H  H29  1  0.381100  0.687800  0.507900  1.0  0.1054
  H  H30  1  0.522400  0.547300  0.550500  1.0  0.1306
  H  H31  1  0.760400  0.518700  0.526200  1.0  0.1167
  H  H32  1  0.706300  0.763300  0.416600  1.0  0.1122
  H  H33  1  0.914400  0.745800  0.547700  1.0  0.1221
  H  H34  1  0.945700  0.764400  0.639100  1.0  0.0982
  H  H35  1  0.058500  0.629800  0.691300  1.0  0.1152
  H  H36  1  0.155400  0.459800  0.559700  1.0  0.1202
  H  H37  1  0.368100  0.438000  0.457000  1.0  0.1302
  H  H38  1  0.577000  0.379300  0.418000  1.0  0.1266
  H  H39  1  0.579500  0.407000  0.323100  1.0  0.1165
  H  H40  1  0.391800  0.496700  0.278000  1.0  0.0934
  H  H41  1  0.879300  0.025200  0.008300  1.0  0.0987
  H  H42  1  0.082600  0.078600  0.968800  1.0  0.1245
  H  H43  1  0.082700  0.074800  0.876900  1.0  0.1144
  H  H44  1  0.882300  0.993900  0.826800  1.0  0.1195
  H  H45  1  0.239400  0.995800  0.740700  1.0  0.1294
  H  H46  1  0.001800  0.978200  0.704000  1.0  0.1169
  H  H47  1  0.856400  0.836700  0.730200  1.0  0.1071
  H  H48  1  0.170300  0.723400  0.833300  1.0  0.1061
  H  H49  1  0.632600  0.004400  0.714500  1.0  0.1368
  H  H50  1  0.518900  0.822100  0.581900  1.0  0.1151
  H  H51  1  0.399300  0.694400  0.633300  1.0  0.0964
  H  H52  1  0.377000  0.722400  0.722000  1.0  0.1234
  C  C53  1  0.525200  0.265900  0.956000  1.0  -0.2184
  C  C54  1  0.474700  0.327000  0.997400  1.0  -0.014
  C  C55  1  0.558800  0.409200  0.023400  1.0  -0.1032
  C  C56  1  0.701000  0.426500  0.008300  1.0  -0.0966
  C  C57  1  0.754100  0.366000  0.968500  1.0  -0.0158
  C  C58  1  0.668300  0.282100  0.942700  1.0  -0.0278
  C  C59  1  0.897700  0.384300  0.951900  1.0  0.1776
  C  C60  1  0.021900  0.413200  0.986500  1.0  0.2196
  C  C61  1  0.030300  0.400400  0.044100  1.0  -0.0662
  C  C62  1  0.967500  0.308900  0.068200  1.0  -0.1323
  C  C63  1  0.984400  0.299600  0.123100  1.0  -0.0621
  C  C64  1  0.053300  0.377400  0.154100  1.0  -0.0537
  C  C65  1  0.118500  0.471000  0.130200  1.0  -0.2317
  C  C66  1  0.108800  0.479900  0.075700  1.0  -0.0358
  C  C67  1  0.139900  0.452800  0.913500  1.0  0.3559
  C  C68  1  0.267900  0.497200  0.889200  1.0  0.1681
  C  C69  1  0.377200  0.550500  0.920600  1.0  -0.1197
  C  C70  1  0.498700  0.586200  0.897900  1.0  -0.024
  C  C71  1  0.500200  0.567800  0.841200  1.0  -0.1339
  C  C72  1  0.388000  0.514900  0.814700  1.0  0.1837
  C  C73  1  0.879200  0.980400  0.471200  1.0  0.1671
  C  C74  1  0.000400  0.947400  0.447900  1.0  -0.1449
  C  C75  1  0.002100  0.952500  0.393600  1.0  -0.02
  C  C76  1  0.883200  0.998400  0.363800  1.0  -0.1037
  C  C77  1  0.767100  0.032000  0.390800  1.0  0.1742
  C  C78  1  0.636200  0.077000  0.361800  1.0  0.3844
  C  C79  1  0.506700  0.113700  0.284700  1.0  0.2481
  C  C80  1  0.382400  0.131200  0.313600  1.0  0.2016
  C  C81  1  0.237000  0.143900  0.290400  1.0  -0.0128
  C  C82  1  0.180400  0.063500  0.251500  1.0  -0.102
  C  C83  1  0.038600  0.073800  0.229900  1.0  -0.0807
  C  C84  1  0.952400  0.157400  0.245600  1.0  -0.0068
  C  C85  1  0.000700  0.232300  0.282700  1.0  -0.1892
  C  C86  1  0.139800  0.225400  0.306200  1.0  -0.0367
  C  C87  1  0.504200  0.130100  0.226600  1.0  -0.0494
  C  C88  1  0.582200  0.057000  0.197900  1.0  -0.0574
  C  C89  1  0.585100  0.076300  0.143000  1.0  -0.2303
  C  C90  1  0.516700  0.166300  0.118700  1.0  -0.067
  C  C91  1  0.442900  0.241300  0.149800  1.0  -0.0748
  C  C92  1  0.430600  0.227100  0.202300  1.0  -0.1107
  C  C93  1  0.525200  0.734100  0.456000  1.0  -0.2179
  C  C94  1  0.474700  0.673000  0.497400  1.0  -0.0147
  C  C95  1  0.558800  0.590800  0.523400  1.0  -0.1039
  C  C96  1  0.701000  0.573500  0.508300  1.0  -0.0967
  C  C97  1  0.754100  0.634000  0.468500  1.0  -0.0161
  C  C98  1  0.668300  0.717900  0.442700  1.0  -0.0277
  C  C99  1  0.897700  0.615700  0.451900  1.0  0.1778
  C  C100  1  0.021900  0.586800  0.486500  1.0  0.2203
  C  C101  1  0.030300  0.599600  0.544100  1.0  -0.0664
  C  C102  1  0.967500  0.691100  0.568200  1.0  -0.1333
  C  C103  1  0.984400  0.700400  0.623100  1.0  -0.0621
  C  C104  1  0.053300  0.622600  0.654100  1.0  -0.0535
  C  C105  1  0.118500  0.529000  0.630200  1.0  -0.2335
  C  C106  1  0.108800  0.520100  0.575700  1.0  -0.0364
  C  C107  1  0.139900  0.547200  0.413500  1.0  0.3563
  C  C108  1  0.267900  0.502800  0.389200  1.0  0.1681
  C  C109  1  0.377200  0.449500  0.420600  1.0  -0.1206
  C  C110  1  0.498700  0.413800  0.397900  1.0  -0.0238
  C  C111  1  0.500200  0.432200  0.341200  1.0  -0.1343
  C  C112  1  0.388000  0.485100  0.314700  1.0  0.184
  C  C113  1  0.879200  0.019600  0.971200  1.0  0.1666
  C  C114  1  0.000400  0.052600  0.947900  1.0  -0.1453
  C  C115  1  0.002100  0.047500  0.893600  1.0  -0.0198
  C  C116  1  0.883200  0.001600  0.863800  1.0  -0.104
  C  C117  1  0.767100  0.968000  0.890800  1.0  0.1738
  C  C118  1  0.636200  0.923000  0.861800  1.0  0.3843
  C  C119  1  0.506700  0.886300  0.784700  1.0  0.2479
  C  C120  1  0.382400  0.868800  0.813600  1.0  0.2009
  C  C121  1  0.237000  0.856100  0.790400  1.0  -0.0124
  C  C122  1  0.180400  0.936500  0.751500  1.0  -0.1002
  C  C123  1  0.038600  0.926200  0.729900  1.0  -0.0805
  C  C124  1  0.952400  0.842600  0.745600  1.0  -0.0069
  C  C125  1  0.000700  0.767700  0.782700  1.0  -0.1853
  C  C126  1  0.139800  0.774600  0.806200  1.0  -0.0402
  C  C127  1  0.504200  0.869900  0.726600  1.0  -0.0496
  C  C128  1  0.582200  0.943000  0.697900  1.0  -0.0563
  C  C129  1  0.585100  0.923700  0.643000  1.0  -0.2221
  C  C130  1  0.516700  0.833700  0.618700  1.0  -0.0674
  C  C131  1  0.442900  0.758700  0.649800  1.0  -0.0736
  C  C132  1  0.430600  0.772900  0.702300  1.0  -0.1054
  S  S133  1  0.417400  0.162100  0.923170  1.0  1.36
  S  S134  1  0.220600  0.567100  0.169480  1.0  1.4039
  S  S135  1  0.687300  0.983800  0.105830  1.0  1.3749
  S  S136  1  0.889800  0.344100  0.301830  1.0  1.4211
  S  S137  1  0.417400  0.837900  0.423170  1.0  1.3608
  S  S138  1  0.220600  0.432900  0.669480  1.0  1.4025
  S  S139  1  0.687300  0.016200  0.605830  1.0  1.3758
  S  S140  1  0.889800  0.655900  0.801830  1.0  1.4211
  N  N141  1  0.912400  0.374000  0.900600  1.0  -0.1523
  N  N142  1  0.038100  0.401900  0.881200  1.0  -0.2672
  N  N143  1  0.140000  0.453800  0.966500  1.0  -0.3729
  N  N144  1  0.272300  0.477900  0.837100  1.0  -0.3637
  N  N145  1  0.530700  0.114700  0.391100  1.0  -0.2901
  N  N146  1  0.399800  0.139500  0.365100  1.0  -0.1835
  N  N147  1  0.628800  0.083500  0.309100  1.0  -0.3447
  N  N148  1  0.758700  0.020700  0.443300  1.0  -0.394
  N  N149  1  0.912400  0.626000  0.400600  1.0  -0.1519
  N  N150  1  0.038100  0.598100  0.381200  1.0  -0.2675
  N  N151  1  0.140000  0.546200  0.466500  1.0  -0.3745
  N  N152  1  0.272300  0.522100  0.337100  1.0  -0.3646
  N  N153  1  0.530700  0.885300  0.891100  1.0  -0.2901
  N  N154  1  0.399800  0.860500  0.865100  1.0  -0.1829
  N  N155  1  0.628800  0.916500  0.809100  1.0  -0.3442
  N  N156  1  0.758700  0.979300  0.943300  1.0  -0.3935
  O  O157  1  0.419600  0.067000  0.959700  1.0  -0.6944
  O  O158  1  0.271400  0.211600  0.914200  1.0  -0.6555
  O  O159  1  0.481300  0.135300  0.874800  1.0  -0.6344
  O  O160  1  0.161700  0.569100  0.219500  1.0  -0.7268
  O  O161  1  0.202300  0.671700  0.142700  1.0  -0.6122
  O  O162  1  0.366800  0.523800  0.174400  1.0  -0.6394
  O  O163  1  0.885200  0.336600  0.355200  1.0  -0.6372
  O  O164  1  0.752600  0.330900  0.271500  1.0  -0.6418
  O  O165  1  0.960200  0.444000  0.286900  1.0  -0.7282
  O  O166  1  0.683800  0.876000  0.127900  1.0  -0.6117
  O  O167  1  0.617800  0.990900  0.052300  1.0  -0.7178
  O  O168  1  0.835300  0.024300  0.109800  1.0  -0.6388
  O  O169  1  0.419600  0.933000  0.459700  1.0  -0.6947
  O  O170  1  0.271400  0.788400  0.414200  1.0  -0.6552
  O  O171  1  0.481300  0.864700  0.374800  1.0  -0.634
  O  O172  1  0.161700  0.430900  0.719500  1.0  -0.7268
  O  O173  1  0.202300  0.328300  0.642700  1.0  -0.5922
  O  O174  1  0.366800  0.476200  0.674400  1.0  -0.6399
  O  O175  1  0.885200  0.663400  0.855200  1.0  -0.6373
  O  O176  1  0.752600  0.669100  0.771500  1.0  -0.6411
  O  O177  1  0.960200  0.556000  0.786900  1.0  -0.7282
  O  O178  1  0.683800  0.124000  0.627900  1.0  -0.6146
  O  O179  1  0.617800  0.009100  0.552300  1.0  -0.717
  O  O180  1  0.835300  0.975700  0.609800  1.0  -0.6383
