# generated using pymatgen
data_CuPH4C5NO3
_symmetry_space_group_name_H-M   'P 1'
_cell_length_a   7.50740000
_cell_length_b   9.20120000
_cell_length_c   11.61390000
_cell_angle_alpha   100.36800000
_cell_angle_beta   104.66500000
_cell_angle_gamma   94.69100000
_symmetry_Int_Tables_number   1
_chemical_formula_structural   CuPH4C5NO3
_chemical_formula_sum   'Cu4 P4 H16 C20 N4 O12'
_cell_volume   756.58020996
_cell_formula_units_Z   4
loop_
 _symmetry_equiv_pos_site_id
 _symmetry_equiv_pos_as_xyz
  1  'x, y, z'
loop_
 _atom_site_type_symbol
 _atom_site_label
 _atom_site_symmetry_multiplicity
 _atom_site_fract_x
 _atom_site_fract_y
 _atom_site_fract_z
 _atom_site_occupancy
 _atom_site_charge
  Cu  Cu1  1  0.839500  0.878800  0.488160  1.0  0.9857
  Cu  Cu2  1  0.358700  0.924740  0.278530  1.0  0.9485
  Cu  Cu3  1  0.160500  0.121200  0.511840  1.0  0.9859
  Cu  Cu4  1  0.641300  0.075260  0.721470  1.0  0.9496
  P  P5  1  0.646800  0.163900  0.475900  1.0  1.4494
  P  P6  1  0.965500  0.919700  0.260900  1.0  1.4434
  P  P7  1  0.353200  0.836100  0.524100  1.0  1.4493
  P  P8  1  0.034500  0.080300  0.739100  1.0  1.4441
  H  H9  1  0.685000  0.441900  0.652000  1.0  0.1278
  H  H10  1  0.761200  0.691200  0.650600  1.0  0.0848
  H  H11  1  0.834900  0.587100  0.325500  1.0  0.1088
  H  H12  1  0.765300  0.338100  0.319400  1.0  0.1012
  H  H13  1  0.917700  0.183800  0.162500  1.0  0.1141
  H  H14  1  0.790100  0.232600  0.973600  1.0  0.097
  H  H15  1  0.600500  0.812900  0.840300  1.0  0.0854
  H  H16  1  0.720700  0.753800  0.025500  1.0  0.1143
  H  H17  1  0.315000  0.558100  0.348000  1.0  0.1279
  H  H18  1  0.238800  0.308800  0.349400  1.0  0.0843
  H  H19  1  0.165100  0.412900  0.674500  1.0  0.1081
  H  H20  1  0.234700  0.661900  0.680600  1.0  0.1009
  H  H21  1  0.082300  0.816200  0.837500  1.0  0.1143
  H  H22  1  0.209900  0.767400  0.026400  1.0  0.0969
  H  H23  1  0.399500  0.187100  0.159700  1.0  0.0852
  H  H24  1  0.279300  0.246200  0.974500  1.0  0.1149
  C  C25  1  0.716200  0.359000  0.483800  1.0  -0.2601
  C  C26  1  0.714900  0.468600  0.584900  1.0  -0.0993
  C  C27  1  0.759500  0.619100  0.582900  1.0  0.1758
  C  C28  1  0.804000  0.557500  0.391100  1.0  0.1626
  C  C29  1  0.762000  0.407600  0.387500  1.0  -0.0391
  C  C30  1  0.840400  0.961800  0.117100  1.0  -0.2278
  C  C31  1  0.856000  0.105700  0.098300  1.0  -0.0921
  C  C32  1  0.779000  0.134600  0.983900  1.0  0.1694
  C  C33  1  0.667000  0.888100  0.905400  1.0  0.1683
  C  C34  1  0.740000  0.852000  0.017000  1.0  -0.1071
  C  C35  1  0.283800  0.641000  0.516200  1.0  -0.2593
  C  C36  1  0.285100  0.531400  0.415100  1.0  -0.0993
  C  C37  1  0.240500  0.380900  0.417100  1.0  0.1754
  C  C38  1  0.196000  0.442500  0.608900  1.0  0.1621
  C  C39  1  0.238000  0.592400  0.612500  1.0  -0.0375
  C  C40  1  0.159600  0.038200  0.882900  1.0  -0.2272
  C  C41  1  0.144000  0.894300  0.901700  1.0  -0.0919
  C  C42  1  0.221000  0.865400  0.016100  1.0  0.1698
  C  C43  1  0.333000  0.111900  0.094600  1.0  0.1684
  C  C44  1  0.260000  0.148000  0.983000  1.0  -0.1078
  N  N45  1  0.799400  0.662500  0.488400  1.0  -0.329
  N  N46  1  0.690100  0.026700  0.887800  1.0  -0.3319
  N  N47  1  0.200600  0.337500  0.511600  1.0  -0.327
  N  N48  1  0.309900  0.973300  0.112200  1.0  -0.3279
  O  O49  1  0.825500  0.090900  0.493700  1.0  -0.8764
  O  O50  1  0.513700  0.112100  0.349300  1.0  -0.813
  O  O51  1  0.547800  0.156100  0.576000  1.0  -0.8356
  O  O52  1  0.819200  0.847100  0.310900  1.0  -0.7831
  O  O53  1  0.073500  0.068900  0.333900  1.0  -0.7851
  O  O54  1  0.100700  0.811700  0.231200  1.0  -0.7592
  O  O55  1  0.174500  0.909100  0.506300  1.0  -0.8765
  O  O56  1  0.486300  0.887900  0.650700  1.0  -0.8123
  O  O57  1  0.452200  0.843900  0.424000  1.0  -0.8379
  O  O58  1  0.180800  0.152900  0.689100  1.0  -0.7827
  O  O59  1  0.926500  0.931100  0.666100  1.0  -0.7862
  O  O60  1  0.899300  0.188300  0.768800  1.0  -0.7608
