# generated using pymatgen
data_La2H4C12S2NClO11
_symmetry_space_group_name_H-M   'P 1'
_cell_length_a   12.82700000
_cell_length_b   6.53660000
_cell_length_c   16.09600000
_cell_angle_alpha   90.00000000
_cell_angle_beta   90.34000000
_cell_angle_gamma   90.00000000
_symmetry_Int_Tables_number   1
_chemical_formula_structural   La2H4C12S2NClO11
_chemical_formula_sum   'La4 H8 C24 S4 N2 Cl2 O22'
_cell_volume   1349.54484652
_cell_formula_units_Z   2
loop_
 _symmetry_equiv_pos_site_id
 _symmetry_equiv_pos_as_xyz
  1  'x, y, z'
loop_
 _atom_site_type_symbol
 _atom_site_label
 _atom_site_symmetry_multiplicity
 _atom_site_fract_x
 _atom_site_fract_y
 _atom_site_fract_z
 _atom_site_occupancy
 _atom_site_charge
  La  La1  1  0.017060  0.928290  0.605850  1.0  2.1474
  La  La2  1  0.215950  0.321220  0.731330  1.0  2.1706
  La  La3  1  0.982940  0.428290  0.394150  1.0  2.1458
  La  La4  1  0.784050  0.821220  0.268670  1.0  2.1711
  H  H5  1  0.107100  0.917700  0.066200  1.0  0.1286
  H  H6  1  0.161500  0.942200  0.921100  1.0  0.1181
  H  H7  1  0.462500  0.947900  0.640200  1.0  0.1262
  H  H8  1  0.615800  0.933600  0.562500  1.0  0.1167
  H  H9  1  0.892900  0.417700  0.933800  1.0  0.1288
  H  H10  1  0.838500  0.442200  0.078900  1.0  0.1183
  H  H11  1  0.537500  0.447900  0.359800  1.0  0.1273
  H  H12  1  0.384200  0.433600  0.437500  1.0  0.116
  C  C13  1  0.261300  0.950900  0.568900  1.0  0.7472
  C  C14  1  0.897300  0.901400  0.107700  1.0  0.6935
  C  C15  1  0.060700  0.920800  0.021600  1.0  -0.0679
  C  C16  1  0.012300  0.946900  0.792900  1.0  0.7528
  C  C17  1  0.009800  0.928600  0.884300  1.0  -0.2232
  C  C18  1  0.954700  0.914300  0.030300  1.0  -0.1769
  C  C19  1  0.092400  0.932700  0.937800  1.0  -0.0289
  C  C20  1  0.530700  0.930300  0.458100  1.0  -0.1443
  C  C21  1  0.610300  0.913000  0.389000  1.0  0.6925
  C  C22  1  0.367800  0.938900  0.537600  1.0  -0.2264
  C  C23  1  0.461600  0.941600  0.582500  1.0  -0.0149
  C  C24  1  0.549400  0.934900  0.538900  1.0  -0.0734
  C  C25  1  0.738700  0.450900  0.431100  1.0  0.7469
  C  C26  1  0.102700  0.401400  0.892300  1.0  0.6918
  C  C27  1  0.939300  0.420800  0.978400  1.0  -0.0683
  C  C28  1  0.987700  0.446900  0.207100  1.0  0.7536
  C  C29  1  0.990200  0.428600  0.115700  1.0  -0.2224
  C  C30  1  0.045300  0.414300  0.969700  1.0  -0.1772
  C  C31  1  0.907600  0.432700  0.062200  1.0  -0.0281
  C  C32  1  0.469300  0.430300  0.541900  1.0  -0.1405
  C  C33  1  0.389700  0.413000  0.611000  1.0  0.6924
  C  C34  1  0.632200  0.438900  0.462400  1.0  -0.2272
  C  C35  1  0.538400  0.441600  0.417500  1.0  -0.014
  C  C36  1  0.450600  0.434900  0.461100  1.0  -0.0743
  S  S37  1  0.892990  0.914700  0.934370  1.0  0.206
  S  S38  1  0.395130  0.926400  0.434270  1.0  0.1628
  S  S39  1  0.107010  0.414700  0.065630  1.0  0.2047
  S  S40  1  0.604870  0.426400  0.565730  1.0  0.1587
  N  N41  1  0.070300  0.479400  0.599400  1.0  0.8231
  N  N42  1  0.929700  0.979400  0.400600  1.0  0.8225
  Cl  Cl43  1  0.381000  0.742000  0.887000  1.0  -0.4064
  Cl  Cl44  1  0.619000  0.242000  0.113000  1.0  -0.4026
  O  O45  1  0.086500  0.285200  0.608500  1.0  -0.7165
  O  O46  1  0.244500  0.990100  0.644600  1.0  -0.7499
  O  O47  1  0.186200  0.921800  0.518500  1.0  -0.6842
  O  O48  1  0.943900  0.914500  0.176100  1.0  -0.6351
  O  O49  1  0.797900  0.870700  0.104100  1.0  -0.6552
  O  O50  1  0.100400  0.599400  0.659100  1.0  -0.6246
  O  O51  1  0.095800  0.009600  0.757500  1.0  -0.7796
  O  O52  1  0.703900  0.931700  0.409000  1.0  -0.662
  O  O53  1  0.027500  0.556500  0.535400  1.0  -0.7007
  O  O54  1  0.932500  0.898300  0.750500  1.0  -0.6772
  O  O55  1  0.580700  0.885500  0.318400  1.0  -0.6445
  O  O56  1  0.913500  0.785200  0.391500  1.0  -0.7165
  O  O57  1  0.755500  0.490100  0.355400  1.0  -0.7471
  O  O58  1  0.813800  0.421800  0.481500  1.0  -0.6862
  O  O59  1  0.056100  0.414500  0.823900  1.0  -0.6325
  O  O60  1  0.202100  0.370700  0.895900  1.0  -0.656
  O  O61  1  0.899600  0.099400  0.340900  1.0  -0.6214
  O  O62  1  0.904200  0.509600  0.242500  1.0  -0.7792
  O  O63  1  0.296100  0.431700  0.591000  1.0  -0.661
  O  O64  1  0.972500  0.056500  0.464600  1.0  -0.6985
  O  O65  1  0.067500  0.398300  0.249500  1.0  -0.677
  O  O66  1  0.419300  0.385500  0.681600  1.0  -0.6417
