# generated using pymatgen
data_LaH12(C3O2)3
_symmetry_space_group_name_H-M   'P 1'
_cell_length_a   8.75440000
_cell_length_b   10.00370000
_cell_length_c   11.78950000
_cell_angle_alpha   74.69500000
_cell_angle_beta   69.84800000
_cell_angle_gamma   86.18200000
_symmetry_Int_Tables_number   1
_chemical_formula_structural   LaH12(C3O2)3
_chemical_formula_sum   'La2 H24 C18 O12'
_cell_volume   934.56134076
_cell_formula_units_Z   2
loop_
 _symmetry_equiv_pos_site_id
 _symmetry_equiv_pos_as_xyz
  1  'x, y, z'
loop_
 _atom_site_type_symbol
 _atom_site_label
 _atom_site_symmetry_multiplicity
 _atom_site_fract_x
 _atom_site_fract_y
 _atom_site_fract_z
 _atom_site_occupancy
 _atom_site_charge
  La  La1  1  0.254660  0.522470  0.487610  1.0  2.1536
  La  La2  1  0.745340  0.477530  0.512390  1.0  2.1551
  H  H3  1  0.766700  0.700400  0.136400  1.0  0.1301
  H  H4  1  0.793800  0.540600  0.162500  1.0  0.1152
  H  H5  1  0.626500  0.690700  0.005200  1.0  0.0694
  H  H6  1  0.627100  0.528400  0.041300  1.0  0.0726
  H  H7  1  0.913000  0.539600  0.940300  1.0  0.0655
  H  H8  1  0.904600  0.701500  0.897800  1.0  0.0684
  H  H9  1  0.756500  0.686200  0.774800  1.0  0.1238
  H  H10  1  0.736800  0.525400  0.827800  1.0  0.1343
  H  H11  1  0.275600  0.033000  0.399500  1.0  0.1161
  H  H12  1  0.240200  0.019900  0.281200  1.0  0.1188
  H  H13  1  0.021800  0.121800  0.401700  1.0  0.0686
  H  H14  1  0.964600  0.978500  0.397700  1.0  0.0691
  H  H15  1  0.233300  0.299600  0.863600  1.0  0.131
  H  H16  1  0.206200  0.459400  0.837500  1.0  0.1161
  H  H17  1  0.373500  0.309300  0.994800  1.0  0.0699
  H  H18  1  0.372900  0.471600  0.958700  1.0  0.0735
  H  H19  1  0.087000  0.460400  0.059700  1.0  0.065
  H  H20  1  0.095400  0.298500  0.102200  1.0  0.0672
  H  H21  1  0.243500  0.313800  0.225200  1.0  0.1241
  H  H22  1  0.263200  0.474600  0.172200  1.0  0.1336
  H  H23  1  0.724400  0.967000  0.600500  1.0  0.1168
  H  H24  1  0.759800  0.980100  0.718800  1.0  0.1199
  H  H25  1  0.978200  0.878200  0.598300  1.0  0.0649
  H  H26  1  0.035400  0.021500  0.602300  1.0  0.069
  C  C27  1  0.565900  0.588100  0.261000  1.0  0.7992
  C  C28  1  0.717300  0.611900  0.147500  1.0  -0.3515
  C  C29  1  0.690200  0.611200  0.026800  1.0  -0.0662
  C  C30  1  0.845100  0.615200  0.917400  1.0  -0.0626
  C  C31  1  0.811600  0.603500  0.803100  1.0  -0.3765
  C  C32  1  0.956000  0.585500  0.694500  1.0  0.7752
  C  C33  1  0.236100  0.832200  0.404600  1.0  0.7519
  C  C34  1  0.207500  0.986000  0.371400  1.0  -0.321
  C  C35  1  0.032000  0.022300  0.428800  1.0  -0.0762
  C  C36  1  0.434100  0.411900  0.739000  1.0  0.7979
  C  C37  1  0.282700  0.388100  0.852500  1.0  -0.3532
  C  C38  1  0.309800  0.388800  0.973200  1.0  -0.0661
  C  C39  1  0.154900  0.384800  0.082600  1.0  -0.064
  C  C40  1  0.188400  0.396500  0.196900  1.0  -0.3742
  C  C41  1  0.044000  0.414500  0.305500  1.0  0.7754
  C  C42  1  0.763900  0.167800  0.595400  1.0  0.752
  C  C43  1  0.792500  0.014000  0.628600  1.0  -0.3208
  C  C44  1  0.968000  0.977700  0.571200  1.0  -0.0771
  O  O45  1  0.427200  0.607400  0.250500  1.0  -0.6599
  O  O46  1  0.577300  0.546100  0.370000  1.0  -0.8623
  O  O47  1  0.098600  0.617800  0.683100  1.0  -0.6469
  O  O48  1  0.933200  0.535700  0.611780  1.0  -0.836
  O  O49  1  0.137300  0.749800  0.399500  1.0  -0.6774
  O  O50  1  0.356800  0.785500  0.437600  1.0  -0.6952
  O  O51  1  0.572800  0.392600  0.749500  1.0  -0.66
  O  O52  1  0.422700  0.453900  0.630000  1.0  -0.8621
  O  O53  1  0.901400  0.382200  0.316900  1.0  -0.6475
  O  O54  1  0.066800  0.464300  0.388220  1.0  -0.8336
  O  O55  1  0.862700  0.250200  0.600500  1.0  -0.6822
  O  O56  1  0.643200  0.214500  0.562400  1.0  -0.6906
