# generated using pymatgen
data_La2H19C28S4NO19
_symmetry_space_group_name_H-M   'P 1'
_cell_length_a   10.45880000
_cell_length_b   14.99500000
_cell_length_c   16.69900000
_cell_angle_alpha   65.44600000
_cell_angle_beta   83.48700000
_cell_angle_gamma   73.30500000
_symmetry_Int_Tables_number   1
_chemical_formula_structural   La2H19C28S4NO19
_chemical_formula_sum   'La4 H38 C56 S8 N2 O38'
_cell_volume   2281.60893260
_cell_formula_units_Z   2
loop_
 _symmetry_equiv_pos_site_id
 _symmetry_equiv_pos_as_xyz
  1  'x, y, z'
loop_
 _atom_site_type_symbol
 _atom_site_label
 _atom_site_symmetry_multiplicity
 _atom_site_fract_x
 _atom_site_fract_y
 _atom_site_fract_z
 _atom_site_occupancy
 _atom_site_charge
  La  La1  1  0.208320  0.743960  0.290510  1.0  2.1321
  La  La2  1  0.279100  0.493180  0.871030  1.0  2.2284
  La  La3  1  0.791680  0.256040  0.709490  1.0  2.1327
  La  La4  1  0.720900  0.506820  0.128970  1.0  2.2281
  H  H5  1  0.521200  0.060300  0.685800  1.0  0.3794
  H  H6  1  0.676100  0.033600  0.795000  1.0  0.348
  H  H7  1  0.801100  0.036900  0.665800  1.0  0.3625
  H  H8  1  0.434500  0.755200  0.837100  1.0  0.1094
  H  H9  1  0.639100  0.759300  0.620000  1.0  0.1146
  H  H10  1  0.366200  0.017400  0.785500  1.0  0.0972
  H  H11  1  0.308500  0.924200  0.840700  1.0  0.1028
  H  H12  1  0.690200  0.860600  0.082100  1.0  0.1073
  H  H13  1  0.382600  0.823700  0.988200  1.0  0.118
  H  H14  1  0.746600  0.061200  0.902000  1.0  0.0903
  H  H15  1  0.803500  0.981800  0.995200  1.0  0.1015
  H  H16  1  0.173700  0.806800  0.796800  1.0  0.1021
  H  H17  1  0.964300  0.821100  0.008300  1.0  0.1057
  H  H18  1  0.009000  0.049700  0.646400  1.0  0.1031
  H  H19  1  0.144300  0.965400  0.660900  1.0  0.1135
  H  H20  1  0.855500  0.814800  0.506600  1.0  0.1192
  H  H21  1  0.166400  0.835300  0.609500  1.0  0.1112
  H  H22  1  0.640000  0.928200  0.499000  1.0  0.0995
  H  H23  1  0.623000  0.019900  0.525400  1.0  0.0993
  H  H24  1  0.478800  0.939700  0.314200  1.0  0.3787
  H  H25  1  0.323900  0.966400  0.205000  1.0  0.3483
  H  H26  1  0.198900  0.963100  0.334200  1.0  0.3631
  H  H27  1  0.565500  0.244800  0.162900  1.0  0.109
  H  H28  1  0.360900  0.240700  0.380000  1.0  0.1145
  H  H29  1  0.633800  0.982600  0.214500  1.0  0.099
  H  H30  1  0.691500  0.075800  0.159300  1.0  0.1026
  H  H31  1  0.309800  0.139400  0.917900  1.0  0.1072
  H  H32  1  0.617400  0.176300  0.011800  1.0  0.1181
  H  H33  1  0.253400  0.938800  0.098000  1.0  0.0905
  H  H34  1  0.196500  0.018200  0.004800  1.0  0.1006
  H  H35  1  0.826300  0.193200  0.203200  1.0  0.1023
  H  H36  1  0.035700  0.178900  0.991700  1.0  0.1061
  H  H37  1  0.991000  0.950300  0.353600  1.0  0.1038
  H  H38  1  0.855700  0.034600  0.339100  1.0  0.1143
  H  H39  1  0.144500  0.185200  0.493400  1.0  0.119
  H  H40  1  0.833600  0.164700  0.390500  1.0  0.1111
  H  H41  1  0.360000  0.071800  0.501000  1.0  0.1
  H  H42  1  0.377000  0.980100  0.474600  1.0  0.1018
  C  C43  1  0.536300  0.743500  0.731500  1.0  -0.2191
  C  C44  1  0.470700  0.791500  0.784100  1.0  -0.0747
  C  C45  1  0.458100  0.893100  0.758800  1.0  -0.0288
  C  C46  1  0.513200  0.944600  0.678600  1.0  0.2245
  C  C47  1  0.584700  0.895600  0.627200  1.0  -0.0062
  C  C48  1  0.593800  0.793800  0.654300  1.0  -0.057
  C  C49  1  0.390200  0.944400  0.818800  1.0  -0.173
  C  C50  1  0.534900  0.830600  0.046900  1.0  -0.2497
  C  C51  1  0.637500  0.875500  0.034500  1.0  -0.0632
  C  C52  1  0.662200  0.942400  0.952100  1.0  -0.029
  C  C53  1  0.582100  0.962700  0.882900  1.0  0.229
  C  C54  1  0.476400  0.918300  0.895200  1.0  -0.0057
  C  C55  1  0.453300  0.853000  0.978200  1.0  -0.0571
  C  C56  1  0.776300  0.989100  0.938700  1.0  -0.1768
  C  C57  1  0.080300  0.798100  0.910600  1.0  -0.2427
  C  C58  1  0.103300  0.841000  0.821500  1.0  -0.07
  C  C59  1  0.023300  0.934000  0.768300  1.0  -0.0082
  C  C60  1  0.916400  0.984400  0.805700  1.0  0.2702
  C  C61  1  0.894100  0.940900  0.896400  1.0  -0.0348
  C  C62  1  0.977500  0.849100  0.947800  1.0  -0.0514
  C  C63  1  0.048800  0.976900  0.670600  1.0  -0.1791
  C  C64  1  0.023500  0.813700  0.555000  1.0  -0.216
  C  C65  1  0.889300  0.844000  0.536000  1.0  -0.0723
  C  C66  1  0.805200  0.917300  0.560400  1.0  -0.0163
  C  C67  1  0.858100  0.960500  0.603800  1.0  0.2386
  C  C68  1  0.993700  0.930800  0.622100  1.0  -0.035
  C  C69  1  0.075300  0.856500  0.597400  1.0  -0.0754
  C  C70  1  0.657200  0.946700  0.545200  1.0  -0.1935
  C  C71  1  0.463700  0.256500  0.268500  1.0  -0.2216
  C  C72  1  0.529300  0.208500  0.215900  1.0  -0.0778
  C  C73  1  0.541900  0.106900  0.241200  1.0  -0.0285
  C  C74  1  0.486800  0.055400  0.321400  1.0  0.2247
  C  C75  1  0.415300  0.104400  0.372800  1.0  -0.0055
  C  C76  1  0.406200  0.206200  0.345700  1.0  -0.057
  C  C77  1  0.609800  0.055600  0.181200  1.0  -0.1724
  C  C78  1  0.465100  0.169400  0.953100  1.0  -0.2919
  C  C79  1  0.362500  0.124500  0.965500  1.0  -0.0652
  C  C80  1  0.337800  0.057600  0.047900  1.0  -0.0315
  C  C81  1  0.417900  0.037300  0.117100  1.0  0.2297
  C  C82  1  0.523600  0.081700  0.104800  1.0  -0.0068
  C  C83  1  0.546700  0.147000  0.021800  1.0  -0.0571
  C  C84  1  0.223700  0.010900  0.061300  1.0  -0.1767
  C  C85  1  0.919700  0.201900  0.089400  1.0  -0.2484
  C  C86  1  0.896700  0.159000  0.178500  1.0  -0.0698
  C  C87  1  0.976700  0.066000  0.231700  1.0  -0.0042
  C  C88  1  0.083600  0.015600  0.194300  1.0  0.2699
  C  C89  1  0.105900  0.059100  0.103600  1.0  -0.0362
  C  C90  1  0.022500  0.150900  0.052200  1.0  -0.051
  C  C91  1  0.951200  0.023100  0.329400  1.0  -0.1799
  C  C92  1  0.976500  0.186300  0.445000  1.0  -0.2267
  C  C93  1  0.110700  0.156000  0.464000  1.0  -0.0728
  C  C94  1  0.194800  0.082700  0.439600  1.0  -0.0153
  C  C95  1  0.141900  0.039500  0.396200  1.0  0.2382
  C  C96  1  0.006300  0.069200  0.377900  1.0  -0.0318
  C  C97  1  0.924700  0.143500  0.402600  1.0  -0.0778
  C  C98  1  0.342800  0.053300  0.454800  1.0  -0.1925
  S  S99  1  0.550770  0.612980  0.767580  1.0  1.4816
  S  S100  1  0.510650  0.741600  0.151160  1.0  1.4737
  S  S101  1  0.177570  0.679250  0.978460  1.0  1.4817
  S  S102  1  0.125640  0.719190  0.524120  1.0  1.42
  S  S103  1  0.449230  0.387020  0.232420  1.0  1.4816
  S  S104  1  0.489350  0.258400  0.848840  1.0  1.478
  S  S105  1  0.822430  0.320750  0.021540  1.0  1.4808
  S  S106  1  0.874360  0.280810  0.475880  1.0  1.4276
  N  N107  1  0.946800  0.844900  0.196100  1.0  0.8237
  N  N108  1  0.053200  0.155100  0.803900  1.0  0.8256
  O  O109  1  0.622100  0.563700  0.850400  1.0  -0.7193
  O  O110  1  0.624200  0.581300  0.703200  1.0  -0.6074
  O  O111  1  0.419400  0.601200  0.778800  1.0  -0.7795
  O  O112  1  0.494500  0.047300  0.648600  1.0  -0.5268
  O  O113  1  0.593500  0.743100  0.212500  1.0  -0.6282
  O  O114  1  0.543700  0.644500  0.144300  1.0  -0.83
  O  O115  1  0.369500  0.769800  0.170200  1.0  -0.7675
  O  O116  1  0.600500  0.026200  0.799700  1.0  -0.4794
  O  O117  1  0.087600  0.625000  0.036700  1.0  -0.7322
  O  O118  1  0.245400  0.630200  0.921000  1.0  -0.8369
  O  O119  1  0.271700  0.692200  0.024800  1.0  -0.6061
  O  O120  1  0.831800  0.071800  0.754600  1.0  -0.7274
  O  O121  1  0.249100  0.682200  0.572200  1.0  -0.6873
  O  O122  1  0.056600  0.641800  0.545500  1.0  -0.6762
  O  O123  1  0.146400  0.765200  0.430100  1.0  -0.8107
  O  O124  1  0.770500  0.031700  0.625400  1.0  -0.4606
  O  O125  1  0.838900  0.879700  0.162400  1.0  -0.3941
  O  O126  1  0.956500  0.813100  0.278900  1.0  -0.5899
  O  O127  1  0.052100  0.837300  0.154100  1.0  -0.5632
  O  O128  1  0.377900  0.436300  0.149600  1.0  -0.7197
  O  O129  1  0.375800  0.418700  0.296800  1.0  -0.6337
  O  O130  1  0.580600  0.398800  0.221200  1.0  -0.7803
  O  O131  1  0.505500  0.952700  0.351400  1.0  -0.5257
  O  O132  1  0.406500  0.256900  0.787500  1.0  -0.6263
  O  O133  1  0.456300  0.355500  0.855700  1.0  -0.8284
  O  O134  1  0.630500  0.230200  0.829800  1.0  -0.7669
  O  O135  1  0.399500  0.973800  0.200300  1.0  -0.4719
  O  O136  1  0.912400  0.375000  0.963300  1.0  -0.7371
  O  O137  1  0.754600  0.369800  0.079000  1.0  -0.8334
  O  O138  1  0.728300  0.307800  0.975200  1.0  -0.6082
  O  O139  1  0.168200  0.928200  0.245400  1.0  -0.7304
  O  O140  1  0.750900  0.317800  0.427800  1.0  -0.6873
  O  O141  1  0.943400  0.358200  0.454500  1.0  -0.679
  O  O142  1  0.853600  0.234800  0.569900  1.0  -0.8093
  O  O143  1  0.229500  0.968300  0.374600  1.0  -0.4603
  O  O144  1  0.161100  0.120300  0.837600  1.0  -0.3918
  O  O145  1  0.043500  0.186900  0.721100  1.0  -0.5857
  O  O146  1  0.947900  0.162700  0.845900  1.0  -0.5632
