# generated using pymatgen
data_Cu2H36C38(NO)7
_symmetry_space_group_name_H-M   'P 1'
_cell_length_a   9.05180000
_cell_length_b   16.88460000
_cell_length_c   16.88460000
_cell_angle_alpha   94.60780000
_cell_angle_beta   92.91780000
_cell_angle_gamma   92.91780000
_symmetry_Int_Tables_number   1
_chemical_formula_structural   Cu2H36C38(NO)7
_chemical_formula_sum   'Cu4 H72 C76 N14 O14'
_cell_volume   2564.97710575
_cell_formula_units_Z   2
loop_
 _symmetry_equiv_pos_site_id
 _symmetry_equiv_pos_as_xyz
  1  'x, y, z'
loop_
 _atom_site_type_symbol
 _atom_site_label
 _atom_site_symmetry_multiplicity
 _atom_site_fract_x
 _atom_site_fract_y
 _atom_site_fract_z
 _atom_site_occupancy
 _atom_site_charge
  Cu  Cu1  1  0.126840  0.832660  0.687600  1.0  0.7921
  Cu  Cu2  1  0.373160  0.312400  0.167340  1.0  0.7938
  Cu  Cu3  1  0.873160  0.167340  0.312400  1.0  0.7953
  Cu  Cu4  1  0.626840  0.687600  0.832660  1.0  0.7921
  H  H5  1  0.087700  0.721300  0.582900  1.0  0.2882
  H  H6  1  0.020300  0.792100  0.551700  1.0  0.2698
  H  H7  1  0.863800  0.676700  0.593700  1.0  0.074
  H  H8  1  0.661000  0.759100  0.598300  1.0  0.103
  H  H9  1  0.759700  0.781700  0.526700  1.0  0.0944
  H  H10  1  0.906300  0.911100  0.537700  1.0  0.1056
  H  H11  1  0.914400  0.044400  0.589200  1.0  0.1007
  H  H12  1  0.781500  0.081300  0.696700  1.0  0.106
  H  H13  1  0.643400  0.988000  0.757400  1.0  0.0937
  H  H14  1  0.636900  0.855400  0.711200  1.0  0.1016
  H  H15  1  0.220000  0.003500  0.664700  1.0  0.084
  H  H16  1  0.377100  0.073900  0.589100  1.0  0.1186
  H  H17  1  0.329200  0.800700  0.559300  1.0  0.0747
  H  H18  1  0.487300  0.866200  0.480600  1.0  0.1173
  H  H19  1  0.970400  0.940600  0.792000  1.0  0.0697
  H  H20  1  0.011400  0.034600  0.896000  1.0  0.1034
  H  H21  1  0.391800  0.892100  0.797300  1.0  0.0878
  H  H22  1  0.444900  0.990000  0.900600  1.0  0.0991
  H  H23  1  0.412300  0.417100  0.278700  1.0  0.2875
  H  H24  1  0.479700  0.448300  0.207900  1.0  0.2702
  H  H25  1  0.636200  0.406300  0.323300  1.0  0.0815
  H  H26  1  0.839000  0.401700  0.240900  1.0  0.1003
  H  H27  1  0.740300  0.473300  0.218300  1.0  0.0956
  H  H28  1  0.593700  0.462300  0.088900  1.0  0.107
  H  H29  1  0.585600  0.410800  0.955600  1.0  0.0998
  H  H30  1  0.718500  0.303300  0.918700  1.0  0.1068
  H  H31  1  0.856600  0.242600  0.012000  1.0  0.0942
  H  H32  1  0.863100  0.288800  0.144600  1.0  0.102
  H  H33  1  0.280000  0.335300  0.996500  1.0  0.0835
  H  H34  1  0.122900  0.410900  0.926100  1.0  0.1199
  H  H35  1  0.170800  0.440700  0.199300  1.0  0.0736
  H  H36  1  0.012700  0.519400  0.133800  1.0  0.118
  H  H37  1  0.529600  0.208000  0.059400  1.0  0.0704
  H  H38  1  0.488600  0.104000  0.965400  1.0  0.1034
  H  H39  1  0.108200  0.202700  0.107900  1.0  0.0882
  H  H40  1  0.055100  0.099400  0.010000  1.0  0.0989
  H  H41  1  0.912300  0.278700  0.417100  1.0  0.2875
  H  H42  1  0.979700  0.207900  0.448300  1.0  0.2689
  H  H43  1  0.136200  0.323300  0.406300  1.0  0.0797
  H  H44  1  0.339000  0.240900  0.401700  1.0  0.1048
  H  H45  1  0.240300  0.218300  0.473300  1.0  0.0945
  H  H46  1  0.093700  0.088900  0.462300  1.0  0.1063
  H  H47  1  0.085600  0.955600  0.410800  1.0  0.1009
  H  H48  1  0.218500  0.918700  0.303300  1.0  0.1064
  H  H49  1  0.356600  0.012000  0.242600  1.0  0.0938
  H  H50  1  0.363100  0.144600  0.288800  1.0  0.1018
  H  H51  1  0.780000  0.996500  0.335300  1.0  0.0839
  H  H52  1  0.622900  0.926100  0.410900  1.0  0.1199
  H  H53  1  0.670800  0.199300  0.440700  1.0  0.0735
  H  H54  1  0.512700  0.133800  0.519400  1.0  0.1182
  H  H55  1  0.029600  0.059400  0.208000  1.0  0.07
  H  H56  1  0.988600  0.965400  0.104000  1.0  0.1041
  H  H57  1  0.608200  0.107900  0.202700  1.0  0.0883
  H  H58  1  0.555100  0.010000  0.099400  1.0  0.0992
  H  H59  1  0.587700  0.582900  0.721300  1.0  0.2883
  H  H60  1  0.520300  0.551700  0.792100  1.0  0.2698
  H  H61  1  0.363800  0.593700  0.676700  1.0  0.0805
  H  H62  1  0.161000  0.598300  0.759100  1.0  0.1018
  H  H63  1  0.259700  0.526700  0.781700  1.0  0.0957
  H  H64  1  0.406300  0.537700  0.911100  1.0  0.1072
  H  H65  1  0.414400  0.589200  0.044400  1.0  0.1007
  H  H66  1  0.281500  0.696700  0.081300  1.0  0.1059
  H  H67  1  0.143400  0.757400  0.988000  1.0  0.0943
  H  H68  1  0.136900  0.711200  0.855400  1.0  0.1015
  H  H69  1  0.720000  0.664700  0.003500  1.0  0.0828
  H  H70  1  0.877100  0.589100  0.073900  1.0  0.1198
  H  H71  1  0.829200  0.559300  0.800700  1.0  0.0736
  H  H72  1  0.987300  0.480600  0.866200  1.0  0.1181
  H  H73  1  0.470400  0.792000  0.940600  1.0  0.0708
  H  H74  1  0.511400  0.896000  0.034600  1.0  0.104
  H  H75  1  0.891800  0.797300  0.892100  1.0  0.0875
  H  H76  1  0.944900  0.900600  0.990000  1.0  0.0986
  C  C77  1  0.879200  0.735260  0.706740  1.0  0.6674
  C  C78  1  0.882000  0.732940  0.616860  1.0  0.0636
  C  C79  1  0.757700  0.783500  0.585300  1.0  -0.3057
  C  C80  1  0.768300  0.869200  0.618400  1.0  0.1198
  C  C81  1  0.852100  0.926100  0.582700  1.0  -0.1551
  C  C82  1  0.856500  0.005400  0.613200  1.0  -0.0894
  C  C83  1  0.779100  0.027000  0.676800  1.0  -0.0927
  C  C84  1  0.697400  0.971800  0.712600  1.0  -0.0855
  C  C85  1  0.692500  0.893600  0.684800  1.0  -0.1525
  C  C86  1  0.275600  0.974940  0.626860  1.0  0.1561
  C  C87  1  0.368700  0.017470  0.581530  1.0  -0.2034
  C  C88  1  0.338800  0.857230  0.565570  1.0  0.1543
  C  C89  1  0.433100  0.895930  0.518270  1.0  -0.2092
  C  C90  1  0.449000  0.978350  0.525490  1.0  0.0673
  C  C91  1  0.068400  0.950700  0.814700  1.0  0.1678
  C  C92  1  0.092600  0.007200  0.876000  1.0  -0.2017
  C  C93  1  0.314100  0.922500  0.817100  1.0  0.1543
  C  C94  1  0.345900  0.980900  0.879100  1.0  -0.1569
  C  C95  1  0.235200  0.026230  0.910510  1.0  0.0779
  C  C96  1  0.620800  0.293260  0.264740  1.0  0.6654
  C  C97  1  0.618000  0.383140  0.267060  1.0  0.0654
  C  C98  1  0.742300  0.414700  0.216500  1.0  -0.3072
  C  C99  1  0.731700  0.381600  0.130800  1.0  0.1185
  C  C100  1  0.647900  0.417300  0.073900  1.0  -0.1577
  C  C101  1  0.643500  0.386800  0.994600  1.0  -0.0907
  C  C102  1  0.720900  0.323200  0.973000  1.0  -0.1001
  C  C103  1  0.802600  0.287400  0.028200  1.0  -0.0851
  C  C104  1  0.807500  0.315200  0.106400  1.0  -0.1499
  C  C105  1  0.224400  0.373140  0.025060  1.0  0.1555
  C  C106  1  0.131300  0.418470  0.982530  1.0  -0.1991
  C  C107  1  0.161200  0.434430  0.142770  1.0  0.158
  C  C108  1  0.066900  0.481730  0.104070  1.0  -0.2109
  C  C109  1  0.051000  0.474510  0.021650  1.0  0.0679
  C  C110  1  0.431600  0.185300  0.049300  1.0  0.1681
  C  C111  1  0.407400  0.124000  0.992800  1.0  -0.1995
  C  C112  1  0.185900  0.182900  0.077500  1.0  0.1562
  C  C113  1  0.154100  0.120900  0.019100  1.0  -0.1549
  C  C114  1  0.264800  0.089490  0.973770  1.0  0.0771
  C  C115  1  0.120800  0.264740  0.293260  1.0  0.6681
  C  C116  1  0.118000  0.267060  0.383140  1.0  0.0626
  C  C117  1  0.242300  0.216500  0.414700  1.0  -0.3057
  C  C118  1  0.231700  0.130800  0.381600  1.0  0.1195
  C  C119  1  0.147900  0.073900  0.417300  1.0  -0.1541
  C  C120  1  0.143500  0.994600  0.386800  1.0  -0.0875
  C  C121  1  0.220900  0.973000  0.323200  1.0  -0.0974
  C  C122  1  0.302600  0.028200  0.287400  1.0  -0.0871
  C  C123  1  0.307500  0.106400  0.315200  1.0  -0.1529
  C  C124  1  0.724400  0.025060  0.373140  1.0  0.1548
  C  C125  1  0.631300  0.982530  0.418470  1.0  -0.1998
  C  C126  1  0.661200  0.142770  0.434430  1.0  0.1553
  C  C127  1  0.566900  0.104070  0.481730  1.0  -0.2116
  C  C128  1  0.551000  0.021650  0.474510  1.0  0.0672
  C  C129  1  0.931600  0.049300  0.185300  1.0  0.1673
  C  C130  1  0.907400  0.992800  0.124000  1.0  -0.2009
  C  C131  1  0.685900  0.077500  0.182900  1.0  0.1543
  C  C132  1  0.654100  0.019100  0.120900  1.0  -0.1556
  C  C133  1  0.764800  0.973770  0.089490  1.0  0.0775
  C  C134  1  0.379200  0.706740  0.735260  1.0  0.6665
  C  C135  1  0.382000  0.616860  0.732940  1.0  0.0633
  C  C136  1  0.257700  0.585300  0.783500  1.0  -0.3051
  C  C137  1  0.268300  0.618400  0.869200  1.0  0.1187
  C  C138  1  0.352100  0.582700  0.926100  1.0  -0.157
  C  C139  1  0.356500  0.613200  0.005400  1.0  -0.0902
  C  C140  1  0.279100  0.676800  0.027000  1.0  -0.0928
  C  C141  1  0.197400  0.712600  0.971800  1.0  -0.0819
  C  C142  1  0.192500  0.684800  0.893600  1.0  -0.1493
  C  C143  1  0.775600  0.626860  0.974940  1.0  0.1577
  C  C144  1  0.868700  0.581530  0.017470  1.0  -0.1993
  C  C145  1  0.838800  0.565570  0.857230  1.0  0.1577
  C  C146  1  0.933100  0.518270  0.895930  1.0  -0.21
  C  C147  1  0.949000  0.525490  0.978350  1.0  0.0671
  C  C148  1  0.568400  0.814700  0.950700  1.0  0.1687
  C  C149  1  0.592600  0.876000  0.007200  1.0  -0.2004
  C  C150  1  0.814100  0.817100  0.922500  1.0  0.1559
  C  C151  1  0.845900  0.879100  0.980900  1.0  -0.1552
  C  C152  1  0.735200  0.910510  0.026230  1.0  0.0764
  N  N153  1  0.029900  0.763240  0.595480  1.0  -0.6276
  N  N154  1  0.259900  0.895270  0.619970  1.0  -0.3092
  N  N155  1  0.176400  0.908240  0.784340  1.0  -0.3421
  N  N156  1  0.470100  0.404520  0.236760  1.0  -0.6252
  N  N157  1  0.240100  0.380030  0.104730  1.0  -0.3089
  N  N158  1  0.323600  0.215660  0.091760  1.0  -0.3427
  N  N159  1  0.970100  0.236760  0.404520  1.0  -0.6318
  N  N160  1  0.740100  0.104730  0.380030  1.0  -0.3095
  N  N161  1  0.823600  0.091760  0.215660  1.0  -0.3428
  N  N162  1  0.529900  0.595480  0.763240  1.0  -0.6225
  N  N163  1  0.759900  0.619970  0.895270  1.0  -0.3083
  N  N164  1  0.676400  0.784340  0.908240  1.0  -0.3437
  N  N165  1  0.750000  0.123800  0.876200  1.0  0.4856
  N  N166  1  0.250000  0.876200  0.123800  1.0  0.4832
  O  O167  1  0.976900  0.780090  0.747550  1.0  -0.5756
  O  O168  1  0.780300  0.695550  0.735070  1.0  -0.5966
  O  O169  1  0.523100  0.252450  0.219910  1.0  -0.577
  O  O170  1  0.719700  0.264930  0.304450  1.0  -0.5962
  O  O171  1  0.023100  0.219910  0.252450  1.0  -0.5769
  O  O172  1  0.219700  0.304450  0.264930  1.0  -0.5944
  O  O173  1  0.476900  0.747550  0.780090  1.0  -0.5764
  O  O174  1  0.280300  0.735070  0.695550  1.0  -0.596
  O  O175  1  0.863700  0.159900  0.861300  1.0  -0.4209
  O  O176  1  0.636300  0.138700  0.840100  1.0  -0.4268
  O  O177  1  0.750000  0.076800  0.923200  1.0  -0.4823
  O  O178  1  0.136300  0.840100  0.138700  1.0  -0.4196
  O  O179  1  0.363700  0.861300  0.159900  1.0  -0.4211
  O  O180  1  0.250000  0.923200  0.076800  1.0  -0.4813
