# generated using pymatgen
data_MnMoH8(C7N3)2
_symmetry_space_group_name_H-M   'P 1'
_cell_length_a   7.37070000
_cell_length_b   14.42200000
_cell_length_c   17.23400000
_cell_angle_alpha   90.00000000
_cell_angle_beta   90.00000000
_cell_angle_gamma   91.64600000
_symmetry_Int_Tables_number   1
_chemical_formula_structural   MnMoH8(C7N3)2
_chemical_formula_sum   'Mn4 Mo4 H32 C56 N24'
_cell_volume   1831.22233860
_cell_formula_units_Z   4
loop_
 _symmetry_equiv_pos_site_id
 _symmetry_equiv_pos_as_xyz
  1  'x, y, z'
loop_
 _atom_site_type_symbol
 _atom_site_label
 _atom_site_symmetry_multiplicity
 _atom_site_fract_x
 _atom_site_fract_y
 _atom_site_fract_z
 _atom_site_occupancy
 _atom_site_charge
  Mn  Mn1  1  0.341970  0.554610  0.670300  1.0  1.0011
  Mn  Mn2  1  0.658030  0.945390  0.170300  1.0  1.0006
  Mn  Mn3  1  0.658030  0.445390  0.329700  1.0  1.0026
  Mn  Mn4  1  0.341970  0.054610  0.829700  1.0  1.0024
  Mo  Mo5  1  0.832540  0.784170  0.792270  1.0  0.3894
  Mo  Mo6  1  0.167460  0.715830  0.292270  1.0  0.3879
  Mo  Mo7  1  0.167460  0.215830  0.207730  1.0  0.3883
  Mo  Mo8  1  0.832540  0.284170  0.707730  1.0  0.3903
  H  H9  1  0.892900  0.996800  0.720600  1.0  0.0888
  H  H10  1  0.960300  0.082900  0.610400  1.0  0.1088
  H  H11  1  0.971600  0.842500  0.488500  1.0  0.1253
  H  H12  1  0.897300  0.762900  0.601700  1.0  0.0952
  H  H13  1  0.370900  0.661500  0.830100  1.0  0.0797
  H  H14  1  0.454500  0.647400  0.958900  1.0  0.1294
  H  H15  1  0.380600  0.390500  0.799100  1.0  0.0847
  H  H16  1  0.461300  0.367600  0.927500  1.0  0.1309
  H  H17  1  0.107100  0.503200  0.220600  1.0  0.0895
  H  H18  1  0.039700  0.417100  0.110400  1.0  0.1078
  H  H19  1  0.028400  0.657500  0.988500  1.0  0.1254
  H  H20  1  0.102700  0.737100  0.101700  1.0  0.0953
  H  H21  1  0.629100  0.838500  0.330100  1.0  0.0805
  H  H22  1  0.545500  0.852600  0.458900  1.0  0.1303
  H  H23  1  0.619400  0.109500  0.299100  1.0  0.0846
  H  H24  1  0.538700  0.132400  0.427500  1.0  0.1314
  H  H25  1  0.107100  0.003200  0.279400  1.0  0.0902
  H  H26  1  0.039700  0.917100  0.389600  1.0  0.1083
  H  H27  1  0.028400  0.157500  0.511500  1.0  0.1254
  H  H28  1  0.102700  0.237100  0.398300  1.0  0.0952
  H  H29  1  0.629100  0.338500  0.169900  1.0  0.0806
  H  H30  1  0.545500  0.352600  0.041100  1.0  0.1301
  H  H31  1  0.619400  0.609500  0.200900  1.0  0.0848
  H  H32  1  0.538700  0.632400  0.072500  1.0  0.1317
  H  H33  1  0.892900  0.496800  0.779400  1.0  0.0895
  H  H34  1  0.960300  0.582900  0.889600  1.0  0.1089
  H  H35  1  0.971600  0.342500  0.011500  1.0  0.1259
  H  H36  1  0.897300  0.262900  0.898300  1.0  0.0953
  H  H37  1  0.370900  0.161500  0.669900  1.0  0.0801
  H  H38  1  0.454500  0.147400  0.541100  1.0  0.1296
  H  H39  1  0.380600  0.890500  0.700900  1.0  0.0848
  H  H40  1  0.461300  0.867600  0.572500  1.0  0.1313
  C  C41  1  0.908500  0.965070  0.672900  1.0  0.1599
  C  C42  1  0.950000  0.017170  0.607050  1.0  -0.1717
  C  C43  1  0.976500  0.973200  0.535950  1.0  0.0807
  C  C44  1  0.955700  0.875930  0.535430  1.0  -0.1892
  C  C45  1  0.911900  0.828510  0.603640  1.0  0.143
  C  C46  1  0.015600  0.690800  0.734750  1.0  0.004
  C  C47  1  0.669100  0.902330  0.820480  1.0  -0.0256
  C  C48  1  0.627200  0.721690  0.716420  1.0  -0.0056
  C  C49  1  0.060000  0.872260  0.827250  1.0  -0.0108
  C  C50  1  0.392500  0.601320  0.849870  1.0  0.1643
  C  C51  1  0.441600  0.593560  0.927340  1.0  -0.2097
  C  C52  1  0.397600  0.443140  0.831720  1.0  0.1719
  C  C53  1  0.445900  0.428790  0.908670  1.0  -0.1946
  C  C54  1  0.472100  0.505600  0.958720  1.0  0.086
  C  C55  1  0.091500  0.534930  0.172900  1.0  0.1599
  C  C56  1  0.050000  0.482830  0.107050  1.0  -0.1717
  C  C57  1  0.023500  0.526800  0.035950  1.0  0.0809
  C  C58  1  0.044300  0.624070  0.035430  1.0  -0.189
  C  C59  1  0.088100  0.671490  0.103640  1.0  0.1463
  C  C60  1  0.984400  0.809200  0.234750  1.0  0.0027
  C  C61  1  0.330900  0.597670  0.320480  1.0  -0.0266
  C  C62  1  0.372800  0.778310  0.216420  1.0  -0.0063
  C  C63  1  0.940000  0.627740  0.327250  1.0  -0.0122
  C  C64  1  0.607500  0.898680  0.349870  1.0  0.1656
  C  C65  1  0.558400  0.906440  0.427340  1.0  -0.2105
  C  C66  1  0.602400  0.056860  0.331720  1.0  0.1719
  C  C67  1  0.554100  0.071210  0.408670  1.0  -0.1941
  C  C68  1  0.527900  0.994400  0.458720  1.0  0.0858
  C  C69  1  0.091500  0.034930  0.327100  1.0  0.1581
  C  C70  1  0.050000  0.982830  0.392950  1.0  -0.1728
  C  C71  1  0.023500  0.026800  0.464050  1.0  0.0807
  C  C72  1  0.044300  0.124070  0.464570  1.0  -0.1858
  C  C73  1  0.088100  0.171490  0.396360  1.0  0.1463
  C  C74  1  0.984400  0.309200  0.265250  1.0  0.0046
  C  C75  1  0.330900  0.097670  0.179520  1.0  -0.0242
  C  C76  1  0.372800  0.278310  0.283580  1.0  -0.0058
  C  C77  1  0.940000  0.127740  0.172750  1.0  -0.0108
  C  C78  1  0.607500  0.398680  0.150130  1.0  0.1656
  C  C79  1  0.558400  0.406440  0.072660  1.0  -0.2102
  C  C80  1  0.602400  0.556860  0.168280  1.0  0.1713
  C  C81  1  0.554100  0.571210  0.091330  1.0  -0.1946
  C  C82  1  0.527900  0.494400  0.041280  1.0  0.086
  C  C83  1  0.908500  0.465070  0.827100  1.0  0.1582
  C  C84  1  0.950000  0.517170  0.892950  1.0  -0.1732
  C  C85  1  0.976500  0.473200  0.964050  1.0  0.0803
  C  C86  1  0.955700  0.375930  0.964570  1.0  -0.1859
  C  C87  1  0.911900  0.328510  0.896360  1.0  0.1432
  C  C88  1  0.015600  0.190800  0.765250  1.0  0.0064
  C  C89  1  0.669100  0.402330  0.679520  1.0  -0.0241
  C  C90  1  0.627200  0.221690  0.783580  1.0  -0.0061
  C  C91  1  0.060000  0.372260  0.672750  1.0  -0.01
  C  C92  1  0.392500  0.101320  0.650130  1.0  0.1639
  C  C93  1  0.441600  0.093560  0.572660  1.0  -0.2095
  C  C94  1  0.397600  0.943140  0.668280  1.0  0.1715
  C  C95  1  0.445900  0.928790  0.591330  1.0  -0.1947
  C  C96  1  0.472100  0.005600  0.541280  1.0  0.0861
  N  N97  1  0.889100  0.871560  0.672510  1.0  -0.2178
  N  N98  1  0.108800  0.639340  0.703850  1.0  -0.4129
  N  N99  1  0.175800  0.925060  0.842730  1.0  -0.4035
  N  N100  1  0.586000  0.965280  0.841010  1.0  -0.411
  N  N101  1  0.523800  0.679710  0.678530  1.0  -0.4381
  N  N102  1  0.373600  0.528570  0.800870  1.0  -0.3485
  N  N103  1  0.110900  0.628440  0.172510  1.0  -0.218
  N  N104  1  0.891200  0.860660  0.203850  1.0  -0.4123
  N  N105  1  0.824200  0.574940  0.342730  1.0  -0.4037
  N  N106  1  0.414000  0.534720  0.341010  1.0  -0.4089
  N  N107  1  0.476200  0.820290  0.178530  1.0  -0.4376
  N  N108  1  0.626400  0.971430  0.300870  1.0  -0.3482
  N  N109  1  0.110900  0.128440  0.327490  1.0  -0.215
  N  N110  1  0.891200  0.360660  0.296150  1.0  -0.4165
  N  N111  1  0.824200  0.074940  0.157270  1.0  -0.4092
  N  N112  1  0.414000  0.034720  0.158990  1.0  -0.4167
  N  N113  1  0.476200  0.320290  0.321470  1.0  -0.441
  N  N114  1  0.626400  0.471430  0.199130  1.0  -0.3483
  N  N115  1  0.889100  0.371560  0.827490  1.0  -0.2159
  N  N116  1  0.108800  0.139340  0.796150  1.0  -0.4185
  N  N117  1  0.175800  0.425060  0.657270  1.0  -0.4102
  N  N118  1  0.586000  0.465280  0.658990  1.0  -0.4211
  N  N119  1  0.523800  0.179710  0.821470  1.0  -0.4397
  N  N120  1  0.373600  0.028570  0.699130  1.0  -0.3491
