# generated using pymatgen
data_Mn2H8(C2N)7
_symmetry_space_group_name_H-M   'P 1'
_cell_length_a   7.36200000
_cell_length_b   13.90800000
_cell_length_c   18.01500000
_cell_angle_alpha   90.00000000
_cell_angle_beta   90.00000000
_cell_angle_gamma   90.52000000
_symmetry_Int_Tables_number   1
_chemical_formula_structural   Mn2H8(C2N)7
_chemical_formula_sum   'Mn8 H32 C56 N28'
_cell_volume   1844.49242175
_cell_formula_units_Z   4
loop_
 _symmetry_equiv_pos_site_id
 _symmetry_equiv_pos_as_xyz
  1  'x, y, z'
loop_
 _atom_site_type_symbol
 _atom_site_label
 _atom_site_symmetry_multiplicity
 _atom_site_fract_x
 _atom_site_fract_y
 _atom_site_fract_z
 _atom_site_occupancy
 _atom_site_charge
  Mn  Mn1  1  0.101030  0.920000  0.685910  1.0  1.0272
  Mn  Mn2  1  0.605710  0.187510  0.708290  1.0  -0.0574
  Mn  Mn3  1  0.898970  0.580000  0.185910  1.0  1.0276
  Mn  Mn4  1  0.394290  0.312490  0.208290  1.0  -0.0573
  Mn  Mn5  1  0.898970  0.080000  0.314090  1.0  1.0278
  Mn  Mn6  1  0.394290  0.812490  0.291710  1.0  -0.0604
  Mn  Mn7  1  0.101030  0.420000  0.814090  1.0  1.0285
  Mn  Mn8  1  0.605710  0.687510  0.791710  1.0  -0.0604
  H  H9  1  0.581600  0.728400  0.614300  1.0  0.0894
  H  H10  1  0.577900  0.478100  0.710700  1.0  0.0827
  H  H11  1  0.527000  0.661900  0.502100  1.0  0.1283
  H  H12  1  0.525500  0.403100  0.599800  1.0  0.1141
  H  H13  1  0.084500  0.822200  0.842300  1.0  0.0756
  H  H14  1  0.080200  0.096600  0.801800  1.0  0.0754
  H  H15  1  0.029100  0.844800  0.963800  1.0  0.1307
  H  H16  1  0.025200  0.128700  0.924300  1.0  0.1292
  H  H17  1  0.418400  0.771600  0.114300  1.0  0.089
  H  H18  1  0.422100  0.021900  0.210700  1.0  0.0828
  H  H19  1  0.473000  0.838100  0.002100  1.0  0.1276
  H  H20  1  0.474500  0.096900  0.099800  1.0  0.1144
  H  H21  1  0.915500  0.677800  0.342300  1.0  0.0742
  H  H22  1  0.919800  0.403400  0.301800  1.0  0.0755
  H  H23  1  0.970900  0.655200  0.463800  1.0  0.1311
  H  H24  1  0.974800  0.371300  0.424300  1.0  0.1294
  H  H25  1  0.418400  0.271600  0.385700  1.0  0.0891
  H  H26  1  0.422100  0.521900  0.289300  1.0  0.0832
  H  H27  1  0.473000  0.338100  0.497900  1.0  0.1274
  H  H28  1  0.474500  0.596900  0.400200  1.0  0.1148
  H  H29  1  0.915500  0.177800  0.157700  1.0  0.0743
  H  H30  1  0.919800  0.903400  0.198200  1.0  0.0757
  H  H31  1  0.970900  0.155200  0.036200  1.0  0.1318
  H  H32  1  0.974800  0.871300  0.075700  1.0  0.1297
  H  H33  1  0.581600  0.228400  0.885700  1.0  0.0892
  H  H34  1  0.577900  0.978100  0.789300  1.0  0.083
  H  H35  1  0.527000  0.161900  0.997900  1.0  0.1281
  H  H36  1  0.525500  0.903100  0.900200  1.0  0.1147
  H  H37  1  0.084500  0.322200  0.657700  1.0  0.0756
  H  H38  1  0.080200  0.596600  0.698200  1.0  0.0753
  H  H39  1  0.029100  0.344800  0.536200  1.0  0.131
  H  H40  1  0.025200  0.628700  0.575700  1.0  0.1295
  C  C41  1  0.779600  0.084300  0.683100  1.0  0.1946
  C  C42  1  0.406300  0.097300  0.682900  1.0  0.1893
  C  C43  1  0.425900  0.774700  0.745700  1.0  0.1848
  C  C44  1  0.797800  0.760100  0.737400  1.0  0.1834
  C  C45  1  0.567900  0.661900  0.611500  1.0  0.1307
  C  C46  1  0.566400  0.515700  0.668300  1.0  0.1526
  C  C47  1  0.536400  0.622500  0.543600  1.0  -0.1823
  C  C48  1  0.535200  0.469700  0.601300  1.0  -0.174
  C  C49  1  0.518100  0.522600  0.536100  1.0  0.0729
  C  C50  1  0.069200  0.884900  0.858900  1.0  0.1748
  C  C51  1  0.067200  0.045400  0.834600  1.0  0.1791
  C  C52  1  0.037600  0.897600  0.932200  1.0  -0.1899
  C  C53  1  0.035200  0.065200  0.908800  1.0  -0.1924
  C  C54  1  0.017800  0.991000  0.960400  1.0  0.0836
  C  C55  1  0.220400  0.415700  0.183100  1.0  0.1923
  C  C56  1  0.593700  0.402700  0.182900  1.0  0.1878
  C  C57  1  0.574100  0.725300  0.245700  1.0  0.1852
  C  C58  1  0.202200  0.739900  0.237400  1.0  0.184
  C  C59  1  0.432100  0.838100  0.111500  1.0  0.1288
  C  C60  1  0.433600  0.984300  0.168300  1.0  0.1521
  C  C61  1  0.463600  0.877500  0.043600  1.0  -0.1823
  C  C62  1  0.464800  0.030300  0.101300  1.0  -0.1742
  C  C63  1  0.481900  0.977400  0.036100  1.0  0.0727
  C  C64  1  0.930800  0.615100  0.358900  1.0  0.1738
  C  C65  1  0.932800  0.454600  0.334600  1.0  0.1803
  C  C66  1  0.962400  0.602400  0.432200  1.0  -0.191
  C  C67  1  0.964800  0.434800  0.408800  1.0  -0.1891
  C  C68  1  0.982200  0.509000  0.460400  1.0  0.0837
  C  C69  1  0.220400  0.915700  0.316900  1.0  0.1921
  C  C70  1  0.593700  0.902700  0.317100  1.0  0.1887
  C  C71  1  0.574100  0.225300  0.254300  1.0  0.185
  C  C72  1  0.202200  0.239900  0.262600  1.0  0.1838
  C  C73  1  0.432100  0.338100  0.388500  1.0  0.1294
  C  C74  1  0.433600  0.484300  0.331700  1.0  0.1528
  C  C75  1  0.463600  0.377500  0.456400  1.0  -0.1821
  C  C76  1  0.464800  0.530300  0.398700  1.0  -0.1743
  C  C77  1  0.481900  0.477400  0.463900  1.0  0.0728
  C  C78  1  0.930800  0.115100  0.141100  1.0  0.1741
  C  C79  1  0.932800  0.954600  0.165400  1.0  0.1797
  C  C80  1  0.962400  0.102400  0.067800  1.0  -0.1909
  C  C81  1  0.964800  0.934800  0.091200  1.0  -0.1883
  C  C82  1  0.982200  0.009000  0.039600  1.0  0.0838
  C  C83  1  0.779600  0.584300  0.816900  1.0  0.1934
  C  C84  1  0.406300  0.597300  0.817100  1.0  0.1884
  C  C85  1  0.425900  0.274700  0.754300  1.0  0.1844
  C  C86  1  0.797800  0.260100  0.762600  1.0  0.1837
  C  C87  1  0.567900  0.161900  0.888500  1.0  0.1309
  C  C88  1  0.566400  0.015700  0.831700  1.0  0.1534
  C  C89  1  0.536400  0.122500  0.956400  1.0  -0.1819
  C  C90  1  0.535200  0.969700  0.898700  1.0  -0.1743
  C  C91  1  0.518100  0.022600  0.963900  1.0  0.073
  C  C92  1  0.069200  0.384900  0.641100  1.0  0.1753
  C  C93  1  0.067200  0.545400  0.665400  1.0  0.1789
  C  C94  1  0.037600  0.397600  0.567800  1.0  -0.1896
  C  C95  1  0.035200  0.565200  0.591200  1.0  -0.1921
  C  C96  1  0.017800  0.491000  0.539600  1.0  0.0837
  N  N97  1  0.621800  0.239000  0.634100  1.0  -0.1895
  N  N98  1  0.580800  0.611100  0.675500  1.0  -0.2028
  N  N99  1  0.080300  0.955800  0.807900  1.0  -0.3479
  N  N100  1  0.325100  0.825200  0.718400  1.0  -0.46
  N  N101  1  0.295200  0.041800  0.669400  1.0  -0.4613
  N  N102  1  0.877200  0.023700  0.667600  1.0  -0.4678
  N  N103  1  0.902700  0.804400  0.704500  1.0  -0.4755
  N  N104  1  0.378200  0.261000  0.134100  1.0  -0.1877
  N  N105  1  0.419200  0.888900  0.175500  1.0  -0.2022
  N  N106  1  0.919700  0.544200  0.307900  1.0  -0.3461
  N  N107  1  0.674900  0.674800  0.218400  1.0  -0.4602
  N  N108  1  0.704800  0.458200  0.169400  1.0  -0.461
  N  N109  1  0.122800  0.476300  0.167600  1.0  -0.4692
  N  N110  1  0.097300  0.695600  0.204500  1.0  -0.4764
  N  N111  1  0.378200  0.761000  0.365900  1.0  -0.1853
  N  N112  1  0.419200  0.388900  0.324500  1.0  -0.2013
  N  N113  1  0.919700  0.044200  0.192100  1.0  -0.3472
  N  N114  1  0.674900  0.174800  0.281600  1.0  -0.4599
  N  N115  1  0.704800  0.958200  0.330600  1.0  -0.461
  N  N116  1  0.122800  0.976300  0.332400  1.0  -0.4664
  N  N117  1  0.097300  0.195600  0.295500  1.0  -0.4761
  N  N118  1  0.621800  0.739000  0.865900  1.0  -0.1884
  N  N119  1  0.580800  0.111100  0.824500  1.0  -0.2005
  N  N120  1  0.080300  0.455800  0.692100  1.0  -0.3465
  N  N121  1  0.325100  0.325200  0.781600  1.0  -0.4599
  N  N122  1  0.295200  0.541800  0.830600  1.0  -0.4608
  N  N123  1  0.877200  0.523700  0.832400  1.0  -0.4654
  N  N124  1  0.902700  0.304400  0.795500  1.0  -0.476
