# generated using pymatgen
data_KYb(CO2)4
_symmetry_space_group_name_H-M   'P 1'
_cell_length_a   8.91420000
_cell_length_b   9.18040000
_cell_length_c   9.18040000
_cell_angle_alpha   76.36630000
_cell_angle_beta   60.95450000
_cell_angle_gamma   60.95460000
_symmetry_Int_Tables_number   1
_chemical_formula_structural   KYb(CO2)4
_chemical_formula_sum   'K2 Yb2 C8 O16'
_cell_volume   574.19818840
_cell_formula_units_Z   2
loop_
 _symmetry_equiv_pos_site_id
 _symmetry_equiv_pos_as_xyz
  1  'x, y, z'
loop_
 _atom_site_type_symbol
 _atom_site_label
 _atom_site_symmetry_multiplicity
 _atom_site_fract_x
 _atom_site_fract_y
 _atom_site_fract_z
 _atom_site_occupancy
 _atom_site_charge
  K  K1  1  0.375000  0.250000  0.250000  1.0  1.3084
  K  K2  1  0.625000  0.750000  0.750000  1.0  1.2975
  Yb  Yb3  1  0.875000  0.250000  0.250000  1.0  0.9638
  Yb  Yb4  1  0.125000  0.750000  0.750000  1.0  0.9636
  C  C5  1  0.444200  0.471800  0.479400  1.0  0.5559
  C  C6  1  0.895400  0.028200  0.020600  1.0  0.5559
  C  C7  1  0.923600  0.520600  0.971800  1.0  0.5575
  C  C8  1  0.916000  0.979400  0.528200  1.0  0.5575
  C  C9  1  0.555800  0.528200  0.520600  1.0  0.5555
  C  C10  1  0.104600  0.971800  0.979400  1.0  0.5566
  C  C11  1  0.076400  0.479400  0.028200  1.0  0.5567
  C  C12  1  0.084000  0.020600  0.471800  1.0  0.5581
  O  O13  1  0.539020  0.358880  0.375680  1.0  -0.5815
  O  O14  1  0.264050  0.547850  0.556850  1.0  -0.5407
  O  O15  1  0.773580  0.141120  0.124320  1.0  -0.5815
  O  O16  1  0.868750  0.952150  0.943150  1.0  -0.5415
  O  O17  1  0.914700  0.624320  0.858880  1.0  -0.5823
  O  O18  1  0.820900  0.443150  0.047850  1.0  -0.5409
  O  O19  1  0.897900  0.875680  0.641120  1.0  -0.5813
  O  O20  1  0.811900  0.056850  0.452150  1.0  -0.5412
  O  O21  1  0.460980  0.641120  0.624320  1.0  -0.581
  O  O22  1  0.735950  0.452150  0.443150  1.0  -0.5428
  O  O23  1  0.226420  0.858880  0.875680  1.0  -0.5812
  O  O24  1  0.131250  0.047850  0.056850  1.0  -0.5422
  O  O25  1  0.085300  0.375680  0.141120  1.0  -0.5818
  O  O26  1  0.179100  0.556850  0.952150  1.0  -0.5426
  O  O27  1  0.102100  0.124320  0.358880  1.0  -0.5812
  O  O28  1  0.188100  0.943150  0.547850  1.0  -0.5433
