# generated using pymatgen
data_NiH16(C5N)4
_symmetry_space_group_name_H-M   'P 1'
_cell_length_a   15.19020000
_cell_length_b   16.81680000
_cell_length_c   22.68000000
_cell_angle_alpha   90.00000000
_cell_angle_beta   97.21400000
_cell_angle_gamma   90.00000000
_symmetry_Int_Tables_number   1
_chemical_formula_structural   NiH16(C5N)4
_chemical_formula_sum   'Ni4 H64 C80 N16'
_cell_volume   5747.75658313
_cell_formula_units_Z   4
loop_
 _symmetry_equiv_pos_site_id
 _symmetry_equiv_pos_as_xyz
  1  'x, y, z'
loop_
 _atom_site_type_symbol
 _atom_site_label
 _atom_site_symmetry_multiplicity
 _atom_site_fract_x
 _atom_site_fract_y
 _atom_site_fract_z
 _atom_site_occupancy
 _atom_site_charge
  Ni  Ni1  1  0.000000  0.000000  0.000000  1.0  0.2919
  Ni  Ni2  1  0.500000  0.500000  0.000000  1.0  0.2919
  Ni  Ni3  1  0.000000  0.000000  0.500000  1.0  0.2919
  Ni  Ni4  1  0.500000  0.500000  0.500000  1.0  0.2919
  H  H5  1  0.885900  0.056500  0.094040  1.0  0.0587
  H  H6  1  0.880900  0.055900  0.194520  1.0  0.1026
  H  H7  1  0.122400  0.957600  0.215460  1.0  0.0987
  H  H8  1  0.118200  0.956300  0.114170  1.0  0.0642
  H  H9  1  0.200700  0.026040  0.982160  1.0  0.0594
  H  H10  1  0.297800  0.128400  0.975500  1.0  0.1003
  H  H11  1  0.122200  0.273710  0.037140  1.0  0.1028
  H  H12  1  0.029400  0.167800  0.040400  1.0  0.0636
  H  H13  1  0.385900  0.556500  0.094040  1.0  0.0587
  H  H14  1  0.380900  0.555900  0.194520  1.0  0.1026
  H  H15  1  0.622400  0.457600  0.215460  1.0  0.1002
  H  H16  1  0.618200  0.456300  0.114170  1.0  0.0642
  H  H17  1  0.700700  0.526040  0.982160  1.0  0.0594
  H  H18  1  0.797800  0.628400  0.975500  1.0  0.1003
  H  H19  1  0.622200  0.773710  0.037140  1.0  0.1028
  H  H20  1  0.529400  0.667800  0.040400  1.0  0.0636
  H  H21  1  0.114100  0.056500  0.405960  1.0  0.0593
  H  H22  1  0.119100  0.055900  0.305480  1.0  0.1024
  H  H23  1  0.877600  0.957600  0.284540  1.0  0.0998
  H  H24  1  0.881800  0.956300  0.385830  1.0  0.0643
  H  H25  1  0.799300  0.026040  0.517840  1.0  0.0588
  H  H26  1  0.702200  0.128400  0.524500  1.0  0.1008
  H  H27  1  0.877800  0.273710  0.462860  1.0  0.1025
  H  H28  1  0.970600  0.167800  0.459600  1.0  0.0637
  H  H29  1  0.614100  0.556500  0.405960  1.0  0.0593
  H  H30  1  0.619100  0.555900  0.305480  1.0  0.1024
  H  H31  1  0.377600  0.457600  0.284540  1.0  0.0994
  H  H32  1  0.381800  0.456300  0.385830  1.0  0.0643
  H  H33  1  0.299300  0.526040  0.517840  1.0  0.0588
  H  H34  1  0.202200  0.628400  0.524500  1.0  0.1008
  H  H35  1  0.377800  0.773710  0.462860  1.0  0.1025
  H  H36  1  0.470600  0.667800  0.459600  1.0  0.0637
  H  H37  1  0.114100  0.943500  0.905960  1.0  0.0603
  H  H38  1  0.119100  0.944100  0.805480  1.0  0.1019
  H  H39  1  0.877600  0.042400  0.784540  1.0  0.0998
  H  H40  1  0.881800  0.043700  0.885830  1.0  0.064
  H  H41  1  0.799300  0.973960  0.017840  1.0  0.0599
  H  H42  1  0.702200  0.871600  0.024500  1.0  0.1008
  H  H43  1  0.877800  0.726290  0.962860  1.0  0.1018
  H  H44  1  0.970600  0.832200  0.959600  1.0  0.0633
  H  H45  1  0.614100  0.443500  0.905960  1.0  0.0603
  H  H46  1  0.619100  0.444100  0.805480  1.0  0.1019
  H  H47  1  0.377600  0.542400  0.784540  1.0  0.1012
  H  H48  1  0.381800  0.543700  0.885830  1.0  0.064
  H  H49  1  0.299300  0.473960  0.017840  1.0  0.0599
  H  H50  1  0.202200  0.371600  0.024500  1.0  0.1008
  H  H51  1  0.377800  0.226290  0.962860  1.0  0.1018
  H  H52  1  0.470600  0.332200  0.959600  1.0  0.0633
  H  H53  1  0.885900  0.943500  0.594040  1.0  0.0591
  H  H54  1  0.880900  0.944100  0.694520  1.0  0.1026
  H  H55  1  0.122400  0.042400  0.715460  1.0  0.0991
  H  H56  1  0.118200  0.043700  0.614170  1.0  0.0646
  H  H57  1  0.200700  0.973960  0.482160  1.0  0.0602
  H  H58  1  0.297800  0.871600  0.475500  1.0  0.1009
  H  H59  1  0.122200  0.726290  0.537140  1.0  0.1029
  H  H60  1  0.029400  0.832200  0.540400  1.0  0.0641
  H  H61  1  0.385900  0.443500  0.594040  1.0  0.0591
  H  H62  1  0.380900  0.444100  0.694520  1.0  0.1023
  H  H63  1  0.622400  0.542400  0.715460  1.0  0.0988
  H  H64  1  0.618200  0.543700  0.614170  1.0  0.0646
  H  H65  1  0.700700  0.473960  0.482160  1.0  0.0602
  H  H66  1  0.797800  0.371600  0.475500  1.0  0.1009
  H  H67  1  0.622200  0.226290  0.537140  1.0  0.1029
  H  H68  1  0.529400  0.332200  0.540400  1.0  0.0641
  C  C69  1  0.933400  0.034800  0.118690  1.0  0.1541
  C  C70  1  0.930300  0.035400  0.179330  1.0  -0.2208
  C  C71  1  0.000700  0.005610  0.217300  1.0  0.0824
  C  C72  1  0.072600  0.976800  0.191650  1.0  -0.2105
  C  C73  1  0.069700  0.976800  0.130520  1.0  0.1363
  C  C74  1  0.183500  0.077060  0.991670  1.0  0.1488
  C  C75  1  0.242800  0.138400  0.988000  1.0  -0.2065
  C  C76  1  0.220080  0.215480  0.003050  1.0  0.048
  C  C77  1  0.139100  0.224210  0.024140  1.0  -0.1976
  C  C78  1  0.083400  0.159950  0.025970  1.0  0.14
  C  C79  1  0.433400  0.534800  0.118690  1.0  0.1541
  C  C80  1  0.430300  0.535400  0.179330  1.0  -0.2208
  C  C81  1  0.500700  0.505610  0.217300  1.0  0.0824
  C  C82  1  0.572600  0.476800  0.191650  1.0  -0.2105
  C  C83  1  0.569700  0.476800  0.130520  1.0  0.1363
  C  C84  1  0.683500  0.577060  0.991670  1.0  0.1488
  C  C85  1  0.742800  0.638400  0.988000  1.0  -0.2065
  C  C86  1  0.720080  0.715480  0.003050  1.0  0.048
  C  C87  1  0.639100  0.724210  0.024140  1.0  -0.1976
  C  C88  1  0.583400  0.659950  0.025970  1.0  0.14
  C  C89  1  0.066600  0.034800  0.381310  1.0  0.1545
  C  C90  1  0.069700  0.035400  0.320670  1.0  -0.2195
  C  C91  1  0.999300  0.005610  0.282700  1.0  0.083
  C  C92  1  0.927400  0.976800  0.308350  1.0  -0.2105
  C  C93  1  0.930300  0.976800  0.369480  1.0  0.1379
  C  C94  1  0.816500  0.077060  0.508330  1.0  0.1488
  C  C95  1  0.757200  0.138400  0.512000  1.0  -0.2071
  C  C96  1  0.779920  0.215480  0.496950  1.0  0.0478
  C  C97  1  0.860900  0.224210  0.475860  1.0  -0.1984
  C  C98  1  0.916600  0.159950  0.474030  1.0  0.1398
  C  C99  1  0.566600  0.534800  0.381310  1.0  0.1545
  C  C100  1  0.569700  0.535400  0.320670  1.0  -0.2195
  C  C101  1  0.499300  0.505610  0.282700  1.0  0.083
  C  C102  1  0.427400  0.476800  0.308350  1.0  -0.2105
  C  C103  1  0.430300  0.476800  0.369480  1.0  0.1379
  C  C104  1  0.316500  0.577060  0.508330  1.0  0.1488
  C  C105  1  0.257200  0.638400  0.512000  1.0  -0.2071
  C  C106  1  0.279920  0.715480  0.496950  1.0  0.0478
  C  C107  1  0.360900  0.724210  0.475860  1.0  -0.1984
  C  C108  1  0.416600  0.659950  0.474030  1.0  0.1398
  C  C109  1  0.066600  0.965200  0.881310  1.0  0.1541
  C  C110  1  0.069700  0.964600  0.820670  1.0  -0.2193
  C  C111  1  0.999300  0.994390  0.782700  1.0  0.0828
  C  C112  1  0.927400  0.023200  0.808350  1.0  -0.2124
  C  C113  1  0.930300  0.023200  0.869480  1.0  0.1374
  C  C114  1  0.816500  0.922940  0.008330  1.0  0.1491
  C  C115  1  0.757200  0.861600  0.012000  1.0  -0.2075
  C  C116  1  0.779920  0.784520  0.996950  1.0  0.0477
  C  C117  1  0.860900  0.775790  0.975860  1.0  -0.1979
  C  C118  1  0.916600  0.840050  0.974030  1.0  0.1405
  C  C119  1  0.566600  0.465200  0.881310  1.0  0.1541
  C  C120  1  0.569700  0.464600  0.820670  1.0  -0.2193
  C  C121  1  0.499300  0.494390  0.782700  1.0  0.0828
  C  C122  1  0.427400  0.523200  0.808350  1.0  -0.2124
  C  C123  1  0.430300  0.523200  0.869480  1.0  0.1374
  C  C124  1  0.316500  0.422940  0.008330  1.0  0.1491
  C  C125  1  0.257200  0.361600  0.012000  1.0  -0.2075
  C  C126  1  0.279920  0.284520  0.996950  1.0  0.0477
  C  C127  1  0.360900  0.275790  0.975860  1.0  -0.1979
  C  C128  1  0.416600  0.340050  0.974030  1.0  0.1405
  C  C129  1  0.933400  0.965200  0.618690  1.0  0.1528
  C  C130  1  0.930300  0.964600  0.679330  1.0  -0.2199
  C  C131  1  0.000700  0.994390  0.717300  1.0  0.0823
  C  C132  1  0.072600  0.023200  0.691650  1.0  -0.2098
  C  C133  1  0.069700  0.023200  0.630520  1.0  0.1373
  C  C134  1  0.183500  0.922940  0.491670  1.0  0.1495
  C  C135  1  0.242800  0.861600  0.488000  1.0  -0.2063
  C  C136  1  0.220080  0.784520  0.503050  1.0  0.0475
  C  C137  1  0.139100  0.775790  0.524140  1.0  -0.1981
  C  C138  1  0.083400  0.840050  0.525970  1.0  0.1412
  C  C139  1  0.433400  0.465200  0.618690  1.0  0.1528
  C  C140  1  0.430300  0.464600  0.679330  1.0  -0.2199
  C  C141  1  0.500700  0.494390  0.717300  1.0  0.0823
  C  C142  1  0.572600  0.523200  0.691650  1.0  -0.2098
  C  C143  1  0.569700  0.523200  0.630520  1.0  0.1373
  C  C144  1  0.683500  0.422940  0.491670  1.0  0.1495
  C  C145  1  0.742800  0.361600  0.488000  1.0  -0.2063
  C  C146  1  0.720080  0.284520  0.503050  1.0  0.0475
  C  C147  1  0.639100  0.275790  0.524140  1.0  -0.1981
  C  C148  1  0.583400  0.340050  0.525970  1.0  0.1412
  N  N149  1  0.001140  0.004480  0.093680  1.0  -0.339
  N  N150  1  0.102630  0.086740  0.008160  1.0  -0.3348
  N  N151  1  0.501140  0.504480  0.093680  1.0  -0.339
  N  N152  1  0.602630  0.586740  0.008160  1.0  -0.3348
  N  N153  1  0.998860  0.004480  0.406320  1.0  -0.3381
  N  N154  1  0.897370  0.086740  0.491840  1.0  -0.3347
  N  N155  1  0.498860  0.504480  0.406320  1.0  -0.3381
  N  N156  1  0.397370  0.586740  0.491840  1.0  -0.3347
  N  N157  1  0.998860  0.995520  0.906320  1.0  -0.338
  N  N158  1  0.897370  0.913260  0.991840  1.0  -0.3353
  N  N159  1  0.498860  0.495520  0.906320  1.0  -0.338
  N  N160  1  0.397370  0.413260  0.991840  1.0  -0.3353
  N  N161  1  0.001140  0.995520  0.593680  1.0  -0.3386
  N  N162  1  0.102630  0.913260  0.508160  1.0  -0.3348
  N  N163  1  0.501140  0.495520  0.593680  1.0  -0.3386
  N  N164  1  0.602630  0.413260  0.508160  1.0  -0.3348
