# generated using pymatgen
data_VH4C8O5
_symmetry_space_group_name_H-M   'P 1'
_cell_length_a   17.51850000
_cell_length_b   6.87500000
_cell_length_c   12.16800000
_cell_angle_alpha   90.00000000
_cell_angle_beta   90.00000000
_cell_angle_gamma   90.00000000
_symmetry_Int_Tables_number   1
_chemical_formula_structural   VH4C8O5
_chemical_formula_sum   'V4 H16 C32 O20'
_cell_volume   1465.51011750
_cell_formula_units_Z   4
loop_
 _symmetry_equiv_pos_site_id
 _symmetry_equiv_pos_as_xyz
  1  'x, y, z'
loop_
 _atom_site_type_symbol
 _atom_site_label
 _atom_site_symmetry_multiplicity
 _atom_site_fract_x
 _atom_site_fract_y
 _atom_site_fract_z
 _atom_site_occupancy
 _atom_site_charge
  V  V1  1  0.000000  0.000000  0.000000  1.0  1.7087
  V  V2  1  0.500000  0.000000  0.500000  1.0  1.7087
  V  V3  1  0.000000  0.500000  0.000000  1.0  1.7087
  V  V4  1  0.500000  0.500000  0.500000  1.0  1.7087
  H  H5  1  0.204600  0.458400  0.181500  1.0  0.1015
  H  H6  1  0.316900  0.459200  0.279200  1.0  0.0959
  H  H7  1  0.295400  0.541600  0.681500  1.0  0.1016
  H  H8  1  0.183100  0.540800  0.779200  1.0  0.0963
  H  H9  1  0.795400  0.958400  0.818500  1.0  0.1015
  H  H10  1  0.683100  0.959200  0.720800  1.0  0.0966
  H  H11  1  0.704600  0.041600  0.318500  1.0  0.1017
  H  H12  1  0.816900  0.040800  0.220800  1.0  0.0968
  H  H13  1  0.795400  0.541600  0.818500  1.0  0.1016
  H  H14  1  0.683100  0.540800  0.720800  1.0  0.0969
  H  H15  1  0.704600  0.458400  0.318500  1.0  0.1015
  H  H16  1  0.816900  0.459200  0.220800  1.0  0.0966
  H  H17  1  0.204600  0.041600  0.181500  1.0  0.1018
  H  H18  1  0.316900  0.040800  0.279200  1.0  0.0962
  H  H19  1  0.295400  0.958400  0.681500  1.0  0.1014
  H  H20  1  0.183100  0.959200  0.779200  1.0  0.0959
  C  C21  1  0.227000  0.575800  0.201500  1.0  -0.0549
  C  C22  1  0.294200  0.576500  0.259500  1.0  -0.0459
  C  C23  1  0.273000  0.424200  0.701500  1.0  -0.0558
  C  C24  1  0.205800  0.423500  0.759500  1.0  -0.0465
  C  C25  1  0.773000  0.075800  0.798500  1.0  -0.0544
  C  C26  1  0.705800  0.076500  0.740500  1.0  -0.0464
  C  C27  1  0.727000  0.924200  0.298500  1.0  -0.0546
  C  C28  1  0.794200  0.923500  0.240500  1.0  -0.0467
  C  C29  1  0.773000  0.424200  0.798500  1.0  -0.0548
  C  C30  1  0.705800  0.423500  0.740500  1.0  -0.0469
  C  C31  1  0.727000  0.575800  0.298500  1.0  -0.0541
  C  C32  1  0.794200  0.576500  0.240500  1.0  -0.046
  C  C33  1  0.227000  0.924200  0.201500  1.0  -0.0555
  C  C34  1  0.294200  0.923500  0.259500  1.0  -0.0463
  C  C35  1  0.273000  0.075800  0.701500  1.0  -0.055
  C  C36  1  0.205800  0.076500  0.759500  1.0  -0.0463
  C  C37  1  0.328700  0.750000  0.288900  1.0  -0.1475
  C  C38  1  0.192500  0.750000  0.172800  1.0  -0.1347
  C  C39  1  0.398800  0.750000  0.358800  1.0  0.7454
  C  C40  1  0.118200  0.750000  0.111800  1.0  0.7047
  C  C41  1  0.171300  0.250000  0.788900  1.0  -0.148
  C  C42  1  0.307500  0.250000  0.672800  1.0  -0.1343
  C  C43  1  0.101200  0.250000  0.858800  1.0  0.7447
  C  C44  1  0.381800  0.250000  0.611800  1.0  0.7045
  C  C45  1  0.671300  0.250000  0.711100  1.0  -0.1484
  C  C46  1  0.807500  0.250000  0.827200  1.0  -0.1344
  C  C47  1  0.601200  0.250000  0.641200  1.0  0.7445
  C  C48  1  0.881800  0.250000  0.888200  1.0  0.7044
  C  C49  1  0.828700  0.750000  0.211100  1.0  -0.148
  C  C50  1  0.692500  0.750000  0.327200  1.0  -0.1344
  C  C51  1  0.898800  0.750000  0.141200  1.0  0.7452
  C  C52  1  0.618200  0.750000  0.388200  1.0  0.7048
  O  O53  1  0.089360  0.913600  0.089200  1.0  -0.608
  O  O54  1  0.426010  0.588000  0.385300  1.0  -0.5983
  O  O55  1  0.410640  0.086400  0.589200  1.0  -0.608
  O  O56  1  0.073990  0.412000  0.885300  1.0  -0.5995
  O  O57  1  0.910640  0.413600  0.910800  1.0  -0.6087
  O  O58  1  0.573990  0.088000  0.614700  1.0  -0.5982
  O  O59  1  0.589360  0.586400  0.410800  1.0  -0.6075
  O  O60  1  0.926010  0.912000  0.114700  1.0  -0.5992
  O  O61  1  0.910640  0.086400  0.910800  1.0  -0.6074
  O  O62  1  0.573990  0.412000  0.614700  1.0  -0.5989
  O  O63  1  0.589360  0.913600  0.410800  1.0  -0.6085
  O  O64  1  0.926010  0.588000  0.114700  1.0  -0.5984
  O  O65  1  0.089360  0.586400  0.089200  1.0  -0.608
  O  O66  1  0.426010  0.912000  0.385300  1.0  -0.5996
  O  O67  1  0.410640  0.413600  0.589200  1.0  -0.6083
  O  O68  1  0.073990  0.088000  0.885300  1.0  -0.5984
  O  O69  1  0.993200  0.750000  0.925500  1.0  -0.656
  O  O70  1  0.506800  0.250000  0.425500  1.0  -0.6561
  O  O71  1  0.006800  0.250000  0.074500  1.0  -0.6552
  O  O72  1  0.493200  0.750000  0.574500  1.0  -0.655
