# generated using pymatgen
data_Zn3H18(C14O5)2
_symmetry_space_group_name_H-M   'P 1'
_cell_length_a   23.11800000
_cell_length_b   20.91920000
_cell_length_c   12.00210000
_cell_angle_alpha   90.00000000
_cell_angle_beta   111.62700000
_cell_angle_gamma   90.00000000
_symmetry_Int_Tables_number   1
_chemical_formula_structural   Zn3H18(C14O5)2
_chemical_formula_sum   'Zn12 H72 C112 O40'
_cell_volume   5395.72796731
_cell_formula_units_Z   4
loop_
 _symmetry_equiv_pos_site_id
 _symmetry_equiv_pos_as_xyz
  1  'x, y, z'
loop_
 _atom_site_type_symbol
 _atom_site_label
 _atom_site_symmetry_multiplicity
 _atom_site_fract_x
 _atom_site_fract_y
 _atom_site_fract_z
 _atom_site_occupancy
 _atom_site_charge
  Zn  Zn1  1  0.000000  0.000000  0.000000  1.0  1.1707
  Zn  Zn2  1  0.500000  0.500000  0.000000  1.0  1.1707
  Zn  Zn3  1  0.000000  0.000000  0.500000  1.0  1.1707
  Zn  Zn4  1  0.500000  0.500000  0.500000  1.0  1.1707
  Zn  Zn5  1  0.000000  0.070900  0.250000  1.0  0.996
  Zn  Zn6  1  0.000000  0.931800  0.250000  1.0  1.0395
  Zn  Zn7  1  0.500000  0.570900  0.250000  1.0  0.996
  Zn  Zn8  1  0.500000  0.431800  0.250000  1.0  1.0398
  Zn  Zn9  1  0.000000  0.929100  0.750000  1.0  0.9984
  Zn  Zn10  1  0.000000  0.068200  0.750000  1.0  1.0391
  Zn  Zn11  1  0.500000  0.429100  0.750000  1.0  0.9984
  Zn  Zn12  1  0.500000  0.568200  0.750000  1.0  1.0395
  H  H13  1  0.861900  0.215900  0.078600  1.0  0.0978
  H  H14  1  0.783700  0.281000  0.954100  1.0  0.1354
  H  H15  1  0.802100  0.193100  0.667700  1.0  0.1074
  H  H16  1  0.883100  0.130900  0.794600  1.0  0.12
  H  H17  1  0.752500  0.367300  0.815500  1.0  0.1291
  H  H18  1  0.669600  0.427700  0.683300  1.0  0.1154
  H  H19  1  0.623500  0.283400  0.450400  1.0  0.1053
  H  H20  1  0.702700  0.219000  0.576700  1.0  0.1363
  H  H21  1  0.082000  0.000300  0.217700  1.0  0.3878
  H  H22  1  0.361900  0.715900  0.078600  1.0  0.0965
  H  H23  1  0.283700  0.781000  0.954100  1.0  0.1354
  H  H24  1  0.302100  0.693100  0.667700  1.0  0.1074
  H  H25  1  0.383100  0.630900  0.794600  1.0  0.12
  H  H26  1  0.252500  0.867300  0.815500  1.0  0.1291
  H  H27  1  0.169600  0.927700  0.683300  1.0  0.1154
  H  H28  1  0.123500  0.783400  0.450400  1.0  0.1053
  H  H29  1  0.202700  0.719000  0.576700  1.0  0.1363
  H  H30  1  0.582000  0.500300  0.217700  1.0  0.3878
  H  H31  1  0.138100  0.215900  0.421400  1.0  0.0978
  H  H32  1  0.216300  0.281000  0.545900  1.0  0.1355
  H  H33  1  0.197900  0.193100  0.832300  1.0  0.1064
  H  H34  1  0.116900  0.130900  0.705400  1.0  0.1201
  H  H35  1  0.247500  0.367300  0.684500  1.0  0.13
  H  H36  1  0.330400  0.427700  0.816700  1.0  0.1161
  H  H37  1  0.376500  0.283400  0.049600  1.0  0.1056
  H  H38  1  0.297300  0.219000  0.923300  1.0  0.1364
  H  H39  1  0.918000  0.000300  0.282300  1.0  0.3882
  H  H40  1  0.638100  0.715900  0.421400  1.0  0.0989
  H  H41  1  0.716300  0.781000  0.545900  1.0  0.1355
  H  H42  1  0.697900  0.693100  0.832300  1.0  0.1064
  H  H43  1  0.616900  0.630900  0.705400  1.0  0.1201
  H  H44  1  0.747500  0.867300  0.684500  1.0  0.13
  H  H45  1  0.830400  0.927700  0.816700  1.0  0.1161
  H  H46  1  0.876500  0.783400  0.049600  1.0  0.1056
  H  H47  1  0.797300  0.719000  0.923300  1.0  0.1364
  H  H48  1  0.418000  0.500300  0.282300  1.0  0.3882
  H  H49  1  0.138100  0.784100  0.921400  1.0  0.0977
  H  H50  1  0.216300  0.719000  0.045900  1.0  0.1353
  H  H51  1  0.197900  0.806900  0.332300  1.0  0.1059
  H  H52  1  0.116900  0.869100  0.205400  1.0  0.1199
  H  H53  1  0.247500  0.632700  0.184500  1.0  0.1295
  H  H54  1  0.330400  0.572300  0.316700  1.0  0.1155
  H  H55  1  0.376500  0.716600  0.549600  1.0  0.1054
  H  H56  1  0.297300  0.781000  0.423300  1.0  0.1367
  H  H57  1  0.918000  0.999700  0.782300  1.0  0.3881
  H  H58  1  0.638100  0.284100  0.921400  1.0  0.0967
  H  H59  1  0.716300  0.219000  0.045900  1.0  0.1353
  H  H60  1  0.697900  0.306900  0.332300  1.0  0.1059
  H  H61  1  0.616900  0.369100  0.205400  1.0  0.1199
  H  H62  1  0.747500  0.132700  0.184500  1.0  0.1295
  H  H63  1  0.830400  0.072300  0.316700  1.0  0.1155
  H  H64  1  0.876500  0.216600  0.549600  1.0  0.1054
  H  H65  1  0.797300  0.281000  0.423300  1.0  0.1367
  H  H66  1  0.418000  0.499700  0.782300  1.0  0.3881
  H  H67  1  0.861900  0.784100  0.578600  1.0  0.0976
  H  H68  1  0.783700  0.719000  0.454100  1.0  0.1351
  H  H69  1  0.802100  0.806900  0.167700  1.0  0.1076
  H  H70  1  0.883100  0.869100  0.294600  1.0  0.1199
  H  H71  1  0.752500  0.632700  0.315500  1.0  0.1291
  H  H72  1  0.669600  0.572300  0.183300  1.0  0.1158
  H  H73  1  0.623500  0.716600  0.950400  1.0  0.1053
  H  H74  1  0.702700  0.781000  0.076700  1.0  0.137
  H  H75  1  0.082000  0.999700  0.717700  1.0  0.3878
  H  H76  1  0.361900  0.284100  0.578600  1.0  0.0986
  H  H77  1  0.283700  0.219000  0.454100  1.0  0.1351
  H  H78  1  0.302100  0.306900  0.167700  1.0  0.1076
  H  H79  1  0.383100  0.369100  0.294600  1.0  0.1199
  H  H80  1  0.252500  0.132700  0.315500  1.0  0.1291
  H  H81  1  0.169600  0.072300  0.183300  1.0  0.1158
  H  H82  1  0.123500  0.216600  0.950400  1.0  0.1053
  H  H83  1  0.202700  0.281000  0.076700  1.0  0.137
  H  H84  1  0.582000  0.499700  0.717700  1.0  0.3878
  C  C85  1  0.928100  0.123200  0.028000  1.0  0.7014
  C  C86  1  0.879400  0.166900  0.953000  1.0  -0.1393
  C  C87  1  0.850000  0.211400  0.994000  1.0  -0.0318
  C  C88  1  0.803600  0.250800  0.921000  1.0  -0.1791
  C  C89  1  0.786300  0.245300  0.794000  1.0  0.0549
  C  C90  1  0.815100  0.199100  0.752000  1.0  -0.1117
  C  C91  1  0.862400  0.160700  0.827000  1.0  -0.1166
  C  C92  1  0.735500  0.286500  0.713000  1.0  0.0469
  C  C93  1  0.726000  0.349100  0.742000  1.0  -0.1335
  C  C94  1  0.677000  0.385600  0.662000  1.0  -0.0281
  C  C95  1  0.640100  0.361100  0.553000  1.0  -0.1092
  C  C96  1  0.650000  0.300000  0.525000  1.0  -0.0427
  C  C97  1  0.696800  0.261100  0.600000  1.0  -0.1878
  C  C98  1  0.590700  0.402000  0.468000  1.0  0.688
  C  C99  1  0.428100  0.623200  0.028000  1.0  0.7014
  C  C100  1  0.379400  0.666900  0.953000  1.0  -0.1393
  C  C101  1  0.350000  0.711400  0.994000  1.0  -0.0318
  C  C102  1  0.303600  0.750800  0.921000  1.0  -0.1791
  C  C103  1  0.286300  0.745300  0.794000  1.0  0.0549
  C  C104  1  0.315100  0.699100  0.752000  1.0  -0.1117
  C  C105  1  0.362400  0.660700  0.827000  1.0  -0.1166
  C  C106  1  0.235500  0.786500  0.713000  1.0  0.0469
  C  C107  1  0.226000  0.849100  0.742000  1.0  -0.1335
  C  C108  1  0.177000  0.885600  0.662000  1.0  -0.0281
  C  C109  1  0.140100  0.861100  0.553000  1.0  -0.1092
  C  C110  1  0.150000  0.800000  0.525000  1.0  -0.0427
  C  C111  1  0.196800  0.761100  0.600000  1.0  -0.1878
  C  C112  1  0.090700  0.902000  0.468000  1.0  0.688
  C  C113  1  0.071900  0.123200  0.472000  1.0  0.7021
  C  C114  1  0.120600  0.166900  0.547000  1.0  -0.1389
  C  C115  1  0.150000  0.211400  0.506000  1.0  -0.0316
  C  C116  1  0.196400  0.250800  0.579000  1.0  -0.1777
  C  C117  1  0.213700  0.245300  0.706000  1.0  0.0547
  C  C118  1  0.184900  0.199100  0.748000  1.0  -0.1118
  C  C119  1  0.137600  0.160700  0.673000  1.0  -0.1162
  C  C120  1  0.264500  0.286500  0.787000  1.0  0.047
  C  C121  1  0.274000  0.349100  0.758000  1.0  -0.1341
  C  C122  1  0.323000  0.385600  0.838000  1.0  -0.0288
  C  C123  1  0.359900  0.361100  0.947000  1.0  -0.1085
  C  C124  1  0.350000  0.300000  0.975000  1.0  -0.0431
  C  C125  1  0.303200  0.261100  0.900000  1.0  -0.1881
  C  C126  1  0.409300  0.402000  0.032000  1.0  0.6873
  C  C127  1  0.571900  0.623200  0.472000  1.0  0.7021
  C  C128  1  0.620600  0.666900  0.547000  1.0  -0.1389
  C  C129  1  0.650000  0.711400  0.506000  1.0  -0.0316
  C  C130  1  0.696400  0.750800  0.579000  1.0  -0.1777
  C  C131  1  0.713700  0.745300  0.706000  1.0  0.0547
  C  C132  1  0.684900  0.699100  0.748000  1.0  -0.1118
  C  C133  1  0.637600  0.660700  0.673000  1.0  -0.1162
  C  C134  1  0.764500  0.786500  0.787000  1.0  0.047
  C  C135  1  0.774000  0.849100  0.758000  1.0  -0.1341
  C  C136  1  0.823000  0.885600  0.838000  1.0  -0.0288
  C  C137  1  0.859900  0.861100  0.947000  1.0  -0.1085
  C  C138  1  0.850000  0.800000  0.975000  1.0  -0.0431
  C  C139  1  0.803200  0.761100  0.900000  1.0  -0.1881
  C  C140  1  0.909300  0.902000  0.032000  1.0  0.6873
  C  C141  1  0.071900  0.876800  0.972000  1.0  0.7021
  C  C142  1  0.120600  0.833100  0.047000  1.0  -0.1393
  C  C143  1  0.150000  0.788600  0.006000  1.0  -0.0315
  C  C144  1  0.196400  0.749200  0.079000  1.0  -0.1783
  C  C145  1  0.213700  0.754700  0.206000  1.0  0.0548
  C  C146  1  0.184900  0.800900  0.248000  1.0  -0.1115
  C  C147  1  0.137600  0.839300  0.173000  1.0  -0.1165
  C  C148  1  0.264500  0.713500  0.287000  1.0  0.0473
  C  C149  1  0.274000  0.650900  0.258000  1.0  -0.1333
  C  C150  1  0.323000  0.614400  0.338000  1.0  -0.0294
  C  C151  1  0.359900  0.638900  0.447000  1.0  -0.1079
  C  C152  1  0.350000  0.700000  0.475000  1.0  -0.0432
  C  C153  1  0.303200  0.738900  0.400000  1.0  -0.1884
  C  C154  1  0.409300  0.598000  0.532000  1.0  0.687
  C  C155  1  0.571900  0.376800  0.972000  1.0  0.7021
  C  C156  1  0.620600  0.333100  0.047000  1.0  -0.1393
  C  C157  1  0.650000  0.288600  0.006000  1.0  -0.0315
  C  C158  1  0.696400  0.249200  0.079000  1.0  -0.1783
  C  C159  1  0.713700  0.254700  0.206000  1.0  0.0548
  C  C160  1  0.684900  0.300900  0.248000  1.0  -0.1115
  C  C161  1  0.637600  0.339300  0.173000  1.0  -0.1165
  C  C162  1  0.764500  0.213500  0.287000  1.0  0.0473
  C  C163  1  0.774000  0.150900  0.258000  1.0  -0.1333
  C  C164  1  0.823000  0.114400  0.338000  1.0  -0.0294
  C  C165  1  0.859900  0.138900  0.447000  1.0  -0.1079
  C  C166  1  0.850000  0.200000  0.475000  1.0  -0.0432
  C  C167  1  0.803200  0.238900  0.400000  1.0  -0.1884
  C  C168  1  0.909300  0.098000  0.532000  1.0  0.687
  C  C169  1  0.928100  0.876800  0.528000  1.0  0.702
  C  C170  1  0.879400  0.833100  0.453000  1.0  -0.1397
  C  C171  1  0.850000  0.788600  0.494000  1.0  -0.0317
  C  C172  1  0.803600  0.749200  0.421000  1.0  -0.1785
  C  C173  1  0.786300  0.754700  0.294000  1.0  0.055
  C  C174  1  0.815100  0.800900  0.252000  1.0  -0.1114
  C  C175  1  0.862400  0.839300  0.327000  1.0  -0.1171
  C  C176  1  0.735500  0.713500  0.213000  1.0  0.047
  C  C177  1  0.726000  0.650900  0.242000  1.0  -0.134
  C  C178  1  0.677000  0.614400  0.162000  1.0  -0.0289
  C  C179  1  0.640100  0.638900  0.053000  1.0  -0.1089
  C  C180  1  0.650000  0.700000  0.025000  1.0  -0.0421
  C  C181  1  0.696800  0.738900  0.100000  1.0  -0.1884
  C  C182  1  0.590700  0.598000  0.968000  1.0  0.6878
  C  C183  1  0.428100  0.376800  0.528000  1.0  0.702
  C  C184  1  0.379400  0.333100  0.453000  1.0  -0.1397
  C  C185  1  0.350000  0.288600  0.494000  1.0  -0.0317
  C  C186  1  0.303600  0.249200  0.421000  1.0  -0.1785
  C  C187  1  0.286300  0.254700  0.294000  1.0  0.055
  C  C188  1  0.315100  0.300900  0.252000  1.0  -0.1114
  C  C189  1  0.362400  0.339300  0.327000  1.0  -0.1171
  C  C190  1  0.235500  0.213500  0.213000  1.0  0.047
  C  C191  1  0.226000  0.150900  0.242000  1.0  -0.134
  C  C192  1  0.177000  0.114400  0.162000  1.0  -0.0289
  C  C193  1  0.140100  0.138900  0.053000  1.0  -0.1089
  C  C194  1  0.150000  0.200000  0.025000  1.0  -0.0421
  C  C195  1  0.196800  0.238900  0.100000  1.0  -0.1884
  C  C196  1  0.090700  0.098000  0.968000  1.0  0.6878
  O  O197  1  0.037800  0.000400  0.185500  1.0  -0.9897
  O  O198  1  0.934000  0.124600  0.144000  1.0  -0.5731
  O  O199  1  0.958700  0.089800  0.987000  1.0  -0.59
  O  O200  1  0.558200  0.375900  0.366100  1.0  -0.5914
  O  O201  1  0.580700  0.456700  0.497200  1.0  -0.6053
  O  O202  1  0.537800  0.500400  0.185500  1.0  -0.9897
  O  O203  1  0.434000  0.624600  0.144000  1.0  -0.5731
  O  O204  1  0.458700  0.589800  0.987000  1.0  -0.59
  O  O205  1  0.058200  0.875900  0.366100  1.0  -0.5914
  O  O206  1  0.080700  0.956700  0.497200  1.0  -0.6053
  O  O207  1  0.962200  0.000400  0.314500  1.0  -0.99
  O  O208  1  0.066000  0.124600  0.356000  1.0  -0.5746
  O  O209  1  0.041300  0.089800  0.513000  1.0  -0.5888
  O  O210  1  0.441800  0.375900  0.133900  1.0  -0.5919
  O  O211  1  0.419300  0.456700  0.002800  1.0  -0.6052
  O  O212  1  0.462200  0.500400  0.314500  1.0  -0.99
  O  O213  1  0.566000  0.624600  0.356000  1.0  -0.5746
  O  O214  1  0.541300  0.589800  0.513000  1.0  -0.5888
  O  O215  1  0.941800  0.875900  0.133900  1.0  -0.5919
  O  O216  1  0.919300  0.956700  0.002800  1.0  -0.6052
  O  O217  1  0.962200  0.999600  0.814500  1.0  -0.9903
  O  O218  1  0.066000  0.875400  0.856000  1.0  -0.5748
  O  O219  1  0.041300  0.910200  0.013000  1.0  -0.5886
  O  O220  1  0.441800  0.624100  0.633900  1.0  -0.5924
  O  O221  1  0.419300  0.543300  0.502800  1.0  -0.6051
  O  O222  1  0.462200  0.499600  0.814500  1.0  -0.9903
  O  O223  1  0.566000  0.375400  0.856000  1.0  -0.5748
  O  O224  1  0.541300  0.410200  0.013000  1.0  -0.5886
  O  O225  1  0.941800  0.124100  0.633900  1.0  -0.5924
  O  O226  1  0.919300  0.043300  0.502800  1.0  -0.6051
  O  O227  1  0.037800  0.999600  0.685500  1.0  -0.9901
  O  O228  1  0.934000  0.875400  0.644000  1.0  -0.5729
  O  O229  1  0.958700  0.910200  0.487000  1.0  -0.5899
  O  O230  1  0.558200  0.624100  0.866100  1.0  -0.5921
  O  O231  1  0.580700  0.543300  0.997200  1.0  -0.605
  O  O232  1  0.537800  0.499600  0.685500  1.0  -0.9901
  O  O233  1  0.434000  0.375400  0.644000  1.0  -0.5729
  O  O234  1  0.458700  0.410200  0.487000  1.0  -0.5899
  O  O235  1  0.058200  0.124100  0.866100  1.0  -0.5921
  O  O236  1  0.080700  0.043300  0.997200  1.0  -0.605
