# generated using pymatgen
data_Zn3H14(C12O5)2
_symmetry_space_group_name_H-M   'P 1'
_cell_length_a   20.16580000
_cell_length_b   18.55180000
_cell_length_c   12.15800000
_cell_angle_alpha   90.00000000
_cell_angle_beta   95.33100000
_cell_angle_gamma   90.00000000
_symmetry_Int_Tables_number   1
_chemical_formula_structural   Zn3H14(C12O5)2
_chemical_formula_sum   'Zn12 H56 C96 O40'
_cell_volume   4528.77835086
_cell_formula_units_Z   4
loop_
 _symmetry_equiv_pos_site_id
 _symmetry_equiv_pos_as_xyz
  1  'x, y, z'
loop_
 _atom_site_type_symbol
 _atom_site_label
 _atom_site_symmetry_multiplicity
 _atom_site_fract_x
 _atom_site_fract_y
 _atom_site_fract_z
 _atom_site_occupancy
 _atom_site_charge
  Zn  Zn1  1  0.000000  0.000000  0.000000  1.0  1.1848
  Zn  Zn2  1  0.500000  0.500000  0.000000  1.0  1.1848
  Zn  Zn3  1  0.000000  0.000000  0.500000  1.0  1.1848
  Zn  Zn4  1  0.500000  0.500000  0.500000  1.0  1.1848
  Zn  Zn5  1  0.000000  0.921230  0.250000  1.0  1.084
  Zn  Zn6  1  0.000000  0.077850  0.250000  1.0  1.0166
  Zn  Zn7  1  0.500000  0.421230  0.250000  1.0  1.084
  Zn  Zn8  1  0.500000  0.577850  0.250000  1.0  1.0166
  Zn  Zn9  1  0.000000  0.078770  0.750000  1.0  1.0792
  Zn  Zn10  1  0.000000  0.922150  0.750000  1.0  1.0147
  Zn  Zn11  1  0.500000  0.578770  0.750000  1.0  1.0792
  Zn  Zn12  1  0.500000  0.422150  0.750000  1.0  1.0147
  H  H13  1  0.078800  0.990000  0.162000  1.0  0.4449
  H  H14  1  0.832800  0.785900  0.175800  1.0  0.108
  H  H15  1  0.860700  0.852100  0.864700  1.0  0.1067
  H  H16  1  0.736100  0.706700  0.204000  1.0  0.0959
  H  H17  1  0.184400  0.907600  0.093800  1.0  0.1071
  H  H18  1  0.274500  0.840900  0.166000  1.0  0.1051
  H  H19  1  0.149500  0.763300  0.845600  1.0  0.102
  H  H20  1  0.578800  0.490000  0.162000  1.0  0.4449
  H  H21  1  0.332800  0.285900  0.175800  1.0  0.108
  H  H22  1  0.360700  0.352100  0.864700  1.0  0.1067
  H  H23  1  0.236100  0.206700  0.204000  1.0  0.0959
  H  H24  1  0.684400  0.407600  0.093800  1.0  0.1071
  H  H25  1  0.774500  0.340900  0.166000  1.0  0.1051
  H  H26  1  0.649500  0.263300  0.845600  1.0  0.102
  H  H27  1  0.921200  0.990000  0.338000  1.0  0.4479
  H  H28  1  0.167200  0.785900  0.324200  1.0  0.1073
  H  H29  1  0.139300  0.852100  0.635300  1.0  0.1066
  H  H30  1  0.263900  0.706700  0.296000  1.0  0.0959
  H  H31  1  0.815600  0.907600  0.406200  1.0  0.1071
  H  H32  1  0.725500  0.840900  0.334000  1.0  0.1051
  H  H33  1  0.850500  0.763300  0.654400  1.0  0.102
  H  H34  1  0.421200  0.490000  0.338000  1.0  0.4479
  H  H35  1  0.667200  0.285900  0.324200  1.0  0.1073
  H  H36  1  0.639300  0.352100  0.635300  1.0  0.1066
  H  H37  1  0.763900  0.206700  0.296000  1.0  0.0959
  H  H38  1  0.315600  0.407600  0.406200  1.0  0.1071
  H  H39  1  0.225500  0.340900  0.334000  1.0  0.1051
  H  H40  1  0.350500  0.263300  0.654400  1.0  0.102
  H  H41  1  0.921200  0.010000  0.838000  1.0  0.4478
  H  H42  1  0.167200  0.214100  0.824200  1.0  0.1077
  H  H43  1  0.139300  0.147900  0.135300  1.0  0.1067
  H  H44  1  0.263900  0.293300  0.796000  1.0  0.096
  H  H45  1  0.815600  0.092400  0.906200  1.0  0.1066
  H  H46  1  0.725500  0.159100  0.834000  1.0  0.1046
  H  H47  1  0.850500  0.236700  0.154400  1.0  0.1024
  H  H48  1  0.421200  0.510000  0.838000  1.0  0.4478
  H  H49  1  0.667200  0.714100  0.824200  1.0  0.1077
  H  H50  1  0.639300  0.647900  0.135300  1.0  0.1067
  H  H51  1  0.763900  0.793300  0.796000  1.0  0.096
  H  H52  1  0.315600  0.592400  0.906200  1.0  0.1066
  H  H53  1  0.225500  0.659100  0.834000  1.0  0.1046
  H  H54  1  0.350500  0.736700  0.154400  1.0  0.1024
  H  H55  1  0.078800  0.010000  0.662000  1.0  0.447
  H  H56  1  0.832800  0.214100  0.675800  1.0  0.1075
  H  H57  1  0.860700  0.147900  0.364700  1.0  0.1067
  H  H58  1  0.736100  0.293300  0.704000  1.0  0.0959
  H  H59  1  0.184400  0.092400  0.593800  1.0  0.1068
  H  H60  1  0.274500  0.159100  0.666000  1.0  0.1051
  H  H61  1  0.149500  0.236700  0.345600  1.0  0.1027
  H  H62  1  0.578800  0.510000  0.662000  1.0  0.447
  H  H63  1  0.332800  0.714100  0.675800  1.0  0.1075
  H  H64  1  0.360700  0.647900  0.364700  1.0  0.1067
  H  H65  1  0.236100  0.793300  0.704000  1.0  0.0959
  H  H66  1  0.684400  0.592400  0.593800  1.0  0.1068
  H  H67  1  0.774500  0.659100  0.666000  1.0  0.1051
  H  H68  1  0.649500  0.736700  0.345600  1.0  0.1027
  C  C69  1  0.915000  0.867100  0.073000  1.0  0.7182
  C  C70  1  0.854800  0.825500  0.029000  1.0  -0.1267
  C  C71  1  0.818800  0.786900  0.099000  1.0  -0.1327
  C  C72  1  0.760700  0.748300  0.057900  1.0  0.0394
  C  C73  1  0.834800  0.826800  0.913500  1.0  -0.0659
  C  C74  1  0.722400  0.708900  0.127100  1.0  -0.0666
  C  C75  1  0.098700  0.885000  0.913500  1.0  0.6953
  C  C76  1  0.157200  0.841300  0.960300  1.0  -0.1564
  C  C77  1  0.195900  0.864500  0.058000  1.0  -0.0556
  C  C78  1  0.249500  0.824900  0.100500  1.0  -0.0905
  C  C79  1  0.175500  0.779400  0.910100  1.0  -0.0829
  C  C80  1  0.268300  0.761400  0.049700  1.0  0.0356
  C  C81  1  0.415000  0.367100  0.073000  1.0  0.7182
  C  C82  1  0.354800  0.325500  0.029000  1.0  -0.1267
  C  C83  1  0.318800  0.286900  0.099000  1.0  -0.1327
  C  C84  1  0.260700  0.248300  0.057900  1.0  0.0394
  C  C85  1  0.334800  0.326800  0.913500  1.0  -0.0659
  C  C86  1  0.222400  0.208900  0.127100  1.0  -0.0666
  C  C87  1  0.598700  0.385000  0.913500  1.0  0.6953
  C  C88  1  0.657200  0.341300  0.960300  1.0  -0.1564
  C  C89  1  0.695900  0.364500  0.058000  1.0  -0.0556
  C  C90  1  0.749500  0.324900  0.100500  1.0  -0.0905
  C  C91  1  0.675500  0.279400  0.910100  1.0  -0.0829
  C  C92  1  0.768300  0.261400  0.049700  1.0  0.0356
  C  C93  1  0.085000  0.867100  0.427000  1.0  0.7176
  C  C94  1  0.145200  0.825500  0.471000  1.0  -0.1264
  C  C95  1  0.181200  0.786900  0.401000  1.0  -0.1329
  C  C96  1  0.239300  0.748300  0.442100  1.0  0.0396
  C  C97  1  0.165200  0.826800  0.586500  1.0  -0.0656
  C  C98  1  0.277600  0.708900  0.372900  1.0  -0.067
  C  C99  1  0.901300  0.885000  0.586500  1.0  0.696
  C  C100  1  0.842800  0.841300  0.539700  1.0  -0.1567
  C  C101  1  0.804100  0.864500  0.442000  1.0  -0.0559
  C  C102  1  0.750500  0.824900  0.399500  1.0  -0.09
  C  C103  1  0.824500  0.779400  0.589900  1.0  -0.0833
  C  C104  1  0.731700  0.761400  0.450300  1.0  0.0363
  C  C105  1  0.585000  0.367100  0.427000  1.0  0.7176
  C  C106  1  0.645200  0.325500  0.471000  1.0  -0.1264
  C  C107  1  0.681200  0.286900  0.401000  1.0  -0.1329
  C  C108  1  0.739300  0.248300  0.442100  1.0  0.0396
  C  C109  1  0.665200  0.326800  0.586500  1.0  -0.0656
  C  C110  1  0.777600  0.208900  0.372900  1.0  -0.067
  C  C111  1  0.401300  0.385000  0.586500  1.0  0.696
  C  C112  1  0.342800  0.341300  0.539700  1.0  -0.1567
  C  C113  1  0.304100  0.364500  0.442000  1.0  -0.0559
  C  C114  1  0.250500  0.324900  0.399500  1.0  -0.09
  C  C115  1  0.324500  0.279400  0.589900  1.0  -0.0833
  C  C116  1  0.231700  0.261400  0.450300  1.0  0.0363
  C  C117  1  0.085000  0.132900  0.927000  1.0  0.7172
  C  C118  1  0.145200  0.174500  0.971000  1.0  -0.1269
  C  C119  1  0.181200  0.213100  0.901000  1.0  -0.1332
  C  C120  1  0.239300  0.251700  0.942100  1.0  0.0399
  C  C121  1  0.165200  0.173200  0.086500  1.0  -0.0658
  C  C122  1  0.277600  0.291100  0.872900  1.0  -0.0711
  C  C123  1  0.901300  0.115000  0.086500  1.0  0.6954
  C  C124  1  0.842800  0.158700  0.039700  1.0  -0.1569
  C  C125  1  0.804100  0.135500  0.942000  1.0  -0.0545
  C  C126  1  0.750500  0.175100  0.899500  1.0  -0.0904
  C  C127  1  0.824500  0.220600  0.089900  1.0  -0.0824
  C  C128  1  0.731700  0.238600  0.950300  1.0  0.0357
  C  C129  1  0.585000  0.632900  0.927000  1.0  0.7172
  C  C130  1  0.645200  0.674500  0.971000  1.0  -0.1269
  C  C131  1  0.681200  0.713100  0.901000  1.0  -0.1332
  C  C132  1  0.739300  0.751700  0.942100  1.0  0.0399
  C  C133  1  0.665200  0.673200  0.086500  1.0  -0.0658
  C  C134  1  0.777600  0.791100  0.872900  1.0  -0.0711
  C  C135  1  0.401300  0.615000  0.086500  1.0  0.6954
  C  C136  1  0.342800  0.658700  0.039700  1.0  -0.1569
  C  C137  1  0.304100  0.635500  0.942000  1.0  -0.0545
  C  C138  1  0.250500  0.675100  0.899500  1.0  -0.0904
  C  C139  1  0.324500  0.720600  0.089900  1.0  -0.0824
  C  C140  1  0.231700  0.738600  0.950300  1.0  0.0357
  C  C141  1  0.915000  0.132900  0.573000  1.0  0.7179
  C  C142  1  0.854800  0.174500  0.529000  1.0  -0.127
  C  C143  1  0.818800  0.213100  0.599000  1.0  -0.1325
  C  C144  1  0.760700  0.251700  0.557900  1.0  0.0397
  C  C145  1  0.834800  0.173200  0.413500  1.0  -0.066
  C  C146  1  0.722400  0.291100  0.627100  1.0  -0.0709
  C  C147  1  0.098700  0.115000  0.413500  1.0  0.6948
  C  C148  1  0.157200  0.158700  0.460300  1.0  -0.1567
  C  C149  1  0.195900  0.135500  0.558000  1.0  -0.0549
  C  C150  1  0.249500  0.175100  0.600500  1.0  -0.0902
  C  C151  1  0.175500  0.220600  0.410100  1.0  -0.0821
  C  C152  1  0.268300  0.238600  0.549700  1.0  0.0351
  C  C153  1  0.415000  0.632900  0.573000  1.0  0.7179
  C  C154  1  0.354800  0.674500  0.529000  1.0  -0.127
  C  C155  1  0.318800  0.713100  0.599000  1.0  -0.1325
  C  C156  1  0.260700  0.751700  0.557900  1.0  0.0397
  C  C157  1  0.334800  0.673200  0.413500  1.0  -0.066
  C  C158  1  0.222400  0.791100  0.627100  1.0  -0.0709
  C  C159  1  0.598700  0.615000  0.413500  1.0  0.6948
  C  C160  1  0.657200  0.658700  0.460300  1.0  -0.1567
  C  C161  1  0.695900  0.635500  0.558000  1.0  -0.0549
  C  C162  1  0.749500  0.675100  0.600500  1.0  -0.0902
  C  C163  1  0.675500  0.720600  0.410100  1.0  -0.0821
  C  C164  1  0.768300  0.738600  0.549700  1.0  0.0351
  O  O165  1  0.038100  0.999300  0.161500  1.0  -0.9698
  O  O166  1  0.948300  0.900000  0.007900  1.0  -0.6146
  O  O167  1  0.928900  0.864700  0.177300  1.0  -0.6136
  O  O168  1  0.067100  0.861500  0.826800  1.0  -0.5838
  O  O169  1  0.087300  0.944400  0.960100  1.0  -0.639
  O  O170  1  0.538100  0.499300  0.161500  1.0  -0.9698
  O  O171  1  0.448300  0.400000  0.007900  1.0  -0.6146
  O  O172  1  0.428900  0.364700  0.177300  1.0  -0.6136
  O  O173  1  0.567100  0.361500  0.826800  1.0  -0.5838
  O  O174  1  0.587300  0.444400  0.960100  1.0  -0.639
  O  O175  1  0.961900  0.999300  0.338500  1.0  -0.972
  O  O176  1  0.051700  0.900000  0.492100  1.0  -0.6148
  O  O177  1  0.071100  0.864700  0.322700  1.0  -0.613
  O  O178  1  0.932900  0.861500  0.673200  1.0  -0.5832
  O  O179  1  0.912700  0.944400  0.539900  1.0  -0.6382
  O  O180  1  0.461900  0.499300  0.338500  1.0  -0.972
  O  O181  1  0.551700  0.400000  0.492100  1.0  -0.6148
  O  O182  1  0.571100  0.364700  0.322700  1.0  -0.613
  O  O183  1  0.432900  0.361500  0.673200  1.0  -0.5832
  O  O184  1  0.412700  0.444400  0.539900  1.0  -0.6382
  O  O185  1  0.961900  0.000700  0.838500  1.0  -0.972
  O  O186  1  0.051700  0.100000  0.992100  1.0  -0.6146
  O  O187  1  0.071100  0.135300  0.822700  1.0  -0.6131
  O  O188  1  0.932900  0.138500  0.173200  1.0  -0.5844
  O  O189  1  0.912700  0.055600  0.039900  1.0  -0.6384
  O  O190  1  0.461900  0.500700  0.838500  1.0  -0.972
  O  O191  1  0.551700  0.600000  0.992100  1.0  -0.6146
  O  O192  1  0.571100  0.635300  0.822700  1.0  -0.6131
  O  O193  1  0.432900  0.638500  0.173200  1.0  -0.5844
  O  O194  1  0.412700  0.555600  0.039900  1.0  -0.6384
  O  O195  1  0.038100  0.000700  0.661500  1.0  -0.9698
  O  O196  1  0.948300  0.100000  0.507900  1.0  -0.6143
  O  O197  1  0.928900  0.135300  0.677300  1.0  -0.6139
  O  O198  1  0.067100  0.138500  0.326800  1.0  -0.5846
  O  O199  1  0.087300  0.055600  0.460100  1.0  -0.6393
  O  O200  1  0.538100  0.500700  0.661500  1.0  -0.9698
  O  O201  1  0.448300  0.600000  0.507900  1.0  -0.6143
  O  O202  1  0.428900  0.635300  0.677300  1.0  -0.6139
  O  O203  1  0.567100  0.638500  0.326800  1.0  -0.5846
  O  O204  1  0.587300  0.555600  0.460100  1.0  -0.6393
