# generated using pymatgen
data_Cu7H42(C5N3)12
_symmetry_space_group_name_H-M   'P 1'
_cell_length_a   18.17700000
_cell_length_b   23.86700000
_cell_length_c   22.42500000
_cell_angle_alpha   90.00000000
_cell_angle_beta   90.00000000
_cell_angle_gamma   90.00000000
_symmetry_Int_Tables_number   1
_chemical_formula_structural   Cu7H42(C5N3)12
_chemical_formula_sum   'Cu28 H168 C240 N144'
_cell_volume   9728.64804308
_cell_formula_units_Z   4
loop_
 _symmetry_equiv_pos_site_id
 _symmetry_equiv_pos_as_xyz
  1  'x, y, z'
loop_
 _atom_site_type_symbol
 _atom_site_label
 _atom_site_symmetry_multiplicity
 _atom_site_fract_x
 _atom_site_fract_y
 _atom_site_fract_z
 _atom_site_occupancy
 _atom_site_charge
  Cu  Cu1  1  0.429680  0.742380  0.655230  1.0  0.603
  Cu  Cu2  1  0.929480  0.754350  0.310640  1.0  0.5345
  Cu  Cu3  1  0.927230  0.890340  0.374720  1.0  0.7308
  Cu  Cu4  1  0.426810  0.878060  0.592750  1.0  0.7278
  Cu  Cu5  1  0.690230  0.777570  0.493800  1.0  0.3222
  Cu  Cu6  1  0.172420  0.776480  0.488550  1.0  0.3366
  Cu  Cu7  1  0.789300  0.883200  0.499800  1.0  0.757
  Cu  Cu8  1  0.570320  0.257620  0.155230  1.0  0.6033
  Cu  Cu9  1  0.070520  0.245650  0.810640  1.0  0.5347
  Cu  Cu10  1  0.072770  0.109660  0.874720  1.0  0.7296
  Cu  Cu11  1  0.573190  0.121940  0.092750  1.0  0.7298
  Cu  Cu12  1  0.309770  0.222430  0.993800  1.0  0.3226
  Cu  Cu13  1  0.827580  0.223520  0.988550  1.0  0.3372
  Cu  Cu14  1  0.210700  0.116800  0.999800  1.0  0.7559
  Cu  Cu15  1  0.070320  0.242380  0.655230  1.0  0.603
  Cu  Cu16  1  0.570520  0.254350  0.310640  1.0  0.5347
  Cu  Cu17  1  0.572770  0.390340  0.374720  1.0  0.7288
  Cu  Cu18  1  0.073190  0.378060  0.592750  1.0  0.7295
  Cu  Cu19  1  0.809770  0.277570  0.493800  1.0  0.3222
  Cu  Cu20  1  0.327580  0.276480  0.488550  1.0  0.3367
  Cu  Cu21  1  0.710700  0.383200  0.499800  1.0  0.7574
  Cu  Cu22  1  0.929680  0.757620  0.155230  1.0  0.6032
  Cu  Cu23  1  0.429480  0.745650  0.810640  1.0  0.5346
  Cu  Cu24  1  0.427230  0.609660  0.874720  1.0  0.7316
  Cu  Cu25  1  0.926810  0.621940  0.092750  1.0  0.7281
  Cu  Cu26  1  0.190230  0.722430  0.993800  1.0  0.3226
  Cu  Cu27  1  0.672420  0.723520  0.988550  1.0  0.3371
  Cu  Cu28  1  0.289300  0.616800  0.999800  1.0  0.7556
  H  H29  1  0.964100  0.522600  0.296500  1.0  0.091
  H  H30  1  0.971900  0.469900  0.385200  1.0  0.1035
  H  H31  1  0.958900  0.612500  0.481000  1.0  0.1208
  H  H32  1  0.946800  0.662800  0.393900  1.0  0.0781
  H  H33  1  0.927700  0.032300  0.062200  1.0  0.0854
  H  H34  1  0.924900  0.840700  0.076100  1.0  0.0743
  H  H35  1  0.929400  0.990500  0.155400  1.0  0.085
  H  H36  1  0.935500  0.881000  0.984500  1.0  0.1186
  H  H37  1  0.594500  0.682800  0.668600  1.0  0.0883
  H  H38  1  0.632300  0.589300  0.673000  1.0  0.0971
  H  H39  1  0.915900  0.546800  0.559900  1.0  0.1086
  H  H40  1  0.040200  0.439800  0.469500  1.0  0.0821
  H  H41  1  0.595900  0.673700  0.488300  1.0  0.0973
  H  H42  1  0.635900  0.581000  0.493600  1.0  0.0831
  H  H43  1  0.912400  0.937400  0.894200  1.0  0.1006
  H  H44  1  0.771100  0.695600  0.303200  1.0  0.093
  H  H45  1  0.788800  0.662400  0.478800  1.0  0.1087
  H  H46  1  0.766500  0.568700  0.459100  1.0  0.0747
  H  H47  1  0.622300  0.518400  0.395200  1.0  0.0731
  H  H48  1  0.969800  0.004500  0.822600  1.0  0.0791
  H  H49  1  0.813100  0.480100  0.322800  1.0  0.0962
  H  H50  1  0.124800  0.673400  0.443700  1.0  0.0768
  H  H51  1  0.270900  0.686400  0.683500  1.0  0.102
  H  H52  1  0.096500  0.726200  0.276400  1.0  0.1045
  H  H53  1  0.237900  0.596500  0.699700  1.0  0.0713
  H  H54  1  0.119500  0.505000  0.572500  1.0  0.0668
  H  H55  1  0.737600  0.397100  0.325000  1.0  0.0733
  H  H56  1  0.281600  0.484700  0.685700  1.0  0.1133
  H  H57  1  0.142400  0.642000  0.241200  1.0  0.0996
  H  H58  1  0.242600  0.660700  0.506800  1.0  0.08
  H  H59  1  0.735200  0.602200  0.285600  1.0  0.1087
  H  H60  1  0.264100  0.535900  0.359400  1.0  0.0699
  H  H61  1  0.169000  0.587600  0.410000  1.0  0.1113
  H  H62  1  0.217500  0.568000  0.525000  1.0  0.0934
  H  H63  1  0.959700  0.473800  0.627600  1.0  0.0724
  H  H64  1  0.181000  0.442000  0.232100  1.0  0.0925
  H  H65  1  0.218200  0.393400  0.670300  1.0  0.0877
  H  H66  1  0.015000  0.055000  0.984900  1.0  0.0815
  H  H67  1  0.117200  0.532900  0.232600  1.0  0.0868
  H  H68  1  0.774300  0.428400  0.528800  1.0  0.1838
  H  H69  1  0.777300  0.529800  0.556000  1.0  0.1003
  H  H70  1  0.575500  0.469800  0.596200  1.0  0.0987
  H  H71  1  0.035900  0.477400  0.796500  1.0  0.0907
  H  H72  1  0.028100  0.530100  0.885200  1.0  0.1036
  H  H73  1  0.041100  0.387500  0.981000  1.0  0.1206
  H  H74  1  0.053200  0.337200  0.893900  1.0  0.0779
  H  H75  1  0.072300  0.967700  0.562200  1.0  0.0844
  H  H76  1  0.075100  0.159300  0.576100  1.0  0.075
  H  H77  1  0.070600  0.009500  0.655400  1.0  0.0855
  H  H78  1  0.064500  0.119000  0.484500  1.0  0.1191
  H  H79  1  0.405500  0.317200  0.168600  1.0  0.0899
  H  H80  1  0.367700  0.410700  0.173000  1.0  0.0973
  H  H81  1  0.084100  0.453200  0.059900  1.0  0.1083
  H  H82  1  0.959800  0.560200  0.969500  1.0  0.0816
  H  H83  1  0.404100  0.326300  0.988300  1.0  0.0977
  H  H84  1  0.364100  0.419000  0.993600  1.0  0.0837
  H  H85  1  0.087600  0.062600  0.394200  1.0  0.1015
  H  H86  1  0.228900  0.304400  0.803200  1.0  0.0924
  H  H87  1  0.211200  0.337600  0.978800  1.0  0.1091
  H  H88  1  0.233500  0.431300  0.959100  1.0  0.0743
  H  H89  1  0.377700  0.481600  0.895200  1.0  0.0731
  H  H90  1  0.030200  0.995500  0.322600  1.0  0.0789
  H  H91  1  0.186900  0.519900  0.822800  1.0  0.0963
  H  H92  1  0.875200  0.326600  0.943700  1.0  0.077
  H  H93  1  0.729100  0.313600  0.183500  1.0  0.1015
  H  H94  1  0.903500  0.273800  0.776400  1.0  0.104
  H  H95  1  0.762100  0.403500  0.199700  1.0  0.0715
  H  H96  1  0.880500  0.495000  0.072500  1.0  0.067
  H  H97  1  0.262400  0.602900  0.825000  1.0  0.0735
  H  H98  1  0.718400  0.515300  0.185700  1.0  0.1131
  H  H99  1  0.857600  0.358000  0.741200  1.0  0.1
  H  H100  1  0.757400  0.339300  0.006800  1.0  0.0802
  H  H101  1  0.264800  0.397800  0.785600  1.0  0.109
  H  H102  1  0.735900  0.464100  0.859400  1.0  0.0698
  H  H103  1  0.831000  0.412400  0.910000  1.0  0.1112
  H  H104  1  0.782500  0.432000  0.025000  1.0  0.0933
  H  H105  1  0.040300  0.526200  0.127600  1.0  0.0722
  H  H106  1  0.819000  0.558000  0.732100  1.0  0.0932
  H  H107  1  0.781800  0.606600  0.170300  1.0  0.0882
  H  H108  1  0.985000  0.945000  0.484900  1.0  0.082
  H  H109  1  0.882800  0.467100  0.732600  1.0  0.087
  H  H110  1  0.225700  0.571600  0.028800  1.0  0.1853
  H  H111  1  0.222700  0.470200  0.056000  1.0  0.0999
  H  H112  1  0.424500  0.530200  0.096200  1.0  0.0983
  H  H113  1  0.535900  0.022600  0.296500  1.0  0.0909
  H  H114  1  0.528100  0.969900  0.385200  1.0  0.1037
  H  H115  1  0.541100  0.112500  0.481000  1.0  0.1206
  H  H116  1  0.553200  0.162800  0.393900  1.0  0.078
  H  H117  1  0.572300  0.532300  0.062200  1.0  0.086
  H  H118  1  0.575100  0.340700  0.076100  1.0  0.0741
  H  H119  1  0.570600  0.490500  0.155400  1.0  0.0851
  H  H120  1  0.564500  0.381000  0.984500  1.0  0.1184
  H  H121  1  0.905500  0.182800  0.668600  1.0  0.0897
  H  H122  1  0.867700  0.089300  0.673000  1.0  0.098
  H  H123  1  0.584100  0.046800  0.559900  1.0  0.1083
  H  H124  1  0.459800  0.939800  0.469500  1.0  0.0819
  H  H125  1  0.904100  0.173700  0.488300  1.0  0.0975
  H  H126  1  0.864100  0.081000  0.493600  1.0  0.084
  H  H127  1  0.587600  0.437400  0.894200  1.0  0.1011
  H  H128  1  0.728900  0.195600  0.303200  1.0  0.0924
  H  H129  1  0.711200  0.162400  0.478800  1.0  0.1087
  H  H130  1  0.733500  0.068700  0.459100  1.0  0.0745
  H  H131  1  0.877700  0.018400  0.395200  1.0  0.0734
  H  H132  1  0.530200  0.504500  0.822600  1.0  0.0788
  H  H133  1  0.686900  0.980100  0.322800  1.0  0.0962
  H  H134  1  0.375200  0.173400  0.443700  1.0  0.0769
  H  H135  1  0.229100  0.186400  0.683500  1.0  0.1015
  H  H136  1  0.403500  0.226200  0.276400  1.0  0.1045
  H  H137  1  0.262100  0.096500  0.699700  1.0  0.0711
  H  H138  1  0.380500  0.005000  0.572500  1.0  0.0669
  H  H139  1  0.762400  0.897100  0.325000  1.0  0.073
  H  H140  1  0.218400  0.984700  0.685700  1.0  0.1134
  H  H141  1  0.357600  0.142000  0.241200  1.0  0.1002
  H  H142  1  0.257400  0.160700  0.506800  1.0  0.0802
  H  H143  1  0.764800  0.102200  0.285600  1.0  0.109
  H  H144  1  0.235900  0.035900  0.359400  1.0  0.0699
  H  H145  1  0.331000  0.087600  0.410000  1.0  0.1116
  H  H146  1  0.282500  0.068000  0.525000  1.0  0.0932
  H  H147  1  0.540300  0.973800  0.627600  1.0  0.072
  H  H148  1  0.319000  0.942000  0.232100  1.0  0.0926
  H  H149  1  0.281800  0.893400  0.670300  1.0  0.088
  H  H150  1  0.485000  0.555000  0.984900  1.0  0.0813
  H  H151  1  0.382800  0.032900  0.232600  1.0  0.0872
  H  H152  1  0.725700  0.928400  0.528800  1.0  0.1838
  H  H153  1  0.722700  0.029800  0.556000  1.0  0.1
  H  H154  1  0.924500  0.969800  0.596200  1.0  0.0987
  H  H155  1  0.464100  0.977400  0.796500  1.0  0.0909
  H  H156  1  0.471900  0.030100  0.885200  1.0  0.1037
  H  H157  1  0.458900  0.887500  0.981000  1.0  0.1207
  H  H158  1  0.446800  0.837200  0.893900  1.0  0.0779
  H  H159  1  0.427700  0.467700  0.562200  1.0  0.0859
  H  H160  1  0.424900  0.659300  0.576100  1.0  0.0749
  H  H161  1  0.429400  0.509500  0.655400  1.0  0.0856
  H  H162  1  0.435500  0.619000  0.484500  1.0  0.1192
  H  H163  1  0.094500  0.817200  0.168600  1.0  0.088
  H  H164  1  0.132300  0.910700  0.173000  1.0  0.0968
  H  H165  1  0.415900  0.953200  0.059900  1.0  0.1082
  H  H166  1  0.540200  0.060200  0.969500  1.0  0.0817
  H  H167  1  0.095900  0.826300  0.988300  1.0  0.0976
  H  H168  1  0.135900  0.919000  0.993600  1.0  0.0829
  H  H169  1  0.412400  0.562600  0.394200  1.0  0.1016
  H  H170  1  0.271100  0.804400  0.803200  1.0  0.0929
  H  H171  1  0.288800  0.837600  0.978800  1.0  0.109
  H  H172  1  0.266500  0.931300  0.959100  1.0  0.0745
  H  H173  1  0.122300  0.981600  0.895200  1.0  0.0729
  H  H174  1  0.469800  0.495500  0.322600  1.0  0.0795
  H  H175  1  0.313100  0.019900  0.822800  1.0  0.0962
  H  H176  1  0.624800  0.826600  0.943700  1.0  0.077
  H  H177  1  0.770900  0.813600  0.183500  1.0  0.1021
  H  H178  1  0.596500  0.773800  0.776400  1.0  0.1043
  H  H179  1  0.737900  0.903500  0.199700  1.0  0.0713
  H  H180  1  0.619500  0.995000  0.072500  1.0  0.0667
  H  H181  1  0.237600  0.102900  0.825000  1.0  0.0728
  H  H182  1  0.781600  0.015300  0.185700  1.0  0.1131
  H  H183  1  0.642400  0.858000  0.741200  1.0  0.0992
  H  H184  1  0.742600  0.839300  0.006800  1.0  0.0801
  H  H185  1  0.235200  0.897800  0.785600  1.0  0.1086
  H  H186  1  0.764100  0.964100  0.859400  1.0  0.0698
  H  H187  1  0.669000  0.912400  0.910000  1.0  0.1109
  H  H188  1  0.717500  0.932000  0.025000  1.0  0.0932
  H  H189  1  0.459700  0.026200  0.127600  1.0  0.0726
  H  H190  1  0.681000  0.058000  0.732100  1.0  0.093
  H  H191  1  0.718200  0.106600  0.170300  1.0  0.0876
  H  H192  1  0.515000  0.445000  0.484900  1.0  0.0822
  H  H193  1  0.617200  0.967100  0.732600  1.0  0.0866
  H  H194  1  0.274300  0.071600  0.028800  1.0  0.1839
  H  H195  1  0.277300  0.970200  0.056000  1.0  0.1005
  H  H196  1  0.075500  0.030200  0.096200  1.0  0.0993
  C  C197  1  0.929300  0.884900  0.185700  1.0  0.2982
  C  C198  1  0.949800  0.627300  0.279200  1.0  0.1867
  C  C199  1  0.955400  0.598400  0.336000  1.0  -0.1416
  C  C200  1  0.962800  0.540600  0.333333  1.0  -0.0755
  C  C201  1  0.968600  0.508800  0.386700  1.0  -0.1575
  C  C202  1  0.969500  0.536000  0.440500  1.0  0.1286
  C  C203  1  0.960200  0.594400  0.444200  1.0  -0.2106
  C  C204  1  0.953200  0.624200  0.392000  1.0  -0.0709
  C  C205  1  0.929700  0.910000  0.127200  1.0  -0.0462
  C  C206  1  0.931400  0.993500  0.065300  1.0  -0.1912
  C  C207  1  0.929100  0.879500  0.073700  1.0  -0.075
  C  C208  1  0.937900  0.961900  0.014600  1.0  0.0914
  C  C209  1  0.930100  0.968200  0.121400  1.0  -0.1213
  C  C210  1  0.934300  0.903100  0.018600  1.0  -0.184
  C  C211  1  0.591900  0.688100  0.577200  1.0  -0.0291
  C  C212  1  0.602900  0.662700  0.633700  1.0  -0.1071
  C  C213  1  0.626500  0.607100  0.636400  1.0  -0.1098
  C  C214  1  0.567200  0.745700  0.571200  1.0  0.33
  C  C215  1  0.946200  0.516700  0.550200  1.0  -0.1746
  C  C216  1  0.014700  0.456900  0.500500  1.0  0.1018
  C  C217  1  0.641400  0.578300  0.583100  1.0  0.1131
  C  C218  1  0.604100  0.657200  0.525300  1.0  -0.0971
  C  C219  1  0.628500  0.601700  0.528200  1.0  -0.1878
  C  C220  1  0.938200  0.969800  0.903900  1.0  -0.1303
  C  C221  1  0.802000  0.747800  0.402600  1.0  0.2968
  C  C222  1  0.767800  0.670400  0.334600  1.0  -0.0668
  C  C223  1  0.782200  0.688300  0.393000  1.0  -0.0975
  C  C224  1  0.780300  0.650500  0.440000  1.0  -0.138
  C  C225  1  0.765500  0.594600  0.428100  1.0  -0.1577
  C  C226  1  0.749800  0.576900  0.372200  1.0  0.1671
  C  C227  1  0.660500  0.498100  0.378000  1.0  0.1698
  C  C228  1  0.970500  0.007200  0.864000  1.0  -0.0236
  C  C229  1  0.765600  0.477700  0.338000  1.0  -0.1234
  C  C230  1  0.105300  0.706300  0.364200  1.0  -0.0808
  C  C231  1  0.127700  0.666400  0.402900  1.0  -0.0684
  C  C232  1  0.260600  0.663000  0.651400  1.0  -0.1393
  C  C233  1  0.111000  0.698200  0.302800  1.0  -0.089
  C  C234  1  0.224600  0.572100  0.615300  1.0  0.189
  C  C235  1  0.240800  0.609300  0.660600  1.0  -0.1545
  C  C236  1  0.152400  0.487900  0.598600  1.0  0.1392
  C  C237  1  0.159800  0.607400  0.322300  1.0  0.147
  C  C238  1  0.723700  0.432000  0.339500  1.0  -0.003
  C  C239  1  0.074200  0.760500  0.386200  1.0  0.3269
  C  C240  1  0.241800  0.477900  0.660700  1.0  -0.1298
  C  C241  1  0.138300  0.648300  0.282000  1.0  -0.167
  C  C242  1  0.244800  0.647300  0.545700  1.0  -0.0817
  C  C243  1  0.748400  0.614200  0.323600  1.0  -0.1627
  C  C244  1  0.285800  0.741100  0.578400  1.0  0.3235
  C  C245  1  0.265500  0.683800  0.591400  1.0  -0.041
  C  C246  1  0.236200  0.524300  0.326900  1.0  0.1069
  C  C247  1  0.154800  0.615400  0.383300  1.0  -0.2067
  C  C248  1  0.227400  0.592100  0.556600  1.0  -0.2101
  C  C249  1  0.970000  0.475900  0.587100  1.0  -0.0132
  C  C250  1  0.191100  0.472000  0.257200  1.0  -0.0309
  C  C251  1  0.206000  0.427200  0.652200  1.0  -0.0471
  C  C252  1  0.994600  0.035500  0.953000  1.0  0.1082
  C  C253  1  0.155400  0.522300  0.257900  1.0  -0.0791
  C  C254  1  0.624000  0.472100  0.583200  1.0  0.1572
  C  C255  1  0.735700  0.448800  0.545300  1.0  -0.0428
  C  C256  1  0.737400  0.505800  0.560600  1.0  -0.0585
  C  C257  1  0.070700  0.115100  0.685700  1.0  0.2991
  C  C258  1  0.050200  0.372700  0.779200  1.0  0.1868
  C  C259  1  0.044600  0.401600  0.836000  1.0  -0.1414
  C  C260  1  0.037200  0.459400  0.833300  1.0  -0.0755
  C  C261  1  0.031400  0.491200  0.886700  1.0  -0.1555
  C  C262  1  0.030500  0.464000  0.940500  1.0  0.1281
  C  C263  1  0.039800  0.405600  0.944200  1.0  -0.2105
  C  C264  1  0.046800  0.375800  0.892000  1.0  -0.0712
  C  C265  1  0.070300  0.090000  0.627200  1.0  -0.0454
  C  C266  1  0.068600  0.006500  0.565300  1.0  -0.1878
  C  C267  1  0.070900  0.120500  0.573700  1.0  -0.0755
  C  C268  1  0.062100  0.038100  0.514600  1.0  0.0917
  C  C269  1  0.069900  0.031800  0.621400  1.0  -0.1204
  C  C270  1  0.065700  0.096900  0.518600  1.0  -0.1854
  C  C271  1  0.408100  0.311900  0.077200  1.0  -0.0313
  C  C272  1  0.397100  0.337300  0.133700  1.0  -0.1067
  C  C273  1  0.373500  0.392900  0.136400  1.0  -0.1116
  C  C274  1  0.432800  0.254300  0.071200  1.0  0.3304
  C  C275  1  0.053800  0.483300  0.050200  1.0  -0.173
  C  C276  1  0.985300  0.543100  0.000500  1.0  0.102
  C  C277  1  0.358600  0.421700  0.083100  1.0  0.1128
  C  C278  1  0.395900  0.342800  0.025300  1.0  -0.0965
  C  C279  1  0.371500  0.398300  0.028200  1.0  -0.1869
  C  C280  1  0.061800  0.030200  0.403900  1.0  -0.1293
  C  C281  1  0.198000  0.252200  0.902600  1.0  0.2975
  C  C282  1  0.232200  0.329600  0.834600  1.0  -0.0675
  C  C283  1  0.217800  0.311700  0.893000  1.0  -0.0992
  C  C284  1  0.219700  0.349500  0.940000  1.0  -0.1389
  C  C285  1  0.234500  0.405400  0.928100  1.0  -0.1569
  C  C286  1  0.250200  0.423100  0.872200  1.0  0.1675
  C  C287  1  0.339500  0.501900  0.878000  1.0  0.1691
  C  C288  1  0.029500  0.992800  0.364000  1.0  -0.0246
  C  C289  1  0.234400  0.522300  0.838000  1.0  -0.1235
  C  C290  1  0.894700  0.293700  0.864200  1.0  -0.0807
  C  C291  1  0.872300  0.333600  0.902900  1.0  -0.0676
  C  C292  1  0.739400  0.337000  0.151400  1.0  -0.1381
  C  C293  1  0.889000  0.301800  0.802800  1.0  -0.0901
  C  C294  1  0.775400  0.427900  0.115300  1.0  0.1901
  C  C295  1  0.759200  0.390700  0.160600  1.0  -0.1539
  C  C296  1  0.847600  0.512100  0.098600  1.0  0.14
  C  C297  1  0.840200  0.392600  0.822300  1.0  0.1478
  C  C298  1  0.276300  0.568000  0.839500  1.0  -0.0017
  C  C299  1  0.925800  0.239500  0.886200  1.0  0.3254
  C  C300  1  0.758200  0.522100  0.160700  1.0  -0.1311
  C  C301  1  0.861700  0.351700  0.782000  1.0  -0.1672
  C  C302  1  0.755200  0.352700  0.045700  1.0  -0.0813
  C  C303  1  0.251600  0.385800  0.823600  1.0  -0.1629
  C  C304  1  0.714200  0.258900  0.078400  1.0  0.3252
  C  C305  1  0.734500  0.316200  0.091400  1.0  -0.0428
  C  C306  1  0.763800  0.475700  0.826900  1.0  0.1047
  C  C307  1  0.845200  0.384600  0.883300  1.0  -0.2081
  C  C308  1  0.772600  0.407900  0.056600  1.0  -0.2093
  C  C309  1  0.030000  0.524100  0.087100  1.0  -0.0122
  C  C310  1  0.808900  0.528000  0.757200  1.0  -0.0303
  C  C311  1  0.794000  0.572800  0.152200  1.0  -0.0478
  C  C312  1  0.005400  0.964500  0.453000  1.0  0.1101
  C  C313  1  0.844600  0.477700  0.757900  1.0  -0.0793
  C  C314  1  0.376000  0.527900  0.083200  1.0  0.1609
  C  C315  1  0.264300  0.551200  0.045300  1.0  -0.0437
  C  C316  1  0.262600  0.494200  0.060600  1.0  -0.0603
  C  C317  1  0.570700  0.384900  0.185700  1.0  0.2983
  C  C318  1  0.550200  0.127300  0.279200  1.0  0.1867
  C  C319  1  0.544600  0.098400  0.336000  1.0  -0.1419
  C  C320  1  0.537200  0.040600  0.333333  1.0  -0.0759
  C  C321  1  0.531400  0.008800  0.386700  1.0  -0.1573
  C  C322  1  0.530500  0.036000  0.440500  1.0  0.1282
  C  C323  1  0.539800  0.094400  0.444200  1.0  -0.2108
  C  C324  1  0.546800  0.124200  0.392000  1.0  -0.0703
  C  C325  1  0.570300  0.410000  0.127200  1.0  -0.0456
  C  C326  1  0.568600  0.493500  0.065300  1.0  -0.1915
  C  C327  1  0.570900  0.379500  0.073700  1.0  -0.0753
  C  C328  1  0.562100  0.461900  0.014600  1.0  0.092
  C  C329  1  0.569900  0.468200  0.121400  1.0  -0.1214
  C  C330  1  0.565700  0.403100  0.018600  1.0  -0.1844
  C  C331  1  0.908100  0.188100  0.577200  1.0  -0.0293
  C  C332  1  0.897100  0.162700  0.633700  1.0  -0.1081
  C  C333  1  0.873500  0.107100  0.636400  1.0  -0.1113
  C  C334  1  0.932800  0.245700  0.571200  1.0  0.3307
  C  C335  1  0.553800  0.016700  0.550200  1.0  -0.173
  C  C336  1  0.485300  0.956900  0.500500  1.0  0.1024
  C  C337  1  0.858600  0.078300  0.583100  1.0  0.1131
  C  C338  1  0.895900  0.157200  0.525300  1.0  -0.0967
  C  C339  1  0.871500  0.101700  0.528200  1.0  -0.1875
  C  C340  1  0.561800  0.469800  0.903900  1.0  -0.1303
  C  C341  1  0.698000  0.247800  0.402600  1.0  0.2969
  C  C342  1  0.732200  0.170400  0.334600  1.0  -0.0661
  C  C343  1  0.717800  0.188300  0.393000  1.0  -0.0973
  C  C344  1  0.719700  0.150500  0.440000  1.0  -0.1382
  C  C345  1  0.734500  0.094600  0.428100  1.0  -0.1575
  C  C346  1  0.750200  0.076900  0.372200  1.0  0.1672
  C  C347  1  0.839500  0.998100  0.378000  1.0  0.1691
  C  C348  1  0.529500  0.507200  0.864000  1.0  -0.0241
  C  C349  1  0.734400  0.977700  0.338000  1.0  -0.1236
  C  C350  1  0.394700  0.206300  0.364200  1.0  -0.081
  C  C351  1  0.372300  0.166400  0.402900  1.0  -0.0678
  C  C352  1  0.239400  0.163000  0.651400  1.0  -0.1374
  C  C353  1  0.389000  0.198200  0.302800  1.0  -0.0891
  C  C354  1  0.275400  0.072100  0.615300  1.0  0.1901
  C  C355  1  0.259200  0.109300  0.660600  1.0  -0.1548
  C  C356  1  0.347600  0.987900  0.598600  1.0  0.1402
  C  C357  1  0.340200  0.107400  0.322300  1.0  0.1475
  C  C358  1  0.776300  0.932000  0.339500  1.0  -0.003
  C  C359  1  0.425800  0.260500  0.386200  1.0  0.3271
  C  C360  1  0.258200  0.977900  0.660700  1.0  -0.1308
  C  C361  1  0.361700  0.148300  0.282000  1.0  -0.1669
  C  C362  1  0.255200  0.147300  0.545700  1.0  -0.0822
  C  C363  1  0.751600  0.114200  0.323600  1.0  -0.1626
  C  C364  1  0.214200  0.241100  0.578400  1.0  0.3244
  C  C365  1  0.234500  0.183800  0.591400  1.0  -0.0412
  C  C366  1  0.263800  0.024300  0.326900  1.0  0.1037
  C  C367  1  0.345200  0.115400  0.383300  1.0  -0.2084
  C  C368  1  0.272600  0.092100  0.556600  1.0  -0.2094
  C  C369  1  0.530000  0.975900  0.587100  1.0  -0.0128
  C  C370  1  0.308900  0.972000  0.257200  1.0  -0.0299
  C  C371  1  0.294000  0.927200  0.652200  1.0  -0.0477
  C  C372  1  0.505400  0.535500  0.953000  1.0  0.1085
  C  C373  1  0.344600  0.022300  0.257900  1.0  -0.0795
  C  C374  1  0.876000  0.972100  0.583200  1.0  0.1571
  C  C375  1  0.764300  0.948800  0.545300  1.0  -0.0434
  C  C376  1  0.762600  0.005800  0.560600  1.0  -0.0603
  C  C377  1  0.429300  0.615100  0.685700  1.0  0.299
  C  C378  1  0.449800  0.872700  0.779200  1.0  0.1867
  C  C379  1  0.455400  0.901600  0.836000  1.0  -0.1412
  C  C380  1  0.462800  0.959400  0.833300  1.0  -0.0749
  C  C381  1  0.468600  0.991200  0.886700  1.0  -0.1557
  C  C382  1  0.469500  0.964000  0.940500  1.0  0.1286
  C  C383  1  0.460200  0.905600  0.944200  1.0  -0.2101
  C  C384  1  0.453200  0.875800  0.892000  1.0  -0.0715
  C  C385  1  0.429700  0.590000  0.627200  1.0  -0.0461
  C  C386  1  0.431400  0.506500  0.565300  1.0  -0.1879
  C  C387  1  0.429100  0.620500  0.573700  1.0  -0.0755
  C  C388  1  0.437900  0.538100  0.514600  1.0  0.0913
  C  C389  1  0.430100  0.531800  0.621400  1.0  -0.1209
  C  C390  1  0.434300  0.596900  0.518600  1.0  -0.1847
  C  C391  1  0.091900  0.811900  0.077200  1.0  -0.0305
  C  C392  1  0.102900  0.837300  0.133700  1.0  -0.1073
  C  C393  1  0.126500  0.892900  0.136400  1.0  -0.1088
  C  C394  1  0.067200  0.754300  0.071200  1.0  0.3298
  C  C395  1  0.446200  0.983300  0.050200  1.0  -0.1741
  C  C396  1  0.514700  0.043100  0.000500  1.0  0.1022
  C  C397  1  0.141400  0.921700  0.083100  1.0  0.1129
  C  C398  1  0.104100  0.842800  0.025300  1.0  -0.0971
  C  C399  1  0.128500  0.898300  0.028200  1.0  -0.1872
  C  C400  1  0.438200  0.530200  0.403900  1.0  -0.1293
  C  C401  1  0.302000  0.752200  0.902600  1.0  0.2972
  C  C402  1  0.267800  0.829600  0.834600  1.0  -0.067
  C  C403  1  0.282200  0.811700  0.893000  1.0  -0.0998
  C  C404  1  0.280300  0.849500  0.940000  1.0  -0.1384
  C  C405  1  0.265500  0.905400  0.928100  1.0  -0.1573
  C  C406  1  0.249800  0.923100  0.872200  1.0  0.1676
  C  C407  1  0.160500  0.001900  0.878000  1.0  0.17
  C  C408  1  0.470500  0.492800  0.364000  1.0  -0.0243
  C  C409  1  0.265600  0.022300  0.838000  1.0  -0.123
  C  C410  1  0.605300  0.793700  0.864200  1.0  -0.0804
  C  C411  1  0.627700  0.833600  0.902900  1.0  -0.0684
  C  C412  1  0.760600  0.837000  0.151400  1.0  -0.139
  C  C413  1  0.611000  0.801800  0.802800  1.0  -0.0898
  C  C414  1  0.724600  0.927900  0.115300  1.0  0.189
  C  C415  1  0.740800  0.890700  0.160600  1.0  -0.1543
  C  C416  1  0.652400  0.012100  0.098600  1.0  0.1389
  C  C417  1  0.659800  0.892600  0.822300  1.0  0.1469
  C  C418  1  0.223700  0.068000  0.839500  1.0  -0.0016
  C  C419  1  0.574200  0.739500  0.886200  1.0  0.3261
  C  C420  1  0.741800  0.022100  0.160700  1.0  -0.1301
  C  C421  1  0.638300  0.851700  0.782000  1.0  -0.1674
  C  C422  1  0.744800  0.852700  0.045700  1.0  -0.0813
  C  C423  1  0.248400  0.885800  0.823600  1.0  -0.1627
  C  C424  1  0.785800  0.758900  0.078400  1.0  0.3239
  C  C425  1  0.765500  0.816200  0.091400  1.0  -0.0426
  C  C426  1  0.736200  0.975700  0.826900  1.0  0.1075
  C  C427  1  0.654800  0.884600  0.883300  1.0  -0.2067
  C  C428  1  0.727400  0.907900  0.056600  1.0  -0.2097
  C  C429  1  0.470000  0.024100  0.087100  1.0  -0.013
  C  C430  1  0.691100  0.028000  0.757200  1.0  -0.0317
  C  C431  1  0.706000  0.072800  0.152200  1.0  -0.0475
  C  C432  1  0.494600  0.464500  0.453000  1.0  0.1087
  C  C433  1  0.655400  0.977700  0.757900  1.0  -0.0789
  C  C434  1  0.124000  0.027900  0.083200  1.0  0.1578
  C  C435  1  0.235700  0.051200  0.045300  1.0  -0.0423
  C  C436  1  0.237400  0.994200  0.060600  1.0  -0.0592
  N  N437  1  0.252400  0.776400  0.540900  1.0  -0.2199
  N  N438  1  0.097400  0.789100  0.432400  1.0  -0.222
  N  N439  1  0.054900  0.834900  0.435700  1.0  -0.1022
  N  N440  1  0.008200  0.833800  0.392600  1.0  -0.0067
  N  N441  1  0.017000  0.785700  0.360300  1.0  -0.4061
  N  N442  1  0.930000  0.829500  0.197100  1.0  -0.2957
  N  N443  1  0.928900  0.825100  0.257300  1.0  -0.1111
  N  N444  1  0.929300  0.875800  0.279700  1.0  -0.056
  N  N445  1  0.343100  0.765700  0.602800  1.0  -0.2897
  N  N446  1  0.344600  0.819400  0.580300  1.0  -0.1248
  N  N447  1  0.290900  0.825300  0.541500  1.0  -0.2197
  N  N448  1  0.957100  0.600300  0.227000  1.0  -0.2776
  N  N449  1  0.938000  0.687900  0.208700  1.0  -0.0803
  N  N450  1  0.938000  0.683300  0.268800  1.0  -0.3623
  N  N451  1  0.598800  0.781700  0.532600  1.0  -0.1913
  N  N452  1  0.508900  0.768100  0.595200  1.0  -0.258
  N  N453  1  0.503700  0.820600  0.571700  1.0  -0.1012
  N  N454  1  0.559800  0.828800  0.533900  1.0  -0.2002
  N  N455  1  0.947700  0.638000  0.185200  1.0  -0.0349
  N  N456  1  0.976000  0.504500  0.495300  1.0  0.0247
  N  N457  1  0.930600  0.914700  0.235700  1.0  -0.3642
  N  N458  1  0.011900  0.437600  0.555600  1.0  -0.3617
  N  N459  1  0.775800  0.779800  0.447500  1.0  -0.2881
  N  N460  1  0.003400  0.048400  0.896500  1.0  -0.305
  N  N461  1  0.951100  0.989100  0.958200  1.0  0.0326
  N  N462  1  0.810000  0.829200  0.443300  1.0  -0.1445
  N  N463  1  0.854100  0.826800  0.396900  1.0  -0.049
  N  N464  1  0.726200  0.520500  0.362700  1.0  0.0006
  N  N465  1  0.851700  0.776400  0.372500  1.0  -0.1953
  N  N466  1  0.185500  0.554400  0.302100  1.0  0.0482
  N  N467  1  0.243800  0.473600  0.299600  1.0  -0.3013
  N  N468  1  0.148700  0.435400  0.612200  1.0  -0.4104
  N  N469  1  0.206800  0.515600  0.624800  1.0  0.0424
  N  N470  1  0.656600  0.443900  0.365700  1.0  -0.4177
  N  N471  1  0.668300  0.520200  0.584000  1.0  -0.1953
  N  N472  1  0.665600  0.428000  0.559300  1.0  -0.3505
  N  N473  1  0.747600  0.223600  0.040900  1.0  -0.2248
  N  N474  1  0.902600  0.210900  0.932400  1.0  -0.2193
  N  N475  1  0.945100  0.165100  0.935700  1.0  -0.1014
  N  N476  1  0.991800  0.166200  0.892600  1.0  -0.0058
  N  N477  1  0.983000  0.214300  0.860300  1.0  -0.4066
  N  N478  1  0.070000  0.170500  0.697100  1.0  -0.2978
  N  N479  1  0.071100  0.174900  0.757300  1.0  -0.1116
  N  N480  1  0.070700  0.124200  0.779700  1.0  -0.0544
  N  N481  1  0.656900  0.234300  0.102800  1.0  -0.2893
  N  N482  1  0.655400  0.180600  0.080300  1.0  -0.1249
  N  N483  1  0.709100  0.174700  0.041500  1.0  -0.2193
  N  N484  1  0.042900  0.399700  0.727000  1.0  -0.2786
  N  N485  1  0.062000  0.312100  0.708700  1.0  -0.0778
  N  N486  1  0.062000  0.316700  0.768800  1.0  -0.3618
  N  N487  1  0.401200  0.218300  0.032600  1.0  -0.1915
  N  N488  1  0.491100  0.231900  0.095200  1.0  -0.2575
  N  N489  1  0.496300  0.179400  0.071700  1.0  -0.0991
  N  N490  1  0.440200  0.171200  0.033900  1.0  -0.1997
  N  N491  1  0.052300  0.362000  0.685200  1.0  -0.0345
  N  N492  1  0.024000  0.495500  0.995300  1.0  0.0238
  N  N493  1  0.069400  0.085300  0.735700  1.0  -0.366
  N  N494  1  0.988100  0.562400  0.055600  1.0  -0.3621
  N  N495  1  0.224200  0.220200  0.947500  1.0  -0.2872
  N  N496  1  0.996600  0.951600  0.396500  1.0  -0.3057
  N  N497  1  0.048900  0.010900  0.458200  1.0  0.0318
  N  N498  1  0.190000  0.170800  0.943300  1.0  -0.1436
  N  N499  1  0.145900  0.173200  0.896900  1.0  -0.0498
  N  N500  1  0.273800  0.479500  0.862700  1.0  0.0008
  N  N501  1  0.148300  0.223600  0.872500  1.0  -0.1954
  N  N502  1  0.814500  0.445600  0.802100  1.0  0.05
  N  N503  1  0.756200  0.526400  0.799600  1.0  -0.3027
  N  N504  1  0.851300  0.564600  0.112200  1.0  -0.4096
  N  N505  1  0.793200  0.484400  0.124800  1.0  0.0437
  N  N506  1  0.343400  0.556100  0.865700  1.0  -0.4171
  N  N507  1  0.331700  0.479800  0.084000  1.0  -0.1941
  N  N508  1  0.334400  0.572000  0.059300  1.0  -0.3477
  N  N509  1  0.247600  0.276400  0.540900  1.0  -0.2232
  N  N510  1  0.402600  0.289100  0.432400  1.0  -0.2197
  N  N511  1  0.445100  0.334900  0.435700  1.0  -0.1022
  N  N512  1  0.491800  0.333800  0.392600  1.0  -0.0059
  N  N513  1  0.483000  0.285700  0.360300  1.0  -0.4064
  N  N514  1  0.570000  0.329500  0.197100  1.0  -0.2959
  N  N515  1  0.571100  0.325100  0.257300  1.0  -0.1108
  N  N516  1  0.570700  0.375800  0.279700  1.0  -0.0542
  N  N517  1  0.156900  0.265700  0.602800  1.0  -0.2892
  N  N518  1  0.155400  0.319400  0.580300  1.0  -0.1244
  N  N519  1  0.209100  0.325300  0.541500  1.0  -0.2199
  N  N520  1  0.542900  0.100300  0.227000  1.0  -0.2779
  N  N521  1  0.562000  0.187900  0.208700  1.0  -0.0805
  N  N522  1  0.562000  0.183300  0.268800  1.0  -0.3627
  N  N523  1  0.901200  0.281700  0.532600  1.0  -0.1915
  N  N524  1  0.991100  0.268100  0.595200  1.0  -0.2573
  N  N525  1  0.996300  0.320600  0.571700  1.0  -0.0994
  N  N526  1  0.940200  0.328800  0.533900  1.0  -0.2005
  N  N527  1  0.552300  0.138000  0.185200  1.0  -0.0352
  N  N528  1  0.524000  0.004500  0.495300  1.0  0.0242
  N  N529  1  0.569400  0.414700  0.235700  1.0  -0.3663
  N  N530  1  0.488100  0.937600  0.555600  1.0  -0.3614
  N  N531  1  0.724200  0.279800  0.447500  1.0  -0.2865
  N  N532  1  0.496600  0.548400  0.896500  1.0  -0.3058
  N  N533  1  0.548900  0.489100  0.958200  1.0  0.0314
  N  N534  1  0.690000  0.329200  0.443300  1.0  -0.1436
  N  N535  1  0.645900  0.326800  0.396900  1.0  -0.05
  N  N536  1  0.773800  0.020500  0.362700  1.0  0.0004
  N  N537  1  0.648300  0.276400  0.372500  1.0  -0.1953
  N  N538  1  0.314500  0.054400  0.302100  1.0  0.0502
  N  N539  1  0.256200  0.973600  0.299600  1.0  -0.3011
  N  N540  1  0.351300  0.935400  0.612200  1.0  -0.4093
  N  N541  1  0.293200  0.015600  0.624800  1.0  0.043
  N  N542  1  0.843400  0.943900  0.365700  1.0  -0.4167
  N  N543  1  0.831700  0.020200  0.584000  1.0  -0.1951
  N  N544  1  0.834400  0.928000  0.559300  1.0  -0.3488
  N  N545  1  0.752400  0.723600  0.040900  1.0  -0.2211
  N  N546  1  0.597400  0.710900  0.932400  1.0  -0.2224
  N  N547  1  0.554900  0.665100  0.935700  1.0  -0.1016
  N  N548  1  0.508200  0.666200  0.892600  1.0  -0.0063
  N  N549  1  0.517000  0.714300  0.860300  1.0  -0.4067
  N  N550  1  0.430000  0.670500  0.697100  1.0  -0.2978
  N  N551  1  0.428900  0.674900  0.757300  1.0  -0.1116
  N  N552  1  0.429300  0.624200  0.779700  1.0  -0.054
  N  N553  1  0.843100  0.734300  0.102800  1.0  -0.2895
  N  N554  1  0.844600  0.680600  0.080300  1.0  -0.1251
  N  N555  1  0.790900  0.674700  0.041500  1.0  -0.2195
  N  N556  1  0.457100  0.899700  0.727000  1.0  -0.2785
  N  N557  1  0.438000  0.812100  0.708700  1.0  -0.0778
  N  N558  1  0.438000  0.816700  0.768800  1.0  -0.3618
  N  N559  1  0.098800  0.718300  0.032600  1.0  -0.1907
  N  N560  1  0.008900  0.731900  0.095200  1.0  -0.2584
  N  N561  1  0.003700  0.679400  0.071700  1.0  -0.1016
  N  N562  1  0.059800  0.671200  0.033900  1.0  -0.2
  N  N563  1  0.447700  0.862000  0.685200  1.0  -0.0343
  N  N564  1  0.476000  0.995500  0.995300  1.0  0.0242
  N  N565  1  0.430600  0.585300  0.735700  1.0  -0.365
  N  N566  1  0.511900  0.062400  0.055600  1.0  -0.3624
  N  N567  1  0.275800  0.720200  0.947500  1.0  -0.2888
  N  N568  1  0.503400  0.451600  0.396500  1.0  -0.3042
  N  N569  1  0.451100  0.510900  0.458200  1.0  0.0327
  N  N570  1  0.310000  0.670800  0.943300  1.0  -0.1448
  N  N571  1  0.354100  0.673200  0.896900  1.0  -0.0489
  N  N572  1  0.226200  0.979500  0.862700  1.0  0.0011
  N  N573  1  0.351700  0.723600  0.872500  1.0  -0.1952
  N  N574  1  0.685500  0.945600  0.802100  1.0  0.0474
  N  N575  1  0.743800  0.026400  0.799600  1.0  -0.3028
  N  N576  1  0.648700  0.064600  0.112200  1.0  -0.4106
  N  N577  1  0.706800  0.984400  0.124800  1.0  0.043
  N  N578  1  0.156600  0.056100  0.865700  1.0  -0.4176
  N  N579  1  0.168300  0.979800  0.084000  1.0  -0.1944
  N  N580  1  0.165600  0.072000  0.059300  1.0  -0.348
