# generated using pymatgen
data_MnCuH4C11(NO4)2
_symmetry_space_group_name_H-M   'P 1'
_cell_length_a   20.46700000
_cell_length_b   20.46700000
_cell_length_c   34.34400000
_cell_angle_alpha   90.00000000
_cell_angle_beta   90.00000000
_cell_angle_gamma   90.00000000
_symmetry_Int_Tables_number   1
_chemical_formula_structural   MnCuH4C11(NO4)2
_chemical_formula_sum   'Mn16 Cu16 H64 C176 N32 O128'
_cell_volume   14386.63596862
_cell_formula_units_Z   16
loop_
 _symmetry_equiv_pos_site_id
 _symmetry_equiv_pos_as_xyz
  1  'x, y, z'
loop_
 _atom_site_type_symbol
 _atom_site_label
 _atom_site_symmetry_multiplicity
 _atom_site_fract_x
 _atom_site_fract_y
 _atom_site_fract_z
 _atom_site_occupancy
 _atom_site_charge
  Mn  Mn1  1  0.318520  0.130380  0.197850  1.0  1.0653
  Mn  Mn2  1  0.113020  0.310280  0.213800  1.0  1.0476
  Mn  Mn3  1  0.681480  0.869620  0.697850  1.0  1.0659
  Mn  Mn4  1  0.886980  0.689720  0.713800  1.0  1.0442
  Mn  Mn5  1  0.369620  0.818520  0.447850  1.0  1.0654
  Mn  Mn6  1  0.189720  0.613020  0.463800  1.0  1.0431
  Mn  Mn7  1  0.630380  0.181480  0.947850  1.0  1.0653
  Mn  Mn8  1  0.810280  0.386980  0.963800  1.0  1.0456
  Mn  Mn9  1  0.181480  0.630380  0.052150  1.0  1.0663
  Mn  Mn10  1  0.386980  0.810280  0.036200  1.0  1.0444
  Mn  Mn11  1  0.818520  0.369620  0.552150  1.0  1.0649
  Mn  Mn12  1  0.613020  0.189720  0.536200  1.0  1.0483
  Mn  Mn13  1  0.130380  0.318520  0.802150  1.0  1.0655
  Mn  Mn14  1  0.310280  0.113020  0.786200  1.0  1.0461
  Mn  Mn15  1  0.869620  0.681480  0.302150  1.0  1.0656
  Mn  Mn16  1  0.689720  0.886980  0.286200  1.0  1.0435
  Cu  Cu17  1  0.313230  0.971070  0.920290  1.0  0.7453
  Cu  Cu18  1  0.451920  0.170630  0.063900  1.0  0.6616
  Cu  Cu19  1  0.686770  0.028930  0.420290  1.0  0.7432
  Cu  Cu20  1  0.548080  0.829370  0.563900  1.0  0.6584
  Cu  Cu21  1  0.528930  0.813230  0.170290  1.0  0.7417
  Cu  Cu22  1  0.329370  0.951920  0.313900  1.0  0.659
  Cu  Cu23  1  0.471070  0.186770  0.670290  1.0  0.7404
  Cu  Cu24  1  0.670630  0.048080  0.813900  1.0  0.6606
  Cu  Cu25  1  0.186770  0.471070  0.329710  1.0  0.746
  Cu  Cu26  1  0.048080  0.670630  0.186100  1.0  0.6582
  Cu  Cu27  1  0.813230  0.528930  0.829710  1.0  0.7449
  Cu  Cu28  1  0.951920  0.329370  0.686100  1.0  0.662
  Cu  Cu29  1  0.971070  0.313230  0.079710  1.0  0.7415
  Cu  Cu30  1  0.170630  0.451920  0.936100  1.0  0.6598
  Cu  Cu31  1  0.028930  0.686770  0.579710  1.0  0.7433
  Cu  Cu32  1  0.829370  0.548080  0.436100  1.0  0.6613
  H  H33  1  0.388200  0.038100  0.031600  1.0  0.1084
  H  H34  1  0.209600  0.025800  0.982400  1.0  0.1043
  H  H35  1  0.171100  0.104400  0.024400  1.0  0.0944
  H  H36  1  0.239500  0.150800  0.070800  1.0  0.095
  H  H37  1  0.418300  0.084800  0.952200  1.0  0.1064
  H  H38  1  0.251300  0.170000  0.918200  1.0  0.0869
  H  H39  1  0.268400  0.254200  0.960900  1.0  0.0973
  H  H40  1  0.361000  0.252700  0.002000  1.0  0.1201
  H  H41  1  0.611800  0.961900  0.531600  1.0  0.1095
  H  H42  1  0.790400  0.974200  0.482400  1.0  0.1045
  H  H43  1  0.828900  0.895600  0.524400  1.0  0.0931
  H  H44  1  0.760500  0.849200  0.570800  1.0  0.0954
  H  H45  1  0.581700  0.915200  0.452200  1.0  0.107
  H  H46  1  0.748700  0.830000  0.418200  1.0  0.0871
  H  H47  1  0.731600  0.745800  0.460900  1.0  0.0965
  H  H48  1  0.639000  0.747300  0.502000  1.0  0.1199
  H  H49  1  0.461900  0.888200  0.281600  1.0  0.1088
  H  H50  1  0.474200  0.709600  0.232400  1.0  0.1043
  H  H51  1  0.395600  0.671100  0.274400  1.0  0.0905
  H  H52  1  0.349200  0.739500  0.320800  1.0  0.0951
  H  H53  1  0.415200  0.918300  0.202200  1.0  0.1069
  H  H54  1  0.330000  0.751300  0.168200  1.0  0.0882
  H  H55  1  0.245800  0.768400  0.210900  1.0  0.0971
  H  H56  1  0.247300  0.861000  0.252000  1.0  0.1207
  H  H57  1  0.538100  0.111800  0.781600  1.0  0.1097
  H  H58  1  0.525800  0.290400  0.732400  1.0  0.1062
  H  H59  1  0.604400  0.328900  0.774400  1.0  0.0887
  H  H60  1  0.650800  0.260500  0.820800  1.0  0.0944
  H  H61  1  0.584800  0.081700  0.702200  1.0  0.1066
  H  H62  1  0.670000  0.248700  0.668200  1.0  0.0885
  H  H63  1  0.754200  0.231600  0.710900  1.0  0.097
  H  H64  1  0.752700  0.139000  0.752000  1.0  0.1205
  H  H65  1  0.111800  0.538100  0.218400  1.0  0.1102
  H  H66  1  0.290400  0.525800  0.267600  1.0  0.1049
  H  H67  1  0.328900  0.604400  0.225600  1.0  0.0928
  H  H68  1  0.260500  0.650800  0.179200  1.0  0.0943
  H  H69  1  0.081700  0.584800  0.297800  1.0  0.1066
  H  H70  1  0.248700  0.670000  0.331800  1.0  0.0871
  H  H71  1  0.231600  0.754200  0.289100  1.0  0.0964
  H  H72  1  0.139000  0.752700  0.248000  1.0  0.1214
  H  H73  1  0.888200  0.461900  0.718400  1.0  0.1091
  H  H74  1  0.709600  0.474200  0.767600  1.0  0.1051
  H  H75  1  0.671100  0.395600  0.725600  1.0  0.0939
  H  H76  1  0.739500  0.349200  0.679200  1.0  0.0951
  H  H77  1  0.918300  0.415200  0.797800  1.0  0.1064
  H  H78  1  0.751300  0.330000  0.831800  1.0  0.0867
  H  H79  1  0.768400  0.245800  0.789100  1.0  0.0966
  H  H80  1  0.861000  0.247300  0.748000  1.0  0.1199
  H  H81  1  0.038100  0.388200  0.968400  1.0  0.1097
  H  H82  1  0.025800  0.209600  0.017600  1.0  0.1055
  H  H83  1  0.104400  0.171100  0.975600  1.0  0.0894
  H  H84  1  0.150800  0.239500  0.929200  1.0  0.0941
  H  H85  1  0.084800  0.418300  0.047800  1.0  0.107
  H  H86  1  0.170000  0.251300  0.081800  1.0  0.0881
  H  H87  1  0.254200  0.268400  0.039100  1.0  0.097
  H  H88  1  0.252700  0.361000  0.998000  1.0  0.1213
  H  H89  1  0.961900  0.611800  0.468400  1.0  0.1098
  H  H90  1  0.974200  0.790400  0.517600  1.0  0.1049
  H  H91  1  0.895600  0.828900  0.475600  1.0  0.0902
  H  H92  1  0.849200  0.760500  0.429200  1.0  0.0946
  H  H93  1  0.915200  0.581700  0.547800  1.0  0.1071
  H  H94  1  0.830000  0.748700  0.581800  1.0  0.0884
  H  H95  1  0.745800  0.731600  0.539100  1.0  0.0973
  H  H96  1  0.747300  0.639000  0.498000  1.0  0.1208
  C  C97  1  0.344800  0.051300  0.030460  1.0  -0.1872
  C  C98  1  0.301400  0.021900  0.003790  1.0  0.1694
  C  C99  1  0.237200  0.043500  0.001100  1.0  -0.1446
  C  C100  1  0.214400  0.091100  0.025980  1.0  -0.1128
  C  C101  1  0.255600  0.119600  0.053620  1.0  -0.1336
  C  C102  1  0.321900  0.100500  0.055210  1.0  0.2033
  C  C103  1  0.356000  0.923600  0.990520  1.0  0.5914
  C  C104  1  0.373100  0.871900  0.960850  1.0  0.5869
  C  C105  1  0.358200  0.136300  0.116850  1.0  0.6261
  C  C106  1  0.416400  0.163000  0.139960  1.0  0.6212
  C  C107  1  0.388000  0.118500  0.954110  1.0  -0.1772
  C  C108  1  0.332000  0.118600  0.930080  1.0  0.2162
  C  C109  1  0.288600  0.169700  0.933770  1.0  -0.1796
  C  C110  1  0.298300  0.220000  0.959540  1.0  -0.143
  C  C111  1  0.354100  0.219500  0.984010  1.0  -0.1676
  C  C112  1  0.397600  0.168800  0.980450  1.0  0.2284
  C  C113  1  0.315400  0.073500  0.867170  1.0  0.6196
  C  C114  1  0.306800  0.009500  0.844570  1.0  0.5864
  C  C115  1  0.511600  0.166300  0.991470  1.0  0.6368
  C  C116  1  0.566200  0.164700  0.022650  1.0  0.5957
  C  C117  1  0.189300  0.189800  0.213110  1.0  0.5635
  C  C118  1  0.240200  0.247500  0.212380  1.0  0.6138
  C  C119  1  0.655200  0.948700  0.530460  1.0  -0.1864
  C  C120  1  0.698600  0.978100  0.503790  1.0  0.1707
  C  C121  1  0.762800  0.956500  0.501100  1.0  -0.1429
  C  C122  1  0.785600  0.908900  0.525980  1.0  -0.1099
  C  C123  1  0.744400  0.880400  0.553620  1.0  -0.1345
  C  C124  1  0.678100  0.899500  0.555210  1.0  0.2034
  C  C125  1  0.644000  0.076400  0.490520  1.0  0.5904
  C  C126  1  0.626900  0.128100  0.460850  1.0  0.589
  C  C127  1  0.641800  0.863700  0.616850  1.0  0.6262
  C  C128  1  0.583600  0.837000  0.639960  1.0  0.621
  C  C129  1  0.612000  0.881500  0.454110  1.0  -0.1753
  C  C130  1  0.668000  0.881400  0.430080  1.0  0.217
  C  C131  1  0.711400  0.830300  0.433770  1.0  -0.18
  C  C132  1  0.701700  0.780000  0.459540  1.0  -0.1433
  C  C133  1  0.645900  0.780500  0.484010  1.0  -0.1688
  C  C134  1  0.602400  0.831200  0.480450  1.0  0.2276
  C  C135  1  0.684600  0.926500  0.367170  1.0  0.6194
  C  C136  1  0.693200  0.990500  0.344570  1.0  0.5897
  C  C137  1  0.488400  0.833700  0.491470  1.0  0.6378
  C  C138  1  0.433800  0.835300  0.522650  1.0  0.5956
  C  C139  1  0.810700  0.810200  0.713110  1.0  0.5627
  C  C140  1  0.759800  0.752500  0.712380  1.0  0.6134
  C  C141  1  0.448700  0.844800  0.280460  1.0  -0.1851
  C  C142  1  0.478100  0.801400  0.253790  1.0  0.1664
  C  C143  1  0.456500  0.737200  0.251100  1.0  -0.143
  C  C144  1  0.408900  0.714400  0.275980  1.0  -0.1065
  C  C145  1  0.380400  0.755600  0.303620  1.0  -0.1335
  C  C146  1  0.399500  0.821900  0.305210  1.0  0.2038
  C  C147  1  0.576400  0.856000  0.240520  1.0  0.5922
  C  C148  1  0.628100  0.873100  0.210850  1.0  0.589
  C  C149  1  0.363700  0.858200  0.366850  1.0  0.6267
  C  C150  1  0.337000  0.916400  0.389960  1.0  0.6171
  C  C151  1  0.381500  0.888000  0.204110  1.0  -0.1784
  C  C152  1  0.381400  0.832000  0.180080  1.0  0.2173
  C  C153  1  0.330300  0.788600  0.183770  1.0  -0.1796
  C  C154  1  0.280000  0.798300  0.209540  1.0  -0.1473
  C  C155  1  0.280500  0.854100  0.234010  1.0  -0.1668
  C  C156  1  0.331200  0.897600  0.230450  1.0  0.2294
  C  C157  1  0.426500  0.815400  0.117170  1.0  0.6186
  C  C158  1  0.490500  0.806800  0.094570  1.0  0.5916
  C  C159  1  0.333700  0.011600  0.241470  1.0  0.6344
  C  C160  1  0.335300  0.066200  0.272650  1.0  0.5919
  C  C161  1  0.310200  0.689300  0.463110  1.0  0.5641
  C  C162  1  0.252500  0.740200  0.462380  1.0  0.6128
  C  C163  1  0.551300  0.155200  0.780460  1.0  -0.186
  C  C164  1  0.521900  0.198600  0.753790  1.0  0.1662
  C  C165  1  0.543500  0.262800  0.751100  1.0  -0.141
  C  C166  1  0.591100  0.285600  0.775980  1.0  -0.1055
  C  C167  1  0.619600  0.244400  0.803620  1.0  -0.133
  C  C168  1  0.600500  0.178100  0.805210  1.0  0.2044
  C  C169  1  0.423600  0.144000  0.740520  1.0  0.5917
  C  C170  1  0.371900  0.126900  0.710850  1.0  0.5889
  C  C171  1  0.636300  0.141800  0.866850  1.0  0.6274
  C  C172  1  0.663000  0.083600  0.889960  1.0  0.6216
  C  C173  1  0.618500  0.112000  0.704110  1.0  -0.1787
  C  C174  1  0.618600  0.168000  0.680080  1.0  0.2173
  C  C175  1  0.669700  0.211400  0.683770  1.0  -0.1806
  C  C176  1  0.720000  0.201700  0.709540  1.0  -0.1465
  C  C177  1  0.719500  0.145900  0.734010  1.0  -0.1633
  C  C178  1  0.668800  0.102400  0.730450  1.0  0.228
  C  C179  1  0.573500  0.184600  0.617170  1.0  0.6185
  C  C180  1  0.509500  0.193200  0.594570  1.0  0.5916
  C  C181  1  0.666300  0.988400  0.741470  1.0  0.6351
  C  C182  1  0.664700  0.933800  0.772650  1.0  0.5912
  C  C183  1  0.689800  0.310700  0.963110  1.0  0.5637
  C  C184  1  0.747500  0.259800  0.962380  1.0  0.6124
  C  C185  1  0.155200  0.551300  0.219540  1.0  -0.1856
  C  C186  1  0.198600  0.521900  0.246210  1.0  0.1696
  C  C187  1  0.262800  0.543500  0.248900  1.0  -0.144
  C  C188  1  0.285600  0.591100  0.224020  1.0  -0.1088
  C  C189  1  0.244400  0.619600  0.196380  1.0  -0.1346
  C  C190  1  0.178100  0.600500  0.194790  1.0  0.2037
  C  C191  1  0.144000  0.423600  0.259480  1.0  0.5903
  C  C192  1  0.126900  0.371900  0.289150  1.0  0.5864
  C  C193  1  0.141800  0.636300  0.133150  1.0  0.6263
  C  C194  1  0.083600  0.663000  0.110040  1.0  0.6216
  C  C195  1  0.112000  0.618500  0.295890  1.0  -0.1765
  C  C196  1  0.168000  0.618600  0.319920  1.0  0.215
  C  C197  1  0.211400  0.669700  0.316230  1.0  -0.1795
  C  C198  1  0.201700  0.720000  0.290460  1.0  -0.1421
  C  C199  1  0.145900  0.719500  0.265990  1.0  -0.1682
  C  C200  1  0.102400  0.668800  0.269550  1.0  0.2284
  C  C201  1  0.184600  0.573500  0.382830  1.0  0.6202
  C  C202  1  0.193200  0.509500  0.405430  1.0  0.5888
  C  C203  1  0.988400  0.666300  0.258530  1.0  0.6373
  C  C204  1  0.933800  0.664700  0.227350  1.0  0.5956
  C  C205  1  0.310700  0.689800  0.036890  1.0  0.5636
  C  C206  1  0.259800  0.747500  0.037620  1.0  0.6123
  C  C207  1  0.844800  0.448700  0.719540  1.0  -0.187
  C  C208  1  0.801400  0.478100  0.746210  1.0  0.1705
  C  C209  1  0.737200  0.456500  0.748900  1.0  -0.1423
  C  C210  1  0.714400  0.408900  0.724020  1.0  -0.1118
  C  C211  1  0.755600  0.380400  0.696380  1.0  -0.132
  C  C212  1  0.821900  0.399500  0.694790  1.0  0.2031
  C  C213  1  0.856000  0.576400  0.759480  1.0  0.5902
  C  C214  1  0.873100  0.628100  0.789150  1.0  0.5886
  C  C215  1  0.858200  0.363700  0.633150  1.0  0.6263
  C  C216  1  0.916400  0.337000  0.610040  1.0  0.6195
  C  C217  1  0.888000  0.381500  0.795890  1.0  -0.1772
  C  C218  1  0.832000  0.381400  0.819920  1.0  0.2155
  C  C219  1  0.788600  0.330300  0.816230  1.0  -0.1798
  C  C220  1  0.798300  0.280000  0.790460  1.0  -0.1409
  C  C221  1  0.854100  0.280500  0.765990  1.0  -0.1665
  C  C222  1  0.897600  0.331200  0.769550  1.0  0.2278
  C  C223  1  0.815400  0.426500  0.882830  1.0  0.6196
  C  C224  1  0.806800  0.490500  0.905430  1.0  0.5879
  C  C225  1  0.011600  0.333700  0.758530  1.0  0.6378
  C  C226  1  0.066200  0.335300  0.727350  1.0  0.5929
  C  C227  1  0.689300  0.310200  0.536890  1.0  0.5623
  C  C228  1  0.740200  0.252500  0.537620  1.0  0.6131
  C  C229  1  0.051300  0.344800  0.969540  1.0  -0.1838
  C  C230  1  0.021900  0.301400  0.996210  1.0  0.1658
  C  C231  1  0.043500  0.237200  0.998900  1.0  -0.1418
  C  C232  1  0.091100  0.214400  0.974020  1.0  -0.1074
  C  C233  1  0.119600  0.255600  0.946380  1.0  -0.1332
  C  C234  1  0.100500  0.321900  0.944790  1.0  0.2049
  C  C235  1  0.923600  0.356000  0.009480  1.0  0.5907
  C  C236  1  0.871900  0.373100  0.039150  1.0  0.5869
  C  C237  1  0.136300  0.358200  0.883150  1.0  0.627
  C  C238  1  0.163000  0.416400  0.860040  1.0  0.6177
  C  C239  1  0.118500  0.388000  0.045890  1.0  -0.1804
  C  C240  1  0.118600  0.332000  0.069920  1.0  0.2162
  C  C241  1  0.169700  0.288600  0.066230  1.0  -0.1806
  C  C242  1  0.220000  0.298300  0.040460  1.0  -0.146
  C  C243  1  0.219500  0.354100  0.015990  1.0  -0.1633
  C  C244  1  0.168800  0.397600  0.019550  1.0  0.2293
  C  C245  1  0.073500  0.315400  0.132830  1.0  0.6188
  C  C246  1  0.009500  0.306800  0.155430  1.0  0.59
  C  C247  1  0.166300  0.511600  0.008530  1.0  0.6347
  C  C248  1  0.164700  0.566200  0.977350  1.0  0.5917
  C  C249  1  0.189800  0.189300  0.786890  1.0  0.5637
  C  C250  1  0.247500  0.240200  0.787620  1.0  0.6129
  C  C251  1  0.948700  0.655200  0.469540  1.0  -0.1857
  C  C252  1  0.978100  0.698600  0.496210  1.0  0.1662
  C  C253  1  0.956500  0.762800  0.498900  1.0  -0.1423
  C  C254  1  0.908900  0.785600  0.474020  1.0  -0.105
  C  C255  1  0.880400  0.744400  0.446380  1.0  -0.1323
  C  C256  1  0.899500  0.678100  0.444790  1.0  0.2034
  C  C257  1  0.076400  0.644000  0.509480  1.0  0.5922
  C  C258  1  0.128100  0.626900  0.539150  1.0  0.5896
  C  C259  1  0.863700  0.641800  0.383150  1.0  0.627
  C  C260  1  0.837000  0.583600  0.360040  1.0  0.6193
  C  C261  1  0.881500  0.612000  0.545890  1.0  -0.1802
  C  C262  1  0.881400  0.668000  0.569920  1.0  0.2166
  C  C263  1  0.830300  0.711400  0.566230  1.0  -0.1804
  C  C264  1  0.780000  0.701700  0.540460  1.0  -0.1449
  C  C265  1  0.780500  0.645900  0.515990  1.0  -0.166
  C  C266  1  0.831200  0.602400  0.519550  1.0  0.2283
  C  C267  1  0.926500  0.684600  0.632830  1.0  0.619
  C  C268  1  0.990500  0.693200  0.655430  1.0  0.5927
  C  C269  1  0.833700  0.488400  0.508530  1.0  0.6351
  C  C270  1  0.835300  0.433800  0.477350  1.0  0.5897
  C  C271  1  0.810200  0.810700  0.286890  1.0  0.5637
  C  C272  1  0.752500  0.759800  0.287620  1.0  0.6121
  N  N273  1  0.324000  0.973200  0.977490  1.0  -0.3749
  N  N274  1  0.367400  0.131900  0.079760  1.0  -0.3431
  N  N275  1  0.321200  0.064500  0.905140  1.0  -0.3369
  N  N276  1  0.452400  0.167000  0.006160  1.0  -0.3624
  N  N277  1  0.676000  0.026800  0.477490  1.0  -0.3755
  N  N278  1  0.632600  0.868100  0.579760  1.0  -0.3433
  N  N279  1  0.678800  0.935500  0.405140  1.0  -0.3364
  N  N280  1  0.547600  0.833000  0.506160  1.0  -0.362
  N  N281  1  0.526800  0.824000  0.227490  1.0  -0.3752
  N  N282  1  0.368100  0.867400  0.329760  1.0  -0.3436
  N  N283  1  0.435500  0.821200  0.155140  1.0  -0.3355
  N  N284  1  0.333000  0.952400  0.256160  1.0  -0.364
  N  N285  1  0.473200  0.176000  0.727490  1.0  -0.3741
  N  N286  1  0.631900  0.132600  0.829760  1.0  -0.3435
  N  N287  1  0.564500  0.178800  0.655140  1.0  -0.3348
  N  N288  1  0.667000  0.047600  0.756160  1.0  -0.3633
  N  N289  1  0.176000  0.473200  0.272510  1.0  -0.3749
  N  N290  1  0.132600  0.631900  0.170240  1.0  -0.3427
  N  N291  1  0.178800  0.564500  0.344860  1.0  -0.3357
  N  N292  1  0.047600  0.667000  0.243840  1.0  -0.3643
  N  N293  1  0.824000  0.526800  0.772510  1.0  -0.3734
  N  N294  1  0.867400  0.368100  0.670240  1.0  -0.3433
  N  N295  1  0.821200  0.435500  0.844860  1.0  -0.3352
  N  N296  1  0.952400  0.333000  0.743840  1.0  -0.3639
  N  N297  1  0.973200  0.324000  0.022510  1.0  -0.3726
  N  N298  1  0.131900  0.367400  0.920240  1.0  -0.343
  N  N299  1  0.064500  0.321200  0.094860  1.0  -0.3341
  N  N300  1  0.167000  0.452400  0.993840  1.0  -0.3652
  N  N301  1  0.026800  0.676000  0.522510  1.0  -0.3738
  N  N302  1  0.868100  0.632600  0.420240  1.0  -0.3437
  N  N303  1  0.935500  0.678800  0.594860  1.0  -0.3343
  N  N304  1  0.833000  0.547600  0.493840  1.0  -0.3646
  O  O305  1  0.622770  0.161600  0.010490  1.0  -0.507
  O  O306  1  0.527980  0.169500  0.956930  1.0  -0.5358
  O  O307  1  0.549400  0.167700  0.057750  1.0  -0.5137
  O  O308  1  0.212300  0.133480  0.209000  1.0  -0.5201
  O  O309  1  0.298500  0.233260  0.206930  1.0  -0.5252
  O  O310  1  0.219300  0.302980  0.220000  1.0  -0.5692
  O  O311  1  0.130800  0.205000  0.215510  1.0  -0.524
  O  O312  1  0.465300  0.181500  0.120440  1.0  -0.5353
  O  O313  1  0.398400  0.819790  0.972360  1.0  -0.5649
  O  O314  1  0.371900  0.911790  0.026240  1.0  -0.5708
  O  O315  1  0.317610  0.126060  0.848740  1.0  -0.5492
  O  O316  1  0.301600  0.013800  0.808550  1.0  -0.4641
  O  O317  1  0.305500  0.956900  0.863710  1.0  -0.5419
  O  O318  1  0.357000  0.882000  0.925670  1.0  -0.5276
  O  O319  1  0.413400  0.163800  0.176140  1.0  -0.5237
  O  O320  1  0.307570  0.116970  0.136240  1.0  -0.5519
  O  O321  1  0.377230  0.838400  0.510490  1.0  -0.5089
  O  O322  1  0.472020  0.830500  0.456930  1.0  -0.5354
  O  O323  1  0.450600  0.832300  0.557750  1.0  -0.513
  O  O324  1  0.787700  0.866520  0.709000  1.0  -0.5181
  O  O325  1  0.701500  0.766740  0.706930  1.0  -0.5271
  O  O326  1  0.780700  0.697020  0.720000  1.0  -0.5734
  O  O327  1  0.869200  0.795000  0.715510  1.0  -0.5234
  O  O328  1  0.534700  0.818500  0.620440  1.0  -0.5344
  O  O329  1  0.601600  0.180210  0.472360  1.0  -0.5645
  O  O330  1  0.628100  0.088210  0.526240  1.0  -0.5712
  O  O331  1  0.682390  0.873940  0.348740  1.0  -0.5493
  O  O332  1  0.698400  0.986200  0.308550  1.0  -0.4665
  O  O333  1  0.694500  0.043100  0.363710  1.0  -0.5411
  O  O334  1  0.643000  0.118000  0.425670  1.0  -0.5322
  O  O335  1  0.586600  0.836200  0.676140  1.0  -0.5254
  O  O336  1  0.692430  0.883030  0.636240  1.0  -0.5522
  O  O337  1  0.338400  0.122770  0.260490  1.0  -0.5023
  O  O338  1  0.330500  0.027980  0.206930  1.0  -0.536
  O  O339  1  0.332300  0.049400  0.307750  1.0  -0.5119
  O  O340  1  0.366520  0.712300  0.459000  1.0  -0.5133
  O  O341  1  0.266740  0.798500  0.456930  1.0  -0.5263
  O  O342  1  0.197020  0.719300  0.470000  1.0  -0.57
  O  O343  1  0.295000  0.630800  0.465510  1.0  -0.5264
  O  O344  1  0.318500  0.965300  0.370440  1.0  -0.5359
  O  O345  1  0.680210  0.898400  0.222360  1.0  -0.5637
  O  O346  1  0.588210  0.871900  0.276240  1.0  -0.5714
  O  O347  1  0.373940  0.817610  0.098740  1.0  -0.5505
  O  O348  1  0.486200  0.801600  0.058550  1.0  -0.4667
  O  O349  1  0.543100  0.805500  0.113710  1.0  -0.5423
  O  O350  1  0.618000  0.857000  0.175670  1.0  -0.529
  O  O351  1  0.336200  0.913400  0.426140  1.0  -0.526
  O  O352  1  0.383030  0.807570  0.386240  1.0  -0.5518
  O  O353  1  0.661600  0.877230  0.760490  1.0  -0.5057
  O  O354  1  0.669500  0.972020  0.706930  1.0  -0.5355
  O  O355  1  0.667700  0.950600  0.807750  1.0  -0.5157
  O  O356  1  0.633480  0.287700  0.959000  1.0  -0.5143
  O  O357  1  0.733260  0.201500  0.956930  1.0  -0.5251
  O  O358  1  0.802980  0.280700  0.970000  1.0  -0.5696
  O  O359  1  0.705000  0.369200  0.965510  1.0  -0.5284
  O  O360  1  0.681500  0.034700  0.870440  1.0  -0.5363
  O  O361  1  0.319790  0.101600  0.722360  1.0  -0.5654
  O  O362  1  0.411790  0.128100  0.776240  1.0  -0.5718
  O  O363  1  0.626060  0.182390  0.598740  1.0  -0.5499
  O  O364  1  0.513800  0.198400  0.558550  1.0  -0.4679
  O  O365  1  0.456900  0.194500  0.613710  1.0  -0.5432
  O  O366  1  0.382000  0.143000  0.675670  1.0  -0.5268
  O  O367  1  0.663800  0.086600  0.926140  1.0  -0.5247
  O  O368  1  0.616970  0.192430  0.886240  1.0  -0.5528
  O  O369  1  0.877230  0.661600  0.239510  1.0  -0.5092
  O  O370  1  0.972020  0.669500  0.293070  1.0  -0.5361
  O  O371  1  0.950600  0.667700  0.192250  1.0  -0.5133
  O  O372  1  0.287700  0.633480  0.041000  1.0  -0.5171
  O  O373  1  0.201500  0.733260  0.043070  1.0  -0.528
  O  O374  1  0.280700  0.802980  0.030000  1.0  -0.5726
  O  O375  1  0.369200  0.705000  0.034490  1.0  -0.5267
  O  O376  1  0.034700  0.681500  0.129560  1.0  -0.5373
  O  O377  1  0.101600  0.319790  0.277640  1.0  -0.5644
  O  O378  1  0.128100  0.411790  0.223760  1.0  -0.5716
  O  O379  1  0.182390  0.626060  0.401260  1.0  -0.5485
  O  O380  1  0.198400  0.513800  0.441450  1.0  -0.4685
  O  O381  1  0.194500  0.456900  0.386290  1.0  -0.5423
  O  O382  1  0.143000  0.382000  0.324330  1.0  -0.531
  O  O383  1  0.086600  0.663800  0.073860  1.0  -0.5228
  O  O384  1  0.192430  0.616970  0.113760  1.0  -0.5519
  O  O385  1  0.122770  0.338400  0.739510  1.0  -0.5071
  O  O386  1  0.027980  0.330500  0.793070  1.0  -0.5356
  O  O387  1  0.049400  0.332300  0.692250  1.0  -0.5139
  O  O388  1  0.712300  0.366520  0.541000  1.0  -0.5166
  O  O389  1  0.798500  0.266740  0.543070  1.0  -0.5243
  O  O390  1  0.719300  0.197020  0.530000  1.0  -0.5718
  O  O391  1  0.630800  0.295000  0.534490  1.0  -0.5294
  O  O392  1  0.965300  0.318500  0.629560  1.0  -0.5384
  O  O393  1  0.898400  0.680210  0.777640  1.0  -0.5619
  O  O394  1  0.871900  0.588210  0.723760  1.0  -0.5722
  O  O395  1  0.817610  0.373940  0.901260  1.0  -0.5483
  O  O396  1  0.801600  0.486200  0.941450  1.0  -0.4687
  O  O397  1  0.805500  0.543100  0.886290  1.0  -0.54
  O  O398  1  0.857000  0.618000  0.824330  1.0  -0.5264
  O  O399  1  0.913400  0.336200  0.573860  1.0  -0.522
  O  O400  1  0.807570  0.383030  0.613760  1.0  -0.5535
  O  O401  1  0.161600  0.622770  0.989510  1.0  -0.5032
  O  O402  1  0.169500  0.527980  0.043070  1.0  -0.5353
  O  O403  1  0.167700  0.549400  0.942250  1.0  -0.5139
  O  O404  1  0.133480  0.212300  0.791000  1.0  -0.5183
  O  O405  1  0.233260  0.298500  0.793070  1.0  -0.5229
  O  O406  1  0.302980  0.219300  0.780000  1.0  -0.5694
  O  O407  1  0.205000  0.130800  0.784490  1.0  -0.5219
  O  O408  1  0.181500  0.465300  0.879560  1.0  -0.5339
  O  O409  1  0.819790  0.398400  0.027640  1.0  -0.5662
  O  O410  1  0.911790  0.371900  0.973760  1.0  -0.5715
  O  O411  1  0.126060  0.317610  0.151260  1.0  -0.5498
  O  O412  1  0.013800  0.301600  0.191450  1.0  -0.4632
  O  O413  1  0.956900  0.305500  0.136290  1.0  -0.5429
  O  O414  1  0.882000  0.357000  0.074330  1.0  -0.5264
  O  O415  1  0.163800  0.413400  0.823860  1.0  -0.527
  O  O416  1  0.116970  0.307570  0.863760  1.0  -0.5527
  O  O417  1  0.838400  0.377230  0.489510  1.0  -0.5043
  O  O418  1  0.830500  0.472020  0.543070  1.0  -0.5358
  O  O419  1  0.832300  0.450600  0.442250  1.0  -0.513
  O  O420  1  0.866520  0.787700  0.291000  1.0  -0.5177
  O  O421  1  0.766740  0.701500  0.293070  1.0  -0.525
  O  O422  1  0.697020  0.780700  0.280000  1.0  -0.5692
  O  O423  1  0.795000  0.869200  0.284490  1.0  -0.5221
  O  O424  1  0.818500  0.534700  0.379560  1.0  -0.5347
  O  O425  1  0.180210  0.601600  0.527640  1.0  -0.5643
  O  O426  1  0.088210  0.628100  0.473760  1.0  -0.5732
  O  O427  1  0.873940  0.682390  0.651260  1.0  -0.5496
  O  O428  1  0.986200  0.698400  0.691450  1.0  -0.4617
  O  O429  1  0.043100  0.694500  0.636290  1.0  -0.5421
  O  O430  1  0.118000  0.643000  0.574330  1.0  -0.527
  O  O431  1  0.836200  0.586600  0.323860  1.0  -0.5256
  O  O432  1  0.883030  0.692430  0.363760  1.0  -0.5531
