# generated using pymatgen
data_CuH7C13NO4
_symmetry_space_group_name_H-M   'P 1'
_cell_length_a   10.53850000
_cell_length_b   10.77680000
_cell_length_c   14.76940000
_cell_angle_alpha   90.00000000
_cell_angle_beta   108.72000000
_cell_angle_gamma   90.00000000
_symmetry_Int_Tables_number   1
_chemical_formula_structural   CuH7C13NO4
_chemical_formula_sum   'Cu4 H28 C52 N4 O16'
_cell_volume   1588.64381038
_cell_formula_units_Z   4
loop_
 _symmetry_equiv_pos_site_id
 _symmetry_equiv_pos_as_xyz
  1  'x, y, z'
loop_
 _atom_site_type_symbol
 _atom_site_label
 _atom_site_symmetry_multiplicity
 _atom_site_fract_x
 _atom_site_fract_y
 _atom_site_fract_z
 _atom_site_occupancy
 _atom_site_charge
  Cu  Cu1  1  0.093490  0.085950  0.011140  1.0  0.8314
  Cu  Cu2  1  0.906510  0.585950  0.488860  1.0  0.8313
  Cu  Cu3  1  0.906510  0.914050  0.988860  1.0  0.8312
  Cu  Cu4  1  0.093490  0.414050  0.511140  1.0  0.8315
  H  H5  1  0.053300  0.725300  0.774000  1.0  0.1147
  H  H6  1  0.575600  0.469900  0.932900  1.0  0.11
  H  H7  1  0.392300  0.551000  0.778900  1.0  0.1129
  H  H8  1  0.397500  0.801000  0.981500  1.0  0.1118
  H  H9  1  0.930500  0.636100  0.038800  1.0  0.0826
  H  H10  1  0.609700  0.839000  0.939600  1.0  0.0797
  H  H11  1  0.805800  0.458100  0.005900  1.0  0.1122
  H  H12  1  0.946700  0.225300  0.726000  1.0  0.1137
  H  H13  1  0.424400  0.969900  0.567100  1.0  0.1099
  H  H14  1  0.607700  0.051000  0.721100  1.0  0.1132
  H  H15  1  0.602500  0.301000  0.518500  1.0  0.1114
  H  H16  1  0.069500  0.136100  0.461200  1.0  0.0819
  H  H17  1  0.390300  0.339000  0.560400  1.0  0.0791
  H  H18  1  0.194200  0.958100  0.494100  1.0  0.1124
  H  H19  1  0.946700  0.274700  0.226000  1.0  0.1137
  H  H20  1  0.424400  0.530100  0.067100  1.0  0.1106
  H  H21  1  0.607700  0.449000  0.221100  1.0  0.1133
  H  H22  1  0.602500  0.199000  0.018500  1.0  0.1113
  H  H23  1  0.069500  0.363900  0.961200  1.0  0.0823
  H  H24  1  0.390300  0.161000  0.060400  1.0  0.079
  H  H25  1  0.194200  0.541900  0.994100  1.0  0.1125
  H  H26  1  0.053300  0.774700  0.274000  1.0  0.1146
  H  H27  1  0.575600  0.030100  0.432900  1.0  0.1105
  H  H28  1  0.392300  0.949000  0.278900  1.0  0.1127
  H  H29  1  0.397500  0.699000  0.481500  1.0  0.1119
  H  H30  1  0.930500  0.863900  0.538800  1.0  0.0824
  H  H31  1  0.609700  0.661000  0.439600  1.0  0.0794
  H  H32  1  0.805800  0.041900  0.505900  1.0  0.1122
  C  C33  1  0.138200  0.859800  0.930080  1.0  0.6702
  C  C34  1  0.566400  0.658100  0.930410  1.0  -0.0112
  C  C35  1  0.138000  0.572770  0.666160  1.0  0.6613
  C  C36  1  0.418200  0.674100  0.885910  1.0  0.0385
  C  C37  1  0.144800  0.712400  0.802170  1.0  -0.035
  C  C38  1  0.212900  0.774240  0.885550  1.0  -0.0973
  C  C39  1  0.626900  0.541800  0.948720  1.0  -0.0441
  C  C40  1  0.348100  0.609350  0.804280  1.0  -0.0729
  C  C41  1  0.350700  0.757070  0.926740  1.0  -0.1013
  C  C42  1  0.211700  0.630900  0.759610  1.0  -0.1401
  C  C43  1  0.838200  0.641900  0.010110  1.0  0.1613
  C  C44  1  0.649100  0.760900  0.951840  1.0  0.1606
  C  C45  1  0.764000  0.534900  0.990800  1.0  -0.1672
  C  C46  1  0.861800  0.359800  0.569920  1.0  0.6703
  C  C47  1  0.433600  0.158100  0.569590  1.0  -0.0158
  C  C48  1  0.862000  0.072770  0.833840  1.0  0.6614
  C  C49  1  0.581800  0.174100  0.614090  1.0  0.0379
  C  C50  1  0.855200  0.212400  0.697830  1.0  -0.0346
  C  C51  1  0.787100  0.274240  0.614450  1.0  -0.0971
  C  C52  1  0.373100  0.041800  0.551280  1.0  -0.0432
  C  C53  1  0.651900  0.109350  0.695720  1.0  -0.0745
  C  C54  1  0.649300  0.257070  0.573260  1.0  -0.1019
  C  C55  1  0.788300  0.130900  0.740390  1.0  -0.1402
  C  C56  1  0.161800  0.141900  0.489890  1.0  0.1587
  C  C57  1  0.350900  0.260900  0.548160  1.0  0.1601
  C  C58  1  0.236000  0.034900  0.509200  1.0  -0.1686
  C  C59  1  0.861800  0.140200  0.069920  1.0  0.6697
  C  C60  1  0.433600  0.341900  0.069590  1.0  -0.0157
  C  C61  1  0.862000  0.427230  0.333840  1.0  0.6617
  C  C62  1  0.581800  0.325900  0.114090  1.0  0.0378
  C  C63  1  0.855200  0.287600  0.197830  1.0  -0.0344
  C  C64  1  0.787100  0.225760  0.114450  1.0  -0.098
  C  C65  1  0.373100  0.458200  0.051280  1.0  -0.0436
  C  C66  1  0.651900  0.390650  0.195720  1.0  -0.0739
  C  C67  1  0.649300  0.242930  0.073260  1.0  -0.1022
  C  C68  1  0.788300  0.369100  0.240390  1.0  -0.1404
  C  C69  1  0.161800  0.358100  0.989890  1.0  0.1588
  C  C70  1  0.350900  0.239100  0.048160  1.0  0.1565
  C  C71  1  0.236000  0.465100  0.009200  1.0  -0.1688
  C  C72  1  0.138200  0.640200  0.430080  1.0  0.6698
  C  C73  1  0.566400  0.841900  0.430410  1.0  -0.0105
  C  C74  1  0.138000  0.927230  0.166160  1.0  0.6615
  C  C75  1  0.418200  0.825900  0.385910  1.0  0.0385
  C  C76  1  0.144800  0.787600  0.302170  1.0  -0.035
  C  C77  1  0.212900  0.725760  0.385550  1.0  -0.0985
  C  C78  1  0.626900  0.958200  0.448720  1.0  -0.0443
  C  C79  1  0.348100  0.890650  0.304280  1.0  -0.0726
  C  C80  1  0.350700  0.742930  0.426740  1.0  -0.1014
  C  C81  1  0.211700  0.869100  0.259610  1.0  -0.1388
  C  C82  1  0.838200  0.858100  0.510110  1.0  0.161
  C  C83  1  0.649100  0.739100  0.451840  1.0  0.1569
  C  C84  1  0.764000  0.965100  0.490800  1.0  -0.1679
  N  N85  1  0.782720  0.754480  0.989220  1.0  -0.3268
  N  N86  1  0.217280  0.254480  0.510780  1.0  -0.3274
  N  N87  1  0.217280  0.245520  0.010780  1.0  -0.3264
  N  N88  1  0.782720  0.745520  0.489220  1.0  -0.3255
  O  O89  1  0.191490  0.962430  0.960890  1.0  -0.5488
  O  O90  1  0.025680  0.822020  0.932270  1.0  -0.5674
  O  O91  1  0.190100  0.479910  0.639110  1.0  -0.5444
  O  O92  1  0.028010  0.621810  0.619230  1.0  -0.5824
  O  O93  1  0.808510  0.462430  0.539110  1.0  -0.548
  O  O94  1  0.974320  0.322020  0.567730  1.0  -0.5678
  O  O95  1  0.809900  0.979910  0.860890  1.0  -0.5444
  O  O96  1  0.971990  0.121810  0.880770  1.0  -0.5829
  O  O97  1  0.808510  0.037570  0.039110  1.0  -0.5477
  O  O98  1  0.974320  0.177980  0.067730  1.0  -0.5683
  O  O99  1  0.809900  0.520090  0.360890  1.0  -0.5448
  O  O100  1  0.971990  0.378190  0.380770  1.0  -0.5823
  O  O101  1  0.191490  0.537570  0.460890  1.0  -0.5484
  O  O102  1  0.025680  0.677980  0.432270  1.0  -0.5674
  O  O103  1  0.190100  0.020090  0.139110  1.0  -0.5449
  O  O104  1  0.028010  0.878190  0.119230  1.0  -0.5821
