# generated using pymatgen
data_CuH6C12(NO2)2
_symmetry_space_group_name_H-M   'P 1'
_cell_length_a   10.90800000
_cell_length_b   12.43400000
_cell_length_c   14.35400000
_cell_angle_alpha   90.00000000
_cell_angle_beta   107.49500000
_cell_angle_gamma   90.00000000
_symmetry_Int_Tables_number   1
_chemical_formula_structural   CuH6C12(NO2)2
_chemical_formula_sum   'Cu4 H24 C48 N8 O16'
_cell_volume   1856.77971794
_cell_formula_units_Z   4
loop_
 _symmetry_equiv_pos_site_id
 _symmetry_equiv_pos_as_xyz
  1  'x, y, z'
loop_
 _atom_site_type_symbol
 _atom_site_label
 _atom_site_symmetry_multiplicity
 _atom_site_fract_x
 _atom_site_fract_y
 _atom_site_fract_z
 _atom_site_occupancy
 _atom_site_charge
  Cu  Cu1  1  0.901140  0.932810  0.975220  1.0  0.8177
  Cu  Cu2  1  0.098860  0.432810  0.524780  1.0  0.8169
  Cu  Cu3  1  0.098860  0.067190  0.024780  1.0  0.817
  Cu  Cu4  1  0.901140  0.567190  0.475220  1.0  0.8176
  H  H5  1  0.883900  0.799100  0.449100  1.0  0.0969
  H  H6  1  0.528400  0.917400  0.347900  1.0  0.1041
  H  H7  1  0.582700  0.600200  0.401800  1.0  0.1059
  H  H8  1  0.361200  0.859400  0.227900  1.0  0.1118
  H  H9  1  0.030100  0.737500  0.250800  1.0  0.1178
  H  H10  1  0.369700  0.627800  0.425700  1.0  0.1134
  H  H11  1  0.116100  0.299100  0.050900  1.0  0.0967
  H  H12  1  0.471600  0.417400  0.152100  1.0  0.1043
  H  H13  1  0.417300  0.100200  0.098200  1.0  0.106
  H  H14  1  0.638800  0.359400  0.272100  1.0  0.1126
  H  H15  1  0.969900  0.237500  0.249200  1.0  0.118
  H  H16  1  0.630300  0.127800  0.074300  1.0  0.1136
  H  H17  1  0.116100  0.200900  0.550900  1.0  0.0968
  H  H18  1  0.471600  0.082600  0.652100  1.0  0.1049
  H  H19  1  0.417300  0.399800  0.598200  1.0  0.1059
  H  H20  1  0.638800  0.140600  0.772100  1.0  0.1126
  H  H21  1  0.969900  0.262500  0.749200  1.0  0.1179
  H  H22  1  0.630300  0.372200  0.574300  1.0  0.1139
  H  H23  1  0.883900  0.700900  0.949100  1.0  0.0971
  H  H24  1  0.528400  0.582600  0.847900  1.0  0.1049
  H  H25  1  0.582700  0.899800  0.901800  1.0  0.1057
  H  H26  1  0.361200  0.640600  0.727900  1.0  0.1119
  H  H27  1  0.030100  0.762500  0.750800  1.0  0.1177
  H  H28  1  0.369700  0.872200  0.925700  1.0  0.1133
  C  C29  1  0.795500  0.788200  0.428800  1.0  0.3581
  C  C30  1  0.583000  0.859000  0.368800  1.0  0.192
  C  C31  1  0.531000  0.756000  0.369700  1.0  -0.0997
  C  C32  1  0.615300  0.669200  0.400700  1.0  0.1714
  C  C33  1  0.387600  0.744600  0.332700  1.0  0.0378
  C  C34  1  0.318300  0.812400  0.257700  1.0  -0.0874
  C  C35  1  0.184300  0.809100  0.228000  1.0  -0.1135
  C  C36  1  0.119400  0.739100  0.271200  1.0  -0.0207
  C  C37  1  0.188400  0.670800  0.345500  1.0  -0.11
  C  C38  1  0.323500  0.673500  0.376300  1.0  -0.0613
  C  C39  1  0.113800  0.880700  0.143900  1.0  0.6655
  C  C40  1  0.119300  0.602700  0.399900  1.0  0.6642
  C  C41  1  0.204500  0.288200  0.071200  1.0  0.3566
  C  C42  1  0.417000  0.359000  0.131200  1.0  0.1916
  C  C43  1  0.469000  0.256000  0.130300  1.0  -0.1012
  C  C44  1  0.384700  0.169200  0.099300  1.0  0.1712
  C  C45  1  0.612400  0.244600  0.167300  1.0  0.0377
  C  C46  1  0.681700  0.312400  0.242300  1.0  -0.0881
  C  C47  1  0.815700  0.309100  0.272000  1.0  -0.114
  C  C48  1  0.880600  0.239100  0.228800  1.0  -0.0175
  C  C49  1  0.811600  0.170800  0.154500  1.0  -0.1098
  C  C50  1  0.676500  0.173500  0.123700  1.0  -0.063
  C  C51  1  0.886200  0.380700  0.356100  1.0  0.6659
  C  C52  1  0.880700  0.102700  0.100100  1.0  0.6635
  C  C53  1  0.204500  0.211800  0.571200  1.0  0.3562
  C  C54  1  0.417000  0.141000  0.631200  1.0  0.1911
  C  C55  1  0.469000  0.244000  0.630300  1.0  -0.1019
  C  C56  1  0.384700  0.330800  0.599300  1.0  0.1706
  C  C57  1  0.612400  0.255400  0.667300  1.0  0.0379
  C  C58  1  0.681700  0.187600  0.742300  1.0  -0.0876
  C  C59  1  0.815700  0.190900  0.772000  1.0  -0.1137
  C  C60  1  0.880600  0.260900  0.728800  1.0  -0.0176
  C  C61  1  0.811600  0.329200  0.654500  1.0  -0.1099
  C  C62  1  0.676500  0.326500  0.623700  1.0  -0.063
  C  C63  1  0.886200  0.119300  0.856100  1.0  0.6659
  C  C64  1  0.880700  0.397300  0.600100  1.0  0.6643
  C  C65  1  0.795500  0.711800  0.928800  1.0  0.356
  C  C66  1  0.583000  0.641000  0.868800  1.0  0.1918
  C  C67  1  0.531000  0.744000  0.869700  1.0  -0.1003
  C  C68  1  0.615300  0.830800  0.900700  1.0  0.1705
  C  C69  1  0.387600  0.755400  0.832700  1.0  0.038
  C  C70  1  0.318300  0.687600  0.757700  1.0  -0.0868
  C  C71  1  0.184300  0.690900  0.728000  1.0  -0.1134
  C  C72  1  0.119400  0.760900  0.771200  1.0  -0.0205
  C  C73  1  0.188400  0.829200  0.845500  1.0  -0.11
  C  C74  1  0.323500  0.826500  0.876300  1.0  -0.0617
  C  C75  1  0.113800  0.619300  0.643900  1.0  0.6656
  C  C76  1  0.119300  0.897300  0.899900  1.0  0.6647
  N  N77  1  0.747100  0.685800  0.429700  1.0  -0.3754
  N  N78  1  0.714000  0.874600  0.398300  1.0  -0.4551
  N  N79  1  0.252900  0.185800  0.070300  1.0  -0.3753
  N  N80  1  0.286000  0.374600  0.101700  1.0  -0.4546
  N  N81  1  0.252900  0.314200  0.570300  1.0  -0.376
  N  N82  1  0.286000  0.125400  0.601700  1.0  -0.4533
  N  N83  1  0.747100  0.814200  0.929700  1.0  -0.3758
  N  N84  1  0.714000  0.625400  0.898300  1.0  -0.452
  O  O85  1  0.002900  0.849800  0.091750  1.0  -0.563
  O  O86  1  0.169700  0.964300  0.132420  1.0  -0.5538
  O  O87  1  0.007600  0.634100  0.399210  1.0  -0.5726
  O  O88  1  0.175000  0.519100  0.441500  1.0  -0.546
  O  O89  1  0.997100  0.349800  0.408250  1.0  -0.5626
  O  O90  1  0.830300  0.464300  0.367580  1.0  -0.5527
  O  O91  1  0.992400  0.134100  0.100790  1.0  -0.5719
  O  O92  1  0.825000  0.019100  0.058500  1.0  -0.5449
  O  O93  1  0.997100  0.150200  0.908250  1.0  -0.5617
  O  O94  1  0.830300  0.035700  0.867580  1.0  -0.5516
  O  O95  1  0.992400  0.365900  0.600790  1.0  -0.5719
  O  O96  1  0.825000  0.480900  0.558500  1.0  -0.545
  O  O97  1  0.002900  0.650200  0.591750  1.0  -0.5617
  O  O98  1  0.169700  0.535700  0.632420  1.0  -0.5527
  O  O99  1  0.007600  0.865900  0.899210  1.0  -0.5724
  O  O100  1  0.175000  0.980900  0.941500  1.0  -0.5467
