# generated using pymatgen
data_CsCdCBr2O3
_symmetry_space_group_name_H-M   'P 1'
_cell_length_a   23.62510000
_cell_length_b   10.25280000
_cell_length_c   7.81990000
_cell_angle_alpha   90.00000000
_cell_angle_beta   90.00000000
_cell_angle_gamma   90.00000000
_symmetry_Int_Tables_number   1
_chemical_formula_structural   CsCdCBr2O3
_chemical_formula_sum   'Cs8 Cd8 C8 Br16 O24'
_cell_volume   1894.16296335
_cell_formula_units_Z   8
loop_
 _symmetry_equiv_pos_site_id
 _symmetry_equiv_pos_as_xyz
  1  'x, y, z'
loop_
 _atom_site_type_symbol
 _atom_site_label
 _atom_site_symmetry_multiplicity
 _atom_site_fract_x
 _atom_site_fract_y
 _atom_site_fract_z
 _atom_site_occupancy
 _atom_site_charge
  Cs  Cs1  1  0.311590  0.316990  0.250000  1.0  0.9074
  Cs  Cs2  1  0.811590  0.816990  0.250000  1.0  0.9074
  Cs  Cs3  1  0.688410  0.683010  0.750000  1.0  0.9083
  Cs  Cs4  1  0.188410  0.183010  0.750000  1.0  0.9083
  Cs  Cs5  1  0.688410  0.316990  0.250000  1.0  0.9076
  Cs  Cs6  1  0.188410  0.816990  0.250000  1.0  0.9076
  Cs  Cs7  1  0.311590  0.683010  0.750000  1.0  0.9081
  Cs  Cs8  1  0.811590  0.183010  0.750000  1.0  0.9081
  Cd  Cd9  1  0.124280  0.400480  0.250000  1.0  0.8033
  Cd  Cd10  1  0.624280  0.900480  0.250000  1.0  0.8033
  Cd  Cd11  1  0.875720  0.599520  0.750000  1.0  0.8031
  Cd  Cd12  1  0.375720  0.099520  0.750000  1.0  0.8031
  Cd  Cd13  1  0.875720  0.400480  0.250000  1.0  0.8033
  Cd  Cd14  1  0.375720  0.900480  0.250000  1.0  0.8033
  Cd  Cd15  1  0.124280  0.599520  0.750000  1.0  0.8034
  Cd  Cd16  1  0.624280  0.099520  0.750000  1.0  0.8034
  C  C17  1  0.000000  0.353800  0.150000  1.0  0.6239
  C  C18  1  0.500000  0.853800  0.150000  1.0  0.6239
  C  C19  1  0.000000  0.646200  0.650000  1.0  0.625
  C  C20  1  0.500000  0.146200  0.650000  1.0  0.625
  C  C21  1  0.000000  0.353800  0.350000  1.0  0.6236
  C  C22  1  0.500000  0.853800  0.350000  1.0  0.6236
  C  C23  1  0.000000  0.646200  0.850000  1.0  0.623
  C  C24  1  0.500000  0.146200  0.850000  1.0  0.623
  Br  Br25  1  0.169160  0.166250  0.250000  1.0  -0.3368
  Br  Br26  1  0.669160  0.666250  0.250000  1.0  -0.3368
  Br  Br27  1  0.830840  0.833750  0.750000  1.0  -0.3366
  Br  Br28  1  0.330840  0.333750  0.750000  1.0  -0.3366
  Br  Br29  1  0.830840  0.166250  0.250000  1.0  -0.3367
  Br  Br30  1  0.330840  0.666250  0.250000  1.0  -0.3367
  Br  Br31  1  0.169160  0.833750  0.750000  1.0  -0.3367
  Br  Br32  1  0.669160  0.333750  0.750000  1.0  -0.3367
  Br  Br33  1  0.192640  0.500000  0.000000  1.0  -0.2949
  Br  Br34  1  0.692640  0.000000  0.000000  1.0  -0.2949
  Br  Br35  1  0.807360  0.500000  0.500000  1.0  -0.2952
  Br  Br36  1  0.307360  0.000000  0.500000  1.0  -0.2952
  Br  Br37  1  0.807360  0.500000  0.000000  1.0  -0.2952
  Br  Br38  1  0.307360  0.000000  0.000000  1.0  -0.2952
  Br  Br39  1  0.192640  0.500000  0.500000  1.0  -0.2949
  Br  Br40  1  0.692640  0.000000  0.500000  1.0  -0.2949
  O  O41  1  0.047000  0.353500  0.077200  1.0  -0.5659
  O  O42  1  0.547000  0.853500  0.077200  1.0  -0.5661
  O  O43  1  0.953000  0.646500  0.577200  1.0  -0.5642
  O  O44  1  0.453000  0.146500  0.577200  1.0  -0.5642
  O  O45  1  0.953000  0.353500  0.422800  1.0  -0.5653
  O  O46  1  0.453000  0.853500  0.422800  1.0  -0.5653
  O  O47  1  0.047000  0.646500  0.922800  1.0  -0.567
  O  O48  1  0.547000  0.146500  0.922800  1.0  -0.567
  O  O49  1  0.953000  0.646500  0.922800  1.0  -0.5658
  O  O50  1  0.453000  0.146500  0.922800  1.0  -0.5658
  O  O51  1  0.047000  0.353500  0.422800  1.0  -0.5675
  O  O52  1  0.547000  0.853500  0.422800  1.0  -0.5648
  O  O53  1  0.047000  0.646500  0.577200  1.0  -0.5683
  O  O54  1  0.547000  0.146500  0.577200  1.0  -0.5651
  O  O55  1  0.953000  0.353500  0.077200  1.0  -0.5638
  O  O56  1  0.453000  0.853500  0.077200  1.0  -0.5638
  O  O57  1  0.082900  0.613800  0.250000  1.0  -0.5723
  O  O58  1  0.582900  0.113800  0.250000  1.0  -0.5723
  O  O59  1  0.917100  0.386200  0.750000  1.0  -0.5716
  O  O60  1  0.417100  0.886200  0.750000  1.0  -0.5716
  O  O61  1  0.917100  0.613800  0.250000  1.0  -0.5719
  O  O62  1  0.417100  0.113800  0.250000  1.0  -0.5719
  O  O63  1  0.082900  0.386200  0.750000  1.0  -0.5725
  O  O64  1  0.582900  0.886200  0.750000  1.0  -0.5725
