# generated using pymatgen
data_ZnGa7P8(O11F)3
_symmetry_space_group_name_H-M   'P 1'
_cell_length_a   24.81400000
_cell_length_b   18.45800000
_cell_length_c   10.25720000
_cell_angle_alpha   90.00000000
_cell_angle_beta   90.00000000
_cell_angle_gamma   90.00000000
_symmetry_Int_Tables_number   1
_chemical_formula_structural   ZnGa7P8(O11F)3
_chemical_formula_sum   'Zn4 Ga28 P32 O132 F12'
_cell_volume   4697.97004405
_cell_formula_units_Z   4
loop_
 _symmetry_equiv_pos_site_id
 _symmetry_equiv_pos_as_xyz
  1  'x, y, z'
loop_
 _atom_site_type_symbol
 _atom_site_label
 _atom_site_symmetry_multiplicity
 _atom_site_fract_x
 _atom_site_fract_y
 _atom_site_fract_z
 _atom_site_occupancy
 _atom_site_charge
  Zn  Zn1  1  0.559360  0.930340  0.378610  1.0  1.1371
  Zn  Zn2  1  0.440640  0.069660  0.378610  1.0  1.135
  Zn  Zn3  1  0.940640  0.430340  0.621390  1.0  1.1338
  Zn  Zn4  1  0.059360  0.569660  0.621390  1.0  1.136
  Ga  Ga5  1  0.437500  0.915780  0.112770  1.0  1.684
  Ga  Ga6  1  0.338390  0.152860  0.927700  1.0  1.7071
  Ga  Ga7  1  0.235360  0.082950  0.601710  1.0  1.6546
  Ga  Ga8  1  0.346150  0.827210  0.590970  1.0  1.7347
  Ga  Ga9  1  0.241470  0.893120  0.897620  1.0  1.6029
  Ga  Ga10  1  0.276310  0.702360  0.918420  1.0  1.6974
  Ga  Ga11  1  0.231910  0.771910  0.422600  1.0  1.6782
  Ga  Ga12  1  0.562500  0.084220  0.112770  1.0  1.6839
  Ga  Ga13  1  0.661610  0.847140  0.927700  1.0  1.7083
  Ga  Ga14  1  0.764640  0.917050  0.601710  1.0  1.656
  Ga  Ga15  1  0.653850  0.172790  0.590970  1.0  1.7365
  Ga  Ga16  1  0.758530  0.106880  0.897620  1.0  1.6049
  Ga  Ga17  1  0.723690  0.297640  0.918420  1.0  1.6955
  Ga  Ga18  1  0.768090  0.228090  0.422600  1.0  1.6782
  Ga  Ga19  1  0.062500  0.415780  0.887230  1.0  1.6845
  Ga  Ga20  1  0.161610  0.652860  0.072300  1.0  1.7071
  Ga  Ga21  1  0.264640  0.582950  0.398290  1.0  1.656
  Ga  Ga22  1  0.153850  0.327210  0.409030  1.0  1.7354
  Ga  Ga23  1  0.258530  0.393120  0.102380  1.0  1.6037
  Ga  Ga24  1  0.223690  0.202360  0.081580  1.0  1.6962
  Ga  Ga25  1  0.268090  0.271910  0.577400  1.0  1.6773
  Ga  Ga26  1  0.937500  0.584220  0.887230  1.0  1.6857
  Ga  Ga27  1  0.838390  0.347140  0.072300  1.0  1.7073
  Ga  Ga28  1  0.735360  0.417050  0.398290  1.0  1.6561
  Ga  Ga29  1  0.846150  0.672790  0.409030  1.0  1.735
  Ga  Ga30  1  0.741470  0.606880  0.102380  1.0  1.6039
  Ga  Ga31  1  0.776310  0.797640  0.081580  1.0  1.6949
  Ga  Ga32  1  0.731910  0.728090  0.577400  1.0  1.6802
  P  P33  1  0.232530  0.064900  0.896000  1.0  1.8272
  P  P34  1  0.437850  0.903920  0.414900  1.0  1.9352
  P  P35  1  0.435730  0.084280  0.080200  1.0  1.8494
  P  P36  1  0.234620  0.910300  0.605400  1.0  1.8238
  P  P37  1  0.360660  0.831740  0.905700  1.0  1.8748
  P  P38  1  0.645410  0.855110  0.578900  1.0  1.8761
  P  P39  1  0.300160  0.679900  0.622300  1.0  1.8903
  P  P40  1  0.291420  0.294510  0.875400  1.0  1.9055
  P  P41  1  0.767470  0.935100  0.896000  1.0  1.8277
  P  P42  1  0.562150  0.096080  0.414900  1.0  1.9358
  P  P43  1  0.564270  0.915720  0.080200  1.0  1.8398
  P  P44  1  0.765380  0.089700  0.605400  1.0  1.8247
  P  P45  1  0.639340  0.168260  0.905700  1.0  1.8705
  P  P46  1  0.354590  0.144890  0.578900  1.0  1.8805
  P  P47  1  0.699840  0.320100  0.622300  1.0  1.8861
  P  P48  1  0.708580  0.705490  0.875400  1.0  1.9042
  P  P49  1  0.267470  0.564900  0.104000  1.0  1.8274
  P  P50  1  0.062150  0.403920  0.585100  1.0  1.9346
  P  P51  1  0.064270  0.584280  0.919800  1.0  1.8496
  P  P52  1  0.265380  0.410300  0.394600  1.0  1.8254
  P  P53  1  0.139340  0.331740  0.094300  1.0  1.8703
  P  P54  1  0.854590  0.355110  0.421100  1.0  1.8805
  P  P55  1  0.199840  0.179900  0.377700  1.0  1.8871
  P  P56  1  0.208580  0.794510  0.124600  1.0  1.9035
  P  P57  1  0.732530  0.435100  0.104000  1.0  1.8268
  P  P58  1  0.937850  0.596080  0.585100  1.0  1.9355
  P  P59  1  0.935730  0.415720  0.919800  1.0  1.8401
  P  P60  1  0.734620  0.589700  0.394600  1.0  1.8244
  P  P61  1  0.860660  0.668260  0.094300  1.0  1.8749
  P  P62  1  0.145410  0.644890  0.421100  1.0  1.876
  P  P63  1  0.800160  0.820100  0.377700  1.0  1.8905
  P  P64  1  0.791420  0.205490  0.124600  1.0  1.9062
  O  O65  1  0.291700  0.086000  0.868100  1.0  -0.9045
  O  O66  1  0.204000  0.064100  0.761200  1.0  -0.8141
  O  O67  1  0.232000  0.990000  0.958300  1.0  -0.7877
  O  O68  1  0.202500  0.117700  0.983900  1.0  -0.7331
  O  O69  1  0.496100  0.905000  0.465300  1.0  -0.7571
  O  O70  1  0.412200  0.979500  0.419200  1.0  -0.7726
  O  O71  1  0.436300  0.873100  0.276400  1.0  -0.7571
  O  O72  1  0.408600  0.854100  0.505600  1.0  -0.8313
  O  O73  1  0.404000  0.131300  0.986600  1.0  -0.9689
  O  O74  1  0.428500  0.114400  0.219600  1.0  -0.7769
  O  O75  1  0.413300  0.006500  0.072600  1.0  -0.8478
  O  O76  1  0.494400  0.089900  0.036700  1.0  -0.7961
  O  O77  1  0.206600  0.855400  0.519500  1.0  -0.758
  O  O78  1  0.294900  0.895200  0.628600  1.0  -0.9123
  O  O79  1  0.228100  0.984200  0.541500  1.0  -0.7649
  O  O80  1  0.207000  0.908600  0.741500  1.0  -0.8305
  O  O81  1  0.345000  0.753900  0.930200  1.0  -0.721
  O  O82  1  0.406900  0.848700  0.999400  1.0  -0.87
  O  O83  1  0.380500  0.844100  0.766200  1.0  -0.7289
  O  O84  1  0.314600  0.885900  0.936700  1.0  -0.8624
  O  O85  1  0.692200  0.909200  0.558600  1.0  -0.9034
  O  O86  1  0.661700  0.776600  0.573500  1.0  -0.7267
  O  O87  1  0.619500  0.870000  0.713200  1.0  -0.8414
  O  O88  1  0.604000  0.867500  0.472400  1.0  -0.8427
  O  O89  1  0.350000  0.727900  0.609800  1.0  -0.7552
  O  O90  1  0.250000  0.722500  0.583300  1.0  -0.8026
  O  O91  1  0.308300  0.613400  0.535400  1.0  -0.7605
  O  O92  1  0.294400  0.652600  0.762300  1.0  -0.7422
  O  O93  1  0.283400  0.322700  0.737700  1.0  -0.7455
  O  O94  1  0.342200  0.247300  0.881800  1.0  -0.8037
  O  O95  1  0.300500  0.360300  0.963900  1.0  -0.7744
  O  O96  1  0.243500  0.250100  0.919500  1.0  -0.8053
  O  O97  1  0.300300  0.165800  0.096200  1.0  -0.6334
  O  O98  1  0.708300  0.914000  0.868100  1.0  -0.9038
  O  O99  1  0.796000  0.935900  0.761200  1.0  -0.8166
  O  O100  1  0.768000  0.010000  0.958300  1.0  -0.7868
  O  O101  1  0.797500  0.882300  0.983900  1.0  -0.7333
  O  O102  1  0.503900  0.095000  0.465300  1.0  -0.7575
  O  O103  1  0.587800  0.020500  0.419200  1.0  -0.7737
  O  O104  1  0.563700  0.126900  0.276400  1.0  -0.7565
  O  O105  1  0.591400  0.145900  0.505600  1.0  -0.8343
  O  O106  1  0.596000  0.868700  0.986600  1.0  -0.9703
  O  O107  1  0.571500  0.885600  0.219600  1.0  -0.7799
  O  O108  1  0.586700  0.993500  0.072600  1.0  -0.848
  O  O109  1  0.505600  0.910100  0.036700  1.0  -0.7956
  O  O110  1  0.793400  0.144600  0.519500  1.0  -0.758
  O  O111  1  0.705100  0.104800  0.628600  1.0  -0.9127
  O  O112  1  0.771900  0.015800  0.541500  1.0  -0.7649
  O  O113  1  0.793000  0.091400  0.741500  1.0  -0.8308
  O  O114  1  0.655000  0.246100  0.930200  1.0  -0.7212
  O  O115  1  0.593100  0.151300  0.999400  1.0  -0.8697
  O  O116  1  0.619500  0.155900  0.766200  1.0  -0.7279
  O  O117  1  0.685400  0.114100  0.936700  1.0  -0.8612
  O  O118  1  0.307800  0.090800  0.558600  1.0  -0.9012
  O  O119  1  0.338300  0.223400  0.573500  1.0  -0.7273
  O  O120  1  0.380500  0.130000  0.713200  1.0  -0.8429
  O  O121  1  0.396000  0.132500  0.472400  1.0  -0.8424
  O  O122  1  0.650000  0.272100  0.609800  1.0  -0.7553
  O  O123  1  0.750000  0.277500  0.583300  1.0  -0.8027
  O  O124  1  0.691700  0.386600  0.535400  1.0  -0.7579
  O  O125  1  0.705600  0.347400  0.762300  1.0  -0.7411
  O  O126  1  0.716600  0.677300  0.737700  1.0  -0.747
  O  O127  1  0.657800  0.752700  0.881800  1.0  -0.8026
  O  O128  1  0.699500  0.639700  0.963900  1.0  -0.7738
  O  O129  1  0.756500  0.749900  0.919500  1.0  -0.8059
  O  O130  1  0.699700  0.834200  0.096200  1.0  -0.6334
  O  O131  1  0.208300  0.586000  0.131900  1.0  -0.9045
  O  O132  1  0.296000  0.564100  0.238800  1.0  -0.8125
  O  O133  1  0.268000  0.490000  0.041700  1.0  -0.7855
  O  O134  1  0.297500  0.617700  0.016100  1.0  -0.7397
  O  O135  1  0.003900  0.405000  0.534700  1.0  -0.7576
  O  O136  1  0.087800  0.479500  0.580800  1.0  -0.7734
  O  O137  1  0.063700  0.373100  0.723600  1.0  -0.7568
  O  O138  1  0.091400  0.354100  0.494400  1.0  -0.8333
  O  O139  1  0.096000  0.631300  0.013400  1.0  -0.9691
  O  O140  1  0.071500  0.614400  0.780400  1.0  -0.779
  O  O141  1  0.086700  0.506500  0.927400  1.0  -0.8465
  O  O142  1  0.005600  0.589900  0.963300  1.0  -0.7968
  O  O143  1  0.293400  0.355400  0.480500  1.0  -0.7591
  O  O144  1  0.205100  0.395200  0.371400  1.0  -0.9121
  O  O145  1  0.271900  0.484200  0.458500  1.0  -0.765
  O  O146  1  0.293000  0.408600  0.258500  1.0  -0.8316
  O  O147  1  0.155000  0.253900  0.069800  1.0  -0.7209
  O  O148  1  0.093100  0.348700  0.000600  1.0  -0.868
  O  O149  1  0.119500  0.344100  0.233800  1.0  -0.7272
  O  O150  1  0.185400  0.385900  0.063300  1.0  -0.8611
  O  O151  1  0.807800  0.409200  0.441400  1.0  -0.9041
  O  O152  1  0.838300  0.276600  0.426500  1.0  -0.7263
  O  O153  1  0.880500  0.370000  0.286800  1.0  -0.8414
  O  O154  1  0.896000  0.367500  0.527600  1.0  -0.8404
  O  O155  1  0.150000  0.227900  0.390200  1.0  -0.7574
  O  O156  1  0.250000  0.222500  0.416700  1.0  -0.8029
  O  O157  1  0.191700  0.113400  0.464600  1.0  -0.747
  O  O158  1  0.205600  0.152600  0.237700  1.0  -0.7464
  O  O159  1  0.216600  0.822700  0.262300  1.0  -0.7468
  O  O160  1  0.157800  0.747300  0.118200  1.0  -0.8006
  O  O161  1  0.199500  0.860300  0.036100  1.0  -0.773
  O  O162  1  0.256500  0.750100  0.080500  1.0  -0.8058
  O  O163  1  0.199700  0.665800  0.903800  1.0  -0.6349
  O  O164  1  0.791700  0.414000  0.131900  1.0  -0.9047
  O  O165  1  0.704000  0.435900  0.238800  1.0  -0.8114
  O  O166  1  0.732000  0.510000  0.041700  1.0  -0.7864
  O  O167  1  0.702500  0.382300  0.016100  1.0  -0.7393
  O  O168  1  0.996100  0.595000  0.534700  1.0  -0.7581
  O  O169  1  0.912200  0.520500  0.580800  1.0  -0.7728
  O  O170  1  0.936300  0.626900  0.723600  1.0  -0.7559
  O  O171  1  0.908600  0.645900  0.494400  1.0  -0.8336
  O  O172  1  0.904000  0.368700  0.013400  1.0  -0.9687
  O  O173  1  0.928500  0.385600  0.780400  1.0  -0.7799
  O  O174  1  0.913300  0.493500  0.927400  1.0  -0.8465
  O  O175  1  0.994400  0.410100  0.963300  1.0  -0.7956
  O  O176  1  0.706600  0.644600  0.480500  1.0  -0.7583
  O  O177  1  0.794900  0.604800  0.371400  1.0  -0.9118
  O  O178  1  0.728100  0.515800  0.458500  1.0  -0.7645
  O  O179  1  0.707000  0.591400  0.258500  1.0  -0.8299
  O  O180  1  0.845000  0.746100  0.069800  1.0  -0.72
  O  O181  1  0.906900  0.651300  0.000600  1.0  -0.8704
  O  O182  1  0.880500  0.655900  0.233800  1.0  -0.7283
  O  O183  1  0.814600  0.614100  0.063300  1.0  -0.8614
  O  O184  1  0.192200  0.590800  0.441400  1.0  -0.9027
  O  O185  1  0.161700  0.723400  0.426500  1.0  -0.7257
  O  O186  1  0.119500  0.630000  0.286800  1.0  -0.8421
  O  O187  1  0.104000  0.632500  0.527600  1.0  -0.8425
  O  O188  1  0.850000  0.772100  0.390200  1.0  -0.7567
  O  O189  1  0.750000  0.777500  0.416700  1.0  -0.8026
  O  O190  1  0.808300  0.886600  0.464600  1.0  -0.7493
  O  O191  1  0.794400  0.847400  0.237700  1.0  -0.7472
  O  O192  1  0.783400  0.177300  0.262300  1.0  -0.7474
  O  O193  1  0.842200  0.252700  0.118200  1.0  -0.8052
  O  O194  1  0.800500  0.139700  0.036100  1.0  -0.7752
  O  O195  1  0.743500  0.249900  0.080500  1.0  -0.8052
  O  O196  1  0.800300  0.334200  0.903800  1.0  -0.6345
  F  F197  1  0.246700  0.788300  0.832900  1.0  -0.5225
  F  F198  1  0.237400  0.187800  0.666900  1.0  -0.515
  F  F199  1  0.307100  0.812300  0.418500  1.0  -0.5034
  F  F200  1  0.753300  0.211700  0.832900  1.0  -0.5238
  F  F201  1  0.762600  0.812200  0.666900  1.0  -0.5142
  F  F202  1  0.692900  0.187700  0.418500  1.0  -0.5035
  F  F203  1  0.253300  0.288300  0.167100  1.0  -0.5221
  F  F204  1  0.262600  0.687800  0.333100  1.0  -0.516
  F  F205  1  0.192900  0.312300  0.581500  1.0  -0.5023
  F  F206  1  0.746700  0.711700  0.167100  1.0  -0.5214
  F  F207  1  0.737400  0.312200  0.333100  1.0  -0.5162
  F  F208  1  0.807100  0.687700  0.581500  1.0  -0.5027
