# generated using pymatgen
data_Co2Mo5P2H22C27(N3O7)2
_symmetry_space_group_name_H-M   'P 1'
_cell_length_a   8.90700000
_cell_length_b   18.93200000
_cell_length_c   28.64400000
_cell_angle_alpha   90.00000000
_cell_angle_beta   98.64100000
_cell_angle_gamma   90.00000000
_symmetry_Int_Tables_number   1
_chemical_formula_structural   Co2Mo5P2H22C27(N3O7)2
_chemical_formula_sum   'Co8 Mo20 P8 H88 C108 N24 O56'
_cell_volume   4775.33450281
_cell_formula_units_Z   4
loop_
 _symmetry_equiv_pos_site_id
 _symmetry_equiv_pos_as_xyz
  1  'x, y, z'
loop_
 _atom_site_type_symbol
 _atom_site_label
 _atom_site_symmetry_multiplicity
 _atom_site_fract_x
 _atom_site_fract_y
 _atom_site_fract_z
 _atom_site_occupancy
 _atom_site_charge
  Co  Co1  1  0.324360  0.038700  0.780480  1.0  0.9002
  Co  Co2  1  0.909960  0.776870  0.038060  1.0  0.8353
  Co  Co3  1  0.175640  0.538700  0.719520  1.0  0.9033
  Co  Co4  1  0.590040  0.276870  0.461940  1.0  0.8337
  Co  Co5  1  0.675640  0.961300  0.219520  1.0  0.9026
  Co  Co6  1  0.090040  0.223130  0.961940  1.0  0.8286
  Co  Co7  1  0.824360  0.461300  0.280480  1.0  0.9017
  Co  Co8  1  0.409960  0.723130  0.538060  1.0  0.8334
  Mo  Mo9  1  0.397310  0.905000  0.864210  1.0  1.3318
  Mo  Mo10  1  0.567730  0.817710  0.958740  1.0  1.313
  Mo  Mo11  1  0.532420  0.629530  0.926390  1.0  0.765
  Mo  Mo12  1  0.463380  0.630660  0.807600  1.0  1.3012
  Mo  Mo13  1  0.356760  0.792550  0.770510  1.0  0.6605
  Mo  Mo14  1  0.102690  0.405000  0.635790  1.0  1.3326
  Mo  Mo15  1  0.932270  0.317710  0.541260  1.0  1.3147
  Mo  Mo16  1  0.967580  0.129530  0.573610  1.0  0.7667
  Mo  Mo17  1  0.036620  0.130660  0.692400  1.0  1.3024
  Mo  Mo18  1  0.143240  0.292550  0.729490  1.0  0.6594
  Mo  Mo19  1  0.602690  0.095000  0.135790  1.0  1.3335
  Mo  Mo20  1  0.432270  0.182290  0.041260  1.0  1.3147
  Mo  Mo21  1  0.467580  0.370470  0.073610  1.0  0.7657
  Mo  Mo22  1  0.536620  0.369340  0.192400  1.0  1.3029
  Mo  Mo23  1  0.643240  0.207450  0.229490  1.0  0.6603
  Mo  Mo24  1  0.897310  0.595000  0.364210  1.0  1.3326
  Mo  Mo25  1  0.067730  0.682290  0.458740  1.0  1.3129
  Mo  Mo26  1  0.032420  0.870470  0.426390  1.0  0.7634
  Mo  Mo27  1  0.963380  0.869340  0.307600  1.0  1.3013
  Mo  Mo28  1  0.856760  0.707450  0.270510  1.0  0.6622
  P  P29  1  0.267170  0.739150  0.877710  1.0  1.5766
  P  P30  1  0.670970  0.770110  0.856940  1.0  1.5991
  P  P31  1  0.232830  0.239150  0.622290  1.0  1.5775
  P  P32  1  0.829030  0.270110  0.643060  1.0  1.599
  P  P33  1  0.732830  0.260850  0.122290  1.0  1.5777
  P  P34  1  0.329030  0.229890  0.143060  1.0  1.5986
  P  P35  1  0.767170  0.760850  0.377710  1.0  1.5764
  P  P36  1  0.170970  0.729890  0.356940  1.0  1.5988
  H  H37  1  0.095600  0.925400  0.733300  1.0  0.082
  H  H38  1  0.847300  0.891600  0.732600  1.0  0.1253
  H  H39  1  0.706800  0.943700  0.785800  1.0  0.1251
  H  H40  1  0.823500  0.027500  0.838800  1.0  0.1074
  H  H41  1  0.584100  0.224000  0.883800  1.0  0.115
  H  H42  1  0.804200  0.231800  0.849700  1.0  0.1176
  H  H43  1  0.819000  0.171700  0.779800  1.0  0.1178
  H  H44  1  0.619200  0.099600  0.748600  1.0  0.0905
  H  H45  1  0.222200  0.374600  0.975500  1.0  0.0913
  H  H46  1  0.346100  0.455900  0.934800  1.0  0.1211
  H  H47  1  0.424200  0.422300  0.864800  1.0  0.1138
  H  H48  1  0.390000  0.306600  0.839100  1.0  0.1177
  H  H49  1  0.963600  0.978700  0.906000  1.0  0.1148
  H  H50  1  0.802500  0.948900  0.959900  1.0  0.1164
  H  H51  1  0.734600  0.035200  0.010300  1.0  0.124
  H  H52  1  0.841600  0.146400  0.009300  1.0  0.0857
  H  H53  1  0.070500  0.815800  0.855900  1.0  0.1704
  H  H54  1  0.046100  0.775300  0.901900  1.0  0.1587
  H  H55  1  0.845200  0.807500  0.811600  1.0  0.1689
  H  H56  1  0.772400  0.736500  0.791900  1.0  0.1438
  H  H57  1  0.007700  0.700400  0.816200  1.0  0.1067
  H  H58  1  0.934900  0.682700  0.861400  1.0  0.1048
  H  H59  1  0.404400  0.425400  0.766700  1.0  0.0824
  H  H60  1  0.652700  0.391600  0.767400  1.0  0.1256
  H  H61  1  0.793200  0.443700  0.714200  1.0  0.1239
  H  H62  1  0.676500  0.527500  0.661200  1.0  0.1074
  H  H63  1  0.915900  0.724000  0.616200  1.0  0.1148
  H  H64  1  0.695800  0.731800  0.650300  1.0  0.1176
  H  H65  1  0.681000  0.671700  0.720200  1.0  0.1186
  H  H66  1  0.880800  0.599600  0.751400  1.0  0.0894
  H  H67  1  0.277800  0.874600  0.524500  1.0  0.0914
  H  H68  1  0.153900  0.955900  0.565200  1.0  0.1206
  H  H69  1  0.075800  0.922300  0.635200  1.0  0.1137
  H  H70  1  0.110000  0.806600  0.660900  1.0  0.1175
  H  H71  1  0.536400  0.478700  0.594000  1.0  0.1151
  H  H72  1  0.697500  0.448900  0.540100  1.0  0.1168
  H  H73  1  0.765400  0.535200  0.489700  1.0  0.1231
  H  H74  1  0.658400  0.646400  0.490700  1.0  0.0857
  H  H75  1  0.429500  0.315800  0.644100  1.0  0.1715
  H  H76  1  0.453900  0.275300  0.598100  1.0  0.1596
  H  H77  1  0.654800  0.307500  0.688400  1.0  0.1666
  H  H78  1  0.727600  0.236500  0.708100  1.0  0.1432
  H  H79  1  0.492300  0.200400  0.683800  1.0  0.1071
  H  H80  1  0.565100  0.182700  0.638600  1.0  0.1042
  H  H81  1  0.904400  0.074600  0.266700  1.0  0.0822
  H  H82  1  0.152700  0.108400  0.267400  1.0  0.1247
  H  H83  1  0.293200  0.056300  0.214200  1.0  0.1239
  H  H84  1  0.176500  0.972500  0.161200  1.0  0.1076
  H  H85  1  0.415900  0.776000  0.116200  1.0  0.1151
  H  H86  1  0.195800  0.768200  0.150300  1.0  0.1169
  H  H87  1  0.181000  0.828300  0.220200  1.0  0.1186
  H  H88  1  0.380800  0.900400  0.251400  1.0  0.0908
  H  H89  1  0.777800  0.625400  0.024500  1.0  0.091
  H  H90  1  0.653900  0.544100  0.065200  1.0  0.1217
  H  H91  1  0.575800  0.577700  0.135200  1.0  0.1141
  H  H92  1  0.610000  0.693400  0.160900  1.0  0.1177
  H  H93  1  0.036400  0.021300  0.094000  1.0  0.115
  H  H94  1  0.197500  0.051100  0.040100  1.0  0.1162
  H  H95  1  0.265400  0.964800  0.989700  1.0  0.1229
  H  H96  1  0.158400  0.853600  0.990700  1.0  0.0858
  H  H97  1  0.929500  0.184200  0.144100  1.0  0.172
  H  H98  1  0.953900  0.224700  0.098100  1.0  0.1596
  H  H99  1  0.154800  0.192500  0.188400  1.0  0.1683
  H  H100  1  0.227600  0.263500  0.208100  1.0  0.1427
  H  H101  1  0.992300  0.299600  0.183800  1.0  0.1068
  H  H102  1  0.065100  0.317300  0.138600  1.0  0.1042
  H  H103  1  0.595600  0.574600  0.233300  1.0  0.0819
  H  H104  1  0.347300  0.608400  0.232600  1.0  0.1253
  H  H105  1  0.206800  0.556300  0.285800  1.0  0.1252
  H  H106  1  0.323500  0.472500  0.338800  1.0  0.1076
  H  H107  1  0.084100  0.276000  0.383800  1.0  0.1149
  H  H108  1  0.304200  0.268200  0.349700  1.0  0.1181
  H  H109  1  0.319000  0.328300  0.279800  1.0  0.1177
  H  H110  1  0.119200  0.400400  0.248600  1.0  0.0911
  H  H111  1  0.722200  0.125400  0.475500  1.0  0.0915
  H  H112  1  0.846100  0.044100  0.434800  1.0  0.122
  H  H113  1  0.924200  0.077700  0.364800  1.0  0.1143
  H  H114  1  0.890000  0.193400  0.339100  1.0  0.1174
  H  H115  1  0.463600  0.521300  0.406000  1.0  0.1148
  H  H116  1  0.302500  0.551100  0.459900  1.0  0.1163
  H  H117  1  0.234600  0.464800  0.510300  1.0  0.1241
  H  H118  1  0.341600  0.353600  0.509300  1.0  0.0859
  H  H119  1  0.570500  0.684200  0.355900  1.0  0.1708
  H  H120  1  0.546100  0.724700  0.401900  1.0  0.1589
  H  H121  1  0.345200  0.692500  0.311600  1.0  0.1694
  H  H122  1  0.272400  0.763500  0.291900  1.0  0.1443
  H  H123  1  0.507700  0.799600  0.316200  1.0  0.1064
  H  H124  1  0.434900  0.817300  0.361400  1.0  0.1033
  C  C125  1  0.040400  0.945370  0.755090  1.0  0.1528
  C  C126  1  0.891100  0.925240  0.754170  1.0  -0.1252
  C  C127  1  0.807900  0.956000  0.785860  1.0  -0.1208
  C  C128  1  0.877900  0.005300  0.817710  1.0  -0.1587
  C  C129  1  0.029600  0.021210  0.817730  1.0  0.1519
  C  C130  1  0.116200  0.075600  0.848870  1.0  0.1232
  C  C131  1  0.322900  0.154120  0.850130  1.0  0.146
  C  C132  1  0.471200  0.160930  0.833070  1.0  0.1417
  C  C133  1  0.591600  0.200600  0.855650  1.0  -0.1538
  C  C134  1  0.722900  0.204600  0.835560  1.0  -0.0838
  C  C135  1  0.732900  0.168100  0.794470  1.0  -0.1351
  C  C136  1  0.611500  0.125960  0.775490  1.0  0.154
  C  C137  1  0.081600  0.107700  0.890260  1.0  0.1351
  C  C138  1  0.257800  0.360550  0.948080  1.0  0.1503
  C  C139  1  0.330400  0.410040  0.923560  1.0  -0.108
  C  C140  1  0.378300  0.389700  0.882460  1.0  -0.1097
  C  C141  1  0.358600  0.320830  0.867120  1.0  -0.1369
  C  C142  1  0.291000  0.273180  0.894300  1.0  0.1473
  C  C143  1  0.256900  0.198270  0.881290  1.0  0.1617
  C  C144  1  0.983500  0.081830  0.924220  1.0  0.1753
  C  C145  1  0.933900  0.012700  0.926230  1.0  -0.1533
  C  C146  1  0.839400  0.994800  0.958680  1.0  -0.1099
  C  C147  1  0.800900  0.045600  0.989050  1.0  -0.1114
  C  C148  1  0.862800  0.112800  0.987520  1.0  0.1562
  C  C149  1  0.075500  0.769650  0.870840  1.0  -0.4576
  C  C150  1  0.816100  0.760650  0.820580  1.0  -0.4107
  C  C151  1  0.961300  0.720920  0.841620  1.0  -0.1403
  C  C152  1  0.459600  0.445370  0.744910  1.0  0.1517
  C  C153  1  0.608900  0.425240  0.745830  1.0  -0.1263
  C  C154  1  0.692100  0.456000  0.714140  1.0  -0.1209
  C  C155  1  0.622100  0.505300  0.682290  1.0  -0.1575
  C  C156  1  0.470400  0.521210  0.682270  1.0  0.1513
  C  C157  1  0.383800  0.575600  0.651130  1.0  0.1232
  C  C158  1  0.177100  0.654120  0.649870  1.0  0.1461
  C  C159  1  0.028800  0.660930  0.666930  1.0  0.1413
  C  C160  1  0.908400  0.700600  0.644350  1.0  -0.1536
  C  C161  1  0.777100  0.704600  0.664440  1.0  -0.0851
  C  C162  1  0.767100  0.668100  0.705530  1.0  -0.1363
  C  C163  1  0.888500  0.625960  0.724510  1.0  0.1541
  C  C164  1  0.418400  0.607700  0.609740  1.0  0.1345
  C  C165  1  0.242200  0.860550  0.551920  1.0  0.151
  C  C166  1  0.169600  0.910040  0.576440  1.0  -0.1077
  C  C167  1  0.121700  0.889700  0.617540  1.0  -0.1099
  C  C168  1  0.141400  0.820830  0.632880  1.0  -0.1377
  C  C169  1  0.209000  0.773180  0.605700  1.0  0.1477
  C  C170  1  0.243100  0.698270  0.618710  1.0  0.1622
  C  C171  1  0.516500  0.581830  0.575780  1.0  0.176
  C  C172  1  0.566100  0.512700  0.573770  1.0  -0.1548
  C  C173  1  0.660600  0.494800  0.541320  1.0  -0.1087
  C  C174  1  0.699100  0.545600  0.510950  1.0  -0.1074
  C  C175  1  0.637200  0.612800  0.512480  1.0  0.1548
  C  C176  1  0.424500  0.269650  0.629160  1.0  -0.4571
  C  C177  1  0.683900  0.260650  0.679420  1.0  -0.4143
  C  C178  1  0.538700  0.220920  0.658380  1.0  -0.1409
  C  C179  1  0.959600  0.054630  0.244910  1.0  0.1517
  C  C180  1  0.108900  0.074760  0.245830  1.0  -0.127
  C  C181  1  0.192100  0.044000  0.214140  1.0  -0.1213
  C  C182  1  0.122100  0.994700  0.182290  1.0  -0.1579
  C  C183  1  0.970400  0.978790  0.182270  1.0  0.1515
  C  C184  1  0.883800  0.924400  0.151130  1.0  0.1236
  C  C185  1  0.677100  0.845880  0.149870  1.0  0.1461
  C  C186  1  0.528800  0.839070  0.166930  1.0  0.1411
  C  C187  1  0.408400  0.799400  0.144350  1.0  -0.154
  C  C188  1  0.277100  0.795400  0.164440  1.0  -0.0856
  C  C189  1  0.267100  0.831900  0.205530  1.0  -0.1366
  C  C190  1  0.388500  0.874040  0.224510  1.0  0.1537
  C  C191  1  0.918400  0.892300  0.109740  1.0  0.1351
  C  C192  1  0.742200  0.639450  0.051920  1.0  0.1524
  C  C193  1  0.669600  0.589960  0.076440  1.0  -0.11
  C  C194  1  0.621700  0.610300  0.117540  1.0  -0.1087
  C  C195  1  0.641400  0.679170  0.132880  1.0  -0.1371
  C  C196  1  0.709000  0.726820  0.105700  1.0  0.1474
  C  C197  1  0.743100  0.801730  0.118710  1.0  0.1628
  C  C198  1  0.016500  0.918170  0.075780  1.0  0.1755
  C  C199  1  0.066100  0.987300  0.073770  1.0  -0.1545
  C  C200  1  0.160600  0.005200  0.041320  1.0  -0.1099
  C  C201  1  0.199100  0.954400  0.010950  1.0  -0.1072
  C  C202  1  0.137200  0.887200  0.012480  1.0  0.1542
  C  C203  1  0.924500  0.230350  0.129160  1.0  -0.4578
  C  C204  1  0.183900  0.239350  0.179420  1.0  -0.4141
  C  C205  1  0.038700  0.279080  0.158380  1.0  -0.1416
  C  C206  1  0.540400  0.554630  0.255090  1.0  0.1529
  C  C207  1  0.391100  0.574760  0.254170  1.0  -0.1254
  C  C208  1  0.307900  0.544000  0.285860  1.0  -0.121
  C  C209  1  0.377900  0.494700  0.317710  1.0  -0.1584
  C  C210  1  0.529600  0.478790  0.317730  1.0  0.1521
  C  C211  1  0.616200  0.424400  0.348870  1.0  0.1235
  C  C212  1  0.822900  0.345880  0.350130  1.0  0.1459
  C  C213  1  0.971200  0.339070  0.333070  1.0  0.1415
  C  C214  1  0.091600  0.299400  0.355650  1.0  -0.1536
  C  C215  1  0.222900  0.295400  0.335560  1.0  -0.0858
  C  C216  1  0.232900  0.331900  0.294470  1.0  -0.1354
  C  C217  1  0.111500  0.374040  0.275490  1.0  0.1544
  C  C218  1  0.581600  0.392300  0.390260  1.0  0.1355
  C  C219  1  0.757800  0.139450  0.448080  1.0  0.1513
  C  C220  1  0.830400  0.089960  0.423560  1.0  -0.1097
  C  C221  1  0.878300  0.110300  0.382460  1.0  -0.1093
  C  C222  1  0.858600  0.179170  0.367120  1.0  -0.1369
  C  C223  1  0.791000  0.226820  0.394300  1.0  0.1472
  C  C224  1  0.756900  0.301730  0.381290  1.0  0.1624
  C  C225  1  0.483500  0.418170  0.424220  1.0  0.1751
  C  C226  1  0.433900  0.487300  0.426230  1.0  -0.1532
  C  C227  1  0.339400  0.505200  0.458680  1.0  -0.1102
  C  C228  1  0.300900  0.454400  0.489050  1.0  -0.111
  C  C229  1  0.362800  0.387200  0.487520  1.0  0.1564
  C  C230  1  0.575500  0.730350  0.370840  1.0  -0.4594
  C  C231  1  0.316100  0.739350  0.320580  1.0  -0.4107
  C  C232  1  0.461300  0.779080  0.341620  1.0  -0.1408
  N  N233  1  0.109000  0.992430  0.785990  1.0  -0.3144
  N  N234  1  0.243300  0.097310  0.833220  1.0  -0.3096
  N  N235  1  0.484400  0.121940  0.794500  1.0  -0.3069
  N  N236  1  0.237100  0.293730  0.933840  1.0  -0.28
  N  N237  1  0.146400  0.170260  0.902150  1.0  -0.3014
  N  N238  1  0.952000  0.130930  0.955690  1.0  -0.3139
  N  N239  1  0.391000  0.492430  0.714010  1.0  -0.3164
  N  N240  1  0.256700  0.597310  0.666780  1.0  -0.3081
  N  N241  1  0.015600  0.621940  0.705500  1.0  -0.304
  N  N242  1  0.262900  0.793730  0.566160  1.0  -0.2815
  N  N243  1  0.353600  0.670260  0.597850  1.0  -0.3022
  N  N244  1  0.548000  0.630930  0.544310  1.0  -0.3125
  N  N245  1  0.891000  0.007570  0.214010  1.0  -0.3166
  N  N246  1  0.756700  0.902690  0.166780  1.0  -0.3084
  N  N247  1  0.515600  0.878060  0.205500  1.0  -0.306
  N  N248  1  0.762900  0.706270  0.066160  1.0  -0.2793
  N  N249  1  0.853600  0.829740  0.097850  1.0  -0.3021
  N  N250  1  0.048000  0.869070  0.044310  1.0  -0.3091
  N  N251  1  0.609000  0.507570  0.285990  1.0  -0.3146
  N  N252  1  0.743300  0.402690  0.333220  1.0  -0.3097
  N  N253  1  0.984400  0.378060  0.294500  1.0  -0.3066
  N  N254  1  0.737100  0.206270  0.433840  1.0  -0.2787
  N  N255  1  0.646400  0.329740  0.402150  1.0  -0.3006
  N  N256  1  0.452000  0.369070  0.455690  1.0  -0.3095
  O  O257  1  0.461400  0.974790  0.833040  1.0  -0.6777
  O  O258  1  0.545600  0.900830  0.919850  1.0  -0.597
  O  O259  1  0.369500  0.801430  0.897990  1.0  -0.8809
  O  O260  1  0.554800  0.822810  0.831660  1.0  -0.8347
  O  O261  1  0.733300  0.835660  0.996920  1.0  -0.7038
  O  O262  1  0.734500  0.794800  0.906250  1.0  -0.8398
  O  O263  1  0.565900  0.717930  0.958950  1.0  -0.7143
  O  O264  1  0.293200  0.677400  0.911480  1.0  -0.7909
  O  O265  1  0.449500  0.586600  0.867500  1.0  -0.6383
  O  O266  1  0.598900  0.696090  0.861180  1.0  -0.8407
  O  O267  1  0.304500  0.592260  0.775870  1.0  -0.7346
  O  O268  1  0.302400  0.717840  0.828630  1.0  -0.7921
  O  O269  1  0.481400  0.711110  0.767920  1.0  -0.656
  O  O270  1  0.280600  0.859240  0.810560  1.0  -0.6579
  O  O271  1  0.038600  0.474790  0.666960  1.0  -0.6775
  O  O272  1  0.954400  0.400830  0.580150  1.0  -0.5974
  O  O273  1  0.130500  0.301430  0.602010  1.0  -0.8804
  O  O274  1  0.945200  0.322810  0.668340  1.0  -0.8333
  O  O275  1  0.766700  0.335660  0.503080  1.0  -0.7038
  O  O276  1  0.765500  0.294800  0.593750  1.0  -0.8383
  O  O277  1  0.934100  0.217930  0.541050  1.0  -0.714
  O  O278  1  0.206800  0.177400  0.588520  1.0  -0.7885
  O  O279  1  0.050500  0.086600  0.632500  1.0  -0.6385
  O  O280  1  0.901100  0.196090  0.638820  1.0  -0.8413
  O  O281  1  0.195500  0.092260  0.724130  1.0  -0.735
  O  O282  1  0.197600  0.217840  0.671370  1.0  -0.7918
  O  O283  1  0.018600  0.211110  0.732080  1.0  -0.6549
  O  O284  1  0.219400  0.359240  0.689440  1.0  -0.6587
  O  O285  1  0.538600  0.025210  0.166960  1.0  -0.6775
  O  O286  1  0.454400  0.099170  0.080150  1.0  -0.5996
  O  O287  1  0.630500  0.198570  0.102010  1.0  -0.8799
  O  O288  1  0.445200  0.177190  0.168340  1.0  -0.8329
  O  O289  1  0.266700  0.164340  0.003080  1.0  -0.704
  O  O290  1  0.265500  0.205200  0.093750  1.0  -0.8389
  O  O291  1  0.434100  0.282070  0.041050  1.0  -0.7133
  O  O292  1  0.706800  0.322600  0.088520  1.0  -0.7911
  O  O293  1  0.550500  0.413400  0.132500  1.0  -0.6381
  O  O294  1  0.401100  0.303910  0.138820  1.0  -0.8417
  O  O295  1  0.695500  0.407740  0.224130  1.0  -0.7347
  O  O296  1  0.697600  0.282160  0.171370  1.0  -0.7915
  O  O297  1  0.518600  0.288890  0.232080  1.0  -0.6545
  O  O298  1  0.719400  0.140760  0.189440  1.0  -0.6584
  O  O299  1  0.961400  0.525210  0.333040  1.0  -0.678
  O  O300  1  0.045600  0.599170  0.419850  1.0  -0.599
  O  O301  1  0.869500  0.698570  0.397990  1.0  -0.8804
  O  O302  1  0.054800  0.677190  0.331660  1.0  -0.8342
  O  O303  1  0.233300  0.664340  0.496920  1.0  -0.7043
  O  O304  1  0.234500  0.705200  0.406250  1.0  -0.8407
  O  O305  1  0.065900  0.782070  0.458950  1.0  -0.7134
  O  O306  1  0.793200  0.822600  0.411480  1.0  -0.7906
  O  O307  1  0.949500  0.913400  0.367500  1.0  -0.6375
  O  O308  1  0.098900  0.803910  0.361180  1.0  -0.8412
  O  O309  1  0.804500  0.907740  0.275870  1.0  -0.7348
  O  O310  1  0.802400  0.782160  0.328630  1.0  -0.7914
  O  O311  1  0.981400  0.788890  0.267920  1.0  -0.6552
  O  O312  1  0.780600  0.640760  0.310560  1.0  -0.6582
