# generated using pymatgen
data_Co3Mo10P4H44C54(N4O15)3
_symmetry_space_group_name_H-M   'P 1'
_cell_length_a   18.21740000
_cell_length_b   20.29870000
_cell_length_c   28.47490000
_cell_angle_alpha   90.00000000
_cell_angle_beta   98.94700000
_cell_angle_gamma   90.00000000
_symmetry_Int_Tables_number   1
_chemical_formula_structural   Co3Mo10P4H44C54(N4O15)3
_chemical_formula_sum   'Co12 Mo40 P16 H176 C216 N48 O180'
_cell_volume   10401.60103139
_cell_formula_units_Z   4
loop_
 _symmetry_equiv_pos_site_id
 _symmetry_equiv_pos_as_xyz
  1  'x, y, z'
loop_
 _atom_site_type_symbol
 _atom_site_label
 _atom_site_symmetry_multiplicity
 _atom_site_fract_x
 _atom_site_fract_y
 _atom_site_fract_z
 _atom_site_occupancy
 _atom_site_charge
  Co  Co1  1  0.822760  0.915920  0.273840  1.0  1.0695
  Co  Co2  1  0.754190  0.857340  0.498490  1.0  0.9534
  Co  Co3  1  0.715910  0.870230  0.730100  1.0  1.0745
  Co  Co4  1  0.677240  0.415920  0.226160  1.0  1.0685
  Co  Co5  1  0.745810  0.357340  0.001510  1.0  0.9537
  Co  Co6  1  0.784090  0.370230  0.769900  1.0  1.0732
  Co  Co7  1  0.177240  0.084080  0.726160  1.0  1.0687
  Co  Co8  1  0.245810  0.142660  0.501510  1.0  0.9533
  Co  Co9  1  0.284090  0.129770  0.269900  1.0  1.0728
  Co  Co10  1  0.322760  0.584080  0.773840  1.0  1.0689
  Co  Co11  1  0.254190  0.642660  0.998490  1.0  0.953
  Co  Co12  1  0.215910  0.629770  0.230100  1.0  1.0743
  Mo  Mo13  1  0.748590  0.625230  0.798000  1.0  2.239
  Mo  Mo14  1  0.897670  0.559410  0.867310  1.0  2.0518
  Mo  Mo15  1  0.996310  0.686210  0.926100  1.0  1.9991
  Mo  Mo16  1  0.902060  0.829190  0.907090  1.0  2.2165
  Mo  Mo17  1  0.726570  0.791830  0.845000  1.0  2.2254
  Mo  Mo18  1  0.869680  0.047880  0.354250  1.0  1.9683
  Mo  Mo19  1  0.708910  0.116870  0.304020  1.0  2.1779
  Mo  Mo20  1  0.767810  0.783520  0.186890  1.0  2.1428
  Mo  Mo21  1  0.597420  0.811810  0.102350  1.0  2.0838
  Mo  Mo22  1  0.511350  0.662140  0.093070  1.0  2.1459
  Mo  Mo23  1  0.751410  0.125230  0.702000  1.0  2.2359
  Mo  Mo24  1  0.602330  0.059410  0.632690  1.0  2.0518
  Mo  Mo25  1  0.503690  0.186210  0.573900  1.0  1.9983
  Mo  Mo26  1  0.597940  0.329190  0.592910  1.0  2.217
  Mo  Mo27  1  0.773430  0.291830  0.655000  1.0  2.2249
  Mo  Mo28  1  0.630320  0.547880  0.145750  1.0  1.9672
  Mo  Mo29  1  0.791090  0.616870  0.195980  1.0  2.1736
  Mo  Mo30  1  0.732190  0.283520  0.313110  1.0  2.1424
  Mo  Mo31  1  0.902580  0.311810  0.397650  1.0  2.0842
  Mo  Mo32  1  0.988650  0.162140  0.406930  1.0  2.1466
  Mo  Mo33  1  0.251410  0.374770  0.202000  1.0  2.2352
  Mo  Mo34  1  0.102330  0.440590  0.132690  1.0  2.0507
  Mo  Mo35  1  0.003690  0.313790  0.073900  1.0  1.9991
  Mo  Mo36  1  0.097940  0.170810  0.092910  1.0  2.2171
  Mo  Mo37  1  0.273430  0.208170  0.155000  1.0  2.2258
  Mo  Mo38  1  0.130320  0.952120  0.645750  1.0  1.9686
  Mo  Mo39  1  0.291090  0.883130  0.695980  1.0  2.1741
  Mo  Mo40  1  0.232190  0.216480  0.813110  1.0  2.1437
  Mo  Mo41  1  0.402580  0.188190  0.897650  1.0  2.0881
  Mo  Mo42  1  0.488650  0.337860  0.906930  1.0  2.1467
  Mo  Mo43  1  0.248590  0.874770  0.298000  1.0  2.2377
  Mo  Mo44  1  0.397670  0.940590  0.367310  1.0  2.0506
  Mo  Mo45  1  0.496310  0.813790  0.426100  1.0  1.9997
  Mo  Mo46  1  0.402060  0.670810  0.407090  1.0  2.2176
  Mo  Mo47  1  0.226570  0.708170  0.345000  1.0  2.2267
  Mo  Mo48  1  0.369680  0.452120  0.854250  1.0  1.9697
  Mo  Mo49  1  0.208910  0.383130  0.804020  1.0  2.1778
  Mo  Mo50  1  0.267810  0.716480  0.686890  1.0  2.1438
  Mo  Mo51  1  0.097420  0.688190  0.602350  1.0  2.0867
  Mo  Mo52  1  0.011350  0.837860  0.593070  1.0  2.1458
  P  P53  1  0.806160  0.680760  0.918330  1.0  1.556
  P  P54  1  0.897500  0.724400  0.815190  1.0  1.5245
  P  P55  1  0.116700  0.800840  0.700180  1.0  1.5419
  P  P56  1  0.702940  0.678450  0.090150  1.0  1.514
  P  P57  1  0.693840  0.180760  0.581670  1.0  1.5574
  P  P58  1  0.602500  0.224400  0.684810  1.0  1.5235
  P  P59  1  0.383300  0.300840  0.799820  1.0  1.5408
  P  P60  1  0.797060  0.178450  0.409850  1.0  1.5139
  P  P61  1  0.193840  0.319240  0.081670  1.0  1.5584
  P  P62  1  0.102500  0.275600  0.184810  1.0  1.5234
  P  P63  1  0.883300  0.199160  0.299820  1.0  1.5408
  P  P64  1  0.297060  0.321550  0.909850  1.0  1.5148
  P  P65  1  0.306160  0.819240  0.418330  1.0  1.5569
  P  P66  1  0.397500  0.775600  0.315190  1.0  1.5242
  P  P67  1  0.616700  0.699160  0.200180  1.0  1.5416
  P  P68  1  0.202940  0.821550  0.590150  1.0  1.5147
  H  H69  1  0.682000  0.952700  0.200200  1.0  0.0867
  H  H70  1  0.554500  0.942100  0.193400  1.0  0.1245
  H  H71  1  0.501700  0.914000  0.261100  1.0  0.1094
  H  H72  1  0.580400  0.900800  0.334800  1.0  0.1161
  H  H73  1  0.986100  0.817100  0.414000  1.0  0.1099
  H  H74  1  0.092600  0.802200  0.377700  1.0  0.1105
  H  H75  1  0.084000  0.820400  0.296100  1.0  0.1133
  H  H76  1  0.973700  0.859100  0.252800  1.0  0.0951
  H  H77  1  0.629100  0.951700  0.527500  1.0  0.0802
  H  H78  1  0.551500  0.036000  0.493800  1.0  0.1163
  H  H79  1  0.551700  0.064200  0.414400  1.0  0.1021
  H  H80  1  0.629200  0.005400  0.369700  1.0  0.1165
  H  H81  1  0.904000  0.721200  0.401700  1.0  0.1151
  H  H82  1  0.932200  0.633900  0.455700  1.0  0.12
  H  H83  1  0.903400  0.643100  0.532100  1.0  0.1182
  H  H84  1  0.839400  0.736400  0.552100  1.0  0.0817
  H  H85  1  0.679400  0.730900  0.447600  1.0  0.0858
  H  H86  1  0.617500  0.637900  0.467600  1.0  0.1148
  H  H87  1  0.588000  0.628200  0.544200  1.0  0.1149
  H  H88  1  0.619900  0.713400  0.599000  1.0  0.1145
  H  H89  1  0.843000  0.033100  0.613900  1.0  0.1214
  H  H90  1  0.911600  0.093900  0.564800  1.0  0.1088
  H  H91  1  0.932300  0.048300  0.492100  1.0  0.1208
  H  H92  1  0.880700  0.946900  0.469300  1.0  0.0805
  H  H93  1  0.568000  0.804500  0.754900  1.0  0.0835
  H  H94  1  0.452200  0.774100  0.713800  1.0  0.1126
  H  H95  1  0.430400  0.781100  0.630400  1.0  0.1108
  H  H96  1  0.528400  0.811200  0.589900  1.0  0.1146
  H  H97  1  0.922100  0.950900  0.653300  1.0  0.1068
  H  H98  1  0.001300  0.986500  0.722200  1.0  0.1089
  H  H99  1  0.954100  0.991200  0.794500  1.0  0.1136
  H  H100  1  0.833500  0.953800  0.796200  1.0  0.083
  H  H101  1  0.846600  0.622800  0.987600  1.0  0.1237
  H  H102  1  0.772500  0.590100  0.959600  1.0  0.1258
  H  H103  1  0.981500  0.807100  0.810800  1.0  0.145
  H  H104  1  0.917200  0.809800  0.766200  1.0  0.15
  H  H105  1  0.979300  0.728300  0.727200  1.0  0.1056
  H  H106  1  0.044300  0.725500  0.772200  1.0  0.1081
  H  H107  1  0.063900  0.842000  0.762200  1.0  0.1448
  H  H108  1  0.004400  0.840100  0.715000  1.0  0.1465
  H  H109  1  0.754400  0.592500  0.052100  1.0  0.12
  H  H110  1  0.815500  0.648200  0.067600  1.0  0.1334
  H  H111  1  0.697200  0.663500  0.989700  1.0  0.1049
  H  H112  1  0.763200  0.715100  0.004000  1.0  0.1131
  H  H113  1  0.818000  0.452700  0.299800  1.0  0.0869
  H  H114  1  0.945500  0.442100  0.306600  1.0  0.1245
  H  H115  1  0.998300  0.414000  0.238900  1.0  0.1107
  H  H116  1  0.919600  0.400800  0.165200  1.0  0.1153
  H  H117  1  0.513900  0.317100  0.086000  1.0  0.1098
  H  H118  1  0.407400  0.302200  0.122300  1.0  0.1099
  H  H119  1  0.416000  0.320400  0.203900  1.0  0.1136
  H  H120  1  0.526300  0.359100  0.247200  1.0  0.0943
  H  H121  1  0.870900  0.451700  0.972500  1.0  0.0812
  H  H122  1  0.948500  0.536000  0.006200  1.0  0.1162
  H  H123  1  0.948300  0.564200  0.085600  1.0  0.1013
  H  H124  1  0.870800  0.505400  0.130300  1.0  0.1167
  H  H125  1  0.596000  0.221200  0.098300  1.0  0.115
  H  H126  1  0.567800  0.133900  0.044300  1.0  0.1202
  H  H127  1  0.596600  0.143100  0.967900  1.0  0.1169
  H  H128  1  0.660600  0.236400  0.947900  1.0  0.0814
  H  H129  1  0.820600  0.230900  0.052400  1.0  0.0859
  H  H130  1  0.882500  0.137900  0.032400  1.0  0.1159
  H  H131  1  0.912000  0.128200  0.955800  1.0  0.1157
  H  H132  1  0.880100  0.213400  0.901000  1.0  0.1137
  H  H133  1  0.657000  0.533100  0.886100  1.0  0.1208
  H  H134  1  0.588400  0.593900  0.935200  1.0  0.1095
  H  H135  1  0.567700  0.548300  0.007900  1.0  0.1211
  H  H136  1  0.619300  0.446900  0.030700  1.0  0.081
  H  H137  1  0.932000  0.304500  0.745100  1.0  0.0843
  H  H138  1  0.047800  0.274100  0.786200  1.0  0.1122
  H  H139  1  0.069600  0.281100  0.869600  1.0  0.1113
  H  H140  1  0.971600  0.311200  0.910100  1.0  0.1153
  H  H141  1  0.577900  0.450900  0.846700  1.0  0.1074
  H  H142  1  0.498700  0.486500  0.777800  1.0  0.1103
  H  H143  1  0.545900  0.491200  0.705500  1.0  0.1123
  H  H144  1  0.666500  0.453800  0.703800  1.0  0.0832
  H  H145  1  0.653400  0.122800  0.512400  1.0  0.1244
  H  H146  1  0.727500  0.090100  0.540400  1.0  0.1262
  H  H147  1  0.518500  0.307100  0.689200  1.0  0.1456
  H  H148  1  0.582800  0.309800  0.733800  1.0  0.1489
  H  H149  1  0.520700  0.228300  0.772800  1.0  0.1049
  H  H150  1  0.455700  0.225500  0.727800  1.0  0.1082
  H  H151  1  0.436100  0.342000  0.737800  1.0  0.1433
  H  H152  1  0.495600  0.340100  0.785000  1.0  0.147
  H  H153  1  0.745600  0.092500  0.447900  1.0  0.1199
  H  H154  1  0.684500  0.148200  0.432400  1.0  0.1342
  H  H155  1  0.802800  0.163500  0.510300  1.0  0.1014
  H  H156  1  0.736800  0.215100  0.496000  1.0  0.1136
  H  H157  1  0.318000  0.047300  0.799800  1.0  0.0869
  H  H158  1  0.445500  0.057900  0.806600  1.0  0.1248
  H  H159  1  0.498300  0.086000  0.738900  1.0  0.1105
  H  H160  1  0.419600  0.099200  0.665200  1.0  0.1152
  H  H161  1  0.013900  0.182900  0.586000  1.0  0.1111
  H  H162  1  0.907400  0.197800  0.622300  1.0  0.1104
  H  H163  1  0.916000  0.179600  0.703900  1.0  0.1136
  H  H164  1  0.026300  0.140900  0.747200  1.0  0.0941
  H  H165  1  0.370900  0.048300  0.472500  1.0  0.0811
  H  H166  1  0.448500  0.964000  0.506200  1.0  0.116
  H  H167  1  0.448300  0.935800  0.585600  1.0  0.1018
  H  H168  1  0.370800  0.994600  0.630300  1.0  0.1167
  H  H169  1  0.096000  0.278800  0.598300  1.0  0.1144
  H  H170  1  0.067800  0.366100  0.544300  1.0  0.1191
  H  H171  1  0.096600  0.356900  0.467900  1.0  0.1181
  H  H172  1  0.160600  0.263600  0.447900  1.0  0.0809
  H  H173  1  0.320600  0.269100  0.552400  1.0  0.0854
  H  H174  1  0.382500  0.362100  0.532400  1.0  0.116
  H  H175  1  0.412000  0.371800  0.455800  1.0  0.1167
  H  H176  1  0.380100  0.286600  0.401000  1.0  0.1141
  H  H177  1  0.157000  0.966900  0.386100  1.0  0.121
  H  H178  1  0.088400  0.906100  0.435200  1.0  0.1091
  H  H179  1  0.067700  0.951700  0.507900  1.0  0.1213
  H  H180  1  0.119300  0.053100  0.530700  1.0  0.0806
  H  H181  1  0.432000  0.195500  0.245100  1.0  0.0841
  H  H182  1  0.547800  0.225900  0.286200  1.0  0.1122
  H  H183  1  0.569600  0.218900  0.369600  1.0  0.1111
  H  H184  1  0.471600  0.188800  0.410100  1.0  0.1148
  H  H185  1  0.077900  0.049100  0.346700  1.0  0.1077
  H  H186  1  0.998700  0.013500  0.277800  1.0  0.1102
  H  H187  1  0.045900  0.008800  0.205500  1.0  0.112
  H  H188  1  0.166500  0.046200  0.203800  1.0  0.0832
  H  H189  1  0.153400  0.377200  0.012400  1.0  0.1244
  H  H190  1  0.227500  0.409900  0.040400  1.0  0.1254
  H  H191  1  0.018500  0.192900  0.189200  1.0  0.1461
  H  H192  1  0.082800  0.190200  0.233800  1.0  0.149
  H  H193  1  0.020700  0.271700  0.272800  1.0  0.1046
  H  H194  1  0.955700  0.274500  0.227800  1.0  0.1081
  H  H195  1  0.936100  0.158000  0.237800  1.0  0.1433
  H  H196  1  0.995600  0.159900  0.285000  1.0  0.1472
  H  H197  1  0.245600  0.407500  0.947900  1.0  0.1201
  H  H198  1  0.184500  0.351800  0.932400  1.0  0.1337
  H  H199  1  0.302800  0.336500  0.010300  1.0  0.1011
  H  H200  1  0.236800  0.284900  0.996000  1.0  0.1125
  H  H201  1  0.182000  0.547300  0.700200  1.0  0.0869
  H  H202  1  0.054500  0.557900  0.693400  1.0  0.1248
  H  H203  1  0.001700  0.586000  0.761100  1.0  0.1099
  H  H204  1  0.080400  0.599200  0.834800  1.0  0.1157
  H  H205  1  0.486100  0.682900  0.914000  1.0  0.111
  H  H206  1  0.592600  0.697800  0.877700  1.0  0.1098
  H  H207  1  0.584000  0.679600  0.796100  1.0  0.1134
  H  H208  1  0.473700  0.640900  0.752800  1.0  0.0947
  H  H209  1  0.129100  0.548300  0.027500  1.0  0.08
  H  H210  1  0.051500  0.464000  0.993800  1.0  0.1168
  H  H211  1  0.051700  0.435800  0.914400  1.0  0.1013
  H  H212  1  0.129200  0.494600  0.869700  1.0  0.1165
  H  H213  1  0.404000  0.778800  0.901700  1.0  0.1145
  H  H214  1  0.432200  0.866100  0.955700  1.0  0.1199
  H  H215  1  0.403400  0.856900  0.032100  1.0  0.1182
  H  H216  1  0.339400  0.763600  0.052100  1.0  0.0818
  H  H217  1  0.179400  0.769100  0.947600  1.0  0.0856
  H  H218  1  0.117500  0.862100  0.967600  1.0  0.1165
  H  H219  1  0.088000  0.871800  0.044200  1.0  0.1159
  H  H220  1  0.119900  0.786600  0.099000  1.0  0.1141
  H  H221  1  0.343000  0.466900  0.113900  1.0  0.1216
  H  H222  1  0.411600  0.406100  0.064800  1.0  0.1086
  H  H223  1  0.432300  0.451700  0.992100  1.0  0.1206
  H  H224  1  0.380700  0.553100  0.969300  1.0  0.0803
  H  H225  1  0.068000  0.695500  0.254900  1.0  0.084
  H  H226  1  0.952200  0.725900  0.213800  1.0  0.1127
  H  H227  1  0.930400  0.718900  0.130400  1.0  0.1112
  H  H228  1  0.028400  0.688800  0.089900  1.0  0.115
  H  H229  1  0.422100  0.549100  0.153300  1.0  0.1069
  H  H230  1  0.501300  0.513500  0.222200  1.0  0.1092
  H  H231  1  0.454100  0.508800  0.294500  1.0  0.1136
  H  H232  1  0.333500  0.546200  0.296200  1.0  0.0824
  H  H233  1  0.346600  0.877200  0.487600  1.0  0.1238
  H  H234  1  0.272500  0.909900  0.459600  1.0  0.1256
  H  H235  1  0.481500  0.692900  0.310800  1.0  0.1458
  H  H236  1  0.417200  0.690200  0.266200  1.0  0.1499
  H  H237  1  0.479300  0.771700  0.227200  1.0  0.1054
  H  H238  1  0.544300  0.774500  0.272200  1.0  0.1076
  H  H239  1  0.563900  0.658000  0.262200  1.0  0.145
  H  H240  1  0.504400  0.659900  0.215000  1.0  0.1467
  H  H241  1  0.254400  0.907500  0.552100  1.0  0.1199
  H  H242  1  0.315500  0.851800  0.567600  1.0  0.1335
  H  H243  1  0.197200  0.836500  0.489700  1.0  0.105
  H  H244  1  0.263200  0.784900  0.504000  1.0  0.1122
  C  C245  1  0.660900  0.942300  0.227800  1.0  0.1556
  C  C246  1  0.585100  0.935800  0.223300  1.0  -0.1765
  C  C247  1  0.553900  0.919600  0.263400  1.0  -0.118
  C  C248  1  0.600200  0.911800  0.306800  1.0  -0.1791
  C  C249  1  0.675400  0.920600  0.308120  1.0  0.1931
  C  C250  1  0.730800  0.904700  0.351020  1.0  0.1344
  C  C251  1  0.846500  0.852900  0.370910  1.0  0.1685
  C  C252  1  0.917700  0.843700  0.352600  1.0  0.1262
  C  C253  1  0.984100  0.824300  0.380800  1.0  -0.1508
  C  C254  1  0.047000  0.815800  0.359500  1.0  -0.095
  C  C255  1  0.042100  0.827600  0.311600  1.0  -0.1055
  C  C256  1  0.975900  0.849900  0.285700  1.0  0.159
  C  C257  1  0.628700  0.962500  0.494970  1.0  0.1742
  C  C258  1  0.582400  0.013200  0.475230  1.0  -0.1052
  C  C259  1  0.582400  0.029500  0.428600  1.0  -0.1039
  C  C260  1  0.628000  0.994500  0.401990  1.0  -0.1409
  C  C261  1  0.671100  0.943700  0.423850  1.0  0.1764
  C  C262  1  0.722400  0.903800  0.399510  1.0  0.1504
  C  C263  1  0.825400  0.832200  0.413890  1.0  0.0659
  C  C264  1  0.855100  0.778400  0.446800  1.0  0.1396
  C  C265  1  0.891100  0.723700  0.432700  1.0  -0.1662
  C  C266  1  0.908200  0.672300  0.464900  1.0  -0.1156
  C  C267  1  0.890400  0.677200  0.509400  1.0  -0.1351
  C  C268  1  0.852500  0.733200  0.521200  1.0  0.1478
  C  C269  1  0.666300  0.727800  0.478600  1.0  0.1483
  C  C270  1  0.630100  0.672000  0.490200  1.0  -0.1482
  C  C271  1  0.612300  0.666500  0.535300  1.0  -0.1043
  C  C272  1  0.630200  0.717100  0.567400  1.0  -0.1521
  C  C273  1  0.663200  0.773300  0.552800  1.0  0.1217
  C  C274  1  0.688900  0.829500  0.584710  1.0  0.1671
  C  C275  1  0.781200  0.911200  0.596440  1.0  0.0823
  C  C276  1  0.825600  0.954300  0.569060  1.0  0.1921
  C  C277  1  0.852100  0.015800  0.584300  1.0  -0.1337
  C  C278  1  0.892300  0.051700  0.555200  1.0  -0.1097
  C  C279  1  0.903900  0.025300  0.512050  1.0  -0.1311
  C  C280  1  0.873000  0.964900  0.498960  1.0  0.18
  C  C281  1  0.559600  0.806400  0.721100  1.0  0.147
  C  C282  1  0.490400  0.788300  0.696900  1.0  -0.1311
  C  C283  1  0.478000  0.791400  0.647600  1.0  -0.1058
  C  C284  1  0.535500  0.809500  0.623700  1.0  -0.1342
  C  C285  1  0.603900  0.825100  0.650220  1.0  0.1223
  C  C286  1  0.670200  0.845400  0.629180  1.0  0.1445
  C  C287  1  0.777800  0.911000  0.645130  1.0  0.1083
  C  C288  1  0.832800  0.934800  0.685460  1.0  0.1753
  C  C289  1  0.904300  0.952700  0.682910  1.0  -0.1128
  C  C290  1  0.951600  0.973700  0.723700  1.0  -0.1188
  C  C291  1  0.924300  0.975600  0.766300  1.0  -0.1329
  C  C292  1  0.852000  0.954000  0.766800  1.0  0.1539
  C  C293  1  0.796600  0.632600  0.969860  1.0  -0.4186
  C  C294  1  0.952300  0.779800  0.785780  1.0  -0.4057
  C  C295  1  0.006400  0.754200  0.753810  1.0  -0.1899
  C  C296  1  0.043700  0.814100  0.734700  1.0  -0.4426
  C  C297  1  0.763200  0.640600  0.053220  1.0  -0.3732
  C  C298  1  0.750600  0.667700  0.002990  1.0  -0.081
  C  C299  1  0.839100  0.442300  0.272200  1.0  0.1533
  C  C300  1  0.914900  0.435800  0.276700  1.0  -0.1771
  C  C301  1  0.946100  0.419600  0.236600  1.0  -0.1189
  C  C302  1  0.899800  0.411800  0.193200  1.0  -0.1784
  C  C303  1  0.824600  0.420600  0.191880  1.0  0.1924
  C  C304  1  0.769200  0.404700  0.148980  1.0  0.1347
  C  C305  1  0.653500  0.352900  0.129090  1.0  0.1692
  C  C306  1  0.582300  0.343700  0.147400  1.0  0.1266
  C  C307  1  0.515900  0.324300  0.119200  1.0  -0.1499
  C  C308  1  0.453000  0.315800  0.140500  1.0  -0.0963
  C  C309  1  0.457900  0.327600  0.188400  1.0  -0.1065
  C  C310  1  0.524100  0.349900  0.214300  1.0  0.1574
  C  C311  1  0.871300  0.462500  0.005030  1.0  0.1747
  C  C312  1  0.917600  0.513200  0.024770  1.0  -0.1053
  C  C313  1  0.917600  0.529500  0.071400  1.0  -0.1041
  C  C314  1  0.872000  0.494500  0.098010  1.0  -0.1427
  C  C315  1  0.828900  0.443700  0.076150  1.0  0.1774
  C  C316  1  0.777600  0.403800  0.100490  1.0  0.1496
  C  C317  1  0.674600  0.332200  0.086110  1.0  0.066
  C  C318  1  0.644900  0.278400  0.053200  1.0  0.1389
  C  C319  1  0.608900  0.223700  0.067300  1.0  -0.1653
  C  C320  1  0.591800  0.172300  0.035100  1.0  -0.1139
  C  C321  1  0.609600  0.177200  0.990600  1.0  -0.1343
  C  C322  1  0.647500  0.233200  0.978800  1.0  0.1491
  C  C323  1  0.833700  0.227800  0.021400  1.0  0.147
  C  C324  1  0.869900  0.172000  0.009800  1.0  -0.1493
  C  C325  1  0.887700  0.166500  0.964700  1.0  -0.1059
  C  C326  1  0.869800  0.217100  0.932600  1.0  -0.1521
  C  C327  1  0.836800  0.273300  0.947200  1.0  0.1217
  C  C328  1  0.811100  0.329500  0.915290  1.0  0.1658
  C  C329  1  0.718800  0.411200  0.903560  1.0  0.0826
  C  C330  1  0.674400  0.454300  0.930940  1.0  0.1915
  C  C331  1  0.647900  0.515800  0.915700  1.0  -0.1337
  C  C332  1  0.607700  0.551700  0.944800  1.0  -0.1102
  C  C333  1  0.596100  0.525300  0.987950  1.0  -0.1322
  C  C334  1  0.627000  0.464900  0.001040  1.0  0.1801
  C  C335  1  0.940400  0.306400  0.778900  1.0  0.1467
  C  C336  1  0.009600  0.288300  0.803100  1.0  -0.1307
  C  C337  1  0.022000  0.291400  0.852400  1.0  -0.1051
  C  C338  1  0.964500  0.309500  0.876300  1.0  -0.1342
  C  C339  1  0.896100  0.325100  0.849780  1.0  0.1222
  C  C340  1  0.829800  0.345400  0.870820  1.0  0.1439
  C  C341  1  0.722200  0.411000  0.854870  1.0  0.1081
  C  C342  1  0.667200  0.434800  0.814540  1.0  0.1751
  C  C343  1  0.595700  0.452700  0.817090  1.0  -0.1125
  C  C344  1  0.548400  0.473700  0.776300  1.0  -0.1194
  C  C345  1  0.575700  0.475600  0.733700  1.0  -0.1354
  C  C346  1  0.648000  0.454000  0.733200  1.0  0.1559
  C  C347  1  0.703400  0.132600  0.530140  1.0  -0.4179
  C  C348  1  0.547700  0.279800  0.714220  1.0  -0.4066
  C  C349  1  0.493600  0.254200  0.746190  1.0  -0.1903
  C  C350  1  0.456300  0.314100  0.765300  1.0  -0.4429
  C  C351  1  0.736800  0.140600  0.446780  1.0  -0.3741
  C  C352  1  0.749400  0.167700  0.497010  1.0  -0.0821
  C  C353  1  0.339100  0.057700  0.772200  1.0  0.1536
  C  C354  1  0.414900  0.064200  0.776700  1.0  -0.1771
  C  C355  1  0.446100  0.080400  0.736600  1.0  -0.1184
  C  C356  1  0.399800  0.088200  0.693200  1.0  -0.179
  C  C357  1  0.324600  0.079400  0.691880  1.0  0.1928
  C  C358  1  0.269200  0.095300  0.648980  1.0  0.1342
  C  C359  1  0.153500  0.147100  0.629090  1.0  0.1694
  C  C360  1  0.082300  0.156300  0.647400  1.0  0.1264
  C  C361  1  0.015900  0.175700  0.619200  1.0  -0.1503
  C  C362  1  0.953000  0.184200  0.640500  1.0  -0.0962
  C  C363  1  0.957900  0.172400  0.688400  1.0  -0.107
  C  C364  1  0.024100  0.150100  0.714300  1.0  0.1578
  C  C365  1  0.371300  0.037500  0.505030  1.0  0.1757
  C  C366  1  0.417600  0.986800  0.524770  1.0  -0.1055
  C  C367  1  0.417600  0.970500  0.571400  1.0  -0.1038
  C  C368  1  0.372000  0.005500  0.598010  1.0  -0.1427
  C  C369  1  0.328900  0.056300  0.576150  1.0  0.1774
  C  C370  1  0.277600  0.096200  0.600490  1.0  0.1498
  C  C371  1  0.174600  0.167800  0.586110  1.0  0.0662
  C  C372  1  0.144900  0.221600  0.553200  1.0  0.14
  C  C373  1  0.108900  0.276300  0.567300  1.0  -0.1661
  C  C374  1  0.091800  0.327700  0.535100  1.0  -0.1144
  C  C375  1  0.109600  0.322800  0.490600  1.0  -0.1351
  C  C376  1  0.147500  0.266800  0.478800  1.0  0.1476
  C  C377  1  0.333700  0.272200  0.521400  1.0  0.1454
  C  C378  1  0.369900  0.328000  0.509800  1.0  -0.1463
  C  C379  1  0.387700  0.333500  0.464700  1.0  -0.1031
  C  C380  1  0.369800  0.282900  0.432600  1.0  -0.1525
  C  C381  1  0.336800  0.226700  0.447200  1.0  0.1207
  C  C382  1  0.311100  0.170500  0.415290  1.0  0.1666
  C  C383  1  0.218800  0.088800  0.403560  1.0  0.0819
  C  C384  1  0.174400  0.045700  0.430940  1.0  0.1912
  C  C385  1  0.147900  0.984200  0.415700  1.0  -0.1337
  C  C386  1  0.107700  0.948300  0.444800  1.0  -0.1103
  C  C387  1  0.096100  0.974700  0.487950  1.0  -0.1325
  C  C388  1  0.127000  0.035100  0.501040  1.0  0.1797
  C  C389  1  0.440400  0.193600  0.278900  1.0  0.1465
  C  C390  1  0.509600  0.211700  0.303100  1.0  -0.1307
  C  C391  1  0.522000  0.208600  0.352400  1.0  -0.1062
  C  C392  1  0.464500  0.190500  0.376300  1.0  -0.1344
  C  C393  1  0.396100  0.174900  0.349780  1.0  0.122
  C  C394  1  0.329800  0.154600  0.370820  1.0  0.1436
  C  C395  1  0.222200  0.089000  0.354870  1.0  0.1078
  C  C396  1  0.167200  0.065200  0.314540  1.0  0.1751
  C  C397  1  0.095700  0.047300  0.317090  1.0  -0.1124
  C  C398  1  0.048400  0.026300  0.276300  1.0  -0.1197
  C  C399  1  0.075700  0.024400  0.233700  1.0  -0.135
  C  C400  1  0.148000  0.046000  0.233200  1.0  0.1559
  C  C401  1  0.203400  0.367400  0.030140  1.0  -0.4173
  C  C402  1  0.047700  0.220200  0.214220  1.0  -0.4052
  C  C403  1  0.993600  0.245800  0.246190  1.0  -0.1914
  C  C404  1  0.956300  0.185900  0.265300  1.0  -0.4471
  C  C405  1  0.236800  0.359400  0.946780  1.0  -0.3747
  C  C406  1  0.249400  0.332300  0.997010  1.0  -0.0817
  C  C407  1  0.160900  0.557700  0.727800  1.0  0.1556
  C  C408  1  0.085100  0.564200  0.723300  1.0  -0.177
  C  C409  1  0.053900  0.580400  0.763400  1.0  -0.1183
  C  C410  1  0.100200  0.588200  0.806800  1.0  -0.1793
  C  C411  1  0.175400  0.579400  0.808120  1.0  0.1936
  C  C412  1  0.230800  0.595300  0.851020  1.0  0.1342
  C  C413  1  0.346500  0.647100  0.870910  1.0  0.169
  C  C414  1  0.417700  0.656300  0.852600  1.0  0.1268
  C  C415  1  0.484100  0.675700  0.880800  1.0  -0.1509
  C  C416  1  0.547000  0.684200  0.859500  1.0  -0.0948
  C  C417  1  0.542100  0.672400  0.811600  1.0  -0.1055
  C  C418  1  0.475900  0.650100  0.785700  1.0  0.1591
  C  C419  1  0.128700  0.537500  0.994970  1.0  0.1744
  C  C420  1  0.082400  0.486800  0.975230  1.0  -0.1058
  C  C421  1  0.082400  0.470500  0.928600  1.0  -0.1041
  C  C422  1  0.128000  0.505500  0.901990  1.0  -0.141
  C  C423  1  0.171100  0.556300  0.923850  1.0  0.1764
  C  C424  1  0.222400  0.596200  0.899510  1.0  0.1507
  C  C425  1  0.325400  0.667800  0.913890  1.0  0.0668
  C  C426  1  0.355100  0.721600  0.946800  1.0  0.1409
  C  C427  1  0.391100  0.776300  0.932700  1.0  -0.1664
  C  C428  1  0.408200  0.827700  0.964900  1.0  -0.1114
  C  C429  1  0.390400  0.822800  0.009400  1.0  -0.1345
  C  C430  1  0.352500  0.766800  0.021200  1.0  0.1462
  C  C431  1  0.166300  0.772200  0.978600  1.0  0.1473
  C  C432  1  0.130100  0.828000  0.990200  1.0  -0.145
  C  C433  1  0.112300  0.833500  0.035300  1.0  -0.1061
  C  C434  1  0.130200  0.782900  0.067400  1.0  -0.152
  C  C435  1  0.163200  0.726700  0.052800  1.0  0.1208
  C  C436  1  0.188900  0.670500  0.084710  1.0  0.1672
  C  C437  1  0.281200  0.588800  0.096440  1.0  0.0817
  C  C438  1  0.325600  0.545700  0.069060  1.0  0.1917
  C  C439  1  0.352100  0.484200  0.084300  1.0  -0.1335
  C  C440  1  0.392300  0.448300  0.055200  1.0  -0.1096
  C  C441  1  0.403900  0.474700  0.012050  1.0  -0.1314
  C  C442  1  0.373000  0.535100  0.998960  1.0  0.1803
  C  C443  1  0.059600  0.693600  0.221100  1.0  0.147
  C  C444  1  0.990400  0.711700  0.196900  1.0  -0.1315
  C  C445  1  0.978000  0.708600  0.147600  1.0  -0.1068
  C  C446  1  0.035500  0.690500  0.123700  1.0  -0.1344
  C  C447  1  0.103900  0.674900  0.150220  1.0  0.122
  C  C448  1  0.170200  0.654600  0.129180  1.0  0.1443
  C  C449  1  0.277800  0.589000  0.145130  1.0  0.1077
  C  C450  1  0.332800  0.565200  0.185460  1.0  0.1752
  C  C451  1  0.404300  0.547300  0.182910  1.0  -0.1126
  C  C452  1  0.451600  0.526300  0.223700  1.0  -0.1197
  C  C453  1  0.424300  0.524400  0.266300  1.0  -0.134
  C  C454  1  0.352000  0.546000  0.266800  1.0  0.1539
  C  C455  1  0.296600  0.867400  0.469860  1.0  -0.4195
  C  C456  1  0.452300  0.720200  0.285780  1.0  -0.4053
  C  C457  1  0.506400  0.745800  0.253810  1.0  -0.1908
  C  C458  1  0.543700  0.685900  0.234700  1.0  -0.4452
  C  C459  1  0.263200  0.859400  0.553220  1.0  -0.3733
  C  C460  1  0.250600  0.832300  0.502990  1.0  -0.0802
  N  N461  1  0.706700  0.934700  0.269250  1.0  -0.336
  N  N462  1  0.796300  0.885500  0.340360  1.0  -0.3304
  N  N463  1  0.914700  0.858700  0.306170  1.0  -0.3215
  N  N464  1  0.672500  0.928400  0.470400  1.0  -0.3275
  N  N465  1  0.767300  0.864000  0.427900  1.0  -0.3253
  N  N466  1  0.834300  0.782200  0.490630  1.0  -0.3245
  N  N467  1  0.684000  0.778000  0.508920  1.0  -0.3209
  N  N468  1  0.739800  0.867300  0.568870  1.0  -0.296
  N  N469  1  0.833000  0.930400  0.525470  1.0  -0.3188
  N  N470  1  0.614900  0.826300  0.698600  1.0  -0.3043
  N  N471  1  0.718200  0.881800  0.658370  1.0  -0.3062
  N  N472  1  0.807400  0.933400  0.728100  1.0  -0.324
  N  N473  1  0.793300  0.434700  0.230750  1.0  -0.3376
  N  N474  1  0.703700  0.385500  0.159640  1.0  -0.3285
  N  N475  1  0.585300  0.358700  0.193830  1.0  -0.3213
  N  N476  1  0.827500  0.428400  0.029600  1.0  -0.327
  N  N477  1  0.732700  0.364000  0.072100  1.0  -0.3265
  N  N478  1  0.665700  0.282200  0.009370  1.0  -0.3242
  N  N479  1  0.816000  0.278000  0.991080  1.0  -0.3207
  N  N480  1  0.760200  0.367300  0.931130  1.0  -0.2955
  N  N481  1  0.667000  0.430400  0.974530  1.0  -0.3189
  N  N482  1  0.885100  0.326300  0.801400  1.0  -0.3053
  N  N483  1  0.781800  0.381800  0.841630  1.0  -0.3077
  N  N484  1  0.692600  0.433400  0.771900  1.0  -0.3245
  N  N485  1  0.293300  0.065300  0.730750  1.0  -0.3371
  N  N486  1  0.203700  0.114500  0.659640  1.0  -0.3289
  N  N487  1  0.085300  0.141300  0.693830  1.0  -0.3212
  N  N488  1  0.327500  0.071600  0.529600  1.0  -0.3273
  N  N489  1  0.232700  0.136000  0.572100  1.0  -0.3262
  N  N490  1  0.165700  0.217800  0.509370  1.0  -0.3245
  N  N491  1  0.316000  0.222000  0.491080  1.0  -0.3205
  N  N492  1  0.260200  0.132700  0.431130  1.0  -0.2958
  N  N493  1  0.167000  0.069600  0.474530  1.0  -0.3208
  N  N494  1  0.385100  0.173700  0.301400  1.0  -0.3056
  N  N495  1  0.281800  0.118200  0.341630  1.0  -0.3084
  N  N496  1  0.192600  0.066600  0.271900  1.0  -0.3242
  N  N497  1  0.206700  0.565300  0.769250  1.0  -0.3356
  N  N498  1  0.296300  0.614500  0.840360  1.0  -0.3312
  N  N499  1  0.414700  0.641300  0.806170  1.0  -0.3217
  N  N500  1  0.172500  0.571600  0.970400  1.0  -0.3285
  N  N501  1  0.267300  0.636000  0.927900  1.0  -0.3251
  N  N502  1  0.334300  0.717800  0.990630  1.0  -0.324
  N  N503  1  0.184000  0.722000  0.008920  1.0  -0.321
  N  N504  1  0.239800  0.632700  0.068870  1.0  -0.2963
  N  N505  1  0.333000  0.569600  0.025470  1.0  -0.3205
  N  N506  1  0.114900  0.673700  0.198600  1.0  -0.3033
  N  N507  1  0.218200  0.618200  0.158370  1.0  -0.3066
  N  N508  1  0.307400  0.566600  0.228100  1.0  -0.3238
  O  O509  1  0.733700  0.846870  0.799030  1.0  -0.7757
  O  O510  1  0.641200  0.810500  0.857420  1.0  -0.5922
  O  O511  1  0.713580  0.714120  0.810610  1.0  -0.738
  O  O512  1  0.718300  0.618700  0.738250  1.0  -0.5757
  O  O513  1  0.682500  0.583360  0.821580  1.0  -0.5717
  O  O514  1  0.829100  0.563810  0.807170  1.0  -0.6585
  O  O515  1  0.812860  0.634300  0.876130  1.0  -0.8194
  O  O516  1  0.854490  0.772040  0.844350  1.0  -0.8081
  O  O517  1  0.877560  0.722470  0.931860  1.0  -0.8181
  O  O518  1  0.988900  0.779440  0.906110  1.0  -0.678
  O  O519  1  0.910100  0.854380  0.965040  1.0  -0.5655
  O  O520  1  0.080500  0.671230  0.909290  1.0  -0.6114
  O  O521  1  0.950100  0.601690  0.922820  1.0  -0.6967
  O  O522  1  0.860400  0.495460  0.894510  1.0  -0.6093
  O  O523  1  0.790400  0.843610  0.895460  1.0  -0.6493
  O  O524  1  0.738700  0.724230  0.905190  1.0  -0.8296
  O  O525  1  0.016100  0.694320  0.986340  1.0  -0.5975
  O  O526  1  0.944100  0.674240  0.846970  1.0  -0.8833
  O  O527  1  0.969000  0.525700  0.843800  1.0  -0.6298
  O  O528  1  0.840650  0.689690  0.778440  1.0  -0.858
  O  O529  1  0.873700  0.999600  0.304530  1.0  -0.7126
  O  O530  1  0.784000  0.836800  0.233950  1.0  -0.7997
  O  O531  1  0.080400  0.779640  0.649650  1.0  -0.8088
  O  O532  1  0.531200  0.747500  0.065330  1.0  -0.6398
  O  O533  1  0.636300  0.632350  0.092400  1.0  -0.795
  O  O534  1  0.687800  0.822600  0.145710  1.0  -0.6915
  O  O535  1  0.169800  0.748200  0.722280  1.0  -0.8734
  O  O536  1  0.809700  0.706220  0.222520  1.0  -0.6446
  O  O537  1  0.748400  0.689600  0.140570  1.0  -0.7938
  O  O538  1  0.158000  0.867040  0.698030  1.0  -0.8731
  O  O539  1  0.839000  0.802400  0.156470  1.0  -0.6046
  O  O540  1  0.763510  0.057370  0.348040  1.0  -0.7175
  O  O541  1  0.882400  0.991790  0.399410  1.0  -0.5874
  O  O542  1  0.963200  0.090360  0.362920  1.0  -0.6883
  O  O543  1  0.491200  0.622800  0.040070  1.0  -0.5602
  O  O544  1  0.609300  0.865300  0.058180  1.0  -0.5479
  O  O545  1  0.426400  0.677600  0.109710  1.0  -0.582
  O  O546  1  0.677200  0.744690  0.068840  1.0  -0.8594
  O  O547  1  0.708700  0.080400  0.250600  1.0  -0.5984
  O  O548  1  0.623200  0.100400  0.317690  1.0  -0.5886
  O  O549  1  0.534200  0.851600  0.130530  1.0  -0.6246
  O  O550  1  0.924700  0.897800  0.877300  1.0  -0.6324
  O  O551  1  0.773800  0.784700  0.718750  1.0  -0.3059
  O  O552  1  0.653400  0.954460  0.747890  1.0  -0.2577
  O  O553  1  0.852500  0.951000  0.211830  1.0  -0.3389
  O  O554  1  0.766300  0.346870  0.700970  1.0  -0.7747
  O  O555  1  0.858800  0.310500  0.642580  1.0  -0.5937
  O  O556  1  0.786420  0.214120  0.689390  1.0  -0.7372
  O  O557  1  0.781700  0.118700  0.761750  1.0  -0.5701
  O  O558  1  0.817500  0.083360  0.678420  1.0  -0.5706
  O  O559  1  0.670900  0.063810  0.692830  1.0  -0.6545
  O  O560  1  0.687140  0.134300  0.623870  1.0  -0.8183
  O  O561  1  0.645510  0.272040  0.655650  1.0  -0.8076
  O  O562  1  0.622440  0.222470  0.568140  1.0  -0.8186
  O  O563  1  0.511100  0.279440  0.593890  1.0  -0.6793
  O  O564  1  0.589900  0.354380  0.534960  1.0  -0.5703
  O  O565  1  0.419500  0.171230  0.590710  1.0  -0.6096
  O  O566  1  0.549900  0.101690  0.577180  1.0  -0.6979
  O  O567  1  0.639600  0.995460  0.605490  1.0  -0.6079
  O  O568  1  0.709600  0.343610  0.604540  1.0  -0.6493
  O  O569  1  0.761300  0.224230  0.594810  1.0  -0.8286
  O  O570  1  0.483900  0.194320  0.513660  1.0  -0.5963
  O  O571  1  0.555900  0.174240  0.653030  1.0  -0.8816
  O  O572  1  0.531000  0.025700  0.656200  1.0  -0.6298
  O  O573  1  0.659350  0.189690  0.721560  1.0  -0.8607
  O  O574  1  0.626300  0.499600  0.195470  1.0  -0.7128
  O  O575  1  0.716000  0.336800  0.266050  1.0  -0.8006
  O  O576  1  0.419600  0.279640  0.850350  1.0  -0.8087
  O  O577  1  0.968800  0.247500  0.434670  1.0  -0.6409
  O  O578  1  0.863700  0.132350  0.407600  1.0  -0.7957
  O  O579  1  0.812200  0.322600  0.354290  1.0  -0.6887
  O  O580  1  0.330200  0.248200  0.777720  1.0  -0.8743
  O  O581  1  0.690300  0.206220  0.277480  1.0  -0.6461
  O  O582  1  0.751600  0.189600  0.359430  1.0  -0.793
  O  O583  1  0.342000  0.367040  0.801970  1.0  -0.8717
  O  O584  1  0.661000  0.302400  0.343530  1.0  -0.6033
  O  O585  1  0.736490  0.557370  0.151960  1.0  -0.7163
  O  O586  1  0.617600  0.491790  0.100590  1.0  -0.586
  O  O587  1  0.536800  0.590360  0.137080  1.0  -0.6886
  O  O588  1  0.008800  0.122800  0.459930  1.0  -0.5589
  O  O589  1  0.890700  0.365300  0.441820  1.0  -0.5454
  O  O590  1  0.073600  0.177600  0.390290  1.0  -0.582
  O  O591  1  0.822800  0.244690  0.431160  1.0  -0.8598
  O  O592  1  0.791300  0.580400  0.249400  1.0  -0.5902
  O  O593  1  0.876800  0.600400  0.182310  1.0  -0.5891
  O  O594  1  0.965800  0.351600  0.369470  1.0  -0.6242
  O  O595  1  0.575300  0.397800  0.622700  1.0  -0.6323
  O  O596  1  0.726200  0.284700  0.781250  1.0  -0.3068
  O  O597  1  0.846600  0.454460  0.752110  1.0  -0.2586
  O  O598  1  0.647500  0.451000  0.288170  1.0  -0.3355
  O  O599  1  0.266300  0.153130  0.200970  1.0  -0.7726
  O  O600  1  0.358800  0.189500  0.142580  1.0  -0.5945
  O  O601  1  0.286420  0.285880  0.189390  1.0  -0.7371
  O  O602  1  0.281700  0.381300  0.261750  1.0  -0.5701
  O  O603  1  0.317500  0.416640  0.178420  1.0  -0.57
  O  O604  1  0.170900  0.436190  0.192830  1.0  -0.6543
  O  O605  1  0.187140  0.365700  0.123870  1.0  -0.8179
  O  O606  1  0.145510  0.227960  0.155650  1.0  -0.8084
  O  O607  1  0.122440  0.277530  0.068140  1.0  -0.8186
  O  O608  1  0.011100  0.220560  0.093890  1.0  -0.6776
  O  O609  1  0.089900  0.145620  0.034960  1.0  -0.5662
  O  O610  1  0.919500  0.328770  0.090710  1.0  -0.61
  O  O611  1  0.049900  0.398310  0.077180  1.0  -0.699
  O  O612  1  0.139600  0.504540  0.105490  1.0  -0.6077
  O  O613  1  0.209600  0.156390  0.104540  1.0  -0.6532
  O  O614  1  0.261300  0.275770  0.094810  1.0  -0.8288
  O  O615  1  0.983900  0.305680  0.013660  1.0  -0.5959
  O  O616  1  0.055900  0.325760  0.153030  1.0  -0.882
  O  O617  1  0.031000  0.474300  0.156200  1.0  -0.6294
  O  O618  1  0.159350  0.310310  0.221560  1.0  -0.8604
  O  O619  1  0.126300  0.000400  0.695470  1.0  -0.7151
  O  O620  1  0.216000  0.163200  0.766050  1.0  -0.8005
  O  O621  1  0.919600  0.220360  0.350350  1.0  -0.8079
  O  O622  1  0.468800  0.252500  0.934670  1.0  -0.6411
  O  O623  1  0.363700  0.367650  0.907600  1.0  -0.7955
  O  O624  1  0.312200  0.177400  0.854290  1.0  -0.6902
  O  O625  1  0.830200  0.251800  0.277720  1.0  -0.8734
  O  O626  1  0.190300  0.293780  0.777480  1.0  -0.6463
  O  O627  1  0.251600  0.310400  0.859430  1.0  -0.7936
  O  O628  1  0.842000  0.132960  0.301970  1.0  -0.8718
  O  O629  1  0.161000  0.197600  0.843530  1.0  -0.605
  O  O630  1  0.236490  0.942630  0.651960  1.0  -0.7157
  O  O631  1  0.117600  0.008210  0.600590  1.0  -0.5853
  O  O632  1  0.036800  0.909640  0.637080  1.0  -0.6881
  O  O633  1  0.508800  0.377200  0.959930  1.0  -0.5584
  O  O634  1  0.390700  0.134700  0.941820  1.0  -0.5465
  O  O635  1  0.573600  0.322400  0.890290  1.0  -0.581
  O  O636  1  0.322800  0.255310  0.931160  1.0  -0.8606
  O  O637  1  0.291300  0.919600  0.749400  1.0  -0.5909
  O  O638  1  0.376800  0.899600  0.682310  1.0  -0.5893
  O  O639  1  0.465800  0.148400  0.869470  1.0  -0.6232
  O  O640  1  0.075300  0.102200  0.122700  1.0  -0.6325
  O  O641  1  0.226200  0.215300  0.281250  1.0  -0.3084
  O  O642  1  0.346600  0.045540  0.252110  1.0  -0.2589
  O  O643  1  0.147500  0.049000  0.788170  1.0  -0.3361
  O  O644  1  0.233700  0.653130  0.299030  1.0  -0.7742
  O  O645  1  0.141200  0.689500  0.357420  1.0  -0.594
  O  O646  1  0.213580  0.785880  0.310610  1.0  -0.7378
  O  O647  1  0.218300  0.881300  0.238250  1.0  -0.5757
  O  O648  1  0.182500  0.916640  0.321580  1.0  -0.5711
  O  O649  1  0.329100  0.936190  0.307170  1.0  -0.6578
  O  O650  1  0.312860  0.865700  0.376130  1.0  -0.8189
  O  O651  1  0.354490  0.727960  0.344350  1.0  -0.8085
  O  O652  1  0.377560  0.777530  0.431860  1.0  -0.8181
  O  O653  1  0.488900  0.720560  0.406110  1.0  -0.6768
  O  O654  1  0.410100  0.645620  0.465040  1.0  -0.5666
  O  O655  1  0.580500  0.828770  0.409290  1.0  -0.612
  O  O656  1  0.450100  0.898310  0.422820  1.0  -0.6978
  O  O657  1  0.360400  0.004540  0.394510  1.0  -0.609
  O  O658  1  0.290400  0.656390  0.395460  1.0  -0.6618
  O  O659  1  0.238700  0.775770  0.405190  1.0  -0.8298
  O  O660  1  0.516100  0.805680  0.486340  1.0  -0.5969
  O  O661  1  0.444100  0.825760  0.346970  1.0  -0.883
  O  O662  1  0.469000  0.974300  0.343800  1.0  -0.6298
  O  O663  1  0.340650  0.810310  0.278440  1.0  -0.8585
  O  O664  1  0.373700  0.500400  0.804530  1.0  -0.7145
  O  O665  1  0.284000  0.663200  0.733950  1.0  -0.7996
  O  O666  1  0.580400  0.720360  0.149650  1.0  -0.8078
  O  O667  1  0.031200  0.752500  0.565330  1.0  -0.6397
  O  O668  1  0.136300  0.867650  0.592400  1.0  -0.7953
  O  O669  1  0.187800  0.677400  0.645710  1.0  -0.6929
  O  O670  1  0.669800  0.751800  0.222280  1.0  -0.8728
  O  O671  1  0.309700  0.793780  0.722520  1.0  -0.6444
  O  O672  1  0.248400  0.810400  0.640570  1.0  -0.7945
  O  O673  1  0.658000  0.632960  0.198030  1.0  -0.8729
  O  O674  1  0.339000  0.697600  0.656470  1.0  -0.6038
  O  O675  1  0.263510  0.442630  0.848040  1.0  -0.7174
  O  O676  1  0.382400  0.508210  0.899410  1.0  -0.5867
  O  O677  1  0.463200  0.409640  0.862920  1.0  -0.688
  O  O678  1  0.991200  0.877200  0.540070  1.0  -0.56
  O  O679  1  0.109300  0.634700  0.558180  1.0  -0.5454
  O  O680  1  0.926400  0.822400  0.609710  1.0  -0.5814
  O  O681  1  0.177200  0.755310  0.568840  1.0  -0.8608
  O  O682  1  0.208700  0.419600  0.750600  1.0  -0.5986
  O  O683  1  0.123200  0.399600  0.817690  1.0  -0.5885
  O  O684  1  0.034200  0.648400  0.630530  1.0  -0.6237
  O  O685  1  0.424700  0.602200  0.377300  1.0  -0.6348
  O  O686  1  0.273800  0.715300  0.218750  1.0  -0.3073
  O  O687  1  0.153400  0.545540  0.247890  1.0  -0.2583
  O  O688  1  0.352500  0.549000  0.711830  1.0  -0.3381
