# generated using pymatgen
data_MgH8(C3O2)2
_symmetry_space_group_name_H-M   'P 1'
_cell_length_a   13.49500000
_cell_length_b   19.01640000
_cell_length_c   25.96640000
_cell_angle_alpha   81.03770000
_cell_angle_beta   74.93850000
_cell_angle_gamma   69.21720000
_symmetry_Int_Tables_number   1
_chemical_formula_structural   MgH8(C3O2)2
_chemical_formula_sum   'Mg16 H128 C96 O64'
_cell_volume   6001.11578802
_cell_formula_units_Z   16
loop_
 _symmetry_equiv_pos_site_id
 _symmetry_equiv_pos_as_xyz
  1  'x, y, z'
loop_
 _atom_site_type_symbol
 _atom_site_label
 _atom_site_symmetry_multiplicity
 _atom_site_fract_x
 _atom_site_fract_y
 _atom_site_fract_z
 _atom_site_occupancy
 _atom_site_charge
  Mg  Mg1  1  0.574460  0.419160  0.190120  1.0  1.6162
  Mg  Mg2  1  0.686790  0.585950  0.742430  1.0  1.5033
  Mg  Mg3  1  0.716220  0.678820  0.631240  1.0  1.6108
  Mg  Mg4  1  0.701820  0.275110  0.125910  1.0  1.5029
  Mg  Mg5  1  0.183740  0.080840  0.309880  1.0  1.6148
  Mg  Mg6  1  0.015170  0.914050  0.757570  1.0  1.5018
  Mg  Mg7  1  0.026280  0.821180  0.868760  1.0  1.6093
  Mg  Mg8  1  0.102840  0.224890  0.374090  1.0  1.5042
  Mg  Mg9  1  0.425540  0.580840  0.809880  1.0  1.616
  Mg  Mg10  1  0.313210  0.414050  0.257570  1.0  1.5028
  Mg  Mg11  1  0.283780  0.321180  0.368760  1.0  1.6085
  Mg  Mg12  1  0.298180  0.724890  0.874090  1.0  1.5031
  Mg  Mg13  1  0.816260  0.919160  0.690120  1.0  1.6154
  Mg  Mg14  1  0.984830  0.085950  0.242430  1.0  1.5015
  Mg  Mg15  1  0.973720  0.178820  0.131240  1.0  1.6113
  Mg  Mg16  1  0.897160  0.775110  0.625910  1.0  1.5032
  H  H17  1  0.704300  0.501200  0.010600  1.0  0.1157
  H  H18  1  0.575900  0.519800  0.020800  1.0  0.1035
  H  H19  1  0.735100  0.395800  0.965000  1.0  0.0721
  H  H20  1  0.607100  0.410100  0.977500  1.0  0.0644
  H  H21  1  0.715200  0.508100  0.909300  1.0  0.0715
  H  H22  1  0.585500  0.531100  0.925900  1.0  0.0711
  H  H23  1  0.587000  0.435800  0.879000  1.0  0.1119
  H  H24  1  0.716300  0.398700  0.869900  1.0  0.1204
  H  H25  1  0.499600  0.283100  0.089900  1.0  0.1351
  H  H26  1  0.508900  0.213400  0.133600  1.0  0.1307
  H  H27  1  0.365800  0.242200  0.085000  1.0  0.0664
  H  H28  1  0.302800  0.314500  0.118900  1.0  0.0711
  H  H29  1  0.359500  0.164800  0.166600  1.0  0.0579
  H  H30  1  0.286700  0.238700  0.197700  1.0  0.0833
  H  H31  1  0.150300  0.258300  0.151500  1.0  0.1239
  H  H32  1  0.223300  0.185800  0.119000  1.0  0.1147
  H  H33  1  0.859600  0.392900  0.637500  1.0  0.1162
  H  H34  1  0.768000  0.428000  0.603400  1.0  0.1197
  H  H35  1  0.984200  0.435600  0.572400  1.0  0.0533
  H  H36  1  0.892400  0.485900  0.540900  1.0  0.0701
  H  H37  1  0.880100  0.378000  0.514000  1.0  0.0683
  H  H38  1  0.962400  0.324600  0.549800  1.0  0.0643
  H  H39  1  0.025400  0.422900  0.463500  1.0  0.1029
  H  H40  1  0.105000  0.358500  0.495500  1.0  0.1017
  H  H41  1  0.945300  0.527000  0.727400  1.0  0.1331
  H  H42  1  0.893900  0.578500  0.777100  1.0  0.1307
  H  H43  1  0.091300  0.520800  0.755400  1.0  0.073
  H  H44  1  0.090900  0.581900  0.705500  1.0  0.0683
  H  H45  1  0.021700  0.680600  0.761400  1.0  0.0814
  H  H46  1  0.000800  0.625200  0.813000  1.0  0.0653
  H  H47  1  0.213300  0.621000  0.750600  1.0  0.122
  H  H48  1  0.194800  0.562300  0.800300  1.0  0.1145
  H  H49  1  0.216100  0.998800  0.489400  1.0  0.1169
  H  H50  1  0.116500  0.980200  0.479200  1.0  0.1022
  H  H51  1  0.095900  0.104200  0.535000  1.0  0.0709
  H  H52  1  0.994700  0.089900  0.522500  1.0  0.0667
  H  H53  1  0.132600  0.991900  0.590700  1.0  0.0732
  H  H54  1  0.042500  0.968900  0.574100  1.0  0.0702
  H  H55  1  0.901800  0.064200  0.621000  1.0  0.1115
  H  H56  1  0.984900  0.101300  0.630100  1.0  0.1219
  H  H57  1  0.872600  0.216900  0.410100  1.0  0.1373
  H  H58  1  0.855900  0.286600  0.366400  1.0  0.1294
  H  H59  1  0.693000  0.257800  0.415000  1.0  0.0692
  H  H60  1  0.736200  0.185500  0.381100  1.0  0.0707
  H  H61  1  0.690900  0.335200  0.333400  1.0  0.0598
  H  H62  1  0.723100  0.261300  0.302300  1.0  0.0837
  H  H63  1  0.560100  0.241700  0.348500  1.0  0.1233
  H  H64  1  0.528100  0.314200  0.381000  1.0  0.1151
  H  H65  1  0.890000  0.107100  0.862500  1.0  0.1164
  H  H66  1  0.799400  0.072000  0.896600  1.0  0.1202
  H  H67  1  0.992200  0.064400  0.927600  1.0  0.0587
  H  H68  1  0.919200  0.014100  0.959100  1.0  0.0693
  H  H69  1  0.772100  0.122000  0.986000  1.0  0.0697
  H  H70  1  0.836800  0.175400  0.950200  1.0  0.067
  H  H71  1  0.911800  0.077100  0.036500  1.0  0.101
  H  H72  1  0.959000  0.141500  0.004500  1.0  0.1058
  H  H73  1  0.199700  0.973000  0.772600  1.0  0.1327
  H  H74  1  0.249500  0.921500  0.722900  1.0  0.1318
  H  H75  1  0.367500  0.979200  0.744600  1.0  0.0747
  H  H76  1  0.378300  0.918100  0.794500  1.0  0.0719
  H  H77  1  0.463700  0.819400  0.738600  1.0  0.0815
  H  H78  1  0.439000  0.874800  0.687000  1.0  0.0656
  H  H79  1  0.584900  0.879000  0.749400  1.0  0.1221
  H  H80  1  0.557400  0.937700  0.699700  1.0  0.1154
  H  H81  1  0.295700  0.498800  0.989400  1.0  0.1163
  H  H82  1  0.424100  0.480200  0.979200  1.0  0.104
  H  H83  1  0.264900  0.604200  0.035000  1.0  0.0724
  H  H84  1  0.392900  0.589900  0.022500  1.0  0.0659
  H  H85  1  0.284800  0.491900  0.090700  1.0  0.0698
  H  H86  1  0.414500  0.468900  0.074100  1.0  0.0706
  H  H87  1  0.413000  0.564200  0.121000  1.0  0.0916
  H  H88  1  0.283700  0.601300  0.130100  1.0  0.1233
  H  H89  1  0.500400  0.716900  0.910100  1.0  0.1345
  H  H90  1  0.491100  0.786600  0.866400  1.0  0.1274
  H  H91  1  0.634200  0.757800  0.915000  1.0  0.0683
  H  H92  1  0.697200  0.685500  0.881100  1.0  0.0703
  H  H93  1  0.640500  0.835200  0.833400  1.0  0.0593
  H  H94  1  0.713300  0.761300  0.802300  1.0  0.0845
  H  H95  1  0.849700  0.741700  0.848500  1.0  0.123
  H  H96  1  0.776700  0.814200  0.881000  1.0  0.1156
  H  H97  1  0.140400  0.607100  0.362500  1.0  0.1147
  H  H98  1  0.232000  0.572000  0.396600  1.0  0.1195
  H  H99  1  0.015800  0.564400  0.427600  1.0  0.0551
  H  H100  1  0.107600  0.514100  0.459100  1.0  0.0695
  H  H101  1  0.119900  0.622000  0.486000  1.0  0.0708
  H  H102  1  0.037600  0.675400  0.450200  1.0  0.0664
  H  H103  1  0.974600  0.577100  0.536500  1.0  0.1012
  H  H104  1  0.895000  0.641500  0.504500  1.0  0.1083
  H  H105  1  0.054700  0.473000  0.272600  1.0  0.1323
  H  H106  1  0.106100  0.421500  0.222900  1.0  0.1293
  H  H107  1  0.908700  0.479200  0.244600  1.0  0.0748
  H  H108  1  0.909100  0.418100  0.294500  1.0  0.0732
  H  H109  1  0.978300  0.319400  0.238600  1.0  0.0814
  H  H110  1  0.999200  0.374800  0.187000  1.0  0.0652
  H  H111  1  0.786700  0.379000  0.249400  1.0  0.1207
  H  H112  1  0.805200  0.437700  0.199700  1.0  0.1154
  H  H113  1  0.783900  0.001200  0.510600  1.0  0.118
  H  H114  1  0.883500  0.019800  0.520800  1.0  0.103
  H  H115  1  0.904100  0.895800  0.465000  1.0  0.0715
  H  H116  1  0.005300  0.910100  0.477500  1.0  0.0674
  H  H117  1  0.867400  0.008100  0.409300  1.0  0.0727
  H  H118  1  0.957500  0.031100  0.425900  1.0  0.0701
  H  H119  1  0.098200  0.935800  0.379000  1.0  0.11
  H  H120  1  0.015100  0.898700  0.369900  1.0  0.1228
  H  H121  1  0.127400  0.783100  0.589900  1.0  0.1377
  H  H122  1  0.144100  0.713400  0.633600  1.0  0.1312
  H  H123  1  0.307000  0.742200  0.585000  1.0  0.0653
  H  H124  1  0.263800  0.814500  0.618900  1.0  0.0707
  H  H125  1  0.309100  0.664800  0.666667  1.0  0.0593
  H  H126  1  0.276900  0.738700  0.697700  1.0  0.0832
  H  H127  1  0.439900  0.758300  0.651500  1.0  0.124
  H  H128  1  0.471900  0.685800  0.619000  1.0  0.1144
  H  H129  1  0.110000  0.892900  0.137500  1.0  0.1174
  H  H130  1  0.200600  0.928000  0.103400  1.0  0.1193
  H  H131  1  0.007800  0.935600  0.072400  1.0  0.0587
  H  H132  1  0.080800  0.985900  0.040900  1.0  0.0696
  H  H133  1  0.227900  0.878000  0.014000  1.0  0.0703
  H  H134  1  0.163200  0.824600  0.049800  1.0  0.0654
  H  H135  1  0.088200  0.922900  0.963500  1.0  0.103
  H  H136  1  0.041000  0.858500  0.995500  1.0  0.1076
  H  H137  1  0.800300  0.027000  0.227400  1.0  0.1326
  H  H138  1  0.750500  0.078500  0.277100  1.0  0.1317
  H  H139  1  0.632500  0.020800  0.255400  1.0  0.0729
  H  H140  1  0.621700  0.081900  0.205500  1.0  0.0707
  H  H141  1  0.536300  0.180600  0.261400  1.0  0.0811
  H  H142  1  0.561000  0.125200  0.313000  1.0  0.066
  H  H143  1  0.415100  0.121000  0.250600  1.0  0.1217
  H  H144  1  0.442600  0.062300  0.300300  1.0  0.1138
  C  C145  1  0.647500  0.429100  0.070900  1.0  0.7856
  C  C146  1  0.646260  0.478280  0.017400  1.0  -0.3567
  C  C147  1  0.662600  0.435300  0.970300  1.0  -0.0771
  C  C148  1  0.653900  0.488000  0.919000  1.0  -0.0795
  C  C149  1  0.655700  0.447100  0.872300  1.0  -0.3491
  C  C150  1  0.668820  0.493460  0.820900  1.0  0.7932
  C  C151  1  0.459130  0.314140  0.166000  1.0  0.8208
  C  C152  1  0.462900  0.265500  0.125100  1.0  -0.3851
  C  C153  1  0.354700  0.262600  0.119600  1.0  -0.0559
  C  C154  1  0.305170  0.215460  0.163400  1.0  -0.0582
  C  C155  1  0.204600  0.207400  0.154000  1.0  -0.3884
  C  C156  1  0.152340  0.158820  0.195900  1.0  0.8579
  C  C157  1  0.786640  0.507720  0.642200  1.0  0.807
  C  C158  1  0.829360  0.435980  0.613100  1.0  -0.3525
  C  C159  1  0.917380  0.437640  0.562200  1.0  -0.0775
  C  C160  1  0.944520  0.372860  0.527700  1.0  -0.0707
  C  C161  1  0.038490  0.371720  0.481500  1.0  -0.3543
  C  C162  1  0.058350  0.316500  0.440600  1.0  0.7952
  C  C163  1  0.881700  0.641000  0.704200  1.0  0.8064
  C  C164  1  0.939500  0.574900  0.740300  1.0  -0.3864
  C  C165  1  0.051200  0.572200  0.742200  1.0  -0.0659
  C  C166  1  0.050060  0.629080  0.777800  1.0  -0.0753
  C  C167  1  0.165600  0.615100  0.785900  1.0  -0.3954
  C  C168  1  0.170800  0.667100  0.822900  1.0  0.8312
  C  C169  1  0.147500  0.070900  0.429100  1.0  0.7941
  C  C170  1  0.141940  0.021720  0.482600  1.0  -0.3555
  C  C171  1  0.068200  0.064700  0.529700  1.0  -0.0773
  C  C172  1  0.060900  0.012000  0.581000  1.0  -0.0794
  C  C173  1  0.975100  0.052900  0.627700  1.0  -0.3518
  C  C174  1  0.983180  0.006540  0.679100  1.0  0.7896
  C  C175  1  0.939270  0.185860  0.334000  1.0  0.8229
  C  C176  1  0.853500  0.234500  0.374900  1.0  -0.3926
  C  C177  1  0.736900  0.237400  0.380400  1.0  -0.0563
  C  C178  1  0.684030  0.284540  0.336600  1.0  -0.0577
  C  C179  1  0.566000  0.292600  0.346000  1.0  -0.3858
  C  C180  1  0.507060  0.341180  0.304100  1.0  0.8613
  C  C181  1  0.936560  0.992280  0.857800  1.0  0.8083
  C  C182  1  0.878440  0.064020  0.886900  1.0  -0.3519
  C  C183  1  0.917220  0.062360  0.937800  1.0  -0.0745
  C  C184  1  0.845080  0.127140  0.972300  1.0  -0.0713
  C  C185  1  0.891710  0.128280  0.018500  1.0  -0.3558
  C  C186  1  0.815450  0.183500  0.059400  1.0  0.7891
  C  C187  1  0.226900  0.859000  0.795800  1.0  0.8038
  C  C188  1  0.254700  0.925100  0.759700  1.0  -0.3858
  C  C189  1  0.365600  0.927800  0.757800  1.0  -0.0678
  C  C190  1  0.456940  0.870920  0.722200  1.0  -0.0776
  C  C191  1  0.566600  0.884900  0.714100  1.0  -0.395
  C  C192  1  0.660800  0.832900  0.677100  1.0  0.8333
  C  C193  1  0.352500  0.570900  0.929100  1.0  0.7946
  C  C194  1  0.353740  0.521720  0.982600  1.0  -0.3558
  C  C195  1  0.337400  0.564700  0.029700  1.0  -0.077
  C  C196  1  0.346100  0.512000  0.081000  1.0  -0.0788
  C  C197  1  0.344300  0.552900  0.127700  1.0  -0.3501
  C  C198  1  0.331180  0.506540  0.179100  1.0  0.7891
  C  C199  1  0.540870  0.685860  0.834000  1.0  0.8227
  C  C200  1  0.537100  0.734500  0.874900  1.0  -0.3892
  C  C201  1  0.645300  0.737400  0.880400  1.0  -0.0576
  C  C202  1  0.694830  0.784540  0.836600  1.0  -0.0589
  C  C203  1  0.795400  0.792600  0.846000  1.0  -0.3896
  C  C204  1  0.847660  0.841180  0.804100  1.0  0.8591
  C  C205  1  0.213360  0.492280  0.357800  1.0  0.8065
  C  C206  1  0.170640  0.564020  0.386900  1.0  -0.3521
  C  C207  1  0.082620  0.562360  0.437800  1.0  -0.0772
  C  C208  1  0.055480  0.627140  0.472300  1.0  -0.0721
  C  C209  1  0.961510  0.628280  0.518500  1.0  -0.356
  C  C210  1  0.941650  0.683500  0.559400  1.0  0.7921
  C  C211  1  0.118300  0.359000  0.295800  1.0  0.8051
  C  C212  1  0.060500  0.425100  0.259700  1.0  -0.3853
  C  C213  1  0.948800  0.427800  0.257800  1.0  -0.0663
  C  C214  1  0.949940  0.370920  0.222200  1.0  -0.0747
  C  C215  1  0.834400  0.384900  0.214100  1.0  -0.3973
  C  C216  1  0.829200  0.332900  0.177100  1.0  0.8366
  C  C217  1  0.852500  0.929100  0.570900  1.0  0.7954
  C  C218  1  0.858060  0.978280  0.517400  1.0  -0.3566
  C  C219  1  0.931800  0.935300  0.470300  1.0  -0.0786
  C  C220  1  0.939100  0.988000  0.419000  1.0  -0.081
  C  C221  1  0.024900  0.947100  0.372300  1.0  -0.3522
  C  C222  1  0.016820  0.993460  0.320900  1.0  0.7928
  C  C223  1  0.060730  0.814140  0.666000  1.0  0.8184
  C  C224  1  0.146500  0.765500  0.625100  1.0  -0.3926
  C  C225  1  0.263100  0.762600  0.619600  1.0  -0.0569
  C  C226  1  0.315970  0.715460  0.663400  1.0  -0.0625
  C  C227  1  0.434000  0.707400  0.654000  1.0  -0.38
  C  C228  1  0.492940  0.658820  0.695900  1.0  0.8606
  C  C229  1  0.063440  0.007720  0.142200  1.0  0.8051
  C  C230  1  0.121560  0.935980  0.113100  1.0  -0.3522
  C  C231  1  0.082780  0.937640  0.062200  1.0  -0.0746
  C  C232  1  0.154920  0.872860  0.027700  1.0  -0.072
  C  C233  1  0.108290  0.871720  0.981500  1.0  -0.3581
  C  C234  1  0.184550  0.816500  0.940600  1.0  0.7923
  C  C235  1  0.773100  0.141000  0.204200  1.0  0.8051
  C  C236  1  0.745300  0.074900  0.240300  1.0  -0.3852
  C  C237  1  0.634400  0.072200  0.242200  1.0  -0.0658
  C  C238  1  0.543060  0.129080  0.277800  1.0  -0.0756
  C  C239  1  0.433400  0.115100  0.285900  1.0  -0.3938
  C  C240  1  0.339200  0.167100  0.322900  1.0  0.8381
  O  O241  1  0.605520  0.463400  0.112760  1.0  -0.7804
  O  O242  1  0.689160  0.359420  0.067660  1.0  -0.7058
  O  O243  1  0.590590  0.523910  0.796310  1.0  -0.8874
  O  O244  1  0.756730  0.506430  0.802110  1.0  -0.6518
  O  O245  1  0.544600  0.330470  0.163530  1.0  -0.8578
  O  O246  1  0.373030  0.337710  0.200230  1.0  -0.6773
  O  O247  1  0.193820  0.129880  0.235280  1.0  -0.732
  O  O248  1  0.066860  0.149770  0.189110  1.0  -0.8581
  O  O249  1  0.754310  0.500790  0.691990  1.0  -0.708
  O  O250  1  0.782870  0.568700  0.613960  1.0  -0.7757
  O  O251  1  0.155400  0.289750  0.412650  1.0  -0.8852
  O  O252  1  0.985450  0.295890  0.435210  1.0  -0.6295
  O  O253  1  0.789170  0.644300  0.699760  1.0  -0.7939
  O  O254  1  0.929580  0.685540  0.680900  1.0  -0.6792
  O  O255  1  0.084730  0.712740  0.846400  1.0  -0.7367
  O  O256  1  0.264090  0.660590  0.828230  1.0  -0.8573
  O  O257  1  0.181680  0.036600  0.387240  1.0  -0.7556
  O  O258  1  0.116240  0.140580  0.432340  1.0  -0.7052
  O  O259  1  0.910810  0.976090  0.703690  1.0  -0.889
  O  O260  1  0.065270  0.993570  0.697890  1.0  -0.6414
  O  O261  1  0.038600  0.169530  0.336470  1.0  -0.8585
  O  O262  1  0.910970  0.162290  0.299770  1.0  -0.6776
  O  O263  1  0.558980  0.370120  0.264720  1.0  -0.7408
  O  O264  1  0.405740  0.350230  0.310890  1.0  -0.8577
  O  O265  1  0.947090  0.999210  0.808010  1.0  -0.7121
  O  O266  1  0.965530  0.931300  0.886040  1.0  -0.7559
  O  O267  1  0.857800  0.210250  0.087350  1.0  -0.889
  O  O268  1  0.716550  0.204110  0.064790  1.0  -0.6297
  O  O269  1  0.133230  0.855700  0.800240  1.0  -0.8023
  O  O270  1  0.296020  0.814460  0.819100  1.0  -0.6795
  O  O271  1  0.643870  0.787260  0.653600  1.0  -0.7404
  O  O272  1  0.752910  0.839410  0.671770  1.0  -0.8558
  O  O273  1  0.394480  0.536600  0.887240  1.0  -0.7785
  O  O274  1  0.310840  0.640580  0.932340  1.0  -0.7067
  O  O275  1  0.409410  0.476090  0.203690  1.0  -0.888
  O  O276  1  0.243270  0.493570  0.197890  1.0  -0.6536
  O  O277  1  0.455400  0.669530  0.836470  1.0  -0.857
  O  O278  1  0.626970  0.662290  0.799770  1.0  -0.6763
  O  O279  1  0.806180  0.870120  0.764720  1.0  -0.7378
  O  O280  1  0.933140  0.850230  0.810890  1.0  -0.86
  O  O281  1  0.245690  0.499210  0.308010  1.0  -0.7112
  O  O282  1  0.217130  0.431300  0.386040  1.0  -0.7646
  O  O283  1  0.844600  0.710250  0.587350  1.0  -0.8886
  O  O284  1  0.014550  0.704110  0.564790  1.0  -0.6293
  O  O285  1  0.210830  0.355700  0.300240  1.0  -0.7947
  O  O286  1  0.070420  0.314460  0.319100  1.0  -0.6793
  O  O287  1  0.915270  0.287260  0.153600  1.0  -0.7373
  O  O288  1  0.735910  0.339410  0.171770  1.0  -0.8549
  O  O289  1  0.818320  0.963400  0.612760  1.0  -0.7821
  O  O290  1  0.883760  0.859420  0.567660  1.0  -0.7022
  O  O291  1  0.089190  0.023910  0.296310  1.0  -0.8836
  O  O292  1  0.934730  0.006430  0.302110  1.0  -0.6496
  O  O293  1  0.961400  0.830470  0.663530  1.0  -0.8545
  O  O294  1  0.089030  0.837710  0.700230  1.0  -0.6796
  O  O295  1  0.441020  0.629880  0.735280  1.0  -0.7266
  O  O296  1  0.594260  0.649770  0.689110  1.0  -0.8611
  O  O297  1  0.052910  0.000790  0.191990  1.0  -0.711
  O  O298  1  0.034470  0.068700  0.113960  1.0  -0.7766
  O  O299  1  0.142200  0.789750  0.912650  1.0  -0.8884
  O  O300  1  0.283450  0.795890  0.935210  1.0  -0.6289
  O  O301  1  0.866770  0.144300  0.199760  1.0  -0.8003
  O  O302  1  0.703980  0.185540  0.180900  1.0  -0.6787
  O  O303  1  0.356130  0.212740  0.346400  1.0  -0.7386
  O  O304  1  0.247090  0.160590  0.328230  1.0  -0.8548
