# generated using pymatgen
data_MnHC4SO2
_symmetry_space_group_name_H-M   'P 1'
_cell_length_a   15.48390000
_cell_length_b   16.35410000
_cell_length_c   16.35410000
_cell_angle_alpha   69.47610000
_cell_angle_beta   71.60320000
_cell_angle_gamma   108.39700000
_symmetry_Int_Tables_number   1
_chemical_formula_structural   MnHC4SO2
_chemical_formula_sum   'Mn12 H12 C48 S12 O24'
_cell_volume   3229.22685697
_cell_formula_units_Z   12
loop_
 _symmetry_equiv_pos_site_id
 _symmetry_equiv_pos_as_xyz
  1  'x, y, z'
loop_
 _atom_site_type_symbol
 _atom_site_label
 _atom_site_symmetry_multiplicity
 _atom_site_fract_x
 _atom_site_fract_y
 _atom_site_fract_z
 _atom_site_occupancy
 _atom_site_charge
  Mn  Mn1  1  0.592210  0.684420  0.657790  1.0  0.8976
  Mn  Mn2  1  0.250000  0.657790  0.657790  1.0  0.897
  Mn  Mn3  1  0.907790  0.657790  0.684420  1.0  0.8972
  Mn  Mn4  1  0.407790  0.315580  0.342210  1.0  0.8973
  Mn  Mn5  1  0.750000  0.342210  0.342210  1.0  0.8975
  Mn  Mn6  1  0.092210  0.342210  0.315580  1.0  0.8974
  Mn  Mn7  1  0.750000  0.592840  0.592840  1.0  0.8489
  Mn  Mn8  1  0.342840  0.592840  0.814320  1.0  0.8496
  Mn  Mn9  1  0.157160  0.814320  0.592840  1.0  0.8485
  Mn  Mn10  1  0.250000  0.407160  0.407160  1.0  0.8488
  Mn  Mn11  1  0.657160  0.407160  0.185680  1.0  0.8478
  Mn  Mn12  1  0.842840  0.185680  0.407160  1.0  0.8515
  H  H13  1  0.617200  0.439300  0.973800  1.0  0.115
  H  H14  1  0.591000  0.973800  0.586900  1.0  0.1161
  H  H15  1  0.177900  0.586900  0.439300  1.0  0.1149
  H  H16  1  0.909000  0.586900  0.973800  1.0  0.1158
  H  H17  1  0.322100  0.439300  0.586900  1.0  0.1156
  H  H18  1  0.882800  0.973800  0.439300  1.0  0.1158
  H  H19  1  0.382800  0.560700  0.026200  1.0  0.1155
  H  H20  1  0.409000  0.026200  0.413100  1.0  0.116
  H  H21  1  0.822100  0.413100  0.560700  1.0  0.1153
  H  H22  1  0.091000  0.413100  0.026200  1.0  0.1154
  H  H23  1  0.677900  0.560700  0.413100  1.0  0.115
  H  H24  1  0.117200  0.026200  0.560700  1.0  0.1162
  C  C25  1  0.576670  0.537980  0.903460  1.0  -0.1331
  C  C26  1  0.662040  0.572590  0.803250  1.0  0.7126
  C  C27  1  0.568950  0.463620  0.984920  1.0  -0.1017
  C  C28  1  0.507260  0.576580  0.917520  1.0  0.1173
  C  C29  1  0.480130  0.903460  0.558560  1.0  -0.1332
  C  C30  1  0.465290  0.803250  0.624160  1.0  0.713
  C  C31  1  0.553870  0.984920  0.551460  1.0  -0.1045
  C  C32  1  0.424780  0.917520  0.505900  1.0  0.1159
  C  C33  1  0.038690  0.558560  0.537980  1.0  -0.1319
  C  C34  1  0.089450  0.624160  0.572590  1.0  0.7114
  C  C35  1  0.105330  0.551460  0.463620  1.0  -0.1037
  C  C36  1  0.930680  0.505900  0.576580  1.0  0.1161
  C  C37  1  0.019870  0.558560  0.903460  1.0  -0.1315
  C  C38  1  0.034710  0.624160  0.803250  1.0  0.7109
  C  C39  1  0.946130  0.551460  0.984920  1.0  -0.1039
  C  C40  1  0.075220  0.505900  0.917520  1.0  0.1154
  C  C41  1  0.461310  0.537980  0.558560  1.0  -0.1329
  C  C42  1  0.410550  0.572590  0.624160  1.0  0.7125
  C  C43  1  0.394670  0.463620  0.551460  1.0  -0.1036
  C  C44  1  0.569320  0.576580  0.505900  1.0  0.1157
  C  C45  1  0.923330  0.903460  0.537980  1.0  -0.1327
  C  C46  1  0.837960  0.803250  0.572590  1.0  0.7129
  C  C47  1  0.931050  0.984920  0.463620  1.0  -0.1051
  C  C48  1  0.992740  0.917520  0.576580  1.0  0.1173
  C  C49  1  0.423330  0.462020  0.096540  1.0  -0.1329
  C  C50  1  0.337960  0.427410  0.196750  1.0  0.7119
  C  C51  1  0.431050  0.536380  0.015080  1.0  -0.1047
  C  C52  1  0.492740  0.423420  0.082480  1.0  0.1169
  C  C53  1  0.519870  0.096540  0.441440  1.0  -0.1324
  C  C54  1  0.534710  0.196750  0.375840  1.0  0.7129
  C  C55  1  0.446130  0.015080  0.448540  1.0  -0.1051
  C  C56  1  0.575220  0.082480  0.494100  1.0  0.1171
  C  C57  1  0.961310  0.441440  0.462020  1.0  -0.1315
  C  C58  1  0.910550  0.375840  0.427410  1.0  0.711
  C  C59  1  0.894670  0.448540  0.536380  1.0  -0.1038
  C  C60  1  0.069320  0.494100  0.423420  1.0  0.1156
  C  C61  1  0.980130  0.441440  0.096540  1.0  -0.1321
  C  C62  1  0.965290  0.375840  0.196750  1.0  0.7117
  C  C63  1  0.053870  0.448540  0.015080  1.0  -0.1034
  C  C64  1  0.924780  0.494100  0.082480  1.0  0.1167
  C  C65  1  0.538690  0.462020  0.441440  1.0  -0.133
  C  C66  1  0.589450  0.427410  0.375840  1.0  0.7121
  C  C67  1  0.605330  0.536380  0.448540  1.0  -0.103
  C  C68  1  0.430680  0.423420  0.494100  1.0  0.1173
  C  C69  1  0.076670  0.096540  0.462020  1.0  -0.133
  C  C70  1  0.162040  0.196750  0.427410  1.0  0.7132
  C  C71  1  0.068950  0.015080  0.536380  1.0  -0.1045
  C  C72  1  0.007260  0.082480  0.423420  1.0  0.1163
  S  S73  1  0.514290  0.676010  0.821150  1.0  -0.4305
  S  S74  1  0.335440  0.821160  0.502840  1.0  -0.4299
  S  S75  1  0.838280  0.502840  0.676010  1.0  -0.4309
  S  S76  1  0.164560  0.502840  0.821150  1.0  -0.4315
  S  S77  1  0.661720  0.676010  0.502840  1.0  -0.4327
  S  S78  1  0.985710  0.821150  0.676010  1.0  -0.4328
  S  S79  1  0.485710  0.323990  0.178850  1.0  -0.4311
  S  S80  1  0.664560  0.178850  0.497160  1.0  -0.4319
  S  S81  1  0.161720  0.497160  0.323990  1.0  -0.4326
  S  S82  1  0.835440  0.497160  0.178850  1.0  -0.4311
  S  S83  1  0.338280  0.324000  0.497160  1.0  -0.4283
  S  S84  1  0.014280  0.178840  0.324000  1.0  -0.4293
  O  O85  1  0.639160  0.573400  0.734070  1.0  -0.6147
  O  O86  1  0.750080  0.594650  0.795220  1.0  -0.5348
  O  O87  1  0.373230  0.734070  0.692530  1.0  -0.6174
  O  O88  1  0.545300  0.795220  0.610130  1.0  -0.5344
  O  O89  1  0.065760  0.692530  0.573400  1.0  -0.6134
  O  O90  1  0.155430  0.610130  0.594650  1.0  -0.5344
  O  O91  1  0.126770  0.692530  0.734070  1.0  -0.6139
  O  O92  1  0.954700  0.610130  0.795220  1.0  -0.5348
  O  O93  1  0.434240  0.573400  0.692530  1.0  -0.6133
  O  O94  1  0.344570  0.594650  0.610130  1.0  -0.5366
  O  O95  1  0.860840  0.734070  0.573400  1.0  -0.6175
  O  O96  1  0.749920  0.795220  0.594650  1.0  -0.5344
  O  O97  1  0.360840  0.426600  0.265930  1.0  -0.6127
  O  O98  1  0.249920  0.405350  0.204780  1.0  -0.5367
  O  O99  1  0.626770  0.265930  0.307470  1.0  -0.6168
  O  O100  1  0.454700  0.204780  0.389870  1.0  -0.5345
  O  O101  1  0.934240  0.307470  0.426600  1.0  -0.6137
  O  O102  1  0.844570  0.389870  0.405350  1.0  -0.5351
  O  O103  1  0.873230  0.307470  0.265930  1.0  -0.614
  O  O104  1  0.045300  0.389870  0.204780  1.0  -0.5347
  O  O105  1  0.565760  0.426600  0.307470  1.0  -0.614
  O  O106  1  0.655430  0.405350  0.389870  1.0  -0.5356
  O  O107  1  0.139160  0.265930  0.426600  1.0  -0.6172
  O  O108  1  0.250080  0.204780  0.405350  1.0  -0.5349
