# generated using pymatgen
data_ZnH12C18N2O3
_symmetry_space_group_name_H-M   'P 1'
_cell_length_a   5.23510000
_cell_length_b   18.92810000
_cell_length_c   18.92810000
_cell_angle_alpha   88.90420000
_cell_angle_beta   82.05120000
_cell_angle_gamma   82.05130000
_symmetry_Int_Tables_number   1
_chemical_formula_structural   ZnH12C18N2O3
_chemical_formula_sum   'Zn4 H48 C72 N8 O12'
_cell_volume   1839.72713164
_cell_formula_units_Z   4
loop_
 _symmetry_equiv_pos_site_id
 _symmetry_equiv_pos_as_xyz
  1  'x, y, z'
loop_
 _atom_site_type_symbol
 _atom_site_label
 _atom_site_symmetry_multiplicity
 _atom_site_fract_x
 _atom_site_fract_y
 _atom_site_fract_z
 _atom_site_occupancy
 _atom_site_charge
  Zn  Zn1  1  0.298660  0.511490  0.059050  1.0  1.0118
  Zn  Zn2  1  0.869200  0.488510  0.940950  1.0  1.0271
  Zn  Zn3  1  0.642290  0.059050  0.488510  1.0  0.9725
  Zn  Zn4  1  0.189850  0.940950  0.511490  1.0  1.0288
  H  H5  1  0.959300  0.597100  0.187700  1.0  0.1023
  H  H6  1  0.660800  0.632400  0.007600  1.0  0.1194
  H  H7  1  0.989700  0.707400  0.951200  1.0  0.121
  H  H8  1  0.148500  0.815600  0.941600  1.0  0.0954
  H  H9  1  0.948900  0.912000  0.014600  1.0  0.0938
  H  H10  1  0.594400  0.901000  0.097400  1.0  0.1061
  H  H11  1  0.282700  0.826500  0.161700  1.0  0.1153
  H  H12  1  0.905000  0.637500  0.298900  1.0  0.1329
  H  H13  1  0.716900  0.692100  0.409700  1.0  0.1254
  H  H14  1  0.628900  0.882400  0.309400  1.0  0.102
  H  H15  1  0.838400  0.827300  0.202300  1.0  0.1081
  H  H16  1  0.744100  0.402900  0.812300  1.0  0.1022
  H  H17  1  0.300800  0.367600  0.992400  1.0  0.1179
  H  H18  1  0.648300  0.292600  0.048800  1.0  0.1125
  H  H19  1  0.905700  0.184400  0.058400  1.0  0.0958
  H  H20  1  0.875500  0.088000  0.985400  1.0  0.0933
  H  H21  1  0.592800  0.099000  0.902600  1.0  0.1052
  H  H22  1  0.270900  0.173500  0.838300  1.0  0.1155
  H  H23  1  0.841400  0.362500  0.701100  1.0  0.132
  H  H24  1  0.818700  0.307900  0.590300  1.0  0.1253
  H  H25  1  0.820700  0.117600  0.690600  1.0  0.0997
  H  H26  1  0.868000  0.172700  0.797700  1.0  0.1082
  H  H27  1  0.853000  0.187700  0.402900  1.0  0.1021
  H  H28  1  0.331600  0.007600  0.367600  1.0  0.1243
  H  H29  1  0.059100  0.951200  0.292600  1.0  0.1205
  H  H30  1  0.909900  0.941600  0.184400  1.0  0.0969
  H  H31  1  0.036500  0.014600  0.088000  1.0  0.0928
  H  H32  1  0.308200  0.097400  0.099000  1.0  0.1055
  H  H33  1  0.555600  0.161700  0.173500  1.0  0.1147
  H  H34  1  0.796100  0.298900  0.362500  1.0  0.133
  H  H35  1  0.873400  0.409700  0.307900  1.0  0.1254
  H  H36  1  0.061700  0.309400  0.117600  1.0  0.0991
  H  H37  1  0.959300  0.202300  0.172700  1.0  0.108
  H  H38  1  0.443600  0.812300  0.597100  1.0  0.1011
  H  H39  1  0.706800  0.992400  0.632400  1.0  0.1187
  H  H40  1  0.302900  0.048800  0.707400  1.0  0.1196
  H  H41  1  0.035900  0.058400  0.815600  1.0  0.097
  H  H42  1  0.139100  0.985400  0.912000  1.0  0.0926
  H  H43  1  0.504600  0.902600  0.901000  1.0  0.1066
  H  H44  1  0.890800  0.838300  0.826500  1.0  0.1157
  H  H45  1  0.457500  0.701100  0.637500  1.0  0.1329
  H  H46  1  0.591000  0.590300  0.692100  1.0  0.1247
  H  H47  1  0.488700  0.690600  0.882400  1.0  0.099
  H  H48  1  0.334300  0.797700  0.827300  1.0  0.1082
  H  H49  1  0.657900  0.422050  0.030920  1.0  0.3596
  H  H50  1  0.156420  0.078030  0.530150  1.0  0.1883
  H  H51  1  0.162700  0.577950  0.969080  1.0  0.2241
  H  H52  1  0.867210  0.917250  0.475900  1.0  0.2125
  C  C53  1  0.075340  0.627130  0.164190  1.0  0.2248
  C  C54  1  0.380170  0.665600  0.090260  1.0  0.1702
  C  C55  1  0.586370  0.671470  0.037990  1.0  -0.1502
  C  C56  1  0.683000  0.737260  0.031140  1.0  0.0409
  C  C57  1  0.906400  0.746070  0.980930  1.0  -0.1339
  C  C58  1  0.000770  0.810010  0.975450  1.0  -0.0874
  C  C59  1  0.881490  0.867770  0.019450  1.0  -0.0814
  C  C60  1  0.672520  0.861260  0.068500  1.0  -0.1249
  C  C61  1  0.567330  0.795160  0.077380  1.0  0.0516
  C  C62  1  0.359340  0.787940  0.130980  1.0  -0.1977
  C  C63  1  0.270930  0.722930  0.137210  1.0  0.0735
  C  C64  1  0.921640  0.729540  0.245580  1.0  0.1706
  C  C65  1  0.862200  0.687900  0.302500  1.0  -0.1921
  C  C66  1  0.736800  0.719300  0.367100  1.0  -0.0196
  C  C67  1  0.639410  0.793960  0.366220  1.0  -0.1695
  C  C68  1  0.686000  0.832500  0.308300  1.0  -0.039
  C  C69  1  0.819190  0.800370  0.245050  1.0  -0.1858
  C  C70  1  0.479100  0.830000  0.431800  1.0  0.4615
  C  C71  1  0.866660  0.372870  0.835810  1.0  0.2231
  C  C72  1  0.136030  0.334400  0.909740  1.0  0.1699
  C  C73  1  0.295830  0.328530  0.962010  1.0  -0.1433
  C  C74  1  0.451400  0.262740  0.968860  1.0  0.041
  C  C75  1  0.633400  0.253930  0.019070  1.0  -0.1413
  C  C76  1  0.786230  0.189990  0.024550  1.0  -0.0874
  C  C77  1  0.768710  0.132230  0.980550  1.0  -0.0823
  C  C78  1  0.602280  0.138740  0.931500  1.0  -0.122
  C  C79  1  0.439870  0.204840  0.922620  1.0  0.0517
  C  C80  1  0.278260  0.212060  0.869020  1.0  -0.1962
  C  C81  1  0.131070  0.277070  0.862790  1.0  0.0726
  C  C82  1  0.896760  0.270460  0.754420  1.0  0.169
  C  C83  1  0.852600  0.312100  0.697500  1.0  -0.1923
  C  C84  1  0.823200  0.280700  0.632900  1.0  -0.0162
  C  C85  1  0.799590  0.206040  0.633780  1.0  -0.1554
  C  C86  1  0.826800  0.167500  0.691700  1.0  -0.0398
  C  C87  1  0.864610  0.199630  0.754950  1.0  -0.1866
  C  C88  1  0.740900  0.170000  0.568200  1.0  0.4176
  C  C89  1  0.760470  0.164190  0.372870  1.0  0.2251
  C  C90  1  0.529570  0.090260  0.334400  1.0  0.1774
  C  C91  1  0.375640  0.037990  0.328530  1.0  -0.1732
  C  C92  1  0.285860  0.031140  0.262740  1.0  0.0432
  C  C93  1  0.112670  0.980930  0.253930  1.0  -0.1119
  C  C94  1  0.023780  0.975450  0.189990  1.0  -0.0868
  C  C95  1  0.099060  0.019450  0.132230  1.0  -0.0849
  C  C96  1  0.258980  0.068500  0.138740  1.0  -0.1204
  C  C97  1  0.355290  0.077380  0.204840  1.0  0.0527
  C  C98  1  0.509680  0.130980  0.212060  1.0  -0.1955
  C  C99  1  0.591860  0.137210  0.277070  1.0  0.0736
  C  C100  1  0.832780  0.245580  0.270460  1.0  0.17
  C  C101  1  0.835300  0.302500  0.312100  1.0  -0.1918
  C  C102  1  0.896100  0.367100  0.280700  1.0  -0.015
  C  C103  1  0.994370  0.366220  0.206040  1.0  -0.1611
  C  C104  1  0.005700  0.308300  0.167500  1.0  -0.0385
  C  C105  1  0.935760  0.245050  0.199630  1.0  -0.1866
  C  C106  1  0.089100  0.431800  0.170000  1.0  0.5104
  C  C107  1  0.297530  0.835810  0.627130  1.0  0.2237
  C  C108  1  0.954230  0.909740  0.665600  1.0  0.1768
  C  C109  1  0.742160  0.962010  0.671470  1.0  -0.1704
  C  C110  1  0.579740  0.968860  0.737260  1.0  0.043
  C  C111  1  0.347530  0.019070  0.746070  1.0  -0.1139
  C  C112  1  0.189220  0.024550  0.810010  1.0  -0.0876
  C  C113  1  0.250740  0.980550  0.867770  1.0  -0.0833
  C  C114  1  0.466220  0.931500  0.861260  1.0  -0.1213
  C  C115  1  0.637510  0.922620  0.795160  1.0  0.0525
  C  C116  1  0.852720  0.869020  0.787940  1.0  -0.1943
  C  C117  1  0.006140  0.862790  0.722930  1.0  0.0729
  C  C118  1  0.348820  0.754420  0.729540  1.0  0.17
  C  C119  1  0.449900  0.697500  0.687900  1.0  -0.1875
  C  C120  1  0.543900  0.632900  0.719300  1.0  -0.0137
  C  C121  1  0.566630  0.633780  0.793960  1.0  -0.1654
  C  C122  1  0.481500  0.691700  0.832500  1.0  -0.0384
  C  C123  1  0.380440  0.754950  0.800370  1.0  -0.1879
  C  C124  1  0.690900  0.568200  0.830000  1.0  0.4951
  N  N125  1  0.250160  0.606780  0.109700  1.0  -0.4058
  N  N126  1  0.076670  0.696130  0.183730  1.0  -0.0391
  N  N127  1  0.966640  0.393220  0.890300  1.0  -0.4088
  N  N128  1  0.956530  0.303870  0.816270  1.0  -0.0401
  N  N129  1  0.640140  0.109700  0.393220  1.0  -0.4288
  N  N130  1  0.739600  0.183730  0.303870  1.0  -0.0378
  N  N131  1  0.143060  0.890300  0.606780  1.0  -0.4132
  N  N132  1  0.227200  0.816270  0.696130  1.0  -0.0374
  O  O133  1  0.162700  0.525110  0.970090  1.0  -0.7762
  O  O134  1  0.461130  0.888180  0.443160  1.0  -0.5452
  O  O135  1  0.462100  0.781800  0.488000  1.0  -0.5673
  O  O136  1  0.657900  0.474890  0.029910  1.0  -0.7516
  O  O137  1  0.792470  0.111820  0.556840  1.0  -0.6089
  O  O138  1  0.731900  0.218200  0.512000  1.0  -0.5617
  O  O139  1  0.867210  0.970090  0.474890  1.0  -0.7533
  O  O140  1  0.095710  0.443160  0.111820  1.0  -0.5352
  O  O141  1  0.049900  0.488000  0.218200  1.0  -0.5848
  O  O142  1  0.312190  0.029910  0.525110  1.0  -0.624
  O  O143  1  0.650690  0.556840  0.888180  1.0  -0.5376
  O  O144  1  0.756100  0.512000  0.781800  1.0  -0.5861
