# generated using pymatgen
data_ZnH12C18N2O3
_symmetry_space_group_name_H-M   'P 1'
_cell_length_a   26.43660000
_cell_length_b   26.43660000
_cell_length_c   5.32870000
_cell_angle_alpha   90.00000000
_cell_angle_beta   90.00000000
_cell_angle_gamma   90.00000000
_symmetry_Int_Tables_number   1
_chemical_formula_structural   ZnH12C18N2O3
_chemical_formula_sum   'Zn8 H96 C144 N16 O24'
_cell_volume   3724.19549629
_cell_formula_units_Z   8
loop_
 _symmetry_equiv_pos_site_id
 _symmetry_equiv_pos_as_xyz
  1  'x, y, z'
loop_
 _atom_site_type_symbol
 _atom_site_label
 _atom_site_symmetry_multiplicity
 _atom_site_fract_x
 _atom_site_fract_y
 _atom_site_fract_z
 _atom_site_occupancy
 _atom_site_charge
  Zn  Zn1  1  0.726230  0.714900  0.332600  1.0  0.962
  Zn  Zn2  1  0.226230  0.214900  0.832600  1.0  0.962
  Zn  Zn3  1  0.273770  0.285100  0.332600  1.0  0.9629
  Zn  Zn4  1  0.773770  0.785100  0.832600  1.0  0.9629
  Zn  Zn5  1  0.714900  0.273770  0.667400  1.0  0.9635
  Zn  Zn6  1  0.214900  0.773770  0.167400  1.0  0.9635
  Zn  Zn7  1  0.285100  0.726230  0.667400  1.0  0.963
  Zn  Zn8  1  0.785100  0.226230  0.167400  1.0  0.963
  H  H9  1  0.832000  0.506500  0.531100  1.0  0.111
  H  H10  1  0.812700  0.679300  0.726600  1.0  0.1178
  H  H11  1  0.877100  0.669700  0.057100  1.0  0.1013
  H  H12  1  0.900100  0.500600  0.846400  1.0  0.1118
  H  H13  1  0.948000  0.537600  0.150800  1.0  0.0917
  H  H14  1  0.704600  0.607100  0.115600  1.0  0.0918
  H  H15  1  0.935100  0.621300  0.266300  1.0  0.1029
  H  H16  1  0.811600  0.485600  0.106800  1.0  0.102
  H  H17  1  0.786100  0.404900  0.968300  1.0  0.0854
  H  H18  1  0.667900  0.521400  0.209400  1.0  0.0767
  H  H19  1  0.642500  0.453000  0.992700  1.0  0.123
  H  H20  1  0.302500  0.242470  0.825100  1.0  0.1825
  H  H21  1  0.332000  0.006500  0.031100  1.0  0.111
  H  H22  1  0.312700  0.179300  0.226600  1.0  0.1178
  H  H23  1  0.377100  0.169700  0.557100  1.0  0.1013
  H  H24  1  0.400100  0.000600  0.346400  1.0  0.1118
  H  H25  1  0.448000  0.037600  0.650800  1.0  0.0917
  H  H26  1  0.204600  0.107100  0.615600  1.0  0.0918
  H  H27  1  0.435100  0.121300  0.766300  1.0  0.1029
  H  H28  1  0.311600  0.985600  0.606800  1.0  0.102
  H  H29  1  0.286100  0.904900  0.468300  1.0  0.0854
  H  H30  1  0.167900  0.021400  0.709400  1.0  0.0767
  H  H31  1  0.142500  0.953000  0.492700  1.0  0.123
  H  H32  1  0.802500  0.742470  0.325100  1.0  0.1825
  H  H33  1  0.168000  0.493500  0.531100  1.0  0.1116
  H  H34  1  0.187300  0.320700  0.726600  1.0  0.1184
  H  H35  1  0.122900  0.330300  0.057100  1.0  0.1013
  H  H36  1  0.099900  0.499400  0.846400  1.0  0.1122
  H  H37  1  0.052000  0.462400  0.150800  1.0  0.0917
  H  H38  1  0.295400  0.392900  0.115600  1.0  0.0919
  H  H39  1  0.064900  0.378700  0.266300  1.0  0.1032
  H  H40  1  0.188400  0.514400  0.106800  1.0  0.1021
  H  H41  1  0.213900  0.595100  0.968300  1.0  0.0864
  H  H42  1  0.332100  0.478600  0.209400  1.0  0.0772
  H  H43  1  0.357500  0.547000  0.992700  1.0  0.1223
  H  H44  1  0.697500  0.757530  0.825100  1.0  0.1824
  H  H45  1  0.668000  0.993500  0.031100  1.0  0.1116
  H  H46  1  0.687300  0.820700  0.226600  1.0  0.1184
  H  H47  1  0.622900  0.830300  0.557100  1.0  0.1013
  H  H48  1  0.599900  0.999400  0.346400  1.0  0.1122
  H  H49  1  0.552000  0.962400  0.650800  1.0  0.0917
  H  H50  1  0.795400  0.892900  0.615600  1.0  0.0919
  H  H51  1  0.564900  0.878700  0.766300  1.0  0.1032
  H  H52  1  0.688400  0.014400  0.606800  1.0  0.1021
  H  H53  1  0.713900  0.095100  0.468300  1.0  0.0864
  H  H54  1  0.832100  0.978600  0.709400  1.0  0.0772
  H  H55  1  0.857500  0.047000  0.492700  1.0  0.1223
  H  H56  1  0.197500  0.257530  0.325100  1.0  0.1824
  H  H57  1  0.506500  0.168000  0.468900  1.0  0.1102
  H  H58  1  0.679300  0.187300  0.273400  1.0  0.1168
  H  H59  1  0.669700  0.122900  0.942900  1.0  0.1033
  H  H60  1  0.500600  0.099900  0.153600  1.0  0.113
  H  H61  1  0.537600  0.052000  0.849200  1.0  0.0918
  H  H62  1  0.607100  0.295400  0.884400  1.0  0.0902
  H  H63  1  0.621300  0.064900  0.733700  1.0  0.1018
  H  H64  1  0.485600  0.188400  0.893200  1.0  0.1002
  H  H65  1  0.404900  0.213900  0.031700  1.0  0.0867
  H  H66  1  0.521400  0.332100  0.790600  1.0  0.0773
  H  H67  1  0.453000  0.357500  0.007300  1.0  0.1201
  H  H68  1  0.242470  0.697500  0.174900  1.0  0.1817
  H  H69  1  0.006500  0.668000  0.968900  1.0  0.1102
  H  H70  1  0.179300  0.687300  0.773400  1.0  0.1168
  H  H71  1  0.169700  0.622900  0.442900  1.0  0.1033
  H  H72  1  0.000600  0.599900  0.653600  1.0  0.113
  H  H73  1  0.037600  0.552000  0.349200  1.0  0.0918
  H  H74  1  0.107100  0.795400  0.384400  1.0  0.0902
  H  H75  1  0.121300  0.564900  0.233700  1.0  0.1018
  H  H76  1  0.985600  0.688400  0.393200  1.0  0.1002
  H  H77  1  0.904900  0.713900  0.531700  1.0  0.0867
  H  H78  1  0.021400  0.832100  0.290600  1.0  0.0773
  H  H79  1  0.953000  0.857500  0.507300  1.0  0.1201
  H  H80  1  0.742470  0.197500  0.674900  1.0  0.1817
  H  H81  1  0.493500  0.832000  0.468900  1.0  0.1109
  H  H82  1  0.320700  0.812700  0.273400  1.0  0.1169
  H  H83  1  0.330300  0.877100  0.942900  1.0  0.1039
  H  H84  1  0.499400  0.900100  0.153600  1.0  0.1129
  H  H85  1  0.462400  0.948000  0.849200  1.0  0.0918
  H  H86  1  0.392900  0.704600  0.884400  1.0  0.0919
  H  H87  1  0.378700  0.935100  0.733700  1.0  0.1021
  H  H88  1  0.514400  0.811600  0.893200  1.0  0.1012
  H  H89  1  0.595100  0.786100  0.031700  1.0  0.0867
  H  H90  1  0.478600  0.667900  0.790600  1.0  0.0765
  H  H91  1  0.547000  0.642500  0.007300  1.0  0.1205
  H  H92  1  0.757530  0.302500  0.174900  1.0  0.1819
  H  H93  1  0.993500  0.332000  0.968900  1.0  0.1109
  H  H94  1  0.820700  0.312700  0.773400  1.0  0.1169
  H  H95  1  0.830300  0.377100  0.442900  1.0  0.1039
  H  H96  1  0.999400  0.400100  0.653600  1.0  0.1129
  H  H97  1  0.962400  0.448000  0.349200  1.0  0.0918
  H  H98  1  0.892900  0.204600  0.384400  1.0  0.0919
  H  H99  1  0.878700  0.435100  0.233700  1.0  0.1021
  H  H100  1  0.014400  0.311600  0.393200  1.0  0.1012
  H  H101  1  0.095100  0.286100  0.531700  1.0  0.0867
  H  H102  1  0.978600  0.167900  0.290600  1.0  0.0765
  H  H103  1  0.047000  0.142500  0.507300  1.0  0.1205
  H  H104  1  0.257530  0.802500  0.674900  1.0  0.1819
  C  C105  1  0.741570  0.511490  0.173400  1.0  0.1578
  C  C106  1  0.827740  0.540380  0.572400  1.0  -0.1372
  C  C107  1  0.791600  0.569470  0.454300  1.0  0.0981
  C  C108  1  0.852770  0.615600  0.814800  1.0  0.0318
  C  C109  1  0.857860  0.563300  0.756200  1.0  0.0297
  C  C110  1  0.816760  0.645150  0.688800  1.0  -0.1432
  C  C111  1  0.787330  0.622000  0.505800  1.0  0.1356
  C  C112  1  0.881600  0.636000  0.011400  1.0  -0.1356
  C  C113  1  0.895100  0.534500  0.886400  1.0  -0.1506
  C  C114  1  0.923400  0.556600  0.068900  1.0  -0.0822
  C  C115  1  0.731400  0.604020  0.227700  1.0  0.1885
  C  C116  1  0.916300  0.607200  0.136400  1.0  -0.0917
  C  C117  1  0.777400  0.477400  0.099000  1.0  -0.1829
  C  C118  1  0.715000  0.418870  0.983600  1.0  -0.0362
  C  C119  1  0.761900  0.429100  0.009000  1.0  -0.0919
  C  C120  1  0.692000  0.499200  0.146000  1.0  -0.146
  C  C121  1  0.676300  0.457700  0.036000  1.0  -0.1308
  C  C122  1  0.695900  0.369200  0.897000  1.0  0.5565
  C  C123  1  0.241570  0.011490  0.673400  1.0  0.1578
  C  C124  1  0.327740  0.040380  0.072400  1.0  -0.1372
  C  C125  1  0.291600  0.069470  0.954300  1.0  0.0981
  C  C126  1  0.352770  0.115600  0.314800  1.0  0.0318
  C  C127  1  0.357860  0.063300  0.256200  1.0  0.0297
  C  C128  1  0.316760  0.145150  0.188800  1.0  -0.1432
  C  C129  1  0.287330  0.122000  0.005800  1.0  0.1356
  C  C130  1  0.381600  0.136000  0.511400  1.0  -0.1356
  C  C131  1  0.395100  0.034500  0.386400  1.0  -0.1506
  C  C132  1  0.423400  0.056600  0.568900  1.0  -0.0822
  C  C133  1  0.231400  0.104020  0.727700  1.0  0.1885
  C  C134  1  0.416300  0.107200  0.636400  1.0  -0.0917
  C  C135  1  0.277400  0.977400  0.599000  1.0  -0.1829
  C  C136  1  0.215000  0.918870  0.483600  1.0  -0.0362
  C  C137  1  0.261900  0.929100  0.509000  1.0  -0.0919
  C  C138  1  0.192000  0.999200  0.646000  1.0  -0.146
  C  C139  1  0.176300  0.957700  0.536000  1.0  -0.1308
  C  C140  1  0.195900  0.869200  0.397000  1.0  0.5565
  C  C141  1  0.258430  0.488510  0.173400  1.0  0.1589
  C  C142  1  0.172260  0.459620  0.572400  1.0  -0.1375
  C  C143  1  0.208400  0.430530  0.454300  1.0  0.0987
  C  C144  1  0.147230  0.384400  0.814800  1.0  0.0317
  C  C145  1  0.142140  0.436700  0.756200  1.0  0.0295
  C  C146  1  0.183240  0.354850  0.688800  1.0  -0.1453
  C  C147  1  0.212670  0.378000  0.505800  1.0  0.1364
  C  C148  1  0.118400  0.364000  0.011400  1.0  -0.1362
  C  C149  1  0.104900  0.465500  0.886400  1.0  -0.1506
  C  C150  1  0.076600  0.443400  0.068900  1.0  -0.082
  C  C151  1  0.268600  0.395980  0.227700  1.0  0.1881
  C  C152  1  0.083700  0.392800  0.136400  1.0  -0.0926
  C  C153  1  0.222600  0.522600  0.099000  1.0  -0.1797
  C  C154  1  0.285000  0.581130  0.983600  1.0  -0.036
  C  C155  1  0.238100  0.570900  0.009000  1.0  -0.0897
  C  C156  1  0.308000  0.500800  0.146000  1.0  -0.1479
  C  C157  1  0.323700  0.542300  0.036000  1.0  -0.1324
  C  C158  1  0.304100  0.630800  0.897000  1.0  0.5568
  C  C159  1  0.758430  0.988510  0.673400  1.0  0.1589
  C  C160  1  0.672260  0.959620  0.072400  1.0  -0.1375
  C  C161  1  0.708400  0.930530  0.954300  1.0  0.0987
  C  C162  1  0.647230  0.884400  0.314800  1.0  0.0317
  C  C163  1  0.642140  0.936700  0.256200  1.0  0.0295
  C  C164  1  0.683240  0.854850  0.188800  1.0  -0.1453
  C  C165  1  0.712670  0.878000  0.005800  1.0  0.1364
  C  C166  1  0.618400  0.864000  0.511400  1.0  -0.1362
  C  C167  1  0.604900  0.965500  0.386400  1.0  -0.1506
  C  C168  1  0.576600  0.943400  0.568900  1.0  -0.082
  C  C169  1  0.768600  0.895980  0.727700  1.0  0.1881
  C  C170  1  0.583700  0.892800  0.636400  1.0  -0.0926
  C  C171  1  0.722600  0.022600  0.599000  1.0  -0.1797
  C  C172  1  0.785000  0.081130  0.483600  1.0  -0.036
  C  C173  1  0.738100  0.070900  0.509000  1.0  -0.0897
  C  C174  1  0.808000  0.000800  0.646000  1.0  -0.1479
  C  C175  1  0.823700  0.042300  0.536000  1.0  -0.1324
  C  C176  1  0.804100  0.130800  0.397000  1.0  0.5568
  C  C177  1  0.511490  0.258430  0.826600  1.0  0.1578
  C  C178  1  0.540380  0.172260  0.427600  1.0  -0.1378
  C  C179  1  0.569470  0.208400  0.545700  1.0  0.0978
  C  C180  1  0.615600  0.147230  0.185200  1.0  0.0295
  C  C181  1  0.563300  0.142140  0.243800  1.0  0.0284
  C  C182  1  0.645150  0.183240  0.311200  1.0  -0.1436
  C  C183  1  0.622000  0.212670  0.494200  1.0  0.1349
  C  C184  1  0.636000  0.118400  0.988600  1.0  -0.1324
  C  C185  1  0.534500  0.104900  0.113600  1.0  -0.1509
  C  C186  1  0.556600  0.076600  0.931100  1.0  -0.0829
  C  C187  1  0.604020  0.268600  0.772300  1.0  0.1888
  C  C188  1  0.607200  0.083700  0.863600  1.0  -0.0907
  C  C189  1  0.477400  0.222600  0.901000  1.0  -0.1827
  C  C190  1  0.418870  0.285000  0.016400  1.0  -0.0305
  C  C191  1  0.429100  0.238100  0.991000  1.0  -0.0922
  C  C192  1  0.499200  0.308000  0.854000  1.0  -0.1512
  C  C193  1  0.457700  0.323700  0.964000  1.0  -0.1247
  C  C194  1  0.369200  0.304100  0.103000  1.0  0.5499
  C  C195  1  0.011490  0.758430  0.326600  1.0  0.1578
  C  C196  1  0.040380  0.672260  0.927600  1.0  -0.1378
  C  C197  1  0.069470  0.708400  0.045700  1.0  0.0978
  C  C198  1  0.115600  0.647230  0.685200  1.0  0.0295
  C  C199  1  0.063300  0.642140  0.743800  1.0  0.0284
  C  C200  1  0.145150  0.683240  0.811200  1.0  -0.1436
  C  C201  1  0.122000  0.712670  0.994200  1.0  0.1349
  C  C202  1  0.136000  0.618400  0.488600  1.0  -0.1324
  C  C203  1  0.034500  0.604900  0.613600  1.0  -0.1509
  C  C204  1  0.056600  0.576600  0.431100  1.0  -0.0829
  C  C205  1  0.104020  0.768600  0.272300  1.0  0.1888
  C  C206  1  0.107200  0.583700  0.363600  1.0  -0.0907
  C  C207  1  0.977400  0.722600  0.401000  1.0  -0.1827
  C  C208  1  0.918870  0.785000  0.516400  1.0  -0.0305
  C  C209  1  0.929100  0.738100  0.491000  1.0  -0.0922
  C  C210  1  0.999200  0.808000  0.354000  1.0  -0.1512
  C  C211  1  0.957700  0.823700  0.464000  1.0  -0.1247
  C  C212  1  0.869200  0.804100  0.603000  1.0  0.5499
  C  C213  1  0.488510  0.741570  0.826600  1.0  0.1596
  C  C214  1  0.459620  0.827740  0.427600  1.0  -0.1367
  C  C215  1  0.430530  0.791600  0.545700  1.0  0.0978
  C  C216  1  0.384400  0.852770  0.185200  1.0  0.0287
  C  C217  1  0.436700  0.857860  0.243800  1.0  0.029
  C  C218  1  0.354850  0.816760  0.311200  1.0  -0.1442
  C  C219  1  0.378000  0.787330  0.494200  1.0  0.1357
  C  C220  1  0.364000  0.881600  0.988600  1.0  -0.1329
  C  C221  1  0.465500  0.895100  0.113600  1.0  -0.1528
  C  C222  1  0.443400  0.923400  0.931100  1.0  -0.0812
  C  C223  1  0.395980  0.731400  0.772300  1.0  0.1896
  C  C224  1  0.392800  0.916300  0.863600  1.0  -0.0917
  C  C225  1  0.522600  0.777400  0.901000  1.0  -0.1828
  C  C226  1  0.581130  0.715000  0.016400  1.0  -0.0296
  C  C227  1  0.570900  0.761900  0.991000  1.0  -0.0929
  C  C228  1  0.500800  0.692000  0.854000  1.0  -0.1528
  C  C229  1  0.542300  0.676300  0.964000  1.0  -0.1268
  C  C230  1  0.630800  0.695900  0.103000  1.0  0.553
  C  C231  1  0.988510  0.241570  0.326600  1.0  0.1596
  C  C232  1  0.959620  0.327740  0.927600  1.0  -0.1367
  C  C233  1  0.930530  0.291600  0.045700  1.0  0.0978
  C  C234  1  0.884400  0.352770  0.685200  1.0  0.0287
  C  C235  1  0.936700  0.357860  0.743800  1.0  0.029
  C  C236  1  0.854850  0.316760  0.811200  1.0  -0.1442
  C  C237  1  0.878000  0.287330  0.994200  1.0  0.1357
  C  C238  1  0.864000  0.381600  0.488600  1.0  -0.1329
  C  C239  1  0.965500  0.395100  0.613600  1.0  -0.1528
  C  C240  1  0.943400  0.423400  0.431100  1.0  -0.0812
  C  C241  1  0.895980  0.231400  0.272300  1.0  0.1896
  C  C242  1  0.892800  0.416300  0.363600  1.0  -0.0917
  C  C243  1  0.022600  0.277400  0.401000  1.0  -0.1828
  C  C244  1  0.081130  0.215000  0.516400  1.0  -0.0296
  C  C245  1  0.070900  0.261900  0.491000  1.0  -0.0929
  C  C246  1  0.000800  0.192000  0.354000  1.0  -0.1528
  C  C247  1  0.042300  0.176300  0.464000  1.0  -0.1268
  C  C248  1  0.130800  0.195900  0.603000  1.0  0.553
  N  N249  1  0.749470  0.641390  0.356400  1.0  -0.3809
  N  N250  1  0.755870  0.559870  0.274600  1.0  0.0048
  N  N251  1  0.249470  0.141390  0.856400  1.0  -0.3809
  N  N252  1  0.255870  0.059870  0.774600  1.0  0.0048
  N  N253  1  0.250530  0.358610  0.356400  1.0  -0.3795
  N  N254  1  0.244130  0.440130  0.274600  1.0  0.0056
  N  N255  1  0.750530  0.858610  0.856400  1.0  -0.3795
  N  N256  1  0.744130  0.940130  0.774600  1.0  0.0056
  N  N257  1  0.641390  0.250530  0.643600  1.0  -0.3814
  N  N258  1  0.559870  0.244130  0.725400  1.0  0.0082
  N  N259  1  0.141390  0.750530  0.143600  1.0  -0.3814
  N  N260  1  0.059870  0.744130  0.225400  1.0  0.0082
  N  N261  1  0.358610  0.749470  0.643600  1.0  -0.3816
  N  N262  1  0.440130  0.755870  0.725400  1.0  0.0082
  N  N263  1  0.858610  0.249470  0.143600  1.0  -0.3816
  N  N264  1  0.940130  0.255870  0.225400  1.0  0.0082
  O  O265  1  0.223980  0.246180  0.156200  1.0  -0.614
  O  O266  1  0.724210  0.334840  0.860300  1.0  -0.6105
  O  O267  1  0.655300  0.357900  0.818000  1.0  -0.5315
  O  O268  1  0.723980  0.746180  0.656200  1.0  -0.614
  O  O269  1  0.224210  0.834840  0.360300  1.0  -0.6105
  O  O270  1  0.155300  0.857900  0.318000  1.0  -0.5315
  O  O271  1  0.776020  0.753820  0.156200  1.0  -0.614
  O  O272  1  0.275790  0.665160  0.860300  1.0  -0.6107
  O  O273  1  0.344700  0.642100  0.818000  1.0  -0.5343
  O  O274  1  0.276020  0.253820  0.656200  1.0  -0.614
  O  O275  1  0.775790  0.165160  0.360300  1.0  -0.6107
  O  O276  1  0.844700  0.142100  0.318000  1.0  -0.5343
  O  O277  1  0.246180  0.776020  0.843800  1.0  -0.6148
  O  O278  1  0.334840  0.275790  0.139700  1.0  -0.6096
  O  O279  1  0.357900  0.344700  0.182000  1.0  -0.5289
  O  O280  1  0.746180  0.276020  0.343800  1.0  -0.6148
  O  O281  1  0.834840  0.775790  0.639700  1.0  -0.6096
  O  O282  1  0.857900  0.844700  0.682000  1.0  -0.5289
  O  O283  1  0.753820  0.223980  0.843800  1.0  -0.6146
  O  O284  1  0.665160  0.724210  0.139700  1.0  -0.6093
  O  O285  1  0.642100  0.655300  0.182000  1.0  -0.5284
  O  O286  1  0.253820  0.723980  0.343800  1.0  -0.6146
  O  O287  1  0.165160  0.224210  0.639700  1.0  -0.6093
  O  O288  1  0.142100  0.155300  0.682000  1.0  -0.5284
