# generated using pymatgen
data_ZnH12C18N2O3
_symmetry_space_group_name_H-M   'P 1'
_cell_length_a   5.14620000
_cell_length_b   18.97980000
_cell_length_c   18.97980000
_cell_angle_alpha   88.94690000
_cell_angle_beta   82.20840000
_cell_angle_gamma   82.20830000
_symmetry_Int_Tables_number   1
_chemical_formula_structural   ZnH12C18N2O3
_chemical_formula_sum   'Zn4 H48 C72 N8 O12'
_cell_volume   1819.75752151
_cell_formula_units_Z   4
loop_
 _symmetry_equiv_pos_site_id
 _symmetry_equiv_pos_as_xyz
  1  'x, y, z'
loop_
 _atom_site_type_symbol
 _atom_site_label
 _atom_site_symmetry_multiplicity
 _atom_site_fract_x
 _atom_site_fract_y
 _atom_site_fract_z
 _atom_site_occupancy
 _atom_site_charge
  Zn  Zn1  1  0.198420  0.940870  0.512140  1.0  1.0138
  Zn  Zn2  1  0.651420  0.059130  0.487860  1.0  1.0133
  Zn  Zn3  1  0.289450  0.512140  0.059120  1.0  1.0173
  Zn  Zn4  1  0.860710  0.487860  0.940880  1.0  1.0147
  H  H5  1  0.446300  0.811500  0.595900  1.0  0.1089
  H  H6  1  0.180800  0.059600  0.527400  1.0  0.4044
  H  H7  1  0.706300  0.992500  0.632500  1.0  0.1237
  H  H8  1  0.299500  0.049100  0.706700  1.0  0.1188
  H  H9  1  0.027300  0.059700  0.814900  1.0  0.096
  H  H10  1  0.134400  0.987800  0.911800  1.0  0.0881
  H  H11  1  0.504000  0.904000  0.900800  1.0  0.1076
  H  H12  1  0.893700  0.838800  0.825800  1.0  0.1158
  H  H13  1  0.460500  0.701200  0.637400  1.0  0.1333
  H  H14  1  0.607500  0.592600  0.690600  1.0  0.1152
  H  H15  1  0.477500  0.689500  0.882500  1.0  0.0968
  H  H16  1  0.338500  0.797600  0.827000  1.0  0.1079
  H  H17  1  0.853700  0.188500  0.404100  1.0  0.1089
  H  H18  1  0.767800  0.940400  0.472600  1.0  0.4047
  H  H19  1  0.331300  0.007500  0.367500  1.0  0.1237
  H  H20  1  0.055300  0.950900  0.293300  1.0  0.1183
  H  H21  1  0.901900  0.940300  0.185100  1.0  0.0961
  H  H22  1  0.034000  0.012200  0.088200  1.0  0.0884
  H  H23  1  0.308800  0.096000  0.099200  1.0  0.1069
  H  H24  1  0.558300  0.161200  0.174200  1.0  0.1151
  H  H25  1  0.799100  0.298800  0.362600  1.0  0.1329
  H  H26  1  0.890700  0.407400  0.309400  1.0  0.1152
  H  H27  1  0.049500  0.310500  0.117500  1.0  0.0961
  H  H28  1  0.963100  0.202400  0.173000  1.0  0.1075
  H  H29  1  0.957800  0.595900  0.188500  1.0  0.1096
  H  H30  1  0.291800  0.527400  0.940400  1.0  0.4071
  H  H31  1  0.661200  0.632500  0.007500  1.0  0.1231
  H  H32  1  0.993800  0.706700  0.950900  1.0  0.1184
  H  H33  1  0.157800  0.814900  0.940300  1.0  0.0953
  H  H34  1  0.953800  0.911800  0.012200  1.0  0.0893
  H  H35  1  0.595200  0.900800  0.096000  1.0  0.1074
  H  H36  1  0.280500  0.825800  0.161200  1.0  0.1155
  H  H37  1  0.902100  0.637400  0.298800  1.0  0.1325
  H  H38  1  0.701900  0.690600  0.407400  1.0  0.1161
  H  H39  1  0.640000  0.882500  0.310500  1.0  0.0946
  H  H40  1  0.834500  0.827000  0.202400  1.0  0.1075
  H  H41  1  0.742200  0.404100  0.811500  1.0  0.109
  H  H42  1  0.759600  0.472600  0.059600  1.0  0.4058
  H  H43  1  0.301200  0.367500  0.992500  1.0  0.1233
  H  H44  1  0.651400  0.293300  0.049100  1.0  0.1176
  H  H45  1  0.913000  0.185100  0.059700  1.0  0.095
  H  H46  1  0.877800  0.088200  0.987800  1.0  0.0887
  H  H47  1  0.592000  0.099200  0.904000  1.0  0.1065
  H  H48  1  0.267500  0.174200  0.838800  1.0  0.1156
  H  H49  1  0.838300  0.362600  0.701200  1.0  0.131
  H  H50  1  0.799900  0.309400  0.592600  1.0  0.1159
  H  H51  1  0.833000  0.117500  0.689500  1.0  0.0944
  H  H52  1  0.863900  0.173000  0.797600  1.0  0.1084
  C  C53  1  0.301060  0.835510  0.626370  1.0  0.2518
  C  C54  1  0.956420  0.909800  0.665160  1.0  0.1709
  C  C55  1  0.742170  0.962080  0.671380  1.0  -0.1875
  C  C56  1  0.577830  0.969100  0.737040  1.0  0.0453
  C  C57  1  0.343790  0.019700  0.745520  1.0  -0.1234
  C  C58  1  0.182550  0.025890  0.809610  1.0  -0.0935
  C  C59  1  0.246280  0.982340  0.867500  1.0  -0.0811
  C  C60  1  0.464870  0.932750  0.861110  1.0  -0.1353
  C  C61  1  0.636440  0.923350  0.795170  1.0  0.0509
  C  C62  1  0.854860  0.869590  0.787490  1.0  -0.1905
  C  C63  1  0.009030  0.863420  0.722720  1.0  0.0731
  C  C64  1  0.352590  0.754550  0.728670  1.0  0.167
  C  C65  1  0.455600  0.697900  0.687500  1.0  -0.1949
  C  C66  1  0.555100  0.634500  0.718300  1.0  -0.0002
  C  C67  1  0.576670  0.633900  0.793160  1.0  -0.1487
  C  C68  1  0.480320  0.691430  0.832330  1.0  -0.0278
  C  C69  1  0.383040  0.754900  0.800220  1.0  -0.1923
  C  C70  1  0.659200  0.562400  0.825800  1.0  0.6852
  C  C71  1  0.762940  0.164490  0.373630  1.0  0.2541
  C  C72  1  0.531380  0.090200  0.334840  1.0  0.1718
  C  C73  1  0.375630  0.037920  0.328620  1.0  -0.19
  C  C74  1  0.283970  0.030900  0.262960  1.0  0.0458
  C  C75  1  0.109010  0.980300  0.254480  1.0  -0.1233
  C  C76  1  0.018050  0.974110  0.190390  1.0  -0.0935
  C  C77  1  0.096120  0.017660  0.132500  1.0  -0.0823
  C  C78  1  0.258730  0.067250  0.138890  1.0  -0.1332
  C  C79  1  0.354960  0.076650  0.204830  1.0  0.0518
  C  C80  1  0.511940  0.130410  0.212510  1.0  -0.1925
  C  C81  1  0.595170  0.136580  0.277280  1.0  0.0735
  C  C82  1  0.835810  0.245450  0.271330  1.0  0.1681
  C  C83  1  0.841000  0.302100  0.312500  1.0  -0.1973
  C  C84  1  0.907900  0.365500  0.281700  1.0  0.0006
  C  C85  1  0.003730  0.366100  0.206840  1.0  -0.1469
  C  C86  1  0.004080  0.308570  0.167670  1.0  -0.0292
  C  C87  1  0.938160  0.245100  0.199780  1.0  -0.1924
  C  C88  1  0.047400  0.437600  0.174200  1.0  0.6826
  C  C89  1  0.072570  0.626370  0.164490  1.0  0.2532
  C  C90  1  0.378420  0.665160  0.090200  1.0  0.1706
  C  C91  1  0.586450  0.671380  0.037920  1.0  -0.1886
  C  C92  1  0.685130  0.737040  0.030900  1.0  0.0454
  C  C93  1  0.910690  0.745520  0.980300  1.0  -0.1235
  C  C94  1  0.007840  0.809610  0.974110  1.0  -0.0928
  C  C95  1  0.886220  0.867500  0.017660  1.0  -0.0796
  C  C96  1  0.674020  0.861110  0.067250  1.0  -0.135
  C  C97  1  0.568390  0.795170  0.076650  1.0  0.0514
  C  C98  1  0.357650  0.787490  0.130410  1.0  -0.194
  C  C99  1  0.268250  0.722720  0.136580  1.0  0.0741
  C  C100  1  0.918740  0.728670  0.245450  1.0  0.167
  C  C101  1  0.856900  0.687500  0.302100  1.0  -0.1982
  C  C102  1  0.726600  0.718300  0.365500  1.0  -0.0022
  C  C103  1  0.630170  0.793160  0.366100  1.0  -0.1517
  C  C104  1  0.687350  0.832330  0.308570  1.0  -0.028
  C  C105  1  0.816740  0.800220  0.245100  1.0  -0.1896
  C  C106  1  0.515000  0.825800  0.437600  1.0  0.6844
  C  C107  1  0.863430  0.373630  0.835510  1.0  0.2524
  C  C108  1  0.133780  0.334840  0.909800  1.0  0.1713
  C  C109  1  0.295750  0.328620  0.962080  1.0  -0.1889
  C  C110  1  0.453070  0.262960  0.969100  1.0  0.0453
  C  C111  1  0.636510  0.254480  0.019700  1.0  -0.1236
  C  C112  1  0.791560  0.190390  0.025890  1.0  -0.0929
  C  C113  1  0.771380  0.132500  0.982340  1.0  -0.0793
  C  C114  1  0.602380  0.138890  0.932750  1.0  -0.1331
  C  C115  1  0.440210  0.204830  0.923350  1.0  0.0517
  C  C116  1  0.275550  0.212510  0.869590  1.0  -0.1924
  C  C117  1  0.127550  0.277280  0.863420  1.0  0.0735
  C  C118  1  0.892860  0.271330  0.754550  1.0  0.166
  C  C119  1  0.846500  0.312500  0.697900  1.0  -0.1995
  C  C120  1  0.810400  0.281700  0.634500  1.0  0.0015
  C  C121  1  0.789430  0.206840  0.633900  1.0  -0.1493
  C  C122  1  0.828250  0.167670  0.691430  1.0  -0.0275
  C  C123  1  0.862060  0.199780  0.754900  1.0  -0.1904
  C  C124  1  0.778400  0.174200  0.562400  1.0  0.6849
  N  N125  1  0.147790  0.890020  0.606600  1.0  -0.4539
  N  N126  1  0.232970  0.816080  0.695580  1.0  -0.0508
  N  N127  1  0.644410  0.109980  0.393400  1.0  -0.4513
  N  N128  1  0.744630  0.183920  0.304420  1.0  -0.052
  N  N129  1  0.245610  0.606600  0.109980  1.0  -0.4513
  N  N130  1  0.071450  0.695580  0.183920  1.0  -0.0535
  N  N131  1  0.962190  0.393400  0.890020  1.0  -0.4536
  N  N132  1  0.950950  0.304420  0.816080  1.0  -0.0529
  O  O133  1  0.323620  0.029540  0.528820  1.0  -0.9338
  O  O134  1  0.635150  0.555410  0.887690  1.0  -0.6108
  O  O135  1  0.774960  0.511930  0.782750  1.0  -0.6473
  O  O136  1  0.881980  0.970460  0.471180  1.0  -0.9345
  O  O137  1  0.078250  0.444590  0.112310  1.0  -0.6113
  O  O138  1  0.069640  0.488070  0.217250  1.0  -0.6455
  O  O139  1  0.147560  0.528820  0.970460  1.0  -0.9334
  O  O140  1  0.477160  0.887690  0.444590  1.0  -0.611
  O  O141  1  0.442290  0.782750  0.488070  1.0  -0.6448
  O  O142  1  0.646840  0.471180  0.029540  1.0  -0.9348
  O  O143  1  0.809440  0.112310  0.555410  1.0  -0.6101
  O  O144  1  0.713110  0.217250  0.511930  1.0  -0.6503
