# generated using pymatgen
data_ZnH12C18N2O3
_symmetry_space_group_name_H-M   'P 1'
_cell_length_a   26.45730000
_cell_length_b   26.45730000
_cell_length_c   5.28540000
_cell_angle_alpha   90.00000000
_cell_angle_beta   90.00000000
_cell_angle_gamma   90.00000000
_symmetry_Int_Tables_number   1
_chemical_formula_structural   ZnH12C18N2O3
_chemical_formula_sum   'Zn8 H96 C144 N16 O24'
_cell_volume   3699.72039808
_cell_formula_units_Z   8
loop_
 _symmetry_equiv_pos_site_id
 _symmetry_equiv_pos_as_xyz
  1  'x, y, z'
loop_
 _atom_site_type_symbol
 _atom_site_label
 _atom_site_symmetry_multiplicity
 _atom_site_fract_x
 _atom_site_fract_y
 _atom_site_fract_z
 _atom_site_occupancy
 _atom_site_charge
  Zn  Zn1  1  0.285150  0.773800  0.084180  1.0  0.9965
  Zn  Zn2  1  0.785150  0.273800  0.584180  1.0  0.9965
  Zn  Zn3  1  0.714850  0.226200  0.084180  1.0  0.9968
  Zn  Zn4  1  0.214850  0.726200  0.584180  1.0  0.9968
  Zn  Zn5  1  0.773800  0.714850  0.915820  1.0  0.9966
  Zn  Zn6  1  0.273800  0.214850  0.415820  1.0  0.9966
  Zn  Zn7  1  0.226200  0.285150  0.915820  1.0  0.9955
  Zn  Zn8  1  0.726200  0.785150  0.415820  1.0  0.9955
  H  H9  1  0.392800  0.794900  0.859100  1.0  0.1044
  H  H10  1  0.320800  0.687300  0.475700  1.0  0.1285
  H  H11  1  0.830300  0.122200  0.313500  1.0  0.1212
  H  H12  1  0.878900  0.064300  0.521700  1.0  0.1007
  H  H13  1  0.463000  0.551900  0.903900  1.0  0.1005
  H  H14  1  0.499100  0.599300  0.595600  1.0  0.1176
  H  H15  1  0.493700  0.667700  0.280100  1.0  0.1222
  H  H16  1  0.470300  0.830800  0.890500  1.0  0.1222
  H  H17  1  0.550500  0.858700  0.764800  1.0  0.1288
  H  H18  1  0.596000  0.714300  0.724900  1.0  0.1002
  H  H19  1  0.515100  0.688200  0.851600  1.0  0.1076
  H  H20  1  0.314470  0.254070  0.090500  1.0  0.1965
  H  H21  1  0.892800  0.294900  0.359100  1.0  0.1044
  H  H22  1  0.820800  0.187300  0.975700  1.0  0.1285
  H  H23  1  0.330300  0.622200  0.813500  1.0  0.1212
  H  H24  1  0.378900  0.564300  0.021700  1.0  0.1008
  H  H25  1  0.963000  0.051900  0.403900  1.0  0.1005
  H  H26  1  0.999100  0.099300  0.095600  1.0  0.1176
  H  H27  1  0.993700  0.167700  0.780100  1.0  0.1222
  H  H28  1  0.970300  0.330800  0.390500  1.0  0.1222
  H  H29  1  0.050500  0.358700  0.264800  1.0  0.1288
  H  H30  1  0.096000  0.214300  0.224900  1.0  0.0996
  H  H31  1  0.015100  0.188200  0.351600  1.0  0.1076
  H  H32  1  0.814470  0.754070  0.590500  1.0  0.1965
  H  H33  1  0.607200  0.205100  0.859100  1.0  0.1051
  H  H34  1  0.679200  0.312700  0.475700  1.0  0.1286
  H  H35  1  0.169700  0.877800  0.313500  1.0  0.1215
  H  H36  1  0.121100  0.935700  0.521700  1.0  0.1005
  H  H37  1  0.537000  0.448100  0.903900  1.0  0.1005
  H  H38  1  0.500900  0.400700  0.595600  1.0  0.1181
  H  H39  1  0.506300  0.332300  0.280100  1.0  0.122
  H  H40  1  0.529700  0.169200  0.890500  1.0  0.1228
  H  H41  1  0.449500  0.141300  0.764800  1.0  0.129
  H  H42  1  0.404000  0.285700  0.724900  1.0  0.1
  H  H43  1  0.484900  0.311800  0.851600  1.0  0.1081
  H  H44  1  0.685530  0.745930  0.090500  1.0  0.1979
  H  H45  1  0.107200  0.705100  0.359100  1.0  0.1051
  H  H46  1  0.179200  0.812700  0.975700  1.0  0.1286
  H  H47  1  0.669700  0.377800  0.813500  1.0  0.1215
  H  H48  1  0.621100  0.435700  0.021700  1.0  0.1006
  H  H49  1  0.037000  0.948100  0.403900  1.0  0.1005
  H  H50  1  0.000900  0.900700  0.095600  1.0  0.1181
  H  H51  1  0.006300  0.832300  0.780100  1.0  0.122
  H  H52  1  0.029700  0.669200  0.390500  1.0  0.1228
  H  H53  1  0.949500  0.641300  0.264800  1.0  0.129
  H  H54  1  0.904000  0.785700  0.224900  1.0  0.0994
  H  H55  1  0.984900  0.811800  0.351600  1.0  0.1081
  H  H56  1  0.185530  0.245930  0.590500  1.0  0.1979
  H  H57  1  0.794900  0.607200  0.140900  1.0  0.105
  H  H58  1  0.687300  0.679200  0.524300  1.0  0.1298
  H  H59  1  0.122200  0.169700  0.686500  1.0  0.1197
  H  H60  1  0.064300  0.121100  0.478300  1.0  0.1005
  H  H61  1  0.551900  0.537000  0.096100  1.0  0.1002
  H  H62  1  0.599300  0.500900  0.404400  1.0  0.1168
  H  H63  1  0.667700  0.506300  0.719900  1.0  0.1217
  H  H64  1  0.830800  0.529700  0.109500  1.0  0.1221
  H  H65  1  0.858700  0.449500  0.235200  1.0  0.1295
  H  H66  1  0.714300  0.404000  0.275100  1.0  0.0997
  H  H67  1  0.688200  0.484900  0.148400  1.0  0.1088
  H  H68  1  0.254070  0.685530  0.909500  1.0  0.1987
  H  H69  1  0.294900  0.107200  0.640900  1.0  0.105
  H  H70  1  0.187300  0.179200  0.024300  1.0  0.1298
  H  H71  1  0.622200  0.669700  0.186500  1.0  0.1197
  H  H72  1  0.564300  0.621100  0.978300  1.0  0.0991
  H  H73  1  0.051900  0.037000  0.596100  1.0  0.1002
  H  H74  1  0.099300  0.000900  0.904400  1.0  0.1168
  H  H75  1  0.167700  0.006300  0.219900  1.0  0.1217
  H  H76  1  0.330800  0.029700  0.609500  1.0  0.1221
  H  H77  1  0.358700  0.949500  0.735200  1.0  0.1295
  H  H78  1  0.214300  0.904000  0.775100  1.0  0.0997
  H  H79  1  0.188200  0.984900  0.648400  1.0  0.1088
  H  H80  1  0.754070  0.185530  0.409500  1.0  0.1987
  H  H81  1  0.205100  0.392800  0.140900  1.0  0.1054
  H  H82  1  0.312700  0.320800  0.524300  1.0  0.1295
  H  H83  1  0.877800  0.830300  0.686500  1.0  0.1201
  H  H84  1  0.935700  0.878900  0.478300  1.0  0.1002
  H  H85  1  0.448100  0.463000  0.096100  1.0  0.1002
  H  H86  1  0.400700  0.499100  0.404400  1.0  0.1164
  H  H87  1  0.332300  0.493700  0.719900  1.0  0.1216
  H  H88  1  0.169200  0.470300  0.109500  1.0  0.1211
  H  H89  1  0.141300  0.550500  0.235200  1.0  0.1296
  H  H90  1  0.285700  0.596000  0.275100  1.0  0.099
  H  H91  1  0.311800  0.515100  0.148400  1.0  0.108
  H  H92  1  0.745930  0.314470  0.909500  1.0  0.1969
  H  H93  1  0.705100  0.892800  0.640900  1.0  0.1054
  H  H94  1  0.812700  0.820800  0.024300  1.0  0.1295
  H  H95  1  0.377800  0.330300  0.186500  1.0  0.1201
  H  H96  1  0.435700  0.378900  0.978300  1.0  0.0988
  H  H97  1  0.948100  0.963000  0.596100  1.0  0.1002
  H  H98  1  0.900700  0.999100  0.904400  1.0  0.1164
  H  H99  1  0.832300  0.993700  0.219900  1.0  0.1216
  H  H100  1  0.669200  0.970300  0.609500  1.0  0.1211
  H  H101  1  0.641300  0.050500  0.735200  1.0  0.1296
  H  H102  1  0.785700  0.096000  0.775100  1.0  0.099
  H  H103  1  0.811800  0.015100  0.648400  1.0  0.108
  H  H104  1  0.245930  0.814470  0.409500  1.0  0.1969
  C  C105  1  0.395960  0.768430  0.974000  1.0  0.2396
  C  C106  1  0.378100  0.712480  0.258900  1.0  0.1776
  C  C107  1  0.354940  0.683280  0.438800  1.0  -0.1624
  C  C108  1  0.384370  0.646910  0.566200  1.0  0.0374
  C  C109  1  0.863880  0.117690  0.266700  1.0  -0.1147
  C  C110  1  0.892740  0.083300  0.390700  1.0  -0.0881
  C  C111  1  0.443800  0.576290  0.821200  1.0  -0.0725
  C  C112  1  0.465300  0.604290  0.636800  1.0  -0.1359
  C  C113  1  0.436590  0.641490  0.504900  1.0  0.0575
  C  C114  1  0.459720  0.671700  0.320800  1.0  -0.1887
  C  C115  1  0.430370  0.707490  0.202400  1.0  0.0821
  C  C116  1  0.487960  0.758350  0.916800  1.0  0.1597
  C  C117  1  0.496300  0.807700  0.868000  1.0  -0.1573
  C  C118  1  0.543300  0.824500  0.784000  1.0  -0.0349
  C  C119  1  0.580690  0.785510  0.726300  1.0  -0.1391
  C  C120  1  0.571100  0.738200  0.758400  1.0  -0.0368
  C  C121  1  0.523100  0.722400  0.844100  1.0  -0.1791
  C  C122  1  0.631700  0.800900  0.625000  1.0  0.3909
  C  C123  1  0.895960  0.268430  0.474000  1.0  0.2396
  C  C124  1  0.878100  0.212480  0.758900  1.0  0.1776
  C  C125  1  0.854940  0.183280  0.938800  1.0  -0.1634
  C  C126  1  0.884370  0.146910  0.066200  1.0  0.0374
  C  C127  1  0.363880  0.617690  0.766700  1.0  -0.1156
  C  C128  1  0.392740  0.583300  0.890700  1.0  -0.0879
  C  C129  1  0.943800  0.076290  0.321200  1.0  -0.0725
  C  C130  1  0.965300  0.104290  0.136800  1.0  -0.1443
  C  C131  1  0.936590  0.141490  0.004900  1.0  0.0575
  C  C132  1  0.959720  0.171700  0.820800  1.0  -0.1887
  C  C133  1  0.930370  0.207490  0.702400  1.0  0.0821
  C  C134  1  0.987960  0.258350  0.416800  1.0  0.1597
  C  C135  1  0.996300  0.307700  0.368000  1.0  -0.1573
  C  C136  1  0.043300  0.324500  0.284000  1.0  -0.0349
  C  C137  1  0.080690  0.285510  0.226300  1.0  -0.1391
  C  C138  1  0.071100  0.238200  0.258400  1.0  -0.0368
  C  C139  1  0.023100  0.222400  0.344100  1.0  -0.1791
  C  C140  1  0.131700  0.300900  0.125000  1.0  0.3909
  C  C141  1  0.604040  0.231570  0.974000  1.0  0.2398
  C  C142  1  0.621900  0.287520  0.258900  1.0  0.1764
  C  C143  1  0.645060  0.316720  0.438800  1.0  -0.1626
  C  C144  1  0.615630  0.353090  0.566200  1.0  0.0375
  C  C145  1  0.136120  0.882310  0.266700  1.0  -0.1154
  C  C146  1  0.107260  0.916700  0.390700  1.0  -0.0881
  C  C147  1  0.556200  0.423710  0.821200  1.0  -0.0732
  C  C148  1  0.534700  0.395710  0.636800  1.0  -0.1347
  C  C149  1  0.563410  0.358510  0.504900  1.0  0.0569
  C  C150  1  0.540280  0.328300  0.320800  1.0  -0.1897
  C  C151  1  0.569630  0.292510  0.202400  1.0  0.0818
  C  C152  1  0.512040  0.241650  0.916800  1.0  0.1624
  C  C153  1  0.503700  0.192300  0.868000  1.0  -0.1603
  C  C154  1  0.456700  0.175500  0.784000  1.0  -0.0329
  C  C155  1  0.419310  0.214490  0.726300  1.0  -0.1385
  C  C156  1  0.428900  0.261800  0.758400  1.0  -0.036
  C  C157  1  0.476900  0.277600  0.844100  1.0  -0.1761
  C  C158  1  0.368300  0.199100  0.625000  1.0  0.3897
  C  C159  1  0.104040  0.731570  0.474000  1.0  0.2398
  C  C160  1  0.121900  0.787520  0.758900  1.0  0.1764
  C  C161  1  0.145060  0.816720  0.938800  1.0  -0.1633
  C  C162  1  0.115630  0.853090  0.066200  1.0  0.0375
  C  C163  1  0.636120  0.382310  0.766700  1.0  -0.1162
  C  C164  1  0.607260  0.416700  0.890700  1.0  -0.088
  C  C165  1  0.056200  0.923710  0.321200  1.0  -0.0732
  C  C166  1  0.034700  0.895710  0.136800  1.0  -0.1435
  C  C167  1  0.063410  0.858510  0.004900  1.0  0.0569
  C  C168  1  0.040280  0.828300  0.820800  1.0  -0.1897
  C  C169  1  0.069630  0.792510  0.702400  1.0  0.0818
  C  C170  1  0.012040  0.741650  0.416800  1.0  0.1624
  C  C171  1  0.003700  0.692300  0.368000  1.0  -0.1603
  C  C172  1  0.956700  0.675500  0.284000  1.0  -0.0329
  C  C173  1  0.919310  0.714490  0.226300  1.0  -0.1385
  C  C174  1  0.928900  0.761800  0.258400  1.0  -0.036
  C  C175  1  0.976900  0.777600  0.344100  1.0  -0.1761
  C  C176  1  0.868300  0.699100  0.125000  1.0  0.3897
  C  C177  1  0.768430  0.604040  0.026000  1.0  0.2407
  C  C178  1  0.712480  0.621900  0.741100  1.0  0.177
  C  C179  1  0.683280  0.645060  0.561200  1.0  -0.1627
  C  C180  1  0.646910  0.615630  0.433800  1.0  0.0396
  C  C181  1  0.117690  0.136120  0.733300  1.0  -0.1143
  C  C182  1  0.083300  0.107260  0.609300  1.0  -0.0902
  C  C183  1  0.576290  0.556200  0.178800  1.0  -0.0728
  C  C184  1  0.604290  0.534700  0.363200  1.0  -0.1357
  C  C185  1  0.641490  0.563410  0.495100  1.0  0.0571
  C  C186  1  0.671700  0.540280  0.679200  1.0  -0.1899
  C  C187  1  0.707490  0.569630  0.797600  1.0  0.0827
  C  C188  1  0.758350  0.512040  0.083200  1.0  0.1655
  C  C189  1  0.807700  0.503700  0.132000  1.0  -0.1545
  C  C190  1  0.824500  0.456700  0.216000  1.0  -0.0403
  C  C191  1  0.785510  0.419310  0.273700  1.0  -0.1425
  C  C192  1  0.738200  0.428900  0.241600  1.0  -0.0333
  C  C193  1  0.722400  0.476900  0.155900  1.0  -0.176
  C  C194  1  0.800900  0.368300  0.375000  1.0  0.392
  C  C195  1  0.268430  0.104040  0.526000  1.0  0.2407
  C  C196  1  0.212480  0.121900  0.241100  1.0  0.177
  C  C197  1  0.183280  0.145060  0.061200  1.0  -0.1633
  C  C198  1  0.146910  0.115630  0.933800  1.0  0.0396
  C  C199  1  0.617690  0.636120  0.233300  1.0  -0.1151
  C  C200  1  0.583300  0.607260  0.109300  1.0  -0.0901
  C  C201  1  0.076290  0.056200  0.678800  1.0  -0.0728
  C  C202  1  0.104290  0.034700  0.863200  1.0  -0.1445
  C  C203  1  0.141490  0.063410  0.995100  1.0  0.0571
  C  C204  1  0.171700  0.040280  0.179200  1.0  -0.1899
  C  C205  1  0.207490  0.069630  0.297600  1.0  0.0827
  C  C206  1  0.258350  0.012040  0.583200  1.0  0.1655
  C  C207  1  0.307700  0.003700  0.632000  1.0  -0.1545
  C  C208  1  0.324500  0.956700  0.716000  1.0  -0.0403
  C  C209  1  0.285510  0.919310  0.773700  1.0  -0.1425
  C  C210  1  0.238200  0.928900  0.741600  1.0  -0.0333
  C  C211  1  0.222400  0.976900  0.655900  1.0  -0.176
  C  C212  1  0.300900  0.868300  0.875000  1.0  0.392
  C  C213  1  0.231570  0.395960  0.026000  1.0  0.2408
  C  C214  1  0.287520  0.378100  0.741100  1.0  0.178
  C  C215  1  0.316720  0.354940  0.561200  1.0  -0.162
  C  C216  1  0.353090  0.384370  0.433800  1.0  0.0397
  C  C217  1  0.882310  0.863880  0.733300  1.0  -0.1143
  C  C218  1  0.916700  0.892740  0.609300  1.0  -0.0904
  C  C219  1  0.423710  0.443800  0.178800  1.0  -0.0725
  C  C220  1  0.395710  0.465300  0.363200  1.0  -0.1353
  C  C221  1  0.358510  0.436590  0.495100  1.0  0.0577
  C  C222  1  0.328300  0.459720  0.679200  1.0  -0.1916
  C  C223  1  0.292510  0.430370  0.797600  1.0  0.0828
  C  C224  1  0.241650  0.487960  0.083200  1.0  0.1632
  C  C225  1  0.192300  0.496300  0.132000  1.0  -0.1555
  C  C226  1  0.175500  0.543300  0.216000  1.0  -0.0407
  C  C227  1  0.214490  0.580690  0.273700  1.0  -0.1438
  C  C228  1  0.261800  0.571100  0.241600  1.0  -0.0375
  C  C229  1  0.277600  0.523100  0.155900  1.0  -0.1776
  C  C230  1  0.199100  0.631700  0.375000  1.0  0.3948
  C  C231  1  0.731570  0.895960  0.526000  1.0  0.2408
  C  C232  1  0.787520  0.878100  0.241100  1.0  0.178
  C  C233  1  0.816720  0.854940  0.061200  1.0  -0.1629
  C  C234  1  0.853090  0.884370  0.933800  1.0  0.0397
  C  C235  1  0.382310  0.363880  0.233300  1.0  -0.1151
  C  C236  1  0.416700  0.392740  0.109300  1.0  -0.0902
  C  C237  1  0.923710  0.943800  0.678800  1.0  -0.0725
  C  C238  1  0.895710  0.965300  0.863200  1.0  -0.144
  C  C239  1  0.858510  0.936590  0.995100  1.0  0.0577
  C  C240  1  0.828300  0.959720  0.179200  1.0  -0.1916
  C  C241  1  0.792510  0.930370  0.297600  1.0  0.0828
  C  C242  1  0.741650  0.987960  0.583200  1.0  0.1632
  C  C243  1  0.692300  0.996300  0.632000  1.0  -0.1555
  C  C244  1  0.675500  0.043300  0.716000  1.0  -0.0407
  C  C245  1  0.714490  0.080690  0.773700  1.0  -0.1438
  C  C246  1  0.761800  0.071100  0.741600  1.0  -0.0375
  C  C247  1  0.777600  0.023100  0.655900  1.0  -0.1776
  C  C248  1  0.699100  0.131700  0.875000  1.0  0.3948
  N  N249  1  0.358420  0.751200  0.107700  1.0  -0.4104
  N  N250  1  0.440140  0.743930  0.019300  1.0  -0.0307
  N  N251  1  0.858420  0.251200  0.607700  1.0  -0.4104
  N  N252  1  0.940140  0.243930  0.519300  1.0  -0.0307
  N  N253  1  0.641580  0.248800  0.107700  1.0  -0.4118
  N  N254  1  0.559860  0.256070  0.019300  1.0  -0.0299
  N  N255  1  0.141580  0.748800  0.607700  1.0  -0.4118
  N  N256  1  0.059860  0.756070  0.519300  1.0  -0.0299
  N  N257  1  0.751200  0.641580  0.892300  1.0  -0.4106
  N  N258  1  0.743930  0.559860  0.980700  1.0  -0.0325
  N  N259  1  0.251200  0.141580  0.392300  1.0  -0.4106
  N  N260  1  0.243930  0.059860  0.480700  1.0  -0.0325
  N  N261  1  0.248800  0.358420  0.892300  1.0  -0.4079
  N  N262  1  0.256070  0.440140  0.980700  1.0  -0.0324
  N  N263  1  0.748800  0.858420  0.392300  1.0  -0.4079
  N  N264  1  0.756070  0.940140  0.480700  1.0  -0.0324
  O  O265  1  0.253490  0.776670  0.409500  1.0  -0.7328
  O  O266  1  0.665210  0.777110  0.620000  1.0  -0.5281
  O  O267  1  0.635600  0.852700  0.596000  1.0  -0.5774
  O  O268  1  0.753490  0.276670  0.909500  1.0  -0.7328
  O  O269  1  0.165210  0.277110  0.120000  1.0  -0.5281
  O  O270  1  0.135600  0.352700  0.096000  1.0  -0.5774
  O  O271  1  0.746510  0.223330  0.409500  1.0  -0.7365
  O  O272  1  0.334790  0.222890  0.620000  1.0  -0.5279
  O  O273  1  0.364400  0.147300  0.596000  1.0  -0.576
  O  O274  1  0.246510  0.723330  0.909500  1.0  -0.7365
  O  O275  1  0.834790  0.722890  0.120000  1.0  -0.5279
  O  O276  1  0.864400  0.647300  0.096000  1.0  -0.576
  O  O277  1  0.776670  0.746510  0.590500  1.0  -0.735
  O  O278  1  0.777110  0.334790  0.380000  1.0  -0.5269
  O  O279  1  0.852700  0.364400  0.404000  1.0  -0.5745
  O  O280  1  0.276670  0.246510  0.090500  1.0  -0.735
  O  O281  1  0.277110  0.834790  0.880000  1.0  -0.5269
  O  O282  1  0.352700  0.864400  0.904000  1.0  -0.5745
  O  O283  1  0.223330  0.253490  0.590500  1.0  -0.7346
  O  O284  1  0.222890  0.665210  0.380000  1.0  -0.5295
  O  O285  1  0.147300  0.635600  0.404000  1.0  -0.5736
  O  O286  1  0.723330  0.753490  0.090500  1.0  -0.7346
  O  O287  1  0.722890  0.165210  0.880000  1.0  -0.5295
  O  O288  1  0.647300  0.135600  0.904000  1.0  -0.5736
