# generated using pymatgen
data_ZnH12C18N2O3
_symmetry_space_group_name_H-M   'P 1'
_cell_length_a   26.77200000
_cell_length_b   26.77200000
_cell_length_c   5.06620000
_cell_angle_alpha   90.00000000
_cell_angle_beta   90.00000000
_cell_angle_gamma   90.00000000
_symmetry_Int_Tables_number   1
_chemical_formula_structural   ZnH12C18N2O3
_chemical_formula_sum   'Zn8 H96 C144 N16 O24'
_cell_volume   3631.14810694
_cell_formula_units_Z   8
loop_
 _symmetry_equiv_pos_site_id
 _symmetry_equiv_pos_as_xyz
  1  'x, y, z'
loop_
 _atom_site_type_symbol
 _atom_site_label
 _atom_site_symmetry_multiplicity
 _atom_site_fract_x
 _atom_site_fract_y
 _atom_site_fract_z
 _atom_site_occupancy
 _atom_site_charge
  Zn  Zn1  1  0.213080  0.229220  0.708290  1.0  0.9959
  Zn  Zn2  1  0.713080  0.729220  0.208290  1.0  0.9959
  Zn  Zn3  1  0.786920  0.770780  0.708290  1.0  0.9952
  Zn  Zn4  1  0.286920  0.270780  0.208290  1.0  0.9952
  Zn  Zn5  1  0.229220  0.786920  0.291710  1.0  0.9938
  Zn  Zn6  1  0.729220  0.286920  0.791710  1.0  0.9938
  Zn  Zn7  1  0.770780  0.213080  0.291710  1.0  0.9956
  Zn  Zn8  1  0.270780  0.713080  0.791710  1.0  0.9956
  H  H9  1  0.106600  0.207700  0.941900  1.0  0.1
  H  H10  1  0.180100  0.312600  0.290500  1.0  0.1142
  H  H11  1  0.172400  0.378200  0.943700  1.0  0.0922
  H  H12  1  0.124200  0.435900  0.712200  1.0  0.0981
  H  H13  1  0.039300  0.447400  0.824300  1.0  0.0895
  H  H14  1  0.002400  0.400400  0.147500  1.0  0.0997
  H  H15  1  0.006700  0.331200  0.479100  1.0  0.1152
  H  H16  1  0.037700  0.222500  0.214200  1.0  0.1068
  H  H17  1  0.959500  0.200900  0.394300  1.0  0.1048
  H  H18  1  0.892400  0.237500  0.707600  1.0  0.114
  H  H19  1  0.970400  0.256700  0.523800  1.0  0.0947
  H  H20  1  0.318500  0.756670  0.113900  1.0  0.3486
  H  H21  1  0.606600  0.707700  0.441900  1.0  0.1
  H  H22  1  0.680100  0.812600  0.790500  1.0  0.1142
  H  H23  1  0.672400  0.878200  0.443700  1.0  0.0928
  H  H24  1  0.624200  0.935900  0.212200  1.0  0.0981
  H  H25  1  0.539300  0.947400  0.324300  1.0  0.0895
  H  H26  1  0.502400  0.900400  0.647500  1.0  0.0997
  H  H27  1  0.506700  0.831200  0.979100  1.0  0.1152
  H  H28  1  0.537700  0.722500  0.714200  1.0  0.1068
  H  H29  1  0.459500  0.700900  0.894300  1.0  0.1048
  H  H30  1  0.392400  0.737500  0.207600  1.0  0.114
  H  H31  1  0.470400  0.756700  0.023800  1.0  0.0947
  H  H32  1  0.818500  0.256670  0.613900  1.0  0.3486
  H  H33  1  0.893400  0.792300  0.941900  1.0  0.0997
  H  H34  1  0.819900  0.687400  0.290500  1.0  0.1148
  H  H35  1  0.827600  0.621800  0.943700  1.0  0.0925
  H  H36  1  0.875800  0.564100  0.712200  1.0  0.0979
  H  H37  1  0.960700  0.552600  0.824300  1.0  0.0888
  H  H38  1  0.997600  0.599600  0.147500  1.0  0.0993
  H  H39  1  0.993300  0.668800  0.479100  1.0  0.1152
  H  H40  1  0.962300  0.777500  0.214200  1.0  0.108
  H  H41  1  0.040500  0.799100  0.394300  1.0  0.1045
  H  H42  1  0.107600  0.762500  0.707600  1.0  0.1134
  H  H43  1  0.029600  0.743300  0.523800  1.0  0.0951
  H  H44  1  0.681500  0.243330  0.113900  1.0  0.3502
  H  H45  1  0.393400  0.292300  0.441900  1.0  0.0997
  H  H46  1  0.319900  0.187400  0.790500  1.0  0.1148
  H  H47  1  0.327600  0.121800  0.443700  1.0  0.093
  H  H48  1  0.375800  0.064100  0.212200  1.0  0.0979
  H  H49  1  0.460700  0.052600  0.324300  1.0  0.0888
  H  H50  1  0.497600  0.099600  0.647500  1.0  0.0993
  H  H51  1  0.493300  0.168800  0.979100  1.0  0.1152
  H  H52  1  0.462300  0.277500  0.714200  1.0  0.108
  H  H53  1  0.540500  0.299100  0.894300  1.0  0.1045
  H  H54  1  0.607600  0.262500  0.207600  1.0  0.1134
  H  H55  1  0.529600  0.243300  0.023800  1.0  0.0951
  H  H56  1  0.181500  0.743330  0.613900  1.0  0.3502
  H  H57  1  0.207700  0.893400  0.058100  1.0  0.0998
  H  H58  1  0.312600  0.819900  0.709500  1.0  0.1148
  H  H59  1  0.378200  0.827600  0.056300  1.0  0.0931
  H  H60  1  0.435900  0.875800  0.287800  1.0  0.0978
  H  H61  1  0.447400  0.960700  0.175700  1.0  0.0888
  H  H62  1  0.400400  0.997600  0.852500  1.0  0.0999
  H  H63  1  0.331200  0.993300  0.520900  1.0  0.1157
  H  H64  1  0.222500  0.962300  0.785800  1.0  0.1037
  H  H65  1  0.200900  0.040500  0.605700  1.0  0.1047
  H  H66  1  0.237500  0.107600  0.292400  1.0  0.1149
  H  H67  1  0.256700  0.029600  0.476200  1.0  0.0949
  H  H68  1  0.756670  0.681500  0.886100  1.0  0.3509
  H  H69  1  0.707700  0.393400  0.558100  1.0  0.0998
  H  H70  1  0.812600  0.319900  0.209500  1.0  0.1148
  H  H71  1  0.878200  0.327600  0.556300  1.0  0.0922
  H  H72  1  0.935900  0.375800  0.787800  1.0  0.0978
  H  H73  1  0.947400  0.460700  0.675700  1.0  0.0888
  H  H74  1  0.900400  0.497600  0.352500  1.0  0.0999
  H  H75  1  0.831200  0.493300  0.020900  1.0  0.1157
  H  H76  1  0.722500  0.462300  0.285800  1.0  0.1037
  H  H77  1  0.700900  0.540500  0.105700  1.0  0.1047
  H  H78  1  0.737500  0.607600  0.792400  1.0  0.1149
  H  H79  1  0.756700  0.529600  0.976200  1.0  0.0949
  H  H80  1  0.256670  0.181500  0.386100  1.0  0.3509
  H  H81  1  0.792300  0.106600  0.058100  1.0  0.0993
  H  H82  1  0.687400  0.180100  0.709500  1.0  0.1152
  H  H83  1  0.621800  0.172400  0.056300  1.0  0.0928
  H  H84  1  0.564100  0.124200  0.287800  1.0  0.0975
  H  H85  1  0.552600  0.039300  0.175700  1.0  0.0895
  H  H86  1  0.599600  0.002400  0.852500  1.0  0.1003
  H  H87  1  0.668800  0.006700  0.520900  1.0  0.1161
  H  H88  1  0.777500  0.037700  0.785800  1.0  0.1046
  H  H89  1  0.799100  0.959500  0.605700  1.0  0.1035
  H  H90  1  0.762500  0.892400  0.292400  1.0  0.1145
  H  H91  1  0.743300  0.970400  0.476200  1.0  0.0935
  H  H92  1  0.243330  0.318500  0.886100  1.0  0.3498
  H  H93  1  0.292300  0.606600  0.558100  1.0  0.0993
  H  H94  1  0.187400  0.680100  0.209500  1.0  0.1152
  H  H95  1  0.121800  0.672400  0.556300  1.0  0.092
  H  H96  1  0.064100  0.624200  0.787800  1.0  0.0975
  H  H97  1  0.052600  0.539300  0.675700  1.0  0.0895
  H  H98  1  0.099600  0.502400  0.352500  1.0  0.1003
  H  H99  1  0.168800  0.506700  0.020900  1.0  0.1161
  H  H100  1  0.277500  0.537700  0.285800  1.0  0.1046
  H  H101  1  0.299100  0.459500  0.105700  1.0  0.1035
  H  H102  1  0.262500  0.392400  0.792400  1.0  0.1145
  H  H103  1  0.243300  0.470400  0.976200  1.0  0.0935
  H  H104  1  0.743330  0.818500  0.386100  1.0  0.3498
  C  C105  1  0.103680  0.233770  0.815700  1.0  0.2024
  C  C106  1  0.121920  0.288240  0.514600  1.0  0.1564
  C  C107  1  0.145530  0.316700  0.326200  1.0  -0.1409
  C  C108  1  0.116670  0.352180  0.187600  1.0  0.0355
  C  C109  1  0.138000  0.382040  0.985900  1.0  -0.1271
  C  C110  1  0.109570  0.416640  0.849400  1.0  -0.0996
  C  C111  1  0.058560  0.423100  0.915600  1.0  -0.0826
  C  C112  1  0.036630  0.395270  0.107000  1.0  -0.1392
  C  C113  1  0.064370  0.358200  0.248700  1.0  0.0392
  C  C114  1  0.041260  0.327860  0.439400  1.0  -0.198
  C  C115  1  0.070510  0.293100  0.566400  1.0  0.0649
  C  C116  1  0.011950  0.242390  0.860600  1.0  0.1379
  C  C117  1  0.919520  0.213810  0.050600  1.0  -0.0918
  C  C118  1  0.869810  0.198910  0.164400  1.0  0.5645
  C  C119  1  0.008500  0.225300  0.109300  1.0  -0.2071
  C  C120  1  0.962200  0.211500  0.215900  1.0  -0.0333
  C  C121  1  0.922000  0.232800  0.807700  1.0  -0.0556
  C  C122  1  0.968100  0.245700  0.701700  1.0  -0.165
  C  C123  1  0.603680  0.733770  0.315700  1.0  0.2024
  C  C124  1  0.621920  0.788240  0.014600  1.0  0.1564
  C  C125  1  0.645530  0.816700  0.826200  1.0  -0.1409
  C  C126  1  0.616670  0.852180  0.687600  1.0  0.0355
  C  C127  1  0.638000  0.882040  0.485900  1.0  -0.1271
  C  C128  1  0.609570  0.916640  0.349400  1.0  -0.0996
  C  C129  1  0.558560  0.923100  0.415600  1.0  -0.0826
  C  C130  1  0.536630  0.895270  0.607000  1.0  -0.1392
  C  C131  1  0.564370  0.858200  0.748700  1.0  0.0392
  C  C132  1  0.541260  0.827860  0.939400  1.0  -0.198
  C  C133  1  0.570510  0.793100  0.066400  1.0  0.0649
  C  C134  1  0.511950  0.742390  0.360600  1.0  0.1379
  C  C135  1  0.419520  0.713810  0.550600  1.0  -0.0918
  C  C136  1  0.369810  0.698910  0.664400  1.0  0.5645
  C  C137  1  0.508500  0.725300  0.609300  1.0  -0.2071
  C  C138  1  0.462200  0.711500  0.715900  1.0  -0.0333
  C  C139  1  0.422000  0.732800  0.307700  1.0  -0.0556
  C  C140  1  0.468100  0.745700  0.201700  1.0  -0.165
  C  C141  1  0.896320  0.766230  0.815700  1.0  0.2029
  C  C142  1  0.878080  0.711760  0.514600  1.0  0.1559
  C  C143  1  0.854470  0.683300  0.326200  1.0  -0.1387
  C  C144  1  0.883330  0.647820  0.187600  1.0  0.0353
  C  C145  1  0.862000  0.617960  0.985900  1.0  -0.1251
  C  C146  1  0.890430  0.583360  0.849400  1.0  -0.0989
  C  C147  1  0.941440  0.576900  0.915600  1.0  -0.0822
  C  C148  1  0.963370  0.604730  0.107000  1.0  -0.1419
  C  C149  1  0.935630  0.641800  0.248700  1.0  0.0397
  C  C150  1  0.958740  0.672140  0.439400  1.0  -0.1965
  C  C151  1  0.929490  0.706900  0.566400  1.0  0.0652
  C  C152  1  0.988050  0.757610  0.860600  1.0  0.1376
  C  C153  1  0.080480  0.786190  0.050600  1.0  -0.092
  C  C154  1  0.130190  0.801090  0.164400  1.0  0.5649
  C  C155  1  0.991500  0.774700  0.109300  1.0  -0.2066
  C  C156  1  0.037800  0.788500  0.215900  1.0  -0.0322
  C  C157  1  0.078000  0.767200  0.807700  1.0  -0.0562
  C  C158  1  0.031900  0.754300  0.701700  1.0  -0.1654
  C  C159  1  0.396320  0.266230  0.315700  1.0  0.2029
  C  C160  1  0.378080  0.211760  0.014600  1.0  0.1559
  C  C161  1  0.354470  0.183300  0.826200  1.0  -0.1387
  C  C162  1  0.383330  0.147820  0.687600  1.0  0.0353
  C  C163  1  0.362000  0.117960  0.485900  1.0  -0.1251
  C  C164  1  0.390430  0.083360  0.349400  1.0  -0.0989
  C  C165  1  0.441440  0.076900  0.415600  1.0  -0.0822
  C  C166  1  0.463370  0.104730  0.607000  1.0  -0.1419
  C  C167  1  0.435630  0.141800  0.748700  1.0  0.0397
  C  C168  1  0.458740  0.172140  0.939400  1.0  -0.1965
  C  C169  1  0.429490  0.206900  0.066400  1.0  0.0652
  C  C170  1  0.488050  0.257610  0.360600  1.0  0.1376
  C  C171  1  0.580480  0.286190  0.550600  1.0  -0.092
  C  C172  1  0.630190  0.301090  0.664400  1.0  0.5649
  C  C173  1  0.491500  0.274700  0.609300  1.0  -0.2066
  C  C174  1  0.537800  0.288500  0.715900  1.0  -0.0322
  C  C175  1  0.578000  0.267200  0.307700  1.0  -0.0562
  C  C176  1  0.531900  0.254300  0.201700  1.0  -0.1654
  C  C177  1  0.233770  0.896320  0.184300  1.0  0.2019
  C  C178  1  0.288240  0.878080  0.485400  1.0  0.1567
  C  C179  1  0.316700  0.854470  0.673800  1.0  -0.1403
  C  C180  1  0.352180  0.883330  0.812400  1.0  0.036
  C  C181  1  0.382040  0.862000  0.014100  1.0  -0.1251
  C  C182  1  0.416640  0.890430  0.150600  1.0  -0.1022
  C  C183  1  0.423100  0.941440  0.084400  1.0  -0.084
  C  C184  1  0.395270  0.963370  0.893000  1.0  -0.1395
  C  C185  1  0.358200  0.935630  0.751300  1.0  0.0369
  C  C186  1  0.327860  0.958740  0.560600  1.0  -0.1984
  C  C187  1  0.293100  0.929490  0.433600  1.0  0.065
  C  C188  1  0.242390  0.988050  0.139400  1.0  0.1396
  C  C189  1  0.213810  0.080480  0.949400  1.0  -0.0921
  C  C190  1  0.198910  0.130190  0.835600  1.0  0.5645
  C  C191  1  0.225300  0.991500  0.890700  1.0  -0.2045
  C  C192  1  0.211500  0.037800  0.784100  1.0  -0.0388
  C  C193  1  0.232800  0.078000  0.192300  1.0  -0.053
  C  C194  1  0.245700  0.031900  0.298300  1.0  -0.1661
  C  C195  1  0.733770  0.396320  0.684300  1.0  0.2019
  C  C196  1  0.788240  0.378080  0.985400  1.0  0.1567
  C  C197  1  0.816700  0.354470  0.173800  1.0  -0.1403
  C  C198  1  0.852180  0.383330  0.312400  1.0  0.036
  C  C199  1  0.882040  0.362000  0.514100  1.0  -0.1251
  C  C200  1  0.916640  0.390430  0.650600  1.0  -0.1022
  C  C201  1  0.923100  0.441440  0.584400  1.0  -0.084
  C  C202  1  0.895270  0.463370  0.393000  1.0  -0.1395
  C  C203  1  0.858200  0.435630  0.251300  1.0  0.0369
  C  C204  1  0.827860  0.458740  0.060600  1.0  -0.1984
  C  C205  1  0.793100  0.429490  0.933600  1.0  0.065
  C  C206  1  0.742390  0.488050  0.639400  1.0  0.1396
  C  C207  1  0.713810  0.580480  0.449400  1.0  -0.0921
  C  C208  1  0.698910  0.630190  0.335600  1.0  0.5645
  C  C209  1  0.725300  0.491500  0.390700  1.0  -0.2045
  C  C210  1  0.711500  0.537800  0.284100  1.0  -0.0388
  C  C211  1  0.732800  0.578000  0.692300  1.0  -0.053
  C  C212  1  0.745700  0.531900  0.798300  1.0  -0.1661
  C  C213  1  0.766230  0.103680  0.184300  1.0  0.2003
  C  C214  1  0.711760  0.121920  0.485400  1.0  0.1566
  C  C215  1  0.683300  0.145530  0.673800  1.0  -0.1426
  C  C216  1  0.647820  0.116670  0.812400  1.0  0.0357
  C  C217  1  0.617960  0.138000  0.014100  1.0  -0.1247
  C  C218  1  0.583360  0.109570  0.150600  1.0  -0.101
  C  C219  1  0.576900  0.058560  0.084400  1.0  -0.0826
  C  C220  1  0.604730  0.036630  0.893000  1.0  -0.1403
  C  C221  1  0.641800  0.064370  0.751300  1.0  0.0369
  C  C222  1  0.672140  0.041260  0.560600  1.0  -0.1987
  C  C223  1  0.706900  0.070510  0.433600  1.0  0.0647
  C  C224  1  0.757610  0.011950  0.139400  1.0  0.1429
  C  C225  1  0.786190  0.919520  0.949400  1.0  -0.0927
  C  C226  1  0.801090  0.869810  0.835600  1.0  0.5641
  C  C227  1  0.774700  0.008500  0.890700  1.0  -0.2039
  C  C228  1  0.788500  0.962200  0.784100  1.0  -0.0352
  C  C229  1  0.767200  0.922000  0.192300  1.0  -0.0531
  C  C230  1  0.754300  0.968100  0.298300  1.0  -0.1657
  C  C231  1  0.266230  0.603680  0.684300  1.0  0.2003
  C  C232  1  0.211760  0.621920  0.985400  1.0  0.1566
  C  C233  1  0.183300  0.645530  0.173800  1.0  -0.1426
  C  C234  1  0.147820  0.616670  0.312400  1.0  0.0357
  C  C235  1  0.117960  0.638000  0.514100  1.0  -0.1247
  C  C236  1  0.083360  0.609570  0.650600  1.0  -0.101
  C  C237  1  0.076900  0.558560  0.584400  1.0  -0.0826
  C  C238  1  0.104730  0.536630  0.393000  1.0  -0.1403
  C  C239  1  0.141800  0.564370  0.251300  1.0  0.0369
  C  C240  1  0.172140  0.541260  0.060600  1.0  -0.1987
  C  C241  1  0.206900  0.570510  0.933600  1.0  0.0647
  C  C242  1  0.257610  0.511950  0.639400  1.0  0.1429
  C  C243  1  0.286190  0.419520  0.449400  1.0  -0.0927
  C  C244  1  0.301090  0.369810  0.335600  1.0  0.5641
  C  C245  1  0.274700  0.508500  0.390700  1.0  -0.2039
  C  C246  1  0.288500  0.462200  0.284100  1.0  -0.0352
  C  C247  1  0.267200  0.422000  0.692300  1.0  -0.0531
  C  C248  1  0.254300  0.468100  0.798300  1.0  -0.1657
  N  N249  1  0.141480  0.250850  0.678600  1.0  -0.4198
  N  N250  1  0.059910  0.257070  0.759200  1.0  -0.033
  N  N251  1  0.641480  0.750850  0.178600  1.0  -0.4198
  N  N252  1  0.559910  0.757070  0.259200  1.0  -0.033
  N  N253  1  0.858520  0.749150  0.678600  1.0  -0.4202
  N  N254  1  0.940090  0.742930  0.759200  1.0  -0.0335
  N  N255  1  0.358520  0.249150  0.178600  1.0  -0.4202
  N  N256  1  0.440090  0.242930  0.259200  1.0  -0.0335
  N  N257  1  0.250850  0.858520  0.321400  1.0  -0.4157
  N  N258  1  0.257070  0.940090  0.240800  1.0  -0.0356
  N  N259  1  0.750850  0.358520  0.821400  1.0  -0.4157
  N  N260  1  0.757070  0.440090  0.740800  1.0  -0.0356
  N  N261  1  0.749150  0.141480  0.321400  1.0  -0.4178
  N  N262  1  0.742930  0.059910  0.240800  1.0  -0.0332
  N  N263  1  0.249150  0.641480  0.821400  1.0  -0.4178
  N  N264  1  0.242930  0.559910  0.740800  1.0  -0.0332
  O  O265  1  0.250800  0.281150  0.886100  1.0  -0.7313
  O  O266  1  0.831660  0.219550  0.073900  1.0  -0.5753
  O  O267  1  0.868500  0.183300  0.410600  1.0  -0.5747
  O  O268  1  0.750800  0.781150  0.386100  1.0  -0.7313
  O  O269  1  0.331660  0.719550  0.573900  1.0  -0.5753
  O  O270  1  0.368500  0.683300  0.910600  1.0  -0.5747
  O  O271  1  0.749200  0.718850  0.886100  1.0  -0.7318
  O  O272  1  0.168340  0.780450  0.073900  1.0  -0.5758
  O  O273  1  0.131500  0.816700  0.410600  1.0  -0.5745
  O  O274  1  0.249200  0.218850  0.386100  1.0  -0.7318
  O  O275  1  0.668340  0.280450  0.573900  1.0  -0.5758
  O  O276  1  0.631500  0.316700  0.910600  1.0  -0.5745
  O  O277  1  0.281150  0.749200  0.113900  1.0  -0.7323
  O  O278  1  0.219550  0.168340  0.926100  1.0  -0.5789
  O  O279  1  0.183300  0.131500  0.589400  1.0  -0.5717
  O  O280  1  0.781150  0.249200  0.613900  1.0  -0.7323
  O  O281  1  0.719550  0.668340  0.426100  1.0  -0.5789
  O  O282  1  0.683300  0.631500  0.089400  1.0  -0.5717
  O  O283  1  0.718850  0.250800  0.113900  1.0  -0.7315
  O  O284  1  0.780450  0.831660  0.926100  1.0  -0.5768
  O  O285  1  0.816700  0.868500  0.589400  1.0  -0.5733
  O  O286  1  0.218850  0.750800  0.613900  1.0  -0.7315
  O  O287  1  0.280450  0.331660  0.426100  1.0  -0.5768
  O  O288  1  0.316700  0.368500  0.089400  1.0  -0.5733
