# generated using pymatgen
data_GdRe6Te8(CN)6
_symmetry_space_group_name_H-M   'P 1'
_cell_length_a   9.24200000
_cell_length_b   12.25190000
_cell_length_c   14.48350000
_cell_angle_alpha   94.95300000
_cell_angle_beta   103.20700000
_cell_angle_gamma   97.46200000
_symmetry_Int_Tables_number   1
_chemical_formula_structural   GdRe6Te8(CN)6
_chemical_formula_sum   'Gd2 Re12 Te16 C12 N12'
_cell_volume   1571.62489324
_cell_formula_units_Z   2
loop_
 _symmetry_equiv_pos_site_id
 _symmetry_equiv_pos_as_xyz
  1  'x, y, z'
loop_
 _atom_site_type_symbol
 _atom_site_label
 _atom_site_symmetry_multiplicity
 _atom_site_fract_x
 _atom_site_fract_y
 _atom_site_fract_z
 _atom_site_occupancy
 _atom_site_charge
  Gd  Gd1  1  0.750590  0.253880  0.756860  1.0  2.0851
  Gd  Gd2  1  0.249410  0.746120  0.243140  1.0  2.0856
  Re  Re3  1  0.506320  0.613800  0.776130  1.0  -0.2099
  Re  Re4  1  0.358040  0.731430  0.877660  1.0  -0.2209
  Re  Re5  1  0.205040  0.585680  0.728160  1.0  -0.2056
  Re  Re6  1  0.361380  0.686510  0.616460  1.0  -0.2165
  Re  Re7  1  0.515280  0.832150  0.766390  1.0  -0.2227
  Re  Re8  1  0.213620  0.804200  0.717310  1.0  -0.2294
  Re  Re9  1  0.493680  0.386200  0.223870  1.0  -0.2095
  Re  Re10  1  0.641960  0.268570  0.122340  1.0  -0.2212
  Re  Re11  1  0.794960  0.414320  0.271840  1.0  -0.2062
  Re  Re12  1  0.638620  0.313490  0.383540  1.0  -0.2168
  Re  Re13  1  0.484720  0.167850  0.233610  1.0  -0.2219
  Re  Re14  1  0.786380  0.195800  0.282690  1.0  -0.2299
  Te  Te15  1  0.350250  0.512760  0.888980  1.0  0.177
  Te  Te16  1  0.661240  0.759790  0.927200  1.0  0.1705
  Te  Te17  1  0.054140  0.704020  0.828860  1.0  0.137
  Te  Te18  1  0.351600  0.467600  0.624700  1.0  0.1112
  Te  Te19  1  0.664980  0.714300  0.664110  1.0  0.1415
  Te  Te20  1  0.367570  0.950830  0.868950  1.0  0.1881
  Te  Te21  1  0.057240  0.656000  0.567120  1.0  0.1448
  Te  Te22  1  0.374120  0.905640  0.606220  1.0  0.1716
  Te  Te23  1  0.649750  0.487240  0.111020  1.0  0.1775
  Te  Te24  1  0.338760  0.240210  0.072800  1.0  0.1693
  Te  Te25  1  0.945860  0.295980  0.171140  1.0  0.1355
  Te  Te26  1  0.648400  0.532400  0.375300  1.0  0.1112
  Te  Te27  1  0.335020  0.285700  0.335890  1.0  0.1411
  Te  Te28  1  0.632430  0.049170  0.131050  1.0  0.1874
  Te  Te29  1  0.942760  0.344000  0.432880  1.0  0.1452
  Te  Te30  1  0.625880  0.094360  0.393780  1.0  0.1717
  C  C31  1  0.662400  0.506900  0.808800  1.0  0.1385
  C  C32  1  0.352200  0.753500  0.021700  1.0  0.1903
  C  C33  1  0.042000  0.447100  0.714600  1.0  0.1983
  C  C34  1  0.361000  0.672500  0.472900  1.0  0.1777
  C  C35  1  0.673800  0.974000  0.783200  1.0  0.117
  C  C36  1  0.053900  0.909700  0.677100  1.0  0.1942
  C  C37  1  0.337600  0.493100  0.191200  1.0  0.1392
  C  C38  1  0.647800  0.246500  0.978300  1.0  0.1874
  C  C39  1  0.958000  0.552900  0.285400  1.0  0.1996
  C  C40  1  0.639000  0.327500  0.527100  1.0  0.18
  C  C41  1  0.326200  0.026000  0.216800  1.0  0.1188
  C  C42  1  0.946100  0.090300  0.322900  1.0  0.1944
  N  N43  1  0.745400  0.443900  0.824100  1.0  -0.5146
  N  N44  1  0.343000  0.762600  0.098300  1.0  -0.4728
  N  N45  1  0.956500  0.369900  0.712300  1.0  -0.515
  N  N46  1  0.356400  0.670700  0.391400  1.0  -0.524
  N  N47  1  0.748100  0.058700  0.790700  1.0  -0.611
  N  N48  1  0.969100  0.968700  0.653800  1.0  -0.3989
  N  N49  1  0.254600  0.556100  0.175900  1.0  -0.5143
  N  N50  1  0.657000  0.237400  0.901700  1.0  -0.4754
  N  N51  1  0.043500  0.630100  0.287700  1.0  -0.5199
  N  N52  1  0.643600  0.329300  0.608600  1.0  -0.5237
  N  N53  1  0.251900  0.941300  0.209300  1.0  -0.6098
  N  N54  1  0.030900  0.031300  0.346200  1.0  -0.3969
